MODEL 1
REMARK VINA RESULT: -8.194196717      0.000      0.000
REMARK  9 active torsions:
REMARK  status: ('A' for Active; 'I' for Inactive)
REMARK    1  A    between atoms: C2_2  and  C3_3 
REMARK    2  A    between atoms: C3_3  and  C4_4 
REMARK    3  A    between atoms: C4_4  and  C5_5 
REMARK    4  A    between atoms: C4_4  and  C8_8 
REMARK    5  A    between atoms: C5_5  and  C6_6 
REMARK    6  A    between atoms: C8_8  and  C9_10 
REMARK    7  A    between atoms: C9_10  and  C10_11 
REMARK    8  A    between atoms: C10_11  and  C11_12 
REMARK    9  A    between atoms: C14_15  and  C15_16 
ROOT
HETATM    1  C9  UNL     1      -3.441  14.129  18.326  1.00  0.00     0.083 C 
ENDROOT
BRANCH   1   2
HETATM    2  C8  UNL     1      -3.329  15.581  18.148  1.00  0.00     0.132 C 
HETATM    3  O1  UNL     1      -2.516  16.212  18.880  1.00  0.00    -0.298 OA
BRANCH   2   4
HETATM    4  C4  UNL     1      -4.053  16.452  17.197  1.00  0.00     0.062 C 
BRANCH   4   5
HETATM    5  C3  UNL     1      -3.499  16.246  15.779  1.00  0.00     0.038 C 
BRANCH   5   6
HETATM    6  C2  UNL     1      -4.371  15.437  14.917  1.00  0.00    -0.036 C 
HETATM    7  C1  UNL     1      -5.133  16.045  14.012  1.00  0.00     0.007 C 
ENDBRANCH   5   6
ENDBRANCH   4   5
BRANCH   4   8
HETATM    8  C5  UNL     1      -3.952  17.928  17.470  1.00  0.00     0.038 C 
BRANCH   8   9
HETATM    9  C6  UNL     1      -4.819  18.732  16.573  1.00  0.00    -0.036 C 
HETATM   10  C7  UNL     1      -4.309  19.628  15.754  1.00  0.00     0.007 C 
ENDBRANCH   8   9
ENDBRANCH   4   8
ENDBRANCH   2   4
ENDBRANCH   1   2
BRANCH   1  11
HETATM   11  C10 UNL     1      -2.384  13.512  19.154  1.00  0.00     0.046 C 
BRANCH  11  12
HETATM   12  C11 UNL     1      -2.534  12.034  19.280  1.00  0.00    -0.052 A 
HETATM   13  C12 UNL     1      -3.670  11.408  18.836  1.00  0.00     0.008 A 
HETATM   14  C13 UNL     1      -3.877  10.049  18.931  1.00  0.00     0.015 A 
HETATM   15  C14 UNL     1      -2.867   9.286  19.509  1.00  0.00     0.002 A 
HETATM   16  C16 UNL     1      -1.728   9.924  19.953  1.00  0.00     0.021 A 
HETATM   17  C17 UNL     1      -1.521  11.285  19.858  1.00  0.00    -0.055 A 
HETATM   18  C18 UNL     1      -0.289  11.946  20.339  1.00  0.00     0.049 C 
BRANCH  15  19
HETATM   19  C15 UNL     1      -3.018   7.849  19.643  1.00  0.00     0.269 C 
HETATM   20  O2  UNL     1      -2.229   7.160  20.331  1.00  0.00    -0.301 OA
ENDBRANCH  15  19
ENDBRANCH  11  12
ENDBRANCH   1  11
TORSDOF 9
ENDMDL
MODEL 2
REMARK VINA RESULT: -8.039035390      0.878      2.569
REMARK  9 active torsions:
REMARK  status: ('A' for Active; 'I' for Inactive)
REMARK    1  A    between atoms: C2_2  and  C3_3 
REMARK    2  A    between atoms: C3_3  and  C4_4 
REMARK    3  A    between atoms: C4_4  and  C5_5 
REMARK    4  A    between atoms: C4_4  and  C8_8 
REMARK    5  A    between atoms: C5_5  and  C6_6 
REMARK    6  A    between atoms: C8_8  and  C9_10 
REMARK    7  A    between atoms: C9_10  and  C10_11 
REMARK    8  A    between atoms: C10_11  and  C11_12 
REMARK    9  A    between atoms: C14_15  and  C15_16 
ROOT
HETATM    1  C9  UNL     1      -2.144  14.698  18.212  1.00  0.00     0.083 C 
ENDROOT
BRANCH   1   2
HETATM    2  C8  UNL     1      -2.711  16.011  17.887  1.00  0.00     0.132 C 
HETATM    3  O1  UNL     1      -2.344  17.007  18.570  1.00  0.00    -0.298 OA
BRANCH   2   4
HETATM    4  C4  UNL     1      -3.687  16.358  16.832  1.00  0.00     0.062 C 
BRANCH   4   5
HETATM    5  C3  UNL     1      -4.879  17.103  17.452  1.00  0.00     0.038 C 
BRANCH   5   6
HETATM    6  C2  UNL     1      -4.997  18.499  17.007  1.00  0.00    -0.036 C 
HETATM    7  C1  UNL     1      -4.289  18.909  15.960  1.00  0.00     0.007 C 
ENDBRANCH   5   6
ENDBRANCH   4   5
BRANCH   4   8
HETATM    8  C5  UNL     1      -4.273  15.189  16.086  1.00  0.00     0.038 C 
BRANCH   8   9
HETATM    9  C6  UNL     1      -4.220  15.371  14.614  1.00  0.00    -0.036 C 
HETATM   10  C7  UNL     1      -5.210  15.943  13.961  1.00  0.00     0.007 C 
ENDBRANCH   8   9
ENDBRANCH   4   8
ENDBRANCH   2   4
ENDBRANCH   1   2
BRANCH   1  11
HETATM   11  C10 UNL     1      -2.675  14.069  19.439  1.00  0.00     0.046 C 
BRANCH  11  12
HETATM   12  C11 UNL     1      -2.378  12.610  19.520  1.00  0.00    -0.052 A 
HETATM   13  C12 UNL     1      -1.174  12.170  20.007  1.00  0.00     0.008 A 
HETATM   14  C13 UNL     1      -0.832  10.838  20.099  1.00  0.00     0.015 A 
HETATM   15  C14 UNL     1      -1.771   9.903  19.673  1.00  0.00     0.002 A 
HETATM   16  C16 UNL     1      -2.979  10.356  19.186  1.00  0.00     0.021 A 
HETATM   17  C17 UNL     1      -3.321  11.690  19.093  1.00  0.00    -0.055 A 
HETATM   18  C18 UNL     1      -4.625  12.150  18.568  1.00  0.00     0.049 C 
BRANCH  15  19
HETATM   19  C15 UNL     1      -1.477   8.484  19.741  1.00  0.00     0.269 C 
HETATM   20  O2  UNL     1      -2.126   7.707  20.479  1.00  0.00    -0.301 OA
ENDBRANCH  15  19
ENDBRANCH  11  12
ENDBRANCH   1  11
TORSDOF 9
ENDMDL
MODEL 3
REMARK VINA RESULT: -8.033689868      0.880      1.750
REMARK  9 active torsions:
REMARK  status: ('A' for Active; 'I' for Inactive)
REMARK    1  A    between atoms: C2_2  and  C3_3 
REMARK    2  A    between atoms: C3_3  and  C4_4 
REMARK    3  A    between atoms: C4_4  and  C5_5 
REMARK    4  A    between atoms: C4_4  and  C8_8 
REMARK    5  A    between atoms: C5_5  and  C6_6 
REMARK    6  A    between atoms: C8_8  and  C9_10 
REMARK    7  A    between atoms: C9_10  and  C10_11 
REMARK    8  A    between atoms: C10_11  and  C11_12 
REMARK    9  A    between atoms: C14_15  and  C15_16 
ROOT
HETATM    1  C9  UNL     1      -2.330  14.930  18.075  1.00  0.00     0.083 C 
ENDROOT
BRANCH   1   2
HETATM    2  C8  UNL     1      -3.072  16.184  17.904  1.00  0.00     0.132 C 
HETATM    3  O1  UNL     1      -2.800  17.150  18.671  1.00  0.00    -0.298 OA
BRANCH   2   4
HETATM    4  C4  UNL     1      -4.131  16.501  16.923  1.00  0.00     0.062 C 
BRANCH   4   5
HETATM    5  C3  UNL     1      -3.631  16.197  15.502  1.00  0.00     0.038 C 
BRANCH   5   6
HETATM    6  C2  UNL     1      -4.467  15.231  14.776  1.00  0.00    -0.036 C 
HETATM    7  C1  UNL     1      -5.193  15.649  13.743  1.00  0.00     0.007 C 
ENDBRANCH   5   6
ENDBRANCH   4   5
BRANCH   4   8
HETATM    8  C5  UNL     1      -4.584  17.936  16.903  1.00  0.00     0.038 C 
BRANCH   8   9
HETATM    9  C6  UNL     1      -4.133  18.657  15.686  1.00  0.00    -0.036 C 
HETATM   10  C7  UNL     1      -4.460  19.916  15.479  1.00  0.00     0.007 C 
ENDBRANCH   8   9
ENDBRANCH   4   8
ENDBRANCH   2   4
ENDBRANCH   1   2
BRANCH   1  11
HETATM   11  C10 UNL     1      -2.342  14.374  19.444  1.00  0.00     0.046 C 
BRANCH  11  12
HETATM   12  C11 UNL     1      -2.298  12.884  19.466  1.00  0.00    -0.052 A 
HETATM   13  C12 UNL     1      -1.171  12.226  19.889  1.00  0.00     0.008 A 
HETATM   14  C13 UNL     1      -1.060  10.853  19.925  1.00  0.00     0.015 A 
HETATM   15  C14 UNL     1      -2.160  10.109  19.509  1.00  0.00     0.002 A 
HETATM   16  C16 UNL     1      -3.289  10.779  19.087  1.00  0.00     0.021 A 
HETATM   17  C17 UNL     1      -3.400  12.155  19.050  1.00  0.00    -0.055 A 
HETATM   18  C18 UNL     1      -4.623  12.850  18.594  1.00  0.00     0.049 C 
BRANCH  15  19
HETATM   19  C15 UNL     1      -2.112   8.659  19.520  1.00  0.00     0.269 C 
HETATM   20  O2  UNL     1      -1.247   8.029  20.172  1.00  0.00    -0.301 OA
ENDBRANCH  15  19
ENDBRANCH  11  12
ENDBRANCH   1  11
TORSDOF 9
ENDMDL
MODEL 4
REMARK VINA RESULT: -7.969081526      1.936      7.979
REMARK  9 active torsions:
REMARK  status: ('A' for Active; 'I' for Inactive)
REMARK    1  A    between atoms: C2_2  and  C3_3 
REMARK    2  A    between atoms: C3_3  and  C4_4 
REMARK    3  A    between atoms: C4_4  and  C5_5 
REMARK    4  A    between atoms: C4_4  and  C8_8 
REMARK    5  A    between atoms: C5_5  and  C6_6 
REMARK    6  A    between atoms: C8_8  and  C9_10 
REMARK    7  A    between atoms: C9_10  and  C10_11 
REMARK    8  A    between atoms: C10_11  and  C11_12 
REMARK    9  A    between atoms: C14_15  and  C15_16 
ROOT
HETATM    1  C9  UNL     1      -1.225  11.196  19.510  1.00  0.00     0.083 C 
ENDROOT
BRANCH   1   2
HETATM    2  C8  UNL     1      -1.699  10.040  18.740  1.00  0.00     0.132 C 
HETATM    3  O1  UNL     1      -1.840  10.170  17.492  1.00  0.00    -0.298 OA
BRANCH   2   4
HETATM    4  C4  UNL     1      -2.049   8.689  19.227  1.00  0.00     0.062 C 
BRANCH   4   5
HETATM    5  C3  UNL     1      -3.420   8.725  19.918  1.00  0.00     0.038 C 
BRANCH   5   6
HETATM    6  C2  UNL     1      -4.508   8.171  19.100  1.00  0.00    -0.036 C 
HETATM    7  C1  UNL     1      -4.304   7.045  18.425  1.00  0.00     0.007 C 
ENDBRANCH   5   6
ENDBRANCH   4   5
BRANCH   4   8
HETATM    8  C5  UNL     1      -1.096   8.099  20.231  1.00  0.00     0.038 C 
BRANCH   8   9
HETATM    9  C6  UNL     1      -1.215   6.622  20.328  1.00  0.00    -0.036 C 
HETATM   10  C7  UNL     1      -0.148   5.855  20.404  1.00  0.00     0.007 C 
ENDBRANCH   8   9
ENDBRANCH   4   8
ENDBRANCH   2   4
ENDBRANCH   1   2
BRANCH   1  11
HETATM   11  C10 UNL     1      -2.283  12.003  20.151  1.00  0.00     0.046 C 
BRANCH  11  12
HETATM   12  C11 UNL     1      -2.670  13.197  19.347  1.00  0.00    -0.052 A 
HETATM   13  C12 UNL     1      -1.882  14.320  19.345  1.00  0.00     0.008 A 
HETATM   14  C13 UNL     1      -2.185  15.461  18.633  1.00  0.00     0.015 A 
HETATM   15  C14 UNL     1      -3.355  15.455  17.880  1.00  0.00     0.002 A 
HETATM   16  C16 UNL     1      -4.141  14.321  17.888  1.00  0.00     0.021 A 
HETATM   17  C17 UNL     1      -3.837  13.179  18.601  1.00  0.00    -0.055 A 
HETATM   18  C18 UNL     1      -4.695  11.974  18.591  1.00  0.00     0.049 C 
BRANCH  15  19
HETATM   19  C15 UNL     1      -3.737  16.622  17.108  1.00  0.00     0.269 C 
HETATM   20  O2  UNL     1      -4.162  17.668  17.652  1.00  0.00    -0.301 OA
ENDBRANCH  15  19
ENDBRANCH  11  12
ENDBRANCH   1  11
TORSDOF 9
ENDMDL
MODEL 5
REMARK VINA RESULT: -7.917569747      1.866      7.912
REMARK  9 active torsions:
REMARK  status: ('A' for Active; 'I' for Inactive)
REMARK    1  A    between atoms: C2_2  and  C3_3 
REMARK    2  A    between atoms: C3_3  and  C4_4 
REMARK    3  A    between atoms: C4_4  and  C5_5 
REMARK    4  A    between atoms: C4_4  and  C8_8 
REMARK    5  A    between atoms: C5_5  and  C6_6 
REMARK    6  A    between atoms: C8_8  and  C9_10 
REMARK    7  A    between atoms: C9_10  and  C10_11 
REMARK    8  A    between atoms: C10_11  and  C11_12 
REMARK    9  A    between atoms: C14_15  and  C15_16 
ROOT
HETATM    1  C9  UNL     1      -1.108  11.609  19.613  1.00  0.00     0.083 C 
ENDROOT
BRANCH   1   2
HETATM    2  C8  UNL     1      -1.498  10.328  19.013  1.00  0.00     0.132 C 
HETATM    3  O1  UNL     1      -1.239  10.135  17.792  1.00  0.00    -0.298 OA
BRANCH   2   4
HETATM    4  C4  UNL     1      -2.176   9.179  19.652  1.00  0.00     0.062 C 
BRANCH   4   5
HETATM    5  C3  UNL     1      -1.131   8.152  20.114  1.00  0.00     0.038 C 
BRANCH   5   6
HETATM    6  C2  UNL     1      -1.690   6.819  20.375  1.00  0.00    -0.036 C 
HETATM    7  C1  UNL     1      -0.873   5.771  20.423  1.00  0.00     0.007 C 
ENDBRANCH   5   6
ENDBRANCH   4   5
BRANCH   4   8
HETATM    8  C5  UNL     1      -3.136   8.425  18.772  1.00  0.00     0.038 C 
BRANCH   8   9
HETATM    9  C6  UNL     1      -4.541   8.536  19.238  1.00  0.00    -0.036 C 
HETATM   10  C7  UNL     1      -5.350   7.498  19.216  1.00  0.00     0.007 C 
ENDBRANCH   8   9
ENDBRANCH   4   8
ENDBRANCH   2   4
ENDBRANCH   1   2
BRANCH   1  11
HETATM   11  C10 UNL     1      -2.215  12.393  20.198  1.00  0.00     0.046 C 
BRANCH  11  12
HETATM   12  C11 UNL     1      -2.659  13.514  19.321  1.00  0.00    -0.052 A 
HETATM   13  C12 UNL     1      -1.948  14.685  19.273  1.00  0.00     0.008 A 
HETATM   14  C13 UNL     1      -2.308  15.763  18.493  1.00  0.00     0.015 A 
HETATM   15  C14 UNL     1      -3.456  15.638  17.717  1.00  0.00     0.002 A 
HETATM   16  C16 UNL     1      -4.165  14.456  17.771  1.00  0.00     0.021 A 
HETATM   17  C17 UNL     1      -3.804  13.377  18.553  1.00  0.00    -0.055 A 
HETATM   18  C18 UNL     1      -4.580  12.118  18.592  1.00  0.00     0.049 C 
BRANCH  15  19
HETATM   19  C15 UNL     1      -3.894  16.733  16.872  1.00  0.00     0.269 C 
HETATM   20  O2  UNL     1      -4.507  17.723  17.336  1.00  0.00    -0.301 OA
ENDBRANCH  15  19
ENDBRANCH  11  12
ENDBRANCH   1  11
TORSDOF 9
ENDMDL
