MODEL 1
REMARK VINA RESULT: -7.364461756      0.000      0.000
REMARK  9 active torsions:
REMARK  status: ('A' for Active; 'I' for Inactive)
REMARK    1  A    between atoms: O1_2  and  C2_3 
REMARK    2  A    between atoms: C9_10  and  C10_11 
REMARK    3  A    between atoms: C10_11  and  C11_12 
REMARK    4  A    between atoms: C11_12  and  C12_13 
REMARK    5  A    between atoms: C12_13  and  C13_14 
REMARK    6  A    between atoms: C13_14  and  C14_15 
REMARK    7  A    between atoms: C14_15  and  C15_16 
REMARK    8  A    between atoms: C15_16  and  C16_17 
REMARK    9  A    between atoms: C16_17  and  O2_20 
ROOT
HETATM    1  C10 UNL     1      -2.793  12.760  18.807  1.00  0.00     0.041 C 
ENDROOT
BRANCH   1   2
HETATM    2  C9  UNL     1      -2.604  11.333  19.189  1.00  0.00    -0.024 A 
HETATM    3  C2  UNL     1      -1.454  10.858  19.762  1.00  0.00     0.075 A 
HETATM    4  C3  UNL     1      -1.368   9.526  20.085  1.00  0.00     0.044 A 
HETATM    5  C4  UNL     1      -2.396   8.623  19.860  1.00  0.00    -0.053 A 
HETATM    6  C5  UNL     1      -2.288   7.187  20.215  1.00  0.00     0.049 C 
HETATM    7  C6  UNL     1      -3.537   9.128  19.285  1.00  0.00    -0.055 A 
HETATM    8  C7  UNL     1      -4.668   8.184  19.026  1.00  0.00     0.049 C 
HETATM    9  C8  UNL     1      -3.636  10.456  18.957  1.00  0.00     0.017 A 
BRANCH   3  10
HETATM   10  O1  UNL     1      -0.395  11.712  20.011  1.00  0.00    -0.355 OA
HETATM   11  C1  UNL     1      -0.081  12.094  21.344  1.00  0.00     0.210 C 
ENDBRANCH   3  10
ENDBRANCH   1   2
BRANCH   1  12
HETATM   12  C11 UNL     1      -4.175  12.992  18.272  1.00  0.00     0.005 C 
BRANCH  12  13
HETATM   13  C12 UNL     1      -4.437  14.422  17.912  1.00  0.00     0.000 C 
BRANCH  13  14
HETATM   14  C13 UNL     1      -3.324  15.370  18.337  1.00  0.00     0.000 C 
BRANCH  14  15
HETATM   15  C14 UNL     1      -3.169  16.551  17.454  1.00  0.00     0.003 C 
BRANCH  15  16
HETATM   16  C15 UNL     1      -3.467  16.423  16.019  1.00  0.00     0.037 C 
BRANCH  16  17
HETATM   17  C16 UNL     1      -4.510  17.262  15.402  1.00  0.00     0.051 C 
HETATM   18  C17 UNL     1      -5.091  16.429  14.230  1.00  0.00     0.045 C 
HETATM   19  C18 UNL     1      -4.127  18.565  14.794  1.00  0.00     0.045 C 
BRANCH  17  20
HETATM   20  O2  UNL     1      -5.599  17.498  16.253  1.00  0.00    -0.391 OA
ATOM     21  H2  UNL     1      -6.414  17.141  15.922  1.00  0.00     0.210 HD
ENDBRANCH  17  20
ENDBRANCH  16  17
ENDBRANCH  15  16
ENDBRANCH  14  15
ENDBRANCH  13  14
ENDBRANCH  12  13
ENDBRANCH   1  12
TORSDOF 9
ENDMDL
MODEL 2
REMARK VINA RESULT: -7.279077465      2.196      4.235
REMARK  9 active torsions:
REMARK  status: ('A' for Active; 'I' for Inactive)
REMARK    1  A    between atoms: O1_2  and  C2_3 
REMARK    2  A    between atoms: C9_10  and  C10_11 
REMARK    3  A    between atoms: C10_11  and  C11_12 
REMARK    4  A    between atoms: C11_12  and  C12_13 
REMARK    5  A    between atoms: C12_13  and  C13_14 
REMARK    6  A    between atoms: C13_14  and  C14_15 
REMARK    7  A    between atoms: C14_15  and  C15_16 
REMARK    8  A    between atoms: C15_16  and  C16_17 
REMARK    9  A    between atoms: C16_17  and  O2_20 
ROOT
HETATM    1  C10 UNL     1      -2.601   9.631  19.521  1.00  0.00     0.041 C 
ENDROOT
BRANCH   1   2
HETATM    2  C9  UNL     1      -2.509   8.204  19.936  1.00  0.00    -0.024 A 
HETATM    3  C2  UNL     1      -3.608   7.418  20.166  1.00  0.00     0.075 A 
HETATM    4  C3  UNL     1      -3.429   6.110  20.543  1.00  0.00     0.044 A 
HETATM    5  C4  UNL     1      -2.180   5.533  20.706  1.00  0.00    -0.053 A 
HETATM    6  C5  UNL     1      -2.002   4.118  21.115  1.00  0.00     0.049 C 
HETATM    7  C6  UNL     1      -1.096   6.344  20.469  1.00  0.00    -0.055 A 
HETATM    8  C7  UNL     1       0.270   5.756  20.636  1.00  0.00     0.049 C 
HETATM    9  C8  UNL     1      -1.260   7.652  20.093  1.00  0.00     0.017 A 
BRANCH   3  10
HETATM   10  O1  UNL     1      -4.881   7.940  20.018  1.00  0.00    -0.355 OA
HETATM   11  C1  UNL     1      -5.743   7.448  19.000  1.00  0.00     0.210 C 
ENDBRANCH   3  10
ENDBRANCH   1   2
BRANCH   1  12
HETATM   12  C11 UNL     1      -1.261  10.298  19.599  1.00  0.00     0.005 C 
BRANCH  12  13
HETATM   13  C12 UNL     1      -1.335  11.722  20.058  1.00  0.00     0.000 C 
BRANCH  13  14
HETATM   14  C13 UNL     1      -2.624  12.424  19.656  1.00  0.00     0.000 C 
BRANCH  14  15
HETATM   15  C14 UNL     1      -2.415  13.703  18.935  1.00  0.00     0.003 C 
BRANCH  15  16
HETATM   16  C15 UNL     1      -3.518  14.277  18.150  1.00  0.00     0.037 C 
BRANCH  16  17
HETATM   17  C16 UNL     1      -3.440  15.668  17.669  1.00  0.00     0.051 C 
HETATM   18  C17 UNL     1      -2.445  16.391  18.614  1.00  0.00     0.045 C 
HETATM   19  C18 UNL     1      -4.666  16.511  17.685  1.00  0.00     0.045 C 
BRANCH  17  20
HETATM   20  O2  UNL     1      -2.871  15.776  16.393  1.00  0.00    -0.391 OA
ATOM     21  H2  UNL     1      -2.530  16.643  16.210  1.00  0.00     0.210 HD
ENDBRANCH  17  20
ENDBRANCH  16  17
ENDBRANCH  15  16
ENDBRANCH  14  15
ENDBRANCH  13  14
ENDBRANCH  12  13
ENDBRANCH   1  12
TORSDOF 9
ENDMDL
MODEL 3
REMARK VINA RESULT: -7.236564833      2.063      3.502
REMARK  9 active torsions:
REMARK  status: ('A' for Active; 'I' for Inactive)
REMARK    1  A    between atoms: O1_2  and  C2_3 
REMARK    2  A    between atoms: C9_10  and  C10_11 
REMARK    3  A    between atoms: C10_11  and  C11_12 
REMARK    4  A    between atoms: C11_12  and  C12_13 
REMARK    5  A    between atoms: C12_13  and  C13_14 
REMARK    6  A    between atoms: C13_14  and  C14_15 
REMARK    7  A    between atoms: C14_15  and  C15_16 
REMARK    8  A    between atoms: C15_16  and  C16_17 
REMARK    9  A    between atoms: C16_17  and  O2_20 
ROOT
HETATM    1  C10 UNL     1      -1.620   9.730  19.641  1.00  0.00     0.041 C 
ENDROOT
BRANCH   1   2
HETATM    2  C9  UNL     1      -2.560   8.575  19.676  1.00  0.00    -0.024 A 
HETATM    3  C2  UNL     1      -2.177   7.308  20.032  1.00  0.00     0.075 A 
HETATM    4  C3  UNL     1      -3.113   6.303  20.039  1.00  0.00     0.044 A 
HETATM    5  C4  UNL     1      -4.442   6.503  19.702  1.00  0.00    -0.053 A 
HETATM    6  C5  UNL     1      -5.442   5.407  19.713  1.00  0.00     0.049 C 
HETATM    7  C6  UNL     1      -4.797   7.783  19.349  1.00  0.00    -0.055 A 
HETATM    8  C7  UNL     1      -6.224   8.037  18.978  1.00  0.00     0.049 C 
HETATM    9  C8  UNL     1      -3.873   8.796  19.338  1.00  0.00     0.017 A 
BRANCH   3  10
HETATM   10  O1  UNL     1      -0.863   7.049  20.379  1.00  0.00    -0.355 OA
HETATM   11  C1  UNL     1      -0.375   5.714  20.390  1.00  0.00     0.210 C 
ENDBRANCH   3  10
ENDBRANCH   1   2
BRANCH   1  12
HETATM   12  C11 UNL     1      -2.006  10.701  18.567  1.00  0.00     0.005 C 
BRANCH  12  13
HETATM   13  C12 UNL     1      -2.285  12.078  19.087  1.00  0.00     0.000 C 
BRANCH  13  14
HETATM   14  C13 UNL     1      -3.728  12.520  18.891  1.00  0.00     0.000 C 
BRANCH  14  15
HETATM   15  C14 UNL     1      -3.916  13.493  17.789  1.00  0.00     0.003 C 
BRANCH  15  16
HETATM   16  C15 UNL     1      -4.321  14.872  18.104  1.00  0.00     0.037 C 
BRANCH  16  17
HETATM   17  C16 UNL     1      -3.456  16.003  17.727  1.00  0.00     0.051 C 
HETATM   18  C17 UNL     1      -2.280  15.998  18.738  1.00  0.00     0.045 C 
HETATM   19  C18 UNL     1      -4.004  17.385  17.782  1.00  0.00     0.045 C 
BRANCH  17  20
HETATM   20  O2  UNL     1      -2.855  15.839  16.471  1.00  0.00    -0.391 OA
ATOM     21  H2  UNL     1      -2.551  16.656  16.095  1.00  0.00     0.210 HD
ENDBRANCH  17  20
ENDBRANCH  16  17
ENDBRANCH  15  16
ENDBRANCH  14  15
ENDBRANCH  13  14
ENDBRANCH  12  13
ENDBRANCH   1  12
TORSDOF 9
ENDMDL
MODEL 4
REMARK VINA RESULT: -7.156014695      1.631      7.802
REMARK  9 active torsions:
REMARK  status: ('A' for Active; 'I' for Inactive)
REMARK    1  A    between atoms: O1_2  and  C2_3 
REMARK    2  A    between atoms: C9_10  and  C10_11 
REMARK    3  A    between atoms: C10_11  and  C11_12 
REMARK    4  A    between atoms: C11_12  and  C12_13 
REMARK    5  A    between atoms: C12_13  and  C13_14 
REMARK    6  A    between atoms: C13_14  and  C14_15 
REMARK    7  A    between atoms: C14_15  and  C15_16 
REMARK    8  A    between atoms: C15_16  and  C16_17 
REMARK    9  A    between atoms: C16_17  and  O2_20 
ROOT
HETATM    1  C10 UNL     1      -3.593  14.132  17.071  1.00  0.00     0.041 C 
ENDROOT
BRANCH   1   2
HETATM    2  C9  UNL     1      -3.832  15.557  16.710  1.00  0.00    -0.024 A 
HETATM    3  C2  UNL     1      -3.590  16.598  17.568  1.00  0.00     0.075 A 
HETATM    4  C3  UNL     1      -3.836  17.882  17.149  1.00  0.00     0.044 A 
HETATM    5  C4  UNL     1      -4.323  18.188  15.888  1.00  0.00    -0.053 A 
HETATM    6  C5  UNL     1      -4.585  19.580  15.449  1.00  0.00     0.049 C 
HETATM    7  C6  UNL     1      -4.556  17.124  15.049  1.00  0.00    -0.055 A 
HETATM    8  C7  UNL     1      -5.083  17.415  13.679  1.00  0.00     0.049 C 
HETATM    9  C8  UNL     1      -4.315  15.837  15.454  1.00  0.00     0.017 A 
BRANCH   3  10
HETATM   10  O1  UNL     1      -3.102  16.354  18.839  1.00  0.00    -0.355 OA
HETATM   11  C1  UNL     1      -1.703  16.224  19.058  1.00  0.00     0.210 C 
ENDBRANCH   3  10
ENDBRANCH   1   2
BRANCH   1  12
HETATM   12  C11 UNL     1      -4.531  13.691  18.155  1.00  0.00     0.005 C 
BRANCH  12  13
HETATM   13  C12 UNL     1      -4.015  12.529  18.947  1.00  0.00     0.000 C 
BRANCH  13  14
HETATM   14  C13 UNL     1      -2.836  12.880  19.843  1.00  0.00     0.000 C 
BRANCH  14  15
HETATM   15  C14 UNL     1      -1.605  12.108  19.549  1.00  0.00     0.003 C 
BRANCH  15  16
HETATM   16  C15 UNL     1      -1.419  10.785  20.166  1.00  0.00     0.037 C 
BRANCH  16  17
HETATM   17  C16 UNL     1      -1.814   9.567  19.438  1.00  0.00     0.051 C 
HETATM   18  C17 UNL     1      -1.565   9.865  17.937  1.00  0.00     0.045 C 
HETATM   19  C18 UNL     1      -3.227   9.105  19.508  1.00  0.00     0.045 C 
BRANCH  17  20
HETATM   20  O2  UNL     1      -0.997   8.465  19.728  1.00  0.00    -0.391 OA
ATOM     21  H2  UNL     1      -0.074   8.638  19.586  1.00  0.00     0.210 HD
ENDBRANCH  17  20
ENDBRANCH  16  17
ENDBRANCH  15  16
ENDBRANCH  14  15
ENDBRANCH  13  14
ENDBRANCH  12  13
ENDBRANCH   1  12
TORSDOF 9
ENDMDL
MODEL 5
REMARK VINA RESULT: -7.134431676      1.763      7.913
REMARK  9 active torsions:
REMARK  status: ('A' for Active; 'I' for Inactive)
REMARK    1  A    between atoms: O1_2  and  C2_3 
REMARK    2  A    between atoms: C9_10  and  C10_11 
REMARK    3  A    between atoms: C10_11  and  C11_12 
REMARK    4  A    between atoms: C11_12  and  C12_13 
REMARK    5  A    between atoms: C12_13  and  C13_14 
REMARK    6  A    between atoms: C13_14  and  C14_15 
REMARK    7  A    between atoms: C14_15  and  C15_16 
REMARK    8  A    between atoms: C15_16  and  C16_17 
REMARK    9  A    between atoms: C16_17  and  O2_20 
ROOT
HETATM    1  C10 UNL     1      -3.315  14.094  18.157  1.00  0.00     0.041 C 
ENDROOT
BRANCH   1   2
HETATM    2  C9  UNL     1      -3.700  15.181  17.214  1.00  0.00    -0.024 A 
HETATM    3  C2  UNL     1      -3.600  16.512  17.525  1.00  0.00     0.075 A 
HETATM    4  C3  UNL     1      -3.975  17.447  16.592  1.00  0.00     0.044 A 
HETATM    5  C4  UNL     1      -4.457  17.115  15.336  1.00  0.00    -0.053 A 
HETATM    6  C5  UNL     1      -4.859  18.136  14.339  1.00  0.00     0.049 C 
HETATM    7  C6  UNL     1      -4.546  15.773  15.052  1.00  0.00    -0.055 A 
HETATM    8  C7  UNL     1      -5.062  15.375  13.705  1.00  0.00     0.049 C 
HETATM    9  C8  UNL     1      -4.175  14.828  15.974  1.00  0.00     0.017 A 
BRANCH   3  10
HETATM   10  O1  UNL     1      -3.126  16.904  18.764  1.00  0.00    -0.355 OA
HETATM   11  C1  UNL     1      -1.779  16.636  19.133  1.00  0.00     0.210 C 
ENDBRANCH   3  10
ENDBRANCH   1   2
BRANCH   1  12
HETATM   12  C11 UNL     1      -4.361  13.020  18.189  1.00  0.00     0.005 C 
BRANCH  12  13
HETATM   13  C12 UNL     1      -3.830  11.691  18.630  1.00  0.00     0.000 C 
BRANCH  13  14
HETATM   14  C13 UNL     1      -2.310  11.609  18.617  1.00  0.00     0.000 C 
BRANCH  14  15
HETATM   15  C14 UNL     1      -1.781  10.228  18.511  1.00  0.00     0.003 C 
BRANCH  15  16
HETATM   16  C15 UNL     1      -1.668   9.404  19.724  1.00  0.00     0.037 C 
BRANCH  16  17
HETATM   17  C16 UNL     1      -2.627   8.312  19.970  1.00  0.00     0.051 C 
HETATM   18  C17 UNL     1      -1.774   7.043  20.227  1.00  0.00     0.045 C 
HETATM   19  C18 UNL     1      -3.577   7.925  18.892  1.00  0.00     0.045 C 
BRANCH  17  20
HETATM   20  O2  UNL     1      -3.373   8.492  21.143  1.00  0.00    -0.391 OA
ATOM     21  H2  UNL     1      -3.900   7.734  21.368  1.00  0.00     0.210 HD
ENDBRANCH  17  20
ENDBRANCH  16  17
ENDBRANCH  15  16
ENDBRANCH  14  15
ENDBRANCH  13  14
ENDBRANCH  12  13
ENDBRANCH   1  12
TORSDOF 9
ENDMDL
