MODEL 1
REMARK VINA RESULT: -7.433694540      0.000      0.000
REMARK  10 active torsions:
REMARK  status: ('A' for Active; 'I' for Inactive)
REMARK    1  A    between atoms: C2_2  and  C3_3 
REMARK    2  A    between atoms: C5_5  and  C6_6 
REMARK    3  A    between atoms: C6_6  and  C7_7 
REMARK    4  A    between atoms: C7_7  and  C8_8 
REMARK    5  A    between atoms: C14_14  and  O1_15 
REMARK    6  A    between atoms: O1_15  and  C15_16 
REMARK    7  A    between atoms: C15_16  and  C16_17 
REMARK    8  A    between atoms: C16_17  and  C17_18 
REMARK    9  A    between atoms: C17_18  and  C18_19 
REMARK   10  A    between atoms: C18_19  and  O2_20 
ROOT
HETATM    1  C8  UNL     1      -3.184  11.816  19.306  1.00  0.00    -0.024 A 
HETATM    2  C9  UNL     1      -2.122  12.599  19.687  1.00  0.00     0.010 A 
HETATM    3  C10 UNL     1      -0.927  12.093  20.114  1.00  0.00     0.001 A 
HETATM    4  C11 UNL     1      -0.778  10.742  20.164  1.00  0.00     0.009 A 
HETATM    5  C12 UNL     1      -1.848   9.918  19.782  1.00  0.00    -0.028 A 
HETATM    6  C13 UNL     1      -1.566   8.474  19.882  1.00  0.00     0.051 C 
HETATM    7  C14 UNL     1      -3.059  10.409  19.352  1.00  0.00     0.081 A 
ENDROOT
BRANCH   1   8
HETATM    8  C7  UNL     1      -4.371  12.530  18.809  1.00  0.00     0.045 C 
BRANCH   8   9
HETATM    9  C6  UNL     1      -4.043  13.418  17.619  1.00  0.00     0.032 C 
BRANCH   9  10
HETATM   10  C5  UNL     1      -4.114  14.835  18.058  1.00  0.00    -0.024 C 
HETATM   11  C3  UNL     1      -3.823  15.884  17.324  1.00  0.00    -0.088 C 
HETATM   12  C4  UNL     1      -3.956  17.258  17.952  1.00  0.00     0.043 C 
BRANCH  11  13
HETATM   13  C2  UNL     1      -3.366  15.881  15.919  1.00  0.00     0.029 C 
HETATM   14  C1  UNL     1      -4.509  16.002  14.920  1.00  0.00     0.010 C 
ENDBRANCH  11  13
ENDBRANCH   9  10
ENDBRANCH   8   9
ENDBRANCH   1   8
BRANCH   7  15
HETATM   15  O1  UNL     1      -4.095   9.693  18.990  1.00  0.00    -0.350 OA
BRANCH  15  16
HETATM   16  C15 UNL     1      -4.997   8.755  19.161  1.00  0.00     0.176 C 
BRANCH  16  17
HETATM   17  C16 UNL     1      -4.897   7.320  18.849  1.00  0.00     0.029 C 
BRANCH  17  18
HETATM   18  C17 UNL     1      -6.108   6.642  18.292  1.00  0.00     0.028 C 
BRANCH  18  19
HETATM   19  C18 UNL     1      -6.399   5.326  19.011  1.00  0.00     0.164 C 
BRANCH  19  20
HETATM   20  O2  UNL     1      -7.423   5.449  19.933  1.00  0.00    -0.401 OA
ATOM     21  H2  UNL     1      -8.262   5.178  19.577  1.00  0.00     0.209 HD
ENDBRANCH  19  20
ENDBRANCH  18  19
ENDBRANCH  17  18
ENDBRANCH  16  17
ENDBRANCH  15  16
ENDBRANCH   7  15
TORSDOF 10
ENDMDL
MODEL 2
REMARK VINA RESULT: -7.325829186      1.390      2.231
REMARK  10 active torsions:
REMARK  status: ('A' for Active; 'I' for Inactive)
REMARK    1  A    between atoms: C2_2  and  C3_3 
REMARK    2  A    between atoms: C5_5  and  C6_6 
REMARK    3  A    between atoms: C6_6  and  C7_7 
REMARK    4  A    between atoms: C7_7  and  C8_8 
REMARK    5  A    between atoms: C14_14  and  O1_15 
REMARK    6  A    between atoms: O1_15  and  C15_16 
REMARK    7  A    between atoms: C15_16  and  C16_17 
REMARK    8  A    between atoms: C16_17  and  C17_18 
REMARK    9  A    between atoms: C17_18  and  C18_19 
REMARK   10  A    between atoms: C18_19  and  O2_20 
ROOT
HETATM    1  C8  UNL     1      -3.396  10.049  19.150  1.00  0.00    -0.024 A 
HETATM    2  C9  UNL     1      -2.122  10.444  19.477  1.00  0.00     0.010 A 
HETATM    3  C10 UNL     1      -1.161   9.589  19.937  1.00  0.00     0.001 A 
HETATM    4  C11 UNL     1      -1.480   8.275  20.079  1.00  0.00     0.009 A 
HETATM    5  C12 UNL     1      -2.776   7.843  19.753  1.00  0.00    -0.028 A 
HETATM    6  C13 UNL     1      -3.000   6.399  19.951  1.00  0.00     0.051 C 
HETATM    7  C14 UNL     1      -3.757   8.690  19.291  1.00  0.00     0.081 A 
ENDROOT
BRANCH   1   8
HETATM    8  C7  UNL     1      -4.280  11.092  18.606  1.00  0.00     0.045 C 
BRANCH   8   9
HETATM    9  C6  UNL     1      -3.924  12.472  19.136  1.00  0.00     0.032 C 
BRANCH   9  10
HETATM   10  C5  UNL     1      -4.171  13.466  18.060  1.00  0.00    -0.024 C 
HETATM   11  C3  UNL     1      -3.486  14.567  17.856  1.00  0.00    -0.088 C 
HETATM   12  C4  UNL     1      -3.893  15.461  16.701  1.00  0.00     0.043 C 
BRANCH  11  13
HETATM   13  C2  UNL     1      -2.332  15.049  18.643  1.00  0.00     0.029 C 
HETATM   14  C1  UNL     1      -2.303  16.564  18.792  1.00  0.00     0.010 C 
ENDBRANCH  11  13
ENDBRANCH   9  10
ENDBRANCH   8   9
ENDBRANCH   1   8
BRANCH   7  15
HETATM   15  O1  UNL     1      -4.983   8.349  18.978  1.00  0.00    -0.350 OA
BRANCH  15  16
HETATM   16  C15 UNL     1      -6.200   7.944  19.255  1.00  0.00     0.176 C 
BRANCH  16  17
HETATM   17  C16 UNL     1      -6.680   6.571  19.481  1.00  0.00     0.029 C 
BRANCH  17  18
HETATM   18  C17 UNL     1      -6.335   5.535  18.458  1.00  0.00     0.028 C 
BRANCH  18  19
HETATM   19  C18 UNL     1      -6.908   4.168  18.824  1.00  0.00     0.164 C 
BRANCH  19  20
HETATM   20  O2  UNL     1      -7.481   3.533  17.736  1.00  0.00    -0.401 OA
ATOM     21  H2  UNL     1      -7.551   4.106  16.981  1.00  0.00     0.209 HD
ENDBRANCH  19  20
ENDBRANCH  18  19
ENDBRANCH  17  18
ENDBRANCH  16  17
ENDBRANCH  15  16
ENDBRANCH   7  15
TORSDOF 10
ENDMDL
MODEL 3
REMARK VINA RESULT: -7.277147541      0.723      1.291
REMARK  10 active torsions:
REMARK  status: ('A' for Active; 'I' for Inactive)
REMARK    1  A    between atoms: C2_2  and  C3_3 
REMARK    2  A    between atoms: C5_5  and  C6_6 
REMARK    3  A    between atoms: C6_6  and  C7_7 
REMARK    4  A    between atoms: C7_7  and  C8_8 
REMARK    5  A    between atoms: C14_14  and  O1_15 
REMARK    6  A    between atoms: O1_15  and  C15_16 
REMARK    7  A    between atoms: C15_16  and  C16_17 
REMARK    8  A    between atoms: C16_17  and  C17_18 
REMARK    9  A    between atoms: C17_18  and  C18_19 
REMARK   10  A    between atoms: C18_19  and  O2_20 
ROOT
HETATM    1  C8  UNL     1      -3.125  11.411  19.078  1.00  0.00    -0.024 A 
HETATM    2  C9  UNL     1      -2.071  12.223  19.419  1.00  0.00     0.010 A 
HETATM    3  C10 UNL     1      -0.909  11.761  19.971  1.00  0.00     0.001 A 
HETATM    4  C11 UNL     1      -0.787  10.426  20.194  1.00  0.00     0.009 A 
HETATM    5  C12 UNL     1      -1.849   9.572  19.857  1.00  0.00    -0.028 A 
HETATM    6  C13 UNL     1      -1.597   8.148  20.148  1.00  0.00     0.051 C 
HETATM    7  C14 UNL     1      -3.026  10.019  19.303  1.00  0.00     0.081 A 
ENDROOT
BRANCH   1   8
HETATM    8  C7  UNL     1      -4.271  12.070  18.433  1.00  0.00     0.045 C 
BRANCH   8   9
HETATM    9  C6  UNL     1      -4.242  13.577  18.626  1.00  0.00     0.032 C 
BRANCH   9  10
HETATM   10  C5  UNL     1      -4.183  14.222  17.289  1.00  0.00    -0.024 C 
HETATM   11  C3  UNL     1      -3.771  15.443  17.039  1.00  0.00    -0.088 C 
HETATM   12  C4  UNL     1      -3.786  15.925  15.602  1.00  0.00     0.043 C 
BRANCH  11  13
HETATM   13  C2  UNL     1      -3.282  16.429  18.024  1.00  0.00     0.029 C 
HETATM   14  C1  UNL     1      -3.941  17.794  17.880  1.00  0.00     0.010 C 
ENDBRANCH  11  13
ENDBRANCH   9  10
ENDBRANCH   8   9
ENDBRANCH   1   8
BRANCH   7  15
HETATM   15  O1  UNL     1      -4.053   9.274  18.974  1.00  0.00    -0.350 OA
BRANCH  15  16
HETATM   16  C15 UNL     1      -4.911   8.299  19.165  1.00  0.00     0.176 C 
BRANCH  16  17
HETATM   17  C16 UNL     1      -4.811   6.894  18.740  1.00  0.00     0.029 C 
BRANCH  17  18
HETATM   18  C17 UNL     1      -6.039   6.242  18.191  1.00  0.00     0.028 C 
BRANCH  18  19
HETATM   19  C18 UNL     1      -6.483   5.060  19.050  1.00  0.00     0.164 C 
BRANCH  19  20
HETATM   20  O2  UNL     1      -7.222   4.138  18.330  1.00  0.00    -0.401 OA
ATOM     21  H2  UNL     1      -6.720   3.359  18.121  1.00  0.00     0.209 HD
ENDBRANCH  19  20
ENDBRANCH  18  19
ENDBRANCH  17  18
ENDBRANCH  16  17
ENDBRANCH  15  16
ENDBRANCH   7  15
TORSDOF 10
ENDMDL
MODEL 4
REMARK VINA RESULT: -7.259017215      1.082      1.118
REMARK  10 active torsions:
REMARK  status: ('A' for Active; 'I' for Inactive)
REMARK    1  A    between atoms: C2_2  and  C3_3 
REMARK    2  A    between atoms: C5_5  and  C6_6 
REMARK    3  A    between atoms: C6_6  and  C7_7 
REMARK    4  A    between atoms: C7_7  and  C8_8 
REMARK    5  A    between atoms: C14_14  and  O1_15 
REMARK    6  A    between atoms: O1_15  and  C15_16 
REMARK    7  A    between atoms: C15_16  and  C16_17 
REMARK    8  A    between atoms: C16_17  and  C17_18 
REMARK    9  A    between atoms: C17_18  and  C18_19 
REMARK   10  A    between atoms: C18_19  and  O2_20 
ROOT
HETATM    1  C8  UNL     1      -3.199  11.822  19.291  1.00  0.00    -0.024 A 
HETATM    2  C9  UNL     1      -2.144  12.609  19.686  1.00  0.00     0.010 A 
HETATM    3  C10 UNL     1      -0.952  12.107  20.126  1.00  0.00     0.001 A 
HETATM    4  C11 UNL     1      -0.797  10.758  20.174  1.00  0.00     0.009 A 
HETATM    5  C12 UNL     1      -1.859   9.929  19.778  1.00  0.00    -0.028 A 
HETATM    6  C13 UNL     1      -1.572   8.486  19.877  1.00  0.00     0.051 C 
HETATM    7  C14 UNL     1      -3.067  10.416  19.334  1.00  0.00     0.081 A 
ENDROOT
BRANCH   1   8
HETATM    8  C7  UNL     1      -4.384  12.531  18.782  1.00  0.00     0.045 C 
BRANCH   8   9
HETATM    9  C6  UNL     1      -4.049  13.413  17.589  1.00  0.00     0.032 C 
BRANCH   9  10
HETATM   10  C5  UNL     1      -4.184  14.833  18.002  1.00  0.00    -0.024 C 
HETATM   11  C3  UNL     1      -3.910  15.881  17.260  1.00  0.00    -0.088 C 
HETATM   12  C4  UNL     1      -4.112  17.258  17.862  1.00  0.00     0.043 C 
BRANCH  11  13
HETATM   13  C2  UNL     1      -3.414  15.873  15.869  1.00  0.00     0.029 C 
HETATM   14  C1  UNL     1      -4.533  15.914  14.837  1.00  0.00     0.010 C 
ENDBRANCH  11  13
ENDBRANCH   9  10
ENDBRANCH   8   9
ENDBRANCH   1   8
BRANCH   7  15
HETATM   15  O1  UNL     1      -4.096   9.695  18.959  1.00  0.00    -0.350 OA
BRANCH  15  16
HETATM   16  C15 UNL     1      -5.135   8.923  19.173  1.00  0.00     0.176 C 
BRANCH  16  17
HETATM   17  C16 UNL     1      -5.191   7.453  19.217  1.00  0.00     0.029 C 
BRANCH  17  18
HETATM   18  C17 UNL     1      -4.407   6.695  18.193  1.00  0.00     0.028 C 
BRANCH  18  19
HETATM   19  C18 UNL     1      -3.752   5.452  18.790  1.00  0.00     0.164 C 
BRANCH  19  20
HETATM   20  O2  UNL     1      -3.605   5.546  20.163  1.00  0.00    -0.401 OA
ATOM     21  H2  UNL     1      -4.437   5.662  20.607  1.00  0.00     0.209 HD
ENDBRANCH  19  20
ENDBRANCH  18  19
ENDBRANCH  17  18
ENDBRANCH  16  17
ENDBRANCH  15  16
ENDBRANCH   7  15
TORSDOF 10
ENDMDL
MODEL 5
REMARK VINA RESULT: -6.987236834      3.985      7.536
REMARK  10 active torsions:
REMARK  status: ('A' for Active; 'I' for Inactive)
REMARK    1  A    between atoms: C2_2  and  C3_3 
REMARK    2  A    between atoms: C5_5  and  C6_6 
REMARK    3  A    between atoms: C6_6  and  C7_7 
REMARK    4  A    between atoms: C7_7  and  C8_8 
REMARK    5  A    between atoms: C14_14  and  O1_15 
REMARK    6  A    between atoms: O1_15  and  C15_16 
REMARK    7  A    between atoms: C15_16  and  C16_17 
REMARK    8  A    between atoms: C16_17  and  C17_18 
REMARK    9  A    between atoms: C17_18  and  C18_19 
REMARK   10  A    between atoms: C18_19  and  O2_20 
ROOT
HETATM    1  C8  UNL     1      -3.685  14.903  18.047  1.00  0.00    -0.024 A 
HETATM    2  C9  UNL     1      -2.558  14.641  18.789  1.00  0.00     0.010 A 
HETATM    3  C10 UNL     1      -1.729  15.614  19.271  1.00  0.00     0.001 A 
HETATM    4  C11 UNL     1      -2.033  16.912  19.005  1.00  0.00     0.009 A 
HETATM    5  C12 UNL     1      -3.178  17.209  18.248  1.00  0.00    -0.028 A 
HETATM    6  C13 UNL     1      -3.400  18.650  18.024  1.00  0.00     0.051 C 
HETATM    7  C14 UNL     1      -4.023  16.243  17.752  1.00  0.00     0.081 A 
ENDROOT
BRANCH   1   8
HETATM    8  C7  UNL     1      -4.498  13.737  17.668  1.00  0.00     0.045 C 
BRANCH   8   9
HETATM    9  C6  UNL     1      -4.301  12.571  18.623  1.00  0.00     0.032 C 
BRANCH   9  10
HETATM   10  C5  UNL     1      -3.344  11.616  18.007  1.00  0.00    -0.024 C 
HETATM   11  C3  UNL     1      -2.357  11.009  18.624  1.00  0.00    -0.088 C 
HETATM   12  C4  UNL     1      -1.482  10.065  17.822  1.00  0.00     0.043 C 
BRANCH  11  13
HETATM   13  C2  UNL     1      -1.989  11.142  20.048  1.00  0.00     0.029 C 
HETATM   14  C1  UNL     1      -0.660  11.856  20.257  1.00  0.00     0.010 C 
ENDBRANCH  11  13
ENDBRANCH   9  10
ENDBRANCH   8   9
ENDBRANCH   1   8
BRANCH   7  15
HETATM   15  O1  UNL     1      -5.099  16.456  17.035  1.00  0.00    -0.350 OA
BRANCH  15  16
HETATM   16  C15 UNL     1      -5.818  17.115  16.156  1.00  0.00     0.176 C 
BRANCH  16  17
HETATM   17  C16 UNL     1      -5.357  17.895  14.996  1.00  0.00     0.029 C 
BRANCH  17  18
HETATM   18  C17 UNL     1      -5.007  17.149  13.748  1.00  0.00     0.028 C 
BRANCH  18  19
HETATM   19  C18 UNL     1      -5.200  15.644  13.916  1.00  0.00     0.164 C 
BRANCH  19  20
HETATM   20  O2  UNL     1      -4.073  15.026  14.430  1.00  0.00    -0.401 OA
ATOM     21  H2  UNL     1      -4.283  14.426  15.136  1.00  0.00     0.209 HD
ENDBRANCH  19  20
ENDBRANCH  18  19
ENDBRANCH  17  18
ENDBRANCH  16  17
ENDBRANCH  15  16
ENDBRANCH   7  15
TORSDOF 10
ENDMDL
