MODEL 1
REMARK VINA RESULT: -5.302270319      0.000      0.000
REMARK  7 active torsions:
REMARK  status: ('A' for Active; 'I' for Inactive)
REMARK    1  A    between atoms: C2_2  and  C3_3 
REMARK    2  A    between atoms: C3_3  and  C4_4 
REMARK    3  A    between atoms: C4_4  and  C5_5 
REMARK    4  A    between atoms: C5_5  and  O1_6 
REMARK    5  A    between atoms: C5_5  and  C6_8 
REMARK    6  A    between atoms: C6_8  and  O2_9 
REMARK    7  A    between atoms: O2_9  and  C7_10 
ROOT
HETATM    1  O2  UNL     1     -38.185 -26.292 -47.175  1.00  0.00    -0.349 OA
ENDROOT
BRANCH   1   2
HETATM    2  C6  UNL     1     -37.372 -25.218 -47.453  1.00  0.00     0.207 C 
BRANCH   2   3
HETATM    3  C5  UNL     1     -35.975 -25.430 -46.953  1.00  0.00     0.142 C 
BRANCH   3   4
HETATM    4  C4  UNL     1     -35.698 -24.928 -45.574  1.00  0.00     0.037 C 
BRANCH   4   5
HETATM    5  C3  UNL     1     -36.711 -23.936 -45.112  1.00  0.00     0.029 C 
BRANCH   5   6
HETATM    6  C2  UNL     1     -37.230 -24.380 -43.766  1.00  0.00    -0.037 C 
HETATM    7  C1  UNL     1     -36.763 -25.466 -43.221  1.00  0.00     0.007 C 
ENDBRANCH   5   6
ENDBRANCH   4   5
ENDBRANCH   3   4
BRANCH   3   8
HETATM    8  O1  UNL     1     -35.120 -24.724 -47.866  1.00  0.00    -0.393 OA
ATOM      9  H1  UNL     1     -34.757 -25.354 -48.477  1.00  0.00     0.210 HD
ENDBRANCH   3   8
ENDBRANCH   2   3
ENDBRANCH   1   2
BRANCH   1  10
HETATM   10  C7  UNL     1     -39.283 -26.303 -46.346  1.00  0.00     0.069 A 
HETATM   11  C8  UNL     1     -40.366 -25.534 -46.714  1.00  0.00     0.043 A 
HETATM   12  C9  UNL     1     -41.521 -25.465 -45.963  1.00  0.00    -0.059 A 
HETATM   13  C10 UNL     1     -42.670 -24.611 -46.410  1.00  0.00     0.048 C 
HETATM   14  C11 UNL     1     -41.574 -26.207 -44.799  1.00  0.00     0.013 A 
HETATM   15  C12 UNL     1     -40.521 -26.994 -44.384  1.00  0.00    -0.059 A 
HETATM   16  C13 UNL     1     -40.633 -27.772 -43.122  1.00  0.00     0.048 C 
HETATM   17  C14 UNL     1     -39.381 -27.026 -45.178  1.00  0.00     0.043 A 
ENDBRANCH   1  10
TORSDOF 7
ENDMDL
MODEL 2
REMARK VINA RESULT: -5.292542033     11.887     14.415
REMARK  7 active torsions:
REMARK  status: ('A' for Active; 'I' for Inactive)
REMARK    1  A    between atoms: C2_2  and  C3_3 
REMARK    2  A    between atoms: C3_3  and  C4_4 
REMARK    3  A    between atoms: C4_4  and  C5_5 
REMARK    4  A    between atoms: C5_5  and  O1_6 
REMARK    5  A    between atoms: C5_5  and  C6_8 
REMARK    6  A    between atoms: C6_8  and  O2_9 
REMARK    7  A    between atoms: O2_9  and  C7_10 
ROOT
HETATM    1  O2  UNL     1     -33.796 -19.649 -34.229  1.00  0.00    -0.349 OA
ENDROOT
BRANCH   1   2
HETATM    2  C6  UNL     1     -33.261 -18.873 -33.227  1.00  0.00     0.207 C 
BRANCH   2   3
HETATM    3  C5  UNL     1     -32.339 -17.822 -33.766  1.00  0.00     0.142 C 
BRANCH   3   4
HETATM    4  C4  UNL     1     -31.106 -17.568 -32.961  1.00  0.00     0.037 C 
BRANCH   4   5
HETATM    5  C3  UNL     1     -29.862 -17.954 -33.686  1.00  0.00     0.029 C 
BRANCH   5   6
HETATM    6  C2  UNL     1     -30.248 -18.812 -34.867  1.00  0.00    -0.037 C 
HETATM    7  C1  UNL     1     -29.697 -19.980 -35.024  1.00  0.00     0.007 C 
ENDBRANCH   5   6
ENDBRANCH   4   5
ENDBRANCH   3   4
BRANCH   3   8
HETATM    8  O1  UNL     1     -33.107 -16.608 -33.802  1.00  0.00    -0.393 OA
ATOM      9  H1  UNL     1     -32.706 -16.024 -34.435  1.00  0.00     0.210 HD
ENDBRANCH   3   8
ENDBRANCH   2   3
ENDBRANCH   1   2
BRANCH   1  10
HETATM   10  C7  UNL     1     -33.330 -20.866 -34.670  1.00  0.00     0.069 A 
HETATM   11  C8  UNL     1     -32.548 -21.600 -33.803  1.00  0.00     0.043 A 
HETATM   12  C9  UNL     1     -32.024 -22.832 -34.134  1.00  0.00    -0.059 A 
HETATM   13  C10 UNL     1     -31.179 -23.588 -33.152  1.00  0.00     0.048 C 
HETATM   14  C11 UNL     1     -32.308 -23.333 -35.389  1.00  0.00     0.013 A 
HETATM   15  C12 UNL     1     -33.084 -22.643 -36.295  1.00  0.00    -0.059 A 
HETATM   16  C13 UNL     1     -33.358 -23.231 -37.633  1.00  0.00     0.048 C 
HETATM   17  C14 UNL     1     -33.586 -21.406 -35.911  1.00  0.00     0.043 A 
ENDBRANCH   1  10
TORSDOF 7
ENDMDL
MODEL 3
REMARK VINA RESULT: -5.253672091      0.083      2.131
REMARK  7 active torsions:
REMARK  status: ('A' for Active; 'I' for Inactive)
REMARK    1  A    between atoms: C2_2  and  C3_3 
REMARK    2  A    between atoms: C3_3  and  C4_4 
REMARK    3  A    between atoms: C4_4  and  C5_5 
REMARK    4  A    between atoms: C5_5  and  O1_6 
REMARK    5  A    between atoms: C5_5  and  C6_8 
REMARK    6  A    between atoms: C6_8  and  O2_9 
REMARK    7  A    between atoms: O2_9  and  C7_10 
ROOT
HETATM    1  O2  UNL     1     -38.191 -26.276 -47.129  1.00  0.00    -0.349 OA
ENDROOT
BRANCH   1   2
HETATM    2  C6  UNL     1     -37.358 -25.231 -47.459  1.00  0.00     0.207 C 
BRANCH   2   3
HETATM    3  C5  UNL     1     -35.967 -25.441 -46.944  1.00  0.00     0.142 C 
BRANCH   3   4
HETATM    4  C4  UNL     1     -35.698 -24.913 -45.573  1.00  0.00     0.037 C 
BRANCH   4   5
HETATM    5  C3  UNL     1     -36.729 -23.933 -45.125  1.00  0.00     0.029 C 
BRANCH   5   6
HETATM    6  C2  UNL     1     -37.227 -24.359 -43.765  1.00  0.00    -0.037 C 
HETATM    7  C1  UNL     1     -36.812 -25.478 -43.246  1.00  0.00     0.007 C 
ENDBRANCH   5   6
ENDBRANCH   4   5
ENDBRANCH   3   4
BRANCH   3   8
HETATM    8  O1  UNL     1     -35.101 -24.759 -47.864  1.00  0.00    -0.393 OA
ATOM      9  H1  UNL     1     -35.181 -25.179 -48.712  1.00  0.00     0.210 HD
ENDBRANCH   3   8
ENDBRANCH   2   3
ENDBRANCH   1   2
BRANCH   1  10
HETATM   10  C7  UNL     1     -39.347 -26.207 -46.386  1.00  0.00     0.069 A 
HETATM   11  C8  UNL     1     -39.410 -26.963 -45.236  1.00  0.00     0.043 A 
HETATM   12  C9  UNL     1     -40.516 -26.975 -44.411  1.00  0.00    -0.059 A 
HETATM   13  C10 UNL     1     -40.532 -27.818 -43.171  1.00  0.00     0.048 C 
HETATM   14  C11 UNL     1     -41.592 -26.188 -44.772  1.00  0.00     0.013 A 
HETATM   15  C12 UNL     1     -41.583 -25.411 -45.911  1.00  0.00    -0.059 A 
HETATM   16  C13 UNL     1     -42.770 -24.583 -46.250  1.00  0.00     0.048 C 
HETATM   17  C14 UNL     1     -40.444 -25.437 -46.706  1.00  0.00     0.043 A 
ENDBRANCH   1  10
TORSDOF 7
ENDMDL
MODEL 4
REMARK VINA RESULT: -5.243586012     11.099     13.794
REMARK  7 active torsions:
REMARK  status: ('A' for Active; 'I' for Inactive)
REMARK    1  A    between atoms: C2_2  and  C3_3 
REMARK    2  A    between atoms: C3_3  and  C4_4 
REMARK    3  A    between atoms: C4_4  and  C5_5 
REMARK    4  A    between atoms: C5_5  and  O1_6 
REMARK    5  A    between atoms: C5_5  and  C6_8 
REMARK    6  A    between atoms: C6_8  and  O2_9 
REMARK    7  A    between atoms: O2_9  and  C7_10 
ROOT
HETATM    1  O2  UNL     1     -29.195 -23.223 -35.666  1.00  0.00    -0.349 OA
ENDROOT
BRANCH   1   2
HETATM    2  C6  UNL     1     -28.982 -21.881 -35.884  1.00  0.00     0.207 C 
BRANCH   2   3
HETATM    3  C5  UNL     1     -29.332 -21.058 -34.683  1.00  0.00     0.142 C 
BRANCH   3   4
HETATM    4  C4  UNL     1     -29.939 -19.723 -34.968  1.00  0.00     0.037 C 
BRANCH   4   5
HETATM    5  C3  UNL     1     -31.422 -19.724 -34.811  1.00  0.00     0.029 C 
BRANCH   5   6
HETATM    6  C2  UNL     1     -31.780 -18.787 -33.683  1.00  0.00    -0.037 C 
HETATM    7  C1  UNL     1     -32.928 -18.909 -33.082  1.00  0.00     0.007 C 
ENDBRANCH   5   6
ENDBRANCH   4   5
ENDBRANCH   3   4
BRANCH   3   8
HETATM    8  O1  UNL     1     -28.098 -20.846 -33.978  1.00  0.00    -0.393 OA
ATOM      9  H1  UNL     1     -27.799 -21.685 -33.649  1.00  0.00     0.210 HD
ENDBRANCH   3   8
ENDBRANCH   2   3
ENDBRANCH   1   2
BRANCH   1  10
HETATM   10  C7  UNL     1     -29.477 -24.178 -36.616  1.00  0.00     0.069 A 
HETATM   11  C8  UNL     1     -28.490 -24.481 -37.528  1.00  0.00     0.043 A 
HETATM   12  C9  UNL     1     -28.657 -25.420 -38.525  1.00  0.00    -0.059 A 
HETATM   13  C10 UNL     1     -27.548 -25.710 -39.492  1.00  0.00     0.048 C 
HETATM   14  C11 UNL     1     -29.872 -26.073 -38.592  1.00  0.00     0.013 A 
HETATM   15  C12 UNL     1     -30.895 -25.810 -37.705  1.00  0.00    -0.059 A 
HETATM   16  C13 UNL     1     -32.183 -26.543 -37.824  1.00  0.00     0.048 C 
HETATM   17  C14 UNL     1     -30.672 -24.854 -36.721  1.00  0.00     0.043 A 
ENDBRANCH   1  10
TORSDOF 7
ENDMDL
MODEL 5
REMARK VINA RESULT: -5.234552712     11.286     13.814
REMARK  7 active torsions:
REMARK  status: ('A' for Active; 'I' for Inactive)
REMARK    1  A    between atoms: C2_2  and  C3_3 
REMARK    2  A    between atoms: C3_3  and  C4_4 
REMARK    3  A    between atoms: C4_4  and  C5_5 
REMARK    4  A    between atoms: C5_5  and  O1_6 
REMARK    5  A    between atoms: C5_5  and  C6_8 
REMARK    6  A    between atoms: C6_8  and  O2_9 
REMARK    7  A    between atoms: O2_9  and  C7_10 
ROOT
HETATM    1  O2  UNL     1     -29.149 -23.066 -35.661  1.00  0.00    -0.349 OA
ENDROOT
BRANCH   1   2
HETATM    2  C6  UNL     1     -29.177 -21.703 -35.846  1.00  0.00     0.207 C 
BRANCH   2   3
HETATM    3  C5  UNL     1     -29.383 -20.968 -34.557  1.00  0.00     0.142 C 
BRANCH   3   4
HETATM    4  C4  UNL     1     -29.941 -19.588 -34.680  1.00  0.00     0.037 C 
BRANCH   4   5
HETATM    5  C3  UNL     1     -31.398 -19.588 -34.997  1.00  0.00     0.029 C 
BRANCH   5   6
HETATM    6  C2  UNL     1     -32.151 -20.032 -33.766  1.00  0.00    -0.037 C 
HETATM    7  C1  UNL     1     -32.913 -19.186 -33.136  1.00  0.00     0.007 C 
ENDBRANCH   5   6
ENDBRANCH   4   5
ENDBRANCH   3   4
BRANCH   3   8
HETATM    8  O1  UNL     1     -28.085 -20.872 -33.948  1.00  0.00    -0.393 OA
ATOM      9  H1  UNL     1     -28.158 -20.311 -33.185  1.00  0.00     0.210 HD
ENDBRANCH   3   8
ENDBRANCH   2   3
ENDBRANCH   1   2
BRANCH   1  10
HETATM   10  C7  UNL     1     -29.309 -24.033 -36.627  1.00  0.00     0.069 A 
HETATM   11  C8  UNL     1     -30.510 -24.707 -36.661  1.00  0.00     0.043 A 
HETATM   12  C9  UNL     1     -30.785 -25.696 -37.582  1.00  0.00    -0.059 A 
HETATM   13  C10 UNL     1     -32.110 -26.399 -37.573  1.00  0.00     0.048 C 
HETATM   14  C11 UNL     1     -29.802 -26.006 -38.501  1.00  0.00     0.013 A 
HETATM   15  C12 UNL     1     -28.582 -25.363 -38.514  1.00  0.00    -0.059 A 
HETATM   16  C13 UNL     1     -27.560 -25.737 -39.527  1.00  0.00     0.048 C 
HETATM   17  C14 UNL     1     -28.358 -24.376 -37.563  1.00  0.00     0.043 A 
ENDBRANCH   1  10
TORSDOF 7
ENDMDL
