MODEL 1
REMARK VINA RESULT: -5.102530123      0.000      0.000
REMARK  5 active torsions:
REMARK  status: ('A' for Active; 'I' for Inactive)
REMARK    1  A    between atoms: C2_2  and  O1_4 
REMARK    2  A    between atoms: O1_4  and  C4_5 
REMARK    3  A    between atoms: C4_5  and  C5_7 
REMARK    4  A    between atoms: C5_7  and  O3_8 
REMARK    5  A    between atoms: O3_8  and  C6_9 
ROOT
HETATM    1  C5  UNL     1     -30.273 -25.963 -37.761  1.00  0.00     0.286 C 
ENDROOT
BRANCH   1   2
HETATM    2  C4  UNL     1     -29.583 -26.087 -39.091  1.00  0.00     0.283 C 
HETATM    3  O2  UNL     1     -29.129 -27.190 -39.489  1.00  0.00    -0.263 OA
BRANCH   2   4
HETATM    4  O1  UNL     1     -29.420 -24.995 -39.930  1.00  0.00    -0.315 OA
BRANCH   4   5
HETATM    5  C2  UNL     1     -28.129 -24.435 -40.087  1.00  0.00     0.123 C 
HETATM    6  C1  UNL     1     -28.235 -23.472 -41.277  1.00  0.00     0.040 C 
HETATM    7  C3  UNL     1     -27.642 -23.702 -38.887  1.00  0.00     0.040 C 
ENDBRANCH   4   5
ENDBRANCH   2   4
ENDBRANCH   1   2
BRANCH   1   8
HETATM    8  O3  UNL     1     -30.951 -27.181 -37.521  1.00  0.00    -0.342 OA
BRANCH   8   9
HETATM    9  C6  UNL     1     -32.251 -27.116 -37.067  1.00  0.00     0.069 A 
HETATM   10  C7  UNL     1     -33.171 -26.648 -37.882  1.00  0.00     0.036 A 
HETATM   11  C8  UNL     1     -34.567 -26.562 -37.438  1.00  0.00     0.204 A 
HETATM   12  O4  UNL     1     -34.836 -26.990 -36.154  1.00  0.00    -0.359 OA
HETATM   13  C9  UNL     1     -33.850 -27.476 -35.322  1.00  0.00     0.137 A 
HETATM   14  C10 UNL     1     -32.610 -27.548 -35.727  1.00  0.00     0.060 A 
ENDBRANCH   8   9
ENDBRANCH   1   8
TORSDOF 5
ENDMDL
MODEL 2
REMARK VINA RESULT: -5.067204145      8.876      9.925
REMARK  5 active torsions:
REMARK  status: ('A' for Active; 'I' for Inactive)
REMARK    1  A    between atoms: C2_2  and  O1_4 
REMARK    2  A    between atoms: O1_4  and  C4_5 
REMARK    3  A    between atoms: C4_5  and  C5_7 
REMARK    4  A    between atoms: C5_7  and  O3_8 
REMARK    5  A    between atoms: O3_8  and  C6_9 
ROOT
HETATM    1  C5  UNL     1     -36.423 -24.541 -46.372  1.00  0.00     0.286 C 
ENDROOT
BRANCH   1   2
HETATM    2  C4  UNL     1     -35.034 -25.110 -46.287  1.00  0.00     0.283 C 
HETATM    3  O2  UNL     1     -34.313 -25.221 -47.311  1.00  0.00    -0.263 OA
BRANCH   2   4
HETATM    4  O1  UNL     1     -34.494 -25.533 -45.082  1.00  0.00    -0.315 OA
BRANCH   4   5
HETATM    5  C2  UNL     1     -35.009 -25.005 -43.874  1.00  0.00     0.123 C 
HETATM    6  C1  UNL     1     -35.372 -26.219 -43.010  1.00  0.00     0.040 C 
HETATM    7  C3  UNL     1     -34.051 -24.132 -43.142  1.00  0.00     0.040 C 
ENDBRANCH   4   5
ENDBRANCH   2   4
ENDBRANCH   1   2
BRANCH   1   8
HETATM    8  O3  UNL     1     -37.252 -25.532 -46.945  1.00  0.00    -0.342 OA
BRANCH   8   9
HETATM    9  C6  UNL     1     -38.446 -25.817 -46.316  1.00  0.00     0.069 A 
HETATM   10  C7  UNL     1     -39.475 -26.157 -47.060  1.00  0.00     0.036 A 
HETATM   11  C8  UNL     1     -40.763 -26.468 -46.431  1.00  0.00     0.204 A 
HETATM   12  O4  UNL     1     -40.816 -26.381 -45.054  1.00  0.00    -0.359 OA
HETATM   13  C9  UNL     1     -39.720 -26.021 -44.300  1.00  0.00     0.137 A 
HETATM   14  C10 UNL     1     -38.577 -25.747 -44.871  1.00  0.00     0.060 A 
ENDBRANCH   8   9
ENDBRANCH   1   8
TORSDOF 5
ENDMDL
MODEL 3
REMARK VINA RESULT: -5.063016227      7.219      8.250
REMARK  5 active torsions:
REMARK  status: ('A' for Active; 'I' for Inactive)
REMARK    1  A    between atoms: C2_2  and  O1_4 
REMARK    2  A    between atoms: O1_4  and  C4_5 
REMARK    3  A    between atoms: C4_5  and  C5_7 
REMARK    4  A    between atoms: C5_7  and  O3_8 
REMARK    5  A    between atoms: O3_8  and  C6_9 
ROOT
HETATM    1  C5  UNL     1     -29.264 -20.178 -34.378  1.00  0.00     0.286 C 
ENDROOT
BRANCH   1   2
HETATM    2  C4  UNL     1     -29.150 -21.447 -35.175  1.00  0.00     0.283 C 
HETATM    3  O2  UNL     1     -28.720 -21.437 -36.357  1.00  0.00    -0.263 OA
BRANCH   2   4
HETATM    4  O1  UNL     1     -29.513 -22.675 -34.643  1.00  0.00    -0.315 OA
BRANCH   4   5
HETATM    5  C2  UNL     1     -30.639 -22.749 -33.788  1.00  0.00     0.123 C 
HETATM    6  C1  UNL     1     -31.859 -22.851 -34.712  1.00  0.00     0.040 C 
HETATM    7  C3  UNL     1     -30.611 -23.911 -32.858  1.00  0.00     0.040 C 
ENDBRANCH   4   5
ENDBRANCH   2   4
ENDBRANCH   1   2
BRANCH   1   8
HETATM    8  O3  UNL     1     -30.107 -19.300 -35.098  1.00  0.00    -0.342 OA
BRANCH   8   9
HETATM    9  C6  UNL     1     -31.063 -18.601 -34.391  1.00  0.00     0.069 A 
HETATM   10  C7  UNL     1     -31.022 -17.287 -34.423  1.00  0.00     0.036 A 
HETATM   11  C8  UNL     1     -32.020 -16.505 -33.686  1.00  0.00     0.204 A 
HETATM   12  O4  UNL     1     -32.969 -17.219 -32.982  1.00  0.00    -0.359 OA
HETATM   13  C9  UNL     1     -32.987 -18.597 -32.967  1.00  0.00     0.137 A 
HETATM   14  C10 UNL     1     -32.093 -19.284 -33.628  1.00  0.00     0.060 A 
ENDBRANCH   8   9
ENDBRANCH   1   8
TORSDOF 5
ENDMDL
MODEL 4
REMARK VINA RESULT: -5.037864049      7.195      8.297
REMARK  5 active torsions:
REMARK  status: ('A' for Active; 'I' for Inactive)
REMARK    1  A    between atoms: C2_2  and  O1_4 
REMARK    2  A    between atoms: O1_4  and  C4_5 
REMARK    3  A    between atoms: C4_5  and  C5_7 
REMARK    4  A    between atoms: C5_7  and  O3_8 
REMARK    5  A    between atoms: O3_8  and  C6_9 
ROOT
HETATM    1  C5  UNL     1     -29.278 -20.243 -34.401  1.00  0.00     0.286 C 
ENDROOT
BRANCH   1   2
HETATM    2  C4  UNL     1     -29.147 -21.510 -35.198  1.00  0.00     0.283 C 
HETATM    3  O2  UNL     1     -28.680 -21.500 -36.366  1.00  0.00    -0.263 OA
BRANCH   2   4
HETATM    4  O1  UNL     1     -29.532 -22.738 -34.681  1.00  0.00    -0.315 OA
BRANCH   4   5
HETATM    5  C2  UNL     1     -30.637 -22.796 -33.798  1.00  0.00     0.123 C 
HETATM    6  C1  UNL     1     -31.882 -22.868 -34.692  1.00  0.00     0.040 C 
HETATM    7  C3  UNL     1     -30.609 -23.965 -32.877  1.00  0.00     0.040 C 
ENDBRANCH   4   5
ENDBRANCH   2   4
ENDBRANCH   1   2
BRANCH   1   8
HETATM    8  O3  UNL     1     -30.107 -19.365 -35.137  1.00  0.00    -0.342 OA
BRANCH   8   9
HETATM    9  C6  UNL     1     -31.040 -18.624 -34.441  1.00  0.00     0.069 A 
HETATM   10  C7  UNL     1     -31.933 -19.268 -33.722  1.00  0.00     0.036 A 
HETATM   11  C8  UNL     1     -32.942 -18.519 -32.966  1.00  0.00     0.204 A 
HETATM   12  O4  UNL     1     -32.890 -17.143 -33.058  1.00  0.00    -0.359 OA
HETATM   13  C9  UNL     1     -31.941 -16.495 -33.820  1.00  0.00     0.137 A 
HETATM   14  C10 UNL     1     -31.047 -17.173 -34.490  1.00  0.00     0.060 A 
ENDBRANCH   8   9
ENDBRANCH   1   8
TORSDOF 5
ENDMDL
MODEL 5
REMARK VINA RESULT: -5.017907616      1.938      5.779
REMARK  5 active torsions:
REMARK  status: ('A' for Active; 'I' for Inactive)
REMARK    1  A    between atoms: C2_2  and  O1_4 
REMARK    2  A    between atoms: O1_4  and  C4_5 
REMARK    3  A    between atoms: C4_5  and  C5_7 
REMARK    4  A    between atoms: C5_7  and  O3_8 
REMARK    5  A    between atoms: O3_8  and  C6_9 
ROOT
HETATM    1  C5  UNL     1     -30.526 -26.901 -38.177  1.00  0.00     0.286 C 
ENDROOT
BRANCH   1   2
HETATM    2  C4  UNL     1     -31.664 -26.755 -37.206  1.00  0.00     0.283 C 
HETATM    3  O2  UNL     1     -32.792 -27.259 -37.443  1.00  0.00    -0.263 OA
BRANCH   2   4
HETATM    4  O1  UNL     1     -31.518 -26.063 -36.013  1.00  0.00    -0.315 OA
BRANCH   4   5
HETATM    5  C2  UNL     1     -32.253 -24.870 -35.815  1.00  0.00     0.123 C 
HETATM    6  C1  UNL     1     -32.221 -24.606 -34.304  1.00  0.00     0.040 C 
HETATM    7  C3  UNL     1     -31.700 -23.696 -36.545  1.00  0.00     0.040 C 
ENDBRANCH   4   5
ENDBRANCH   2   4
ENDBRANCH   1   2
BRANCH   1   8
HETATM    8  O3  UNL     1     -29.367 -26.384 -37.552  1.00  0.00    -0.342 OA
BRANCH   8   9
HETATM    9  C6  UNL     1     -28.711 -25.342 -38.174  1.00  0.00     0.069 A 
HETATM   10  C7  UNL     1     -28.130 -24.435 -37.419  1.00  0.00     0.036 A 
HETATM   11  C8  UNL     1     -27.421 -23.312 -38.040  1.00  0.00     0.204 A 
HETATM   12  O4  UNL     1     -27.407 -23.275 -39.420  1.00  0.00    -0.359 OA
HETATM   13  C9  UNL     1     -28.025 -24.240 -40.185  1.00  0.00     0.137 A 
HETATM   14  C10 UNL     1     -28.654 -25.238 -39.621  1.00  0.00     0.060 A 
ENDBRANCH   8   9
ENDBRANCH   1   8
TORSDOF 5
ENDMDL
