MODEL 1
REMARK VINA RESULT: -5.526008674      0.000      0.000
REMARK  6 active torsions:
REMARK  status: ('A' for Active; 'I' for Inactive)
REMARK    1  A    between atoms: C2_2  and  C3_3 
REMARK    2  A    between atoms: C3_3  and  O1_4 
REMARK    3  A    between atoms: O1_4  and  C4_5 
REMARK    4  A    between atoms: C4_5  and  C5_6 
REMARK    5  A    between atoms: C5_6  and  O2_7 
REMARK    6  A    between atoms: O2_7  and  C6_8 
ROOT
HETATM    1  C6  UNL     1     -30.285 -22.733 -34.925  1.00  0.00     0.075 A 
HETATM    2  C7  UNL     1     -31.161 -23.649 -34.390  1.00  0.00     0.044 A 
HETATM    3  C8  UNL     1     -32.319 -23.301 -33.693  1.00  0.00    -0.059 A 
HETATM    4  C9  UNL     1     -33.229 -24.334 -33.135  1.00  0.00     0.048 C 
HETATM    5  C10 UNL     1     -32.565 -21.954 -33.553  1.00  0.00     0.014 A 
HETATM    6  C11 UNL     1     -31.693 -21.030 -34.086  1.00  0.00    -0.053 A 
HETATM    7  C12 UNL     1     -32.007 -19.589 -33.907  1.00  0.00     0.049 C 
HETATM    8  C13 UNL     1     -30.558 -21.358 -34.770  1.00  0.00    -0.023 A 
HETATM    9  C14 UNL     1     -29.625 -20.361 -35.341  1.00  0.00     0.052 C 
ENDROOT
BRANCH   1  10
HETATM   10  O2  UNL     1     -29.164 -23.068 -35.603  1.00  0.00    -0.348 OA
BRANCH  10  11
HETATM   11  C5  UNL     1     -28.896 -23.626 -36.831  1.00  0.00     0.201 C 
BRANCH  11  12
HETATM   12  C4  UNL     1     -27.698 -22.993 -37.465  1.00  0.00     0.194 C 
BRANCH  12  13
HETATM   13  O1  UNL     1     -27.274 -23.607 -38.612  1.00  0.00    -0.389 OA
BRANCH  13  14
HETATM   14  C3  UNL     1     -28.078 -24.563 -39.150  1.00  0.00     0.167 C 
BRANCH  14  15
HETATM   15  C2  UNL     1     -28.602 -24.309 -40.523  1.00  0.00     0.022 C 
HETATM   16  C1  UNL     1     -27.846 -23.223 -41.252  1.00  0.00     0.007 C 
ENDBRANCH  14  15
ENDBRANCH  13  14
ENDBRANCH  12  13
ENDBRANCH  11  12
ENDBRANCH  10  11
ENDBRANCH   1  10
TORSDOF 6
ENDMDL
MODEL 2
REMARK VINA RESULT: -5.478756247      1.444      2.726
REMARK  6 active torsions:
REMARK  status: ('A' for Active; 'I' for Inactive)
REMARK    1  A    between atoms: C2_2  and  C3_3 
REMARK    2  A    between atoms: C3_3  and  O1_4 
REMARK    3  A    between atoms: O1_4  and  C4_5 
REMARK    4  A    between atoms: C4_5  and  C5_6 
REMARK    5  A    between atoms: C5_6  and  O2_7 
REMARK    6  A    between atoms: O2_7  and  C6_8 
ROOT
HETATM    1  C6  UNL     1     -29.739 -22.022 -35.738  1.00  0.00     0.075 A 
HETATM    2  C7  UNL     1     -29.514 -20.725 -35.339  1.00  0.00     0.044 A 
HETATM    3  C8  UNL     1     -30.527 -19.843 -34.959  1.00  0.00    -0.059 A 
HETATM    4  C9  UNL     1     -30.227 -18.451 -34.537  1.00  0.00     0.048 C 
HETATM    5  C10 UNL     1     -31.812 -20.336 -35.000  1.00  0.00     0.014 A 
HETATM    6  C11 UNL     1     -32.045 -21.634 -35.398  1.00  0.00    -0.053 A 
HETATM    7  C12 UNL     1     -33.450 -22.115 -35.423  1.00  0.00     0.049 C 
HETATM    8  C13 UNL     1     -31.063 -22.506 -35.771  1.00  0.00    -0.023 A 
HETATM    9  C14 UNL     1     -31.319 -23.899 -36.198  1.00  0.00     0.052 C 
ENDROOT
BRANCH   1  10
HETATM   10  O2  UNL     1     -28.759 -22.879 -36.104  1.00  0.00    -0.348 OA
BRANCH  10  11
HETATM   11  C5  UNL     1     -27.923 -22.999 -37.191  1.00  0.00     0.201 C 
BRANCH  11  12
HETATM   12  C4  UNL     1     -27.706 -24.435 -37.550  1.00  0.00     0.194 C 
BRANCH  12  13
HETATM   13  O1  UNL     1     -27.118 -24.630 -38.771  1.00  0.00    -0.389 OA
BRANCH  13  14
HETATM   14  C3  UNL     1     -27.857 -25.238 -39.737  1.00  0.00     0.167 C 
BRANCH  14  15
HETATM   15  C2  UNL     1     -28.710 -24.360 -40.587  1.00  0.00     0.022 C 
HETATM   16  C1  UNL     1     -27.935 -23.246 -41.251  1.00  0.00     0.007 C 
ENDBRANCH  14  15
ENDBRANCH  13  14
ENDBRANCH  12  13
ENDBRANCH  11  12
ENDBRANCH  10  11
ENDBRANCH   1  10
TORSDOF 6
ENDMDL
MODEL 3
REMARK VINA RESULT: -5.418051523      1.598      2.223
REMARK  6 active torsions:
REMARK  status: ('A' for Active; 'I' for Inactive)
REMARK    1  A    between atoms: C2_2  and  C3_3 
REMARK    2  A    between atoms: C3_3  and  O1_4 
REMARK    3  A    between atoms: O1_4  and  C4_5 
REMARK    4  A    between atoms: C4_5  and  C5_6 
REMARK    5  A    between atoms: C5_6  and  O2_7 
REMARK    6  A    between atoms: O2_7  and  C6_8 
ROOT
HETATM    1  C6  UNL     1     -30.455 -24.119 -36.066  1.00  0.00     0.075 A 
HETATM    2  C7  UNL     1     -31.606 -24.193 -35.315  1.00  0.00     0.044 A 
HETATM    3  C8  UNL     1     -32.096 -23.141 -34.540  1.00  0.00    -0.059 A 
HETATM    4  C9  UNL     1     -33.345 -23.277 -33.746  1.00  0.00     0.048 C 
HETATM    5  C10 UNL     1     -31.360 -21.978 -34.554  1.00  0.00     0.014 A 
HETATM    6  C11 UNL     1     -30.207 -21.895 -35.304  1.00  0.00    -0.053 A 
HETATM    7  C12 UNL     1     -29.451 -20.617 -35.284  1.00  0.00     0.049 C 
HETATM    8  C13 UNL     1     -29.717 -22.917 -36.065  1.00  0.00    -0.023 A 
HETATM    9  C14 UNL     1     -28.478 -22.822 -36.869  1.00  0.00     0.052 C 
ENDROOT
BRANCH   1  10
HETATM   10  O2  UNL     1     -29.979 -25.136 -36.819  1.00  0.00    -0.348 OA
BRANCH  10  11
HETATM   11  C5  UNL     1     -30.542 -26.110 -37.611  1.00  0.00     0.201 C 
BRANCH  11  12
HETATM   12  C4  UNL     1     -29.737 -26.328 -38.854  1.00  0.00     0.194 C 
BRANCH  12  13
HETATM   13  O1  UNL     1     -28.400 -26.072 -38.714  1.00  0.00    -0.389 OA
BRANCH  13  14
HETATM   14  C3  UNL     1     -27.816 -25.249 -39.627  1.00  0.00     0.167 C 
BRANCH  14  15
HETATM   15  C2  UNL     1     -28.724 -24.392 -40.440  1.00  0.00     0.022 C 
HETATM   16  C1  UNL     1     -27.992 -23.310 -41.200  1.00  0.00     0.007 C 
ENDBRANCH  14  15
ENDBRANCH  13  14
ENDBRANCH  12  13
ENDBRANCH  11  12
ENDBRANCH  10  11
ENDBRANCH   1  10
TORSDOF 6
ENDMDL
MODEL 4
REMARK VINA RESULT: -5.387731095      2.098      6.186
REMARK  6 active torsions:
REMARK  status: ('A' for Active; 'I' for Inactive)
REMARK    1  A    between atoms: C2_2  and  C3_3 
REMARK    2  A    between atoms: C3_3  and  O1_4 
REMARK    3  A    between atoms: O1_4  and  C4_5 
REMARK    4  A    between atoms: C4_5  and  C5_6 
REMARK    5  A    between atoms: C5_6  and  O2_7 
REMARK    6  A    between atoms: O2_7  and  C6_8 
ROOT
HETATM    1  C6  UNL     1     -29.783 -24.130 -36.858  1.00  0.00     0.075 A 
HETATM    2  C7  UNL     1     -30.817 -25.037 -36.879  1.00  0.00     0.044 A 
HETATM    3  C8  UNL     1     -30.872 -26.133 -37.743  1.00  0.00    -0.059 A 
HETATM    4  C9  UNL     1     -32.014 -27.081 -37.723  1.00  0.00     0.048 C 
HETATM    5  C10 UNL     1     -29.811 -26.281 -38.607  1.00  0.00     0.014 A 
HETATM    6  C11 UNL     1     -28.771 -25.377 -38.592  1.00  0.00    -0.053 A 
HETATM    7  C12 UNL     1     -27.652 -25.584 -39.546  1.00  0.00     0.049 C 
HETATM    8  C13 UNL     1     -28.707 -24.302 -37.753  1.00  0.00    -0.023 A 
HETATM    9  C14 UNL     1     -27.588 -23.334 -37.741  1.00  0.00     0.052 C 
ENDROOT
BRANCH   1  10
HETATM   10  O2  UNL     1     -29.728 -23.069 -36.022  1.00  0.00    -0.348 OA
BRANCH  10  11
HETATM   11  C5  UNL     1     -30.598 -22.067 -35.658  1.00  0.00     0.201 C 
BRANCH  11  12
HETATM   12  C4  UNL     1     -29.871 -20.780 -35.419  1.00  0.00     0.194 C 
BRANCH  12  13
HETATM   13  O1  UNL     1     -30.640 -19.791 -34.868  1.00  0.00    -0.389 OA
BRANCH  13  14
HETATM   14  C3  UNL     1     -31.988 -19.975 -34.851  1.00  0.00     0.167 C 
BRANCH  14  15
HETATM   15  C2  UNL     1     -32.665 -19.883 -33.526  1.00  0.00     0.022 C 
HETATM   16  C1  UNL     1     -32.762 -18.467 -33.009  1.00  0.00     0.007 C 
ENDBRANCH  14  15
ENDBRANCH  13  14
ENDBRANCH  12  13
ENDBRANCH  11  12
ENDBRANCH  10  11
ENDBRANCH   1  10
TORSDOF 6
ENDMDL
MODEL 5
REMARK VINA RESULT: -5.368504183      1.969      6.225
REMARK  6 active torsions:
REMARK  status: ('A' for Active; 'I' for Inactive)
REMARK    1  A    between atoms: C2_2  and  C3_3 
REMARK    2  A    between atoms: C3_3  and  O1_4 
REMARK    3  A    between atoms: O1_4  and  C4_5 
REMARK    4  A    between atoms: C4_5  and  C5_6 
REMARK    5  A    between atoms: C5_6  and  O2_7 
REMARK    6  A    between atoms: O2_7  and  C6_8 
ROOT
HETATM    1  C6  UNL     1     -29.311 -23.960 -36.611  1.00  0.00     0.075 A 
HETATM    2  C7  UNL     1     -28.392 -24.312 -37.573  1.00  0.00     0.044 A 
HETATM    3  C8  UNL     1     -28.595 -25.330 -38.506  1.00  0.00    -0.059 A 
HETATM    4  C9  UNL     1     -27.567 -25.668 -39.523  1.00  0.00     0.048 C 
HETATM    5  C10 UNL     1     -29.797 -25.997 -38.429  1.00  0.00     0.014 A 
HETATM    6  C11 UNL     1     -30.723 -25.650 -37.469  1.00  0.00    -0.053 A 
HETATM    7  C12 UNL     1     -32.003 -26.402 -37.430  1.00  0.00     0.049 C 
HETATM    8  C13 UNL     1     -30.535 -24.657 -36.551  1.00  0.00    -0.023 A 
HETATM    9  C14 UNL     1     -31.533 -24.289 -35.523  1.00  0.00     0.052 C 
ENDROOT
BRANCH   1  10
HETATM   10  O2  UNL     1     -29.116 -22.973 -35.708  1.00  0.00    -0.348 OA
BRANCH  10  11
HETATM   11  C5  UNL     1     -28.884 -21.618 -35.777  1.00  0.00     0.201 C 
BRANCH  11  12
HETATM   12  C4  UNL     1     -30.098 -20.840 -35.378  1.00  0.00     0.194 C 
BRANCH  12  13
HETATM   13  O1  UNL     1     -29.886 -19.496 -35.235  1.00  0.00    -0.389 OA
BRANCH  13  14
HETATM   14  C3  UNL     1     -30.851 -18.767 -34.611  1.00  0.00     0.167 C 
BRANCH  14  15
HETATM   15  C2  UNL     1     -31.911 -19.529 -33.891  1.00  0.00     0.022 C 
HETATM   16  C1  UNL     1     -32.837 -18.641 -33.092  1.00  0.00     0.007 C 
ENDBRANCH  14  15
ENDBRANCH  13  14
ENDBRANCH  12  13
ENDBRANCH  11  12
ENDBRANCH  10  11
ENDBRANCH   1  10
TORSDOF 6
ENDMDL
