MODEL 1
REMARK VINA RESULT: -5.320707462      0.000      0.000
REMARK  5 active torsions:
REMARK  status: ('A' for Active; 'I' for Inactive)
REMARK    1  A    between atoms: C2_2  and  C3_3 
REMARK    2  A    between atoms: C3_3  and  C6_6 
REMARK    3  A    between atoms: C6_6  and  C7_7 
REMARK    4  A    between atoms: C7_7  and  C8_8 
REMARK    5  A    between atoms: C8_8  and  O2_10 
ROOT
HETATM    1  C7  UNL     1     -32.219 -22.273 -34.634  1.00  0.00     0.052 C 
HETATM    2  C10 UNL     1     -33.454 -23.030 -34.285  1.00  0.00     0.020 C 
HETATM    3  C11 UNL     1     -33.322 -23.957 -33.110  1.00  0.00     0.001 C 
HETATM    4  C12 UNL     1     -31.962 -24.649 -33.156  1.00  0.00     0.000 C 
HETATM    5  C13 UNL     1     -30.889 -23.631 -33.040  1.00  0.00     0.001 C 
HETATM    6  C14 UNL     1     -31.203 -22.257 -33.556  1.00  0.00     0.020 C 
ENDROOT
BRANCH   1   7
HETATM    7  C6  UNL     1     -32.508 -20.923 -35.222  1.00  0.00     0.058 C 
BRANCH   7   8
HETATM    8  C3  UNL     1     -32.344 -19.738 -34.430  1.00  0.00    -0.062 C 
HETATM    9  C4  UNL     1     -33.046 -19.328 -33.429  1.00  0.00    -0.024 C 
HETATM   10  C5  UNL     1     -32.688 -18.068 -32.725  1.00  0.00     0.036 C 
BRANCH   8  11
HETATM   11  C2  UNL     1     -31.182 -18.872 -34.811  1.00  0.00    -0.004 C 
HETATM   12  C1  UNL     1     -29.966 -19.344 -34.931  1.00  0.00     0.012 C 
ENDBRANCH   8  11
ENDBRANCH   7   8
ENDBRANCH   1   7
BRANCH   1  13
HETATM   13  C8  UNL     1     -31.590 -23.033 -35.792  1.00  0.00     0.267 C 
HETATM   14  O1  UNL     1     -32.229 -23.865 -36.426  1.00  0.00    -0.264 OA
BRANCH  13  15
HETATM   15  O2  UNL     1     -30.278 -22.740 -36.090  1.00  0.00    -0.326 OA
HETATM   16  C9  UNL     1     -29.340 -23.717 -36.502  1.00  0.00     0.213 C 
ENDBRANCH  13  15
ENDBRANCH   1  13
TORSDOF 5
ENDMDL
MODEL 2
REMARK VINA RESULT: -5.126829501      1.023      1.714
REMARK  5 active torsions:
REMARK  status: ('A' for Active; 'I' for Inactive)
REMARK    1  A    between atoms: C2_2  and  C3_3 
REMARK    2  A    between atoms: C3_3  and  C6_6 
REMARK    3  A    between atoms: C6_6  and  C7_7 
REMARK    4  A    between atoms: C7_7  and  C8_8 
REMARK    5  A    between atoms: C8_8  and  O2_10 
ROOT
HETATM    1  C7  UNL     1     -31.501 -22.849 -34.618  1.00  0.00     0.052 C 
HETATM    2  C10 UNL     1     -32.907 -23.299 -34.408  1.00  0.00     0.020 C 
HETATM    3  C11 UNL     1     -33.140 -24.092 -33.154  1.00  0.00     0.001 C 
HETATM    4  C12 UNL     1     -31.967 -25.042 -32.925  1.00  0.00     0.000 C 
HETATM    5  C13 UNL     1     -30.727 -24.252 -32.725  1.00  0.00     0.001 C 
HETATM    6  C14 UNL     1     -30.665 -22.913 -33.398  1.00  0.00     0.020 C 
ENDROOT
BRANCH   1   7
HETATM    7  C6  UNL     1     -31.410 -21.546 -35.356  1.00  0.00     0.058 C 
BRANCH   7   8
HETATM    8  C3  UNL     1     -31.088 -20.337 -34.654  1.00  0.00    -0.062 C 
HETATM    9  C4  UNL     1     -30.037 -19.595 -34.756  1.00  0.00    -0.024 C 
HETATM   10  C5  UNL     1     -29.908 -18.357 -33.942  1.00  0.00     0.036 C 
BRANCH   8  11
HETATM   11  C2  UNL     1     -32.127 -19.866 -33.684  1.00  0.00    -0.004 C 
HETATM   12  C1  UNL     1     -33.378 -19.688 -34.029  1.00  0.00     0.012 C 
ENDBRANCH   8  11
ENDBRANCH   7   8
ENDBRANCH   1   7
BRANCH   1  13
HETATM   13  C8  UNL     1     -30.896 -23.848 -35.594  1.00  0.00     0.267 C 
HETATM   14  O1  UNL     1     -31.604 -24.512 -36.342  1.00  0.00    -0.264 OA
BRANCH  13  15
HETATM   15  O2  UNL     1     -29.525 -23.966 -35.594  1.00  0.00    -0.326 OA
HETATM   16  C9  UNL     1     -28.733 -23.811 -36.757  1.00  0.00     0.213 C 
ENDBRANCH  13  15
ENDBRANCH   1  13
TORSDOF 5
ENDMDL
MODEL 3
REMARK VINA RESULT: -5.115501221      1.766      3.003
REMARK  5 active torsions:
REMARK  status: ('A' for Active; 'I' for Inactive)
REMARK    1  A    between atoms: C2_2  and  C3_3 
REMARK    2  A    between atoms: C3_3  and  C6_6 
REMARK    3  A    between atoms: C6_6  and  C7_7 
REMARK    4  A    between atoms: C7_7  and  C8_8 
REMARK    5  A    between atoms: C8_8  and  O2_10 
ROOT
HETATM    1  C7  UNL     1     -32.905 -22.630 -34.671  1.00  0.00     0.052 C 
HETATM    2  C10 UNL     1     -32.169 -23.079 -35.886  1.00  0.00     0.020 C 
HETATM    3  C11 UNL     1     -33.013 -23.240 -37.119  1.00  0.00     0.001 C 
HETATM    4  C12 UNL     1     -34.357 -23.858 -36.740  1.00  0.00     0.000 C 
HETATM    5  C13 UNL     1     -35.079 -22.939 -35.825  1.00  0.00     0.001 C 
HETATM    6  C14 UNL     1     -34.237 -22.048 -34.960  1.00  0.00     0.020 C 
ENDROOT
BRANCH   1   7
HETATM    7  C6  UNL     1     -32.060 -21.798 -33.751  1.00  0.00     0.058 C 
BRANCH   7   8
HETATM    8  C3  UNL     1     -32.142 -20.366 -33.790  1.00  0.00    -0.062 C 
HETATM    9  C4  UNL     1     -32.838 -19.573 -33.047  1.00  0.00    -0.024 C 
HETATM   10  C5  UNL     1     -32.761 -18.100 -33.241  1.00  0.00     0.036 C 
BRANCH   8  11
HETATM   11  C2  UNL     1     -31.284 -19.706 -34.825  1.00  0.00    -0.004 C 
HETATM   12  C1  UNL     1     -30.029 -20.035 -35.009  1.00  0.00     0.012 C 
ENDBRANCH   8  11
ENDBRANCH   7   8
ENDBRANCH   1   7
BRANCH   1  13
HETATM   13  C8  UNL     1     -33.165 -23.892 -33.863  1.00  0.00     0.267 C 
HETATM   14  O1  UNL     1     -33.979 -23.901 -32.946  1.00  0.00    -0.264 OA
BRANCH  13  15
HETATM   15  O2  UNL     1     -32.447 -25.013 -34.210  1.00  0.00    -0.326 OA
HETATM   16  C9  UNL     1     -32.997 -26.317 -34.211  1.00  0.00     0.213 C 
ENDBRANCH  13  15
ENDBRANCH   1  13
TORSDOF 5
ENDMDL
MODEL 4
REMARK VINA RESULT: -5.109537123      3.527      6.104
REMARK  5 active torsions:
REMARK  status: ('A' for Active; 'I' for Inactive)
REMARK    1  A    between atoms: C2_2  and  C3_3 
REMARK    2  A    between atoms: C3_3  and  C6_6 
REMARK    3  A    between atoms: C6_6  and  C7_7 
REMARK    4  A    between atoms: C7_7  and  C8_8 
REMARK    5  A    between atoms: C8_8  and  O2_10 
ROOT
HETATM    1  C7  UNL     1     -31.259 -25.466 -38.023  1.00  0.00     0.052 C 
HETATM    2  C10 UNL     1     -32.087 -26.695 -37.870  1.00  0.00     0.020 C 
HETATM    3  C11 UNL     1     -33.539 -26.531 -38.220  1.00  0.00     0.001 C 
HETATM    4  C12 UNL     1     -34.037 -25.178 -37.715  1.00  0.00     0.000 C 
HETATM    5  C13 UNL     1     -33.291 -24.094 -38.401  1.00  0.00     0.001 C 
HETATM    6  C14 UNL     1     -31.896 -24.414 -38.850  1.00  0.00     0.020 C 
ENDROOT
BRANCH   1   7
HETATM    7  C6  UNL     1     -29.837 -25.764 -38.401  1.00  0.00     0.058 C 
BRANCH   7   8
HETATM    8  C3  UNL     1     -29.113 -24.869 -39.257  1.00  0.00    -0.062 C 
HETATM    9  C4  UNL     1     -29.273 -24.645 -40.518  1.00  0.00    -0.024 C 
HETATM   10  C5  UNL     1     -28.420 -23.650 -41.219  1.00  0.00     0.036 C 
BRANCH   8  11
HETATM   11  C2  UNL     1     -28.036 -24.074 -38.585  1.00  0.00    -0.004 C 
HETATM   12  C1  UNL     1     -27.305 -24.564 -37.614  1.00  0.00     0.012 C 
ENDBRANCH   8  11
ENDBRANCH   7   8
ENDBRANCH   1   7
BRANCH   1  13
HETATM   13  C8  UNL     1     -31.135 -24.882 -36.624  1.00  0.00     0.267 C 
HETATM   14  O1  UNL     1     -31.357 -25.564 -35.631  1.00  0.00    -0.264 OA
BRANCH  13  15
HETATM   15  O2  UNL     1     -30.764 -23.559 -36.531  1.00  0.00    -0.326 OA
HETATM   16  C9  UNL     1     -29.979 -23.047 -35.471  1.00  0.00     0.213 C 
ENDBRANCH  13  15
ENDBRANCH   1  13
TORSDOF 5
ENDMDL
MODEL 5
REMARK VINA RESULT: -5.106858159      4.001      6.160
REMARK  5 active torsions:
REMARK  status: ('A' for Active; 'I' for Inactive)
REMARK    1  A    between atoms: C2_2  and  C3_3 
REMARK    2  A    between atoms: C3_3  and  C6_6 
REMARK    3  A    between atoms: C6_6  and  C7_7 
REMARK    4  A    between atoms: C7_7  and  C8_8 
REMARK    5  A    between atoms: C8_8  and  O2_10 
ROOT
HETATM    1  C7  UNL     1     -31.296 -25.220 -37.973  1.00  0.00     0.052 C 
HETATM    2  C10 UNL     1     -32.186 -24.444 -38.881  1.00  0.00     0.020 C 
HETATM    3  C11 UNL     1     -32.958 -23.336 -38.221  1.00  0.00     0.001 C 
HETATM    4  C12 UNL     1     -33.443 -23.798 -36.849  1.00  0.00     0.000 C 
HETATM    5  C13 UNL     1     -32.271 -24.095 -35.989  1.00  0.00     0.001 C 
HETATM    6  C14 UNL     1     -31.019 -24.544 -36.684  1.00  0.00     0.020 C 
ENDROOT
BRANCH   1   7
HETATM    7  C6  UNL     1     -30.071 -25.744 -38.665  1.00  0.00     0.058 C 
BRANCH   7   8
HETATM    8  C3  UNL     1     -29.218 -24.853 -39.398  1.00  0.00    -0.062 C 
HETATM    9  C4  UNL     1     -29.292 -24.494 -40.635  1.00  0.00    -0.024 C 
HETATM   10  C5  UNL     1     -28.309 -23.532 -41.200  1.00  0.00     0.036 C 
BRANCH   8  11
HETATM   11  C2  UNL     1     -28.100 -24.245 -38.608  1.00  0.00    -0.004 C 
HETATM   12  C1  UNL     1     -27.403 -24.932 -37.737  1.00  0.00     0.012 C 
ENDBRANCH   8  11
ENDBRANCH   7   8
ENDBRANCH   1   7
BRANCH   1  13
HETATM   13  C8  UNL     1     -32.069 -26.483 -37.627  1.00  0.00     0.267 C 
HETATM   14  O1  UNL     1     -33.018 -26.853 -38.309  1.00  0.00    -0.264 OA
BRANCH  13  15
HETATM   15  O2  UNL     1     -31.653 -27.185 -36.518  1.00  0.00    -0.326 OA
HETATM   16  C9  UNL     1     -32.535 -27.917 -35.687  1.00  0.00     0.213 C 
ENDBRANCH  13  15
ENDBRANCH   1  13
TORSDOF 5
ENDMDL
