MODEL 1
REMARK VINA RESULT: -5.857590804      0.000      0.000
REMARK  5 active torsions:
REMARK  status: ('A' for Active; 'I' for Inactive)
REMARK    1  A    between atoms: C3_3  and  C4_4 
REMARK    2  A    between atoms: C4_4  and  C5_5 
REMARK    3  A    between atoms: C8_8  and  C9_9 
REMARK    4  A    between atoms: C9_9  and  O2_11 
REMARK    5  A    between atoms: O2_11  and  C10_12 
ROOT
HETATM    1  C5  UNL     1     -31.251 -22.246 -34.407  1.00  0.00    -0.011 C 
HETATM    2  C6  UNL     1     -31.668 -23.055 -35.564  1.00  0.00     0.006 C 
HETATM    3  C7  UNL     1     -30.610 -23.370 -36.569  1.00  0.00     0.015 C 
HETATM    4  C8  UNL     1     -29.215 -23.010 -36.098  1.00  0.00     0.085 C 
HETATM    5  C13 UNL     1     -29.280 -21.526 -35.808  1.00  0.00     0.015 C 
HETATM    6  C14 UNL     1     -30.124 -21.297 -34.616  1.00  0.00     0.006 C 
ENDROOT
BRANCH   4   7
HETATM    7  C9  UNL     1     -28.281 -23.320 -37.200  1.00  0.00     0.263 C 
HETATM    8  O1  UNL     1     -27.361 -22.517 -37.461  1.00  0.00    -0.265 OA
BRANCH   7   9
HETATM    9  O2  UNL     1     -28.440 -24.479 -37.909  1.00  0.00    -0.317 OA
BRANCH   9  10
HETATM   10  C10 UNL     1     -28.148 -24.602 -39.292  1.00  0.00     0.123 C 
HETATM   11  C11 UNL     1     -29.470 -24.605 -40.030  1.00  0.00     0.040 C 
HETATM   12  C12 UNL     1     -27.402 -25.910 -39.474  1.00  0.00     0.040 C 
ENDBRANCH   9  10
ENDBRANCH   7   9
ENDBRANCH   4   7
BRANCH   1  13
HETATM   13  C4  UNL     1     -32.399 -21.455 -33.786  1.00  0.00     0.031 C 
BRANCH  13  14
HETATM   14  C3  UNL     1     -32.126 -20.010 -33.695  1.00  0.00    -0.031 C 
HETATM   15  C2  UNL     1     -32.887 -19.165 -32.993  1.00  0.00    -0.035 C 
HETATM   16  C1  UNL     1     -32.553 -17.724 -32.947  1.00  0.00     0.036 C 
ENDBRANCH  13  14
ENDBRANCH   1  13
TORSDOF 5
ENDMDL
MODEL 2
REMARK VINA RESULT: -5.791713178      1.863      2.611
REMARK  5 active torsions:
REMARK  status: ('A' for Active; 'I' for Inactive)
REMARK    1  A    between atoms: C3_3  and  C4_4 
REMARK    2  A    between atoms: C4_4  and  C5_5 
REMARK    3  A    between atoms: C8_8  and  C9_9 
REMARK    4  A    between atoms: C9_9  and  O2_11 
REMARK    5  A    between atoms: O2_11  and  C10_12 
ROOT
HETATM    1  C5  UNL     1     -32.526 -20.777 -34.412  1.00  0.00    -0.011 C 
HETATM    2  C6  UNL     1     -31.163 -20.554 -34.921  1.00  0.00     0.006 C 
HETATM    3  C7  UNL     1     -30.409 -21.768 -35.353  1.00  0.00     0.015 C 
HETATM    4  C8  UNL     1     -31.273 -23.011 -35.426  1.00  0.00     0.085 C 
HETATM    5  C13 UNL     1     -31.831 -23.173 -34.028  1.00  0.00     0.015 C 
HETATM    6  C14 UNL     1     -32.798 -22.087 -33.759  1.00  0.00     0.006 C 
ENDROOT
BRANCH   4   7
HETATM    7  C9  UNL     1     -30.397 -24.138 -35.809  1.00  0.00     0.263 C 
HETATM    8  O1  UNL     1     -29.177 -24.075 -35.549  1.00  0.00    -0.265 OA
BRANCH   7   9
HETATM    9  O2  UNL     1     -30.938 -25.226 -36.436  1.00  0.00    -0.317 OA
BRANCH   9  10
HETATM   10  C10 UNL     1     -30.429 -25.773 -37.643  1.00  0.00     0.123 C 
HETATM   11  C11 UNL     1     -30.725 -24.778 -38.745  1.00  0.00     0.040 C 
HETATM   12  C12 UNL     1     -31.146 -27.090 -37.870  1.00  0.00     0.040 C 
ENDBRANCH   9  10
ENDBRANCH   7   9
ENDBRANCH   4   7
BRANCH   1  13
HETATM   13  C4  UNL     1     -32.991 -19.688 -33.448  1.00  0.00     0.031 C 
BRANCH  13  14
HETATM   14  C3  UNL     1     -32.098 -18.517 -33.422  1.00  0.00    -0.031 C 
HETATM   15  C2  UNL     1     -32.365 -17.409 -32.725  1.00  0.00    -0.035 C 
HETATM   16  C1  UNL     1     -31.422 -16.268 -32.746  1.00  0.00     0.036 C 
ENDBRANCH  13  14
ENDBRANCH   1  13
TORSDOF 5
ENDMDL
MODEL 3
REMARK VINA RESULT: -5.787652187      1.708      2.080
REMARK  5 active torsions:
REMARK  status: ('A' for Active; 'I' for Inactive)
REMARK    1  A    between atoms: C3_3  and  C4_4 
REMARK    2  A    between atoms: C4_4  and  C5_5 
REMARK    3  A    between atoms: C8_8  and  C9_9 
REMARK    4  A    between atoms: C9_9  and  O2_11 
REMARK    5  A    between atoms: O2_11  and  C10_12 
ROOT
HETATM    1  C5  UNL     1     -32.276 -21.302 -33.854  1.00  0.00    -0.011 C 
HETATM    2  C6  UNL     1     -32.980 -22.275 -34.705  1.00  0.00     0.006 C 
HETATM    3  C7  UNL     1     -32.124 -23.213 -35.488  1.00  0.00     0.015 C 
HETATM    4  C8  UNL     1     -30.665 -23.168 -35.082  1.00  0.00     0.085 C 
HETATM    5  C13 UNL     1     -30.251 -21.728 -35.298  1.00  0.00     0.015 C 
HETATM    6  C14 UNL     1     -30.921 -20.871 -34.297  1.00  0.00     0.006 C 
ENDROOT
BRANCH   4   7
HETATM    7  C9  UNL     1     -29.929 -24.096 -35.966  1.00  0.00     0.263 C 
HETATM    8  O1  UNL     1     -28.736 -23.852 -36.245  1.00  0.00    -0.265 OA
BRANCH   7   9
HETATM    9  O2  UNL     1     -30.566 -25.201 -36.460  1.00  0.00    -0.317 OA
BRANCH   9  10
HETATM   10  C10 UNL     1     -30.379 -25.696 -37.776  1.00  0.00     0.123 C 
HETATM   11  C11 UNL     1     -31.122 -24.768 -38.713  1.00  0.00     0.040 C 
HETATM   12  C12 UNL     1     -30.952 -27.100 -37.808  1.00  0.00     0.040 C 
ENDBRANCH   9  10
ENDBRANCH   7   9
ENDBRANCH   4   7
BRANCH   1  13
HETATM   13  C4  UNL     1     -33.088 -20.036 -33.592  1.00  0.00     0.031 C 
BRANCH  13  14
HETATM   14  C3  UNL     1     -32.260 -18.822 -33.505  1.00  0.00    -0.031 C 
HETATM   15  C2  UNL     1     -32.593 -17.761 -32.765  1.00  0.00    -0.035 C 
HETATM   16  C1  UNL     1     -31.712 -16.572 -32.725  1.00  0.00     0.036 C 
ENDBRANCH  13  14
ENDBRANCH   1  13
TORSDOF 5
ENDMDL
MODEL 4
REMARK VINA RESULT: -5.621980201      3.054      7.090
REMARK  5 active torsions:
REMARK  status: ('A' for Active; 'I' for Inactive)
REMARK    1  A    between atoms: C3_3  and  C4_4 
REMARK    2  A    between atoms: C4_4  and  C5_5 
REMARK    3  A    between atoms: C8_8  and  C9_9 
REMARK    4  A    between atoms: C9_9  and  O2_11 
REMARK    5  A    between atoms: O2_11  and  C10_12 
ROOT
HETATM    1  C5  UNL     1     -29.821 -22.674 -35.541  1.00  0.00    -0.011 C 
HETATM    2  C6  UNL     1     -29.197 -21.352 -35.712  1.00  0.00     0.006 C 
HETATM    3  C7  UNL     1     -30.022 -20.173 -35.315  1.00  0.00     0.015 C 
HETATM    4  C8  UNL     1     -31.282 -20.553 -34.564  1.00  0.00     0.085 C 
HETATM    5  C13 UNL     1     -32.034 -21.462 -35.513  1.00  0.00     0.015 C 
HETATM    6  C14 UNL     1     -31.304 -22.740 -35.647  1.00  0.00     0.006 C 
ENDROOT
BRANCH   4   7
HETATM    7  C9  UNL     1     -32.024 -19.307 -34.283  1.00  0.00     0.263 C 
HETATM    8  O1  UNL     1     -33.269 -19.348 -34.193  1.00  0.00    -0.265 OA
BRANCH   7   9
HETATM    9  O2  UNL     1     -31.336 -18.135 -34.125  1.00  0.00    -0.317 OA
BRANCH   9  10
HETATM   10  C10 UNL     1     -31.083 -17.534 -32.865  1.00  0.00     0.123 C 
HETATM   11  C11 UNL     1     -32.037 -16.367 -32.726  1.00  0.00     0.040 C 
HETATM   12  C12 UNL     1     -29.637 -17.077 -32.874  1.00  0.00     0.040 C 
ENDBRANCH   9  10
ENDBRANCH   7   9
ENDBRANCH   4   7
BRANCH   1  13
HETATM   13  C4  UNL     1     -29.253 -23.730 -36.486  1.00  0.00     0.031 C 
BRANCH  13  14
HETATM   14  C3  UNL     1     -30.218 -24.793 -36.816  1.00  0.00    -0.031 C 
HETATM   15  C2  UNL     1     -29.954 -25.779 -37.678  1.00  0.00    -0.035 C 
HETATM   16  C1  UNL     1     -30.973 -26.814 -37.963  1.00  0.00     0.036 C 
ENDBRANCH  13  14
ENDBRANCH   1  13
TORSDOF 5
ENDMDL
MODEL 5
REMARK VINA RESULT: -5.619305429      4.165      5.426
REMARK  5 active torsions:
REMARK  status: ('A' for Active; 'I' for Inactive)
REMARK    1  A    between atoms: C3_3  and  C4_4 
REMARK    2  A    between atoms: C4_4  and  C5_5 
REMARK    3  A    between atoms: C8_8  and  C9_9 
REMARK    4  A    between atoms: C9_9  and  O2_11 
REMARK    5  A    between atoms: O2_11  and  C10_12 
ROOT
HETATM    1  C5  UNL     1     -32.506 -25.972 -36.206  1.00  0.00    -0.011 C 
HETATM    2  C6  UNL     1     -32.182 -27.281 -36.795  1.00  0.00     0.006 C 
HETATM    3  C7  UNL     1     -31.184 -27.281 -37.904  1.00  0.00     0.015 C 
HETATM    4  C8  UNL     1     -30.480 -25.949 -38.072  1.00  0.00     0.085 C 
HETATM    5  C13 UNL     1     -31.593 -24.957 -38.328  1.00  0.00     0.015 C 
HETATM    6  C14 UNL     1     -32.387 -24.783 -37.093  1.00  0.00     0.006 C 
ENDROOT
BRANCH   4   7
HETATM    7  C9  UNL     1     -29.568 -26.071 -39.228  1.00  0.00     0.263 C 
HETATM    8  O1  UNL     1     -29.061 -27.183 -39.487  1.00  0.00    -0.265 OA
BRANCH   7   9
HETATM    9  O2  UNL     1     -29.297 -24.969 -39.991  1.00  0.00    -0.317 OA
BRANCH   9  10
HETATM   10  C10 UNL     1     -28.014 -24.371 -40.085  1.00  0.00     0.123 C 
HETATM   11  C11 UNL     1     -27.731 -23.707 -38.754  1.00  0.00     0.040 C 
HETATM   12  C12 UNL     1     -28.077 -23.360 -41.213  1.00  0.00     0.040 C 
ENDBRANCH   9  10
ENDBRANCH   7   9
ENDBRANCH   4   7
BRANCH   1  13
HETATM   13  C4  UNL     1     -33.895 -25.927 -35.573  1.00  0.00     0.031 C 
BRANCH  13  14
HETATM   14  C3  UNL     1     -34.886 -26.747 -36.290  1.00  0.00    -0.031 C 
HETATM   15  C2  UNL     1     -35.759 -26.241 -37.165  1.00  0.00    -0.035 C 
HETATM   16  C1  UNL     1     -36.729 -27.126 -37.849  1.00  0.00     0.036 C 
ENDBRANCH  13  14
ENDBRANCH   1  13
TORSDOF 5
ENDMDL
