MODEL 1
REMARK VINA RESULT: -5.481180568      0.000      0.000
REMARK  10 active torsions:
REMARK  status: ('A' for Active; 'I' for Inactive)
REMARK    1  A    between atoms: C2_2  and  C3_3 
REMARK    2  A    between atoms: C3_3  and  C4_4 
REMARK    3  A    between atoms: C6_6  and  C7_7 
REMARK    4  A    between atoms: C10_10  and  C11_11 
REMARK    5  A    between atoms: C11_11  and  O1_12 
REMARK    6  A    between atoms: O1_12  and  C12_13 
REMARK    7  A    between atoms: C12_13  and  C14_15 
REMARK    8  A    between atoms: C14_15  and  O2_16 
REMARK    9  A    between atoms: C14_15  and  C15_18 
REMARK   10  A    between atoms: C15_18  and  C16_19 
ROOT
HETATM    1  C4  UNL     1       1.298   0.004   8.258  1.00  0.00    -0.057 A 
HETATM    2  C5  UNL     1       1.959  -1.141   8.686  1.00  0.00     0.014 A 
HETATM    3  C6  UNL     1       3.183  -1.527   8.198  1.00  0.00    -0.057 A 
HETATM    4  C9  UNL     1       3.758  -0.719   7.236  1.00  0.00     0.016 A 
HETATM    5  C10 UNL     1       3.163   0.431   6.763  1.00  0.00    -0.034 A 
HETATM    6  C18 UNL     1       1.921   0.772   7.296  1.00  0.00     0.016 A 
ENDROOT
BRANCH   5   7
HETATM    7  C11 UNL     1       3.822   1.269   5.726  1.00  0.00     0.207 C 
BRANCH   7   8
HETATM    8  O1  UNL     1       4.566   0.451   4.908  1.00  0.00    -0.379 OA
BRANCH   8   9
HETATM    9  C12 UNL     1       5.851   0.886   4.690  1.00  0.00     0.146 C 
HETATM   10  C13 UNL     1       6.501   1.462   5.928  1.00  0.00     0.042 C 
BRANCH   9  11
HETATM   11  C14 UNL     1       6.685  -0.339   4.297  1.00  0.00     0.146 C 
BRANCH  11  12
HETATM   12  O2  UNL     1       5.835  -1.424   4.296  1.00  0.00    -0.393 OA
ATOM     13  H2  UNL     1       6.274  -2.124   4.764  1.00  0.00     0.210 HD
ENDBRANCH  11  12
BRANCH  11  14
HETATM   14  C15 UNL     1       7.172  -0.092   2.882  1.00  0.00     0.034 C 
BRANCH  14  15
HETATM   15  C16 UNL     1       8.603   0.393   2.952  1.00  0.00    -0.002 C 
HETATM   16  C17 UNL     1       8.869   1.509   1.977  1.00  0.00     0.005 C 
ENDBRANCH  14  15
ENDBRANCH  11  14
ENDBRANCH   9  11
ENDBRANCH   8   9
ENDBRANCH   7   8
ENDBRANCH   5   7
BRANCH   3  17
HETATM   17  C7  UNL     1       3.859  -2.742   8.670  1.00  0.00     0.034 C 
HETATM   18  C8  UNL     1       3.793  -2.944  10.144  1.00  0.00     0.010 C 
ENDBRANCH   3  17
BRANCH   1  19
HETATM   19  C3  UNL     1      -0.018   0.348   8.834  1.00  0.00     0.038 C 
BRANCH  19  20
HETATM   20  C2  UNL     1      -0.195  -0.257  10.219  1.00  0.00     0.000 C 
HETATM   21  C1  UNL     1       0.567   0.553  11.259  1.00  0.00     0.005 C 
ENDBRANCH  19  20
ENDBRANCH   1  19
TORSDOF 10
ENDMDL
MODEL 2
REMARK VINA RESULT: -5.299355501      1.585      2.863
REMARK  10 active torsions:
REMARK  status: ('A' for Active; 'I' for Inactive)
REMARK    1  A    between atoms: C2_2  and  C3_3 
REMARK    2  A    between atoms: C3_3  and  C4_4 
REMARK    3  A    between atoms: C6_6  and  C7_7 
REMARK    4  A    between atoms: C10_10  and  C11_11 
REMARK    5  A    between atoms: C11_11  and  O1_12 
REMARK    6  A    between atoms: O1_12  and  C12_13 
REMARK    7  A    between atoms: C12_13  and  C14_15 
REMARK    8  A    between atoms: C14_15  and  O2_16 
REMARK    9  A    between atoms: C14_15  and  C15_18 
REMARK   10  A    between atoms: C15_18  and  C16_19 
ROOT
HETATM    1  C4  UNL     1       2.680   0.092   9.655  1.00  0.00    -0.057 A 
HETATM    2  C5  UNL     1       1.667   0.492   8.793  1.00  0.00     0.014 A 
HETATM    3  C6  UNL     1       1.853   0.654   7.442  1.00  0.00    -0.057 A 
HETATM    4  C9  UNL     1       3.118   0.401   6.948  1.00  0.00     0.016 A 
HETATM    5  C10 UNL     1       4.172  -0.000   7.742  1.00  0.00    -0.034 A 
HETATM    6  C18 UNL     1       3.923  -0.148   9.105  1.00  0.00     0.016 A 
ENDROOT
BRANCH   5   7
HETATM    7  C11 UNL     1       5.516  -0.261   7.163  1.00  0.00     0.207 C 
BRANCH   7   8
HETATM    8  O1  UNL     1       5.619   0.413   5.969  1.00  0.00    -0.379 OA
BRANCH   8   9
HETATM    9  C12 UNL     1       6.209  -0.309   4.959  1.00  0.00     0.146 C 
HETATM   10  C13 UNL     1       5.605  -1.684   4.784  1.00  0.00     0.042 C 
BRANCH   9  11
HETATM   11  C14 UNL     1       5.949   0.445   3.651  1.00  0.00     0.146 C 
BRANCH  11  12
HETATM   12  O2  UNL     1       5.156   1.530   3.958  1.00  0.00    -0.393 OA
ATOM     13  H2  UNL     1       4.598   1.272   4.682  1.00  0.00     0.210 HD
ENDBRANCH  11  12
BRANCH  11  14
HETATM   14  C15 UNL     1       7.297   0.942   3.165  1.00  0.00     0.034 C 
BRANCH  14  15
HETATM   15  C16 UNL     1       7.965  -0.177   2.397  1.00  0.00    -0.002 C 
HETATM   16  C17 UNL     1       9.452   0.031   2.275  1.00  0.00     0.005 C 
ENDBRANCH  14  15
ENDBRANCH  11  14
ENDBRANCH   9  11
ENDBRANCH   8   9
ENDBRANCH   7   8
ENDBRANCH   5   7
BRANCH   3  17
HETATM   17  C7  UNL     1       0.763   1.079   6.554  1.00  0.00     0.034 C 
HETATM   18  C8  UNL     1       1.066   2.301   5.758  1.00  0.00     0.010 C 
ENDBRANCH   3  17
BRANCH   1  19
HETATM   19  C3  UNL     1       2.397  -0.059  11.098  1.00  0.00     0.038 C 
BRANCH  19  20
HETATM   20  C2  UNL     1       0.991   0.410  11.441  1.00  0.00     0.000 C 
HETATM   21  C1  UNL     1       0.019  -0.761  11.434  1.00  0.00     0.005 C 
ENDBRANCH  19  20
ENDBRANCH   1  19
TORSDOF 10
ENDMDL
MODEL 3
REMARK VINA RESULT: -5.223143753      1.131      1.340
REMARK  10 active torsions:
REMARK  status: ('A' for Active; 'I' for Inactive)
REMARK    1  A    between atoms: C2_2  and  C3_3 
REMARK    2  A    between atoms: C3_3  and  C4_4 
REMARK    3  A    between atoms: C6_6  and  C7_7 
REMARK    4  A    between atoms: C10_10  and  C11_11 
REMARK    5  A    between atoms: C11_11  and  O1_12 
REMARK    6  A    between atoms: O1_12  and  C12_13 
REMARK    7  A    between atoms: C12_13  and  C14_15 
REMARK    8  A    between atoms: C14_15  and  O2_16 
REMARK    9  A    between atoms: C14_15  and  C15_18 
REMARK   10  A    between atoms: C15_18  and  C16_19 
ROOT
HETATM    1  C4  UNL     1       1.639   0.096   8.022  1.00  0.00    -0.057 A 
HETATM    2  C5  UNL     1       2.188  -1.053   8.577  1.00  0.00     0.014 A 
HETATM    3  C6  UNL     1       3.391  -1.579   8.174  1.00  0.00    -0.057 A 
HETATM    4  C9  UNL     1       4.062  -0.912   7.168  1.00  0.00     0.016 A 
HETATM    5  C10 UNL     1       3.580   0.234   6.570  1.00  0.00    -0.034 A 
HETATM    6  C18 UNL     1       2.354   0.720   7.021  1.00  0.00     0.016 A 
ENDROOT
BRANCH   5   7
HETATM    7  C11 UNL     1       4.339   0.917   5.490  1.00  0.00     0.207 C 
BRANCH   7   8
HETATM    8  O1  UNL     1       5.565   0.306   5.360  1.00  0.00    -0.379 OA
BRANCH   8   9
HETATM    9  C12 UNL     1       5.785  -0.266   4.130  1.00  0.00     0.146 C 
HETATM   10  C13 UNL     1       4.591  -0.168   3.208  1.00  0.00     0.042 C 
BRANCH   9  11
HETATM   11  C14 UNL     1       6.913   0.524   3.458  1.00  0.00     0.146 C 
BRANCH  11  12
HETATM   12  O2  UNL     1       7.810   0.870   4.446  1.00  0.00    -0.393 OA
ATOM     13  H2  UNL     1       8.671   0.892   4.047  1.00  0.00     0.210 HD
ENDBRANCH  11  12
BRANCH  11  14
HETATM   14  C15 UNL     1       7.590  -0.430   2.491  1.00  0.00     0.034 C 
BRANCH  14  15
HETATM   15  C16 UNL     1       8.936   0.150   2.119  1.00  0.00    -0.002 C 
HETATM   16  C17 UNL     1       9.451  -0.408   0.818  1.00  0.00     0.005 C 
ENDBRANCH  14  15
ENDBRANCH  11  14
ENDBRANCH   9  11
ENDBRANCH   8   9
ENDBRANCH   7   8
ENDBRANCH   5   7
BRANCH   3  17
HETATM   17  C7  UNL     1       3.947  -2.796   8.779  1.00  0.00     0.034 C 
HETATM   18  C8  UNL     1       3.704  -2.917  10.243  1.00  0.00     0.010 C 
ENDBRANCH   3  17
BRANCH   1  19
HETATM   19  C3  UNL     1       0.338   0.596   8.513  1.00  0.00     0.038 C 
BRANCH  19  20
HETATM   20  C2  UNL     1      -0.073  -0.095   9.805  1.00  0.00     0.000 C 
HETATM   21  C1  UNL     1       0.523   0.620  11.009  1.00  0.00     0.005 C 
ENDBRANCH  19  20
ENDBRANCH   1  19
TORSDOF 10
ENDMDL
MODEL 4
REMARK VINA RESULT: -5.112231065      5.264      9.410
REMARK  10 active torsions:
REMARK  status: ('A' for Active; 'I' for Inactive)
REMARK    1  A    between atoms: C2_2  and  C3_3 
REMARK    2  A    between atoms: C3_3  and  C4_4 
REMARK    3  A    between atoms: C6_6  and  C7_7 
REMARK    4  A    between atoms: C10_10  and  C11_11 
REMARK    5  A    between atoms: C11_11  and  O1_12 
REMARK    6  A    between atoms: O1_12  and  C12_13 
REMARK    7  A    between atoms: C12_13  and  C14_15 
REMARK    8  A    between atoms: C14_15  and  O2_16 
REMARK    9  A    between atoms: C14_15  and  C15_18 
REMARK   10  A    between atoms: C15_18  and  C16_19 
ROOT
HETATM    1  C4  UNL     1       8.037   0.160   2.381  1.00  0.00    -0.057 A 
HETATM    2  C5  UNL     1       7.950   1.513   2.077  1.00  0.00     0.014 A 
HETATM    3  C6  UNL     1       8.745   2.123   1.138  1.00  0.00    -0.057 A 
HETATM    4  C9  UNL     1       9.664   1.329   0.482  1.00  0.00     0.016 A 
HETATM    5  C10 UNL     1       9.807  -0.021   0.729  1.00  0.00    -0.034 A 
HETATM    6  C18 UNL     1       8.973  -0.585   1.693  1.00  0.00     0.016 A 
ENDROOT
BRANCH   5   7
HETATM    7  C11 UNL     1      10.812  -0.836  -0.004  1.00  0.00     0.207 C 
BRANCH   7   8
HETATM    8  O1  UNL     1      11.325  -0.080  -1.032  1.00  0.00    -0.379 OA
BRANCH   8   9
HETATM    9  C12 UNL     1      12.685  -0.194  -1.194  1.00  0.00     0.146 C 
HETATM   10  C13 UNL     1      13.074  -0.895  -2.475  1.00  0.00     0.042 C 
BRANCH   9  11
HETATM   11  C14 UNL     1      13.250   1.227  -1.293  1.00  0.00     0.146 C 
BRANCH  11  12
HETATM   12  O2  UNL     1      14.551   1.180  -0.838  1.00  0.00    -0.393 OA
ATOM     13  H2  UNL     1      15.111   1.410  -1.569  1.00  0.00     0.210 HD
ENDBRANCH  11  12
BRANCH  11  14
HETATM   14  C15 UNL     1      13.257   1.586  -2.767  1.00  0.00     0.034 C 
BRANCH  14  15
HETATM   15  C16 UNL     1      12.065   2.476  -3.043  1.00  0.00    -0.002 C 
HETATM   16  C17 UNL     1      11.149   1.886  -4.083  1.00  0.00     0.005 C 
ENDBRANCH  14  15
ENDBRANCH  11  14
ENDBRANCH   9  11
ENDBRANCH   8   9
ENDBRANCH   7   8
ENDBRANCH   5   7
BRANCH   3  17
HETATM   17  C7  UNL     1       8.631   3.556   0.838  1.00  0.00     0.034 C 
HETATM   18  C8  UNL     1       9.924   4.215   0.504  1.00  0.00     0.010 C 
ENDBRANCH   3  17
BRANCH   1  19
HETATM   19  C3  UNL     1       7.145  -0.419   3.406  1.00  0.00     0.038 C 
BRANCH  19  20
HETATM   20  C2  UNL     1       6.050   0.558   3.807  1.00  0.00     0.000 C 
HETATM   21  C1  UNL     1       4.693  -0.132   3.818  1.00  0.00     0.005 C 
ENDBRANCH  19  20
ENDBRANCH   1  19
TORSDOF 10
ENDMDL
MODEL 5
REMARK VINA RESULT: -5.038211441      1.447      2.698
REMARK  10 active torsions:
REMARK  status: ('A' for Active; 'I' for Inactive)
REMARK    1  A    between atoms: C2_2  and  C3_3 
REMARK    2  A    between atoms: C3_3  and  C4_4 
REMARK    3  A    between atoms: C6_6  and  C7_7 
REMARK    4  A    between atoms: C10_10  and  C11_11 
REMARK    5  A    between atoms: C11_11  and  O1_12 
REMARK    6  A    between atoms: O1_12  and  C12_13 
REMARK    7  A    between atoms: C12_13  and  C14_15 
REMARK    8  A    between atoms: C14_15  and  O2_16 
REMARK    9  A    between atoms: C14_15  and  C15_18 
REMARK   10  A    between atoms: C15_18  and  C16_19 
ROOT
HETATM    1  C4  UNL     1       2.562   0.141   9.759  1.00  0.00    -0.057 A 
HETATM    2  C5  UNL     1       1.538   0.552   8.914  1.00  0.00     0.014 A 
HETATM    3  C6  UNL     1       1.706   0.724   7.562  1.00  0.00    -0.057 A 
HETATM    4  C9  UNL     1       2.962   0.468   7.048  1.00  0.00     0.016 A 
HETATM    5  C10 UNL     1       4.026   0.056   7.824  1.00  0.00    -0.034 A 
HETATM    6  C18 UNL     1       3.795  -0.100   9.190  1.00  0.00     0.016 A 
ENDROOT
BRANCH   5   7
HETATM    7  C11 UNL     1       5.361  -0.206   7.224  1.00  0.00     0.207 C 
BRANCH   7   8
HETATM    8  O1  UNL     1       5.652   0.806   6.340  1.00  0.00    -0.379 OA
BRANCH   8   9
HETATM    9  C12 UNL     1       5.326   0.529   5.034  1.00  0.00     0.146 C 
HETATM   10  C13 UNL     1       5.049   1.769   4.216  1.00  0.00     0.042 C 
BRANCH   9  11
HETATM   11  C14 UNL     1       6.547  -0.144   4.396  1.00  0.00     0.146 C 
BRANCH  11  12
HETATM   12  O2  UNL     1       6.158  -1.410   4.013  1.00  0.00    -0.393 OA
ATOM     13  H2  UNL     1       6.949  -1.896   3.812  1.00  0.00     0.210 HD
ENDBRANCH  11  12
BRANCH  11  14
HETATM   14  C15 UNL     1       6.885   0.664   3.157  1.00  0.00     0.034 C 
BRANCH  14  15
HETATM   15  C16 UNL     1       8.146   0.092   2.549  1.00  0.00    -0.002 C 
HETATM   16  C17 UNL     1       9.336   0.990   2.769  1.00  0.00     0.005 C 
ENDBRANCH  14  15
ENDBRANCH  11  14
ENDBRANCH   9  11
ENDBRANCH   8   9
ENDBRANCH   7   8
ENDBRANCH   5   7
BRANCH   3  17
HETATM   17  C7  UNL     1       0.605   1.159   6.692  1.00  0.00     0.034 C 
HETATM   18  C8  UNL     1       0.973   2.244   5.740  1.00  0.00     0.010 C 
ENDBRANCH   3  17
BRANCH   1  19
HETATM   19  C3  UNL     1       2.298  -0.019  11.204  1.00  0.00     0.038 C 
BRANCH  19  20
HETATM   20  C2  UNL     1       0.883   0.411  11.563  1.00  0.00     0.000 C 
HETATM   21  C1  UNL     1      -0.074  -0.769  11.471  1.00  0.00     0.005 C 
ENDBRANCH  19  20
ENDBRANCH   1  19
TORSDOF 10
ENDMDL
