MODEL 1
REMARK VINA RESULT: -5.103822754      0.000      0.000
REMARK  5 active torsions:
REMARK  status: ('A' for Active; 'I' for Inactive)
REMARK    1  A    between atoms: C2_2  and  C5_5 
REMARK    2  A    between atoms: C6_10  and  O1_11 
REMARK    3  A    between atoms: C7_13  and  C8_14 
REMARK    4  A    between atoms: C8_14  and  C9_15 
REMARK    5  A    between atoms: C9_15  and  C10_16 
ROOT
HETATM    1  C10 UNL     1      -2.747  -2.596  -7.527  1.00  0.00     0.123 A 
HETATM    2  N3  UNL     1      -1.727  -2.338  -6.641  1.00  0.00    -0.284 N 
ATOM      3  H3  UNL     1      -1.707  -1.567  -5.974  1.00  0.00     0.188 HD
HETATM    4  N4  UNL     1      -0.789  -3.236  -6.788  1.00  0.00    -0.285 N 
ATOM      5  H4  UNL     1       0.076  -3.271  -6.250  1.00  0.00     0.188 HD
HETATM    6  C11 UNL     1      -1.133  -4.103  -7.748  1.00  0.00     0.136 A 
HETATM    7  N5  UNL     1      -2.327  -3.709  -8.200  1.00  0.00    -0.317 N 
HETATM    8  C12 UNL     1      -2.960  -4.425  -9.271  1.00  0.00     0.159 C 
HETATM    9  C13 UNL     1      -2.075  -5.458  -9.861  1.00  0.00     0.254 C 
HETATM   10  N6  UNL     1      -1.263  -6.178  -8.953  1.00  0.00    -0.058 N 
ATOM     11  H61 UNL     1      -0.744  -6.920  -9.424  1.00  0.00     0.278 HD
ATOM     12  H62 UNL     1      -1.824  -6.752  -8.324  1.00  0.00     0.278 HD
HETATM   13  C14 UNL     1      -0.369  -5.289  -8.212  1.00  0.00     0.184 C 
HETATM   14  C15 UNL     1       0.112  -6.066  -7.011  1.00  0.00     0.047 C 
HETATM   15  C16 UNL     1       1.599  -6.390  -7.181  1.00  0.00     0.003 C 
HETATM   16  C17 UNL     1       2.319  -5.063  -7.221  1.00  0.00     0.000 C 
HETATM   17  C18 UNL     1       1.947  -4.357  -8.485  1.00  0.00     0.003 C 
HETATM   18  C19 UNL     1       0.735  -4.903  -9.165  1.00  0.00     0.047 C 
ENDROOT
BRANCH   1  19
HETATM   19  C9  UNL     1      -3.950  -1.789  -7.631  1.00  0.00     0.051 C 
BRANCH  19  20
HETATM   20  C8  UNL     1      -4.106  -0.524  -7.459  1.00  0.00     0.022 C 
BRANCH  20  21
HETATM   21  C7  UNL     1      -4.172   0.177  -6.184  1.00  0.00     0.041 A 
HETATM   22  C5  UNL     1      -3.772   1.503  -5.973  1.00  0.00     0.048 A 
HETATM   23  N1  UNL     1      -3.990   1.763  -4.684  1.00  0.00    -0.301 N 
HETATM   24  N2  UNL     1      -4.485   0.720  -4.089  1.00  0.00    -0.279 N 
ATOM     25  H1  UNL     1      -3.796   2.655  -4.229  1.00  0.00     0.186 HD
HETATM   26  C6  UNL     1      -4.620  -0.309  -4.985  1.00  0.00     0.167 A 
ATOM     27  H2  UNL     1      -4.736   0.673  -3.101  1.00  0.00     0.189 HD
BRANCH  22  28
HETATM   28  C2  UNL     1      -3.232   2.381  -6.999  1.00  0.00    -0.006 C 
HETATM   29  C1  UNL     1      -3.261   3.817  -6.467  1.00  0.00     0.021 C 
HETATM   30  C3  UNL     1      -4.109   2.388  -8.255  1.00  0.00     0.021 C 
HETATM   31  C4  UNL     1      -1.786   2.096  -7.346  1.00  0.00     0.021 C 
ENDBRANCH  22  28
BRANCH  26  32
HETATM   32  O1  UNL     1      -5.127  -1.570  -4.650  1.00  0.00    -0.344 OA
ATOM     33  H1  UNL     1      -5.190  -2.292  -5.263  1.00  0.00     0.219 HD
ENDBRANCH  26  32
ENDBRANCH  20  21
ENDBRANCH  19  20
ENDBRANCH   1  19
TORSDOF 5
ENDMDL
MODEL 2
REMARK VINA RESULT: -5.046894895     14.347     15.783
REMARK  5 active torsions:
REMARK  status: ('A' for Active; 'I' for Inactive)
REMARK    1  A    between atoms: C2_2  and  C5_5 
REMARK    2  A    between atoms: C6_10  and  O1_11 
REMARK    3  A    between atoms: C7_13  and  C8_14 
REMARK    4  A    between atoms: C8_14  and  C9_15 
REMARK    5  A    between atoms: C9_15  and  C10_16 
ROOT
HETATM    1  C10 UNL     1       5.568  -0.107   6.746  1.00  0.00     0.123 A 
HETATM    2  N3  UNL     1       6.936  -0.169   6.868  1.00  0.00    -0.284 N 
ATOM      3  H3  UNL     1       7.448  -0.235   7.748  1.00  0.00     0.188 HD
HETATM    4  N4  UNL     1       7.479  -0.130   5.680  1.00  0.00    -0.285 N 
ATOM      5  H4  UNL     1       8.481  -0.161   5.493  1.00  0.00     0.188 HD
HETATM    6  C11 UNL     1       6.525  -0.043   4.745  1.00  0.00     0.136 A 
HETATM    7  N5  UNL     1       5.360  -0.026   5.399  1.00  0.00    -0.317 N 
HETATM    8  C12 UNL     1       4.130   0.096   4.667  1.00  0.00     0.159 C 
HETATM    9  C13 UNL     1       4.353   0.362   3.226  1.00  0.00     0.254 C 
HETATM   10  N6  UNL     1       5.433  -0.326   2.623  1.00  0.00    -0.058 N 
ATOM     11  H61 UNL     1       5.473  -0.152   1.619  1.00  0.00     0.278 HD
ATOM     12  H62 UNL     1       5.270  -1.332   2.603  1.00  0.00     0.278 HD
HETATM   13  C14 UNL     1       6.703  -0.002   3.272  1.00  0.00     0.184 C 
HETATM   14  C15 UNL     1       7.680  -1.077   2.864  1.00  0.00     0.047 C 
HETATM   15  C16 UNL     1       8.729  -0.477   1.922  1.00  0.00     0.003 C 
HETATM   16  C17 UNL     1       9.465   0.571   2.722  1.00  0.00     0.000 C 
HETATM   17  C18 UNL     1       8.529   1.701   3.003  1.00  0.00     0.003 C 
HETATM   18  C19 UNL     1       7.086   1.377   2.794  1.00  0.00     0.047 C 
ENDROOT
BRANCH   1  19
HETATM   19  C9  UNL     1       4.655  -0.128   7.875  1.00  0.00     0.051 C 
BRANCH  19  20
HETATM   20  C8  UNL     1       3.784   0.745   8.242  1.00  0.00     0.022 C 
BRANCH  20  21
HETATM   21  C7  UNL     1       2.336   0.607   8.175  1.00  0.00     0.041 A 
HETATM   22  C5  UNL     1       1.551  -0.093   9.101  1.00  0.00     0.048 A 
HETATM   23  N1  UNL     1       0.289   0.017   8.686  1.00  0.00    -0.301 N 
HETATM   24  N2  UNL     1       0.230   0.718   7.595  1.00  0.00    -0.279 N 
ATOM     25  H1  UNL     1      -0.517  -0.392   9.160  1.00  0.00     0.186 HD
HETATM   26  C6  UNL     1       1.490   1.115   7.226  1.00  0.00     0.167 A 
ATOM     27  H2  UNL     1      -0.626   0.941   7.087  1.00  0.00     0.189 HD
BRANCH  22  28
HETATM   28  C2  UNL     1       2.067  -0.787  10.271  1.00  0.00    -0.006 C 
HETATM   29  C1  UNL     1       0.881  -1.188  11.153  1.00  0.00     0.021 C 
HETATM   30  C3  UNL     1       2.932   0.134  11.136  1.00  0.00     0.021 C 
HETATM   31  C4  UNL     1       2.796  -2.073   9.945  1.00  0.00     0.021 C 
ENDBRANCH  22  28
BRANCH  26  32
HETATM   32  O1  UNL     1       1.760   1.887   6.090  1.00  0.00    -0.344 OA
ATOM     33  H1  UNL     1       2.612   1.932   5.675  1.00  0.00     0.219 HD
ENDBRANCH  26  32
ENDBRANCH  20  21
ENDBRANCH  19  20
ENDBRANCH   1  19
TORSDOF 5
ENDMDL
MODEL 3
REMARK VINA RESULT: -4.950823009      2.134      7.545
REMARK  5 active torsions:
REMARK  status: ('A' for Active; 'I' for Inactive)
REMARK    1  A    between atoms: C2_2  and  C5_5 
REMARK    2  A    between atoms: C6_10  and  O1_11 
REMARK    3  A    between atoms: C7_13  and  C8_14 
REMARK    4  A    between atoms: C8_14  and  C9_15 
REMARK    5  A    between atoms: C9_15  and  C10_16 
ROOT
HETATM    1  C10 UNL     1      -2.190  -1.430  -6.651  1.00  0.00     0.123 A 
HETATM    2  N3  UNL     1      -2.425  -0.653  -5.542  1.00  0.00    -0.284 N 
ATOM      3  H3  UNL     1      -2.466  -0.994  -4.581  1.00  0.00     0.188 HD
HETATM    4  N4  UNL     1      -2.587   0.590  -5.909  1.00  0.00    -0.285 N 
ATOM      5  H4  UNL     1      -2.774   1.368  -5.277  1.00  0.00     0.188 HD
HETATM    6  C11 UNL     1      -2.470   0.692  -7.239  1.00  0.00     0.136 A 
HETATM    7  N5  UNL     1      -2.231  -0.543  -7.690  1.00  0.00    -0.317 N 
HETATM    8  C12 UNL     1      -2.088  -0.775  -9.099  1.00  0.00     0.159 C 
HETATM    9  C13 UNL     1      -2.403   0.428  -9.907  1.00  0.00     0.254 C 
HETATM   10  N6  UNL     1      -1.969   1.667  -9.378  1.00  0.00    -0.058 N 
ATOM     11  H61 UNL     1      -2.153   2.434 -10.025  1.00  0.00     0.278 HD
ATOM     12  H62 UNL     1      -0.951   1.725  -9.349  1.00  0.00     0.278 HD
HETATM   13  C14 UNL     1      -2.557   1.924  -8.063  1.00  0.00     0.184 C 
HETATM   14  C15 UNL     1      -1.721   3.004  -7.423  1.00  0.00     0.047 C 
HETATM   15  C16 UNL     1      -2.539   4.298  -7.346  1.00  0.00     0.003 C 
HETATM   16  C17 UNL     1      -3.717   3.999  -6.449  1.00  0.00     0.000 C 
HETATM   17  C18 UNL     1      -4.616   3.033  -7.149  1.00  0.00     0.003 C 
HETATM   18  C19 UNL     1      -3.988   2.331  -8.309  1.00  0.00     0.047 C 
ENDROOT
BRANCH   1  19
HETATM   19  C9  UNL     1      -1.966  -2.864  -6.601  1.00  0.00     0.051 C 
BRANCH  19  20
HETATM   20  C8  UNL     1      -1.158  -3.591  -7.289  1.00  0.00     0.022 C 
BRANCH  20  21
HETATM   21  C7  UNL     1      -1.071  -5.045  -7.272  1.00  0.00     0.041 A 
HETATM   22  C5  UNL     1       0.121  -5.780  -7.240  1.00  0.00     0.048 A 
HETATM   23  N1  UNL     1      -0.227  -7.066  -7.235  1.00  0.00    -0.301 N 
HETATM   24  N2  UNL     1      -1.520  -7.186  -7.261  1.00  0.00    -0.279 N 
ATOM     25  H1  UNL     1       0.429  -7.847  -7.213  1.00  0.00     0.186 HD
HETATM   26  C6  UNL     1      -2.103  -5.944  -7.286  1.00  0.00     0.167 A 
ATOM     27  H2  UNL     1      -2.027  -8.071  -7.262  1.00  0.00     0.189 HD
BRANCH  22  28
HETATM   28  C2  UNL     1       1.455  -5.198  -7.217  1.00  0.00    -0.006 C 
HETATM   29  C1  UNL     1       2.476  -6.334  -7.326  1.00  0.00     0.021 C 
HETATM   30  C3  UNL     1       1.746  -4.507  -5.882  1.00  0.00     0.021 C 
HETATM   31  C4  UNL     1       1.737  -4.273  -8.382  1.00  0.00     0.021 C 
ENDBRANCH  22  28
BRANCH  26  32
HETATM   32  O1  UNL     1      -3.487  -5.737  -7.317  1.00  0.00    -0.344 OA
ATOM     33  H1  UNL     1      -3.909  -4.952  -6.990  1.00  0.00     0.219 HD
ENDBRANCH  26  32
ENDBRANCH  20  21
ENDBRANCH  19  20
ENDBRANCH   1  19
TORSDOF 5
ENDMDL
MODEL 4
REMARK VINA RESULT: -4.937744416      4.076      7.633
REMARK  5 active torsions:
REMARK  status: ('A' for Active; 'I' for Inactive)
REMARK    1  A    between atoms: C2_2  and  C5_5 
REMARK    2  A    between atoms: C6_10  and  O1_11 
REMARK    3  A    between atoms: C7_13  and  C8_14 
REMARK    4  A    between atoms: C8_14  and  C9_15 
REMARK    5  A    between atoms: C9_15  and  C10_16 
ROOT
HETATM    1  C10 UNL     1      -2.365   1.174  -7.490  1.00  0.00     0.123 A 
HETATM    2  N3  UNL     1      -1.194   1.892  -7.440  1.00  0.00    -0.284 N 
ATOM      3  H3  UNL     1      -0.275   1.507  -7.227  1.00  0.00     0.188 HD
HETATM    4  N4  UNL     1      -1.444   3.147  -7.707  1.00  0.00    -0.285 N 
ATOM      5  H4  UNL     1      -0.745   3.889  -7.735  1.00  0.00     0.188 HD
HETATM    6  C11 UNL     1      -2.751   3.313  -7.940  1.00  0.00     0.136 A 
HETATM    7  N5  UNL     1      -3.312   2.108  -7.805  1.00  0.00    -0.317 N 
HETATM    8  C12 UNL     1      -4.731   1.957  -7.962  1.00  0.00     0.159 C 
HETATM    9  C13 UNL     1      -5.427   3.258  -8.102  1.00  0.00     0.254 C 
HETATM   10  N6  UNL     1      -4.763   4.244  -8.870  1.00  0.00    -0.058 N 
ATOM     11  H61 UNL     1      -5.337   5.078  -8.985  1.00  0.00     0.278 HD
ATOM     12  H62 UNL     1      -4.689   3.967  -9.849  1.00  0.00     0.278 HD
HETATM   13  C14 UNL     1      -3.453   4.569  -8.307  1.00  0.00     0.184 C 
HETATM   14  C15 UNL     1      -2.677   5.266  -9.398  1.00  0.00     0.047 C 
HETATM   15  C16 UNL     1      -2.504   6.743  -9.030  1.00  0.00     0.003 C 
HETATM   16  C17 UNL     1      -1.687   6.770  -7.760  1.00  0.00     0.000 C 
HETATM   17  C18 UNL     1      -2.514   6.206  -6.650  1.00  0.00     0.003 C 
HETATM   18  C19 UNL     1      -3.712   5.436  -7.100  1.00  0.00     0.047 C 
ENDROOT
BRANCH   1  19
HETATM   19  C9  UNL     1      -2.449  -0.255  -7.243  1.00  0.00     0.051 C 
BRANCH  19  20
HETATM   20  C8  UNL     1      -2.765  -0.883  -6.166  1.00  0.00     0.022 C 
BRANCH  20  21
HETATM   21  C7  UNL     1      -3.983  -0.710  -5.387  1.00  0.00     0.041 A 
HETATM   22  C5  UNL     1      -5.035  -1.634  -5.323  1.00  0.00     0.048 A 
HETATM   23  N1  UNL     1      -5.952  -1.106  -4.512  1.00  0.00    -0.301 N 
HETATM   24  N2  UNL     1      -5.559   0.052  -4.076  1.00  0.00    -0.279 N 
ATOM     25  H1  UNL     1      -6.838  -1.550  -4.269  1.00  0.00     0.186 HD
HETATM   26  C6  UNL     1      -4.326   0.353  -4.595  1.00  0.00     0.167 A 
ATOM     27  H2  UNL     1      -6.089   0.649  -3.441  1.00  0.00     0.189 HD
BRANCH  22  28
HETATM   28  C2  UNL     1      -5.066  -2.908  -6.025  1.00  0.00    -0.006 C 
HETATM   29  C1  UNL     1      -6.325  -3.665  -5.592  1.00  0.00     0.021 C 
HETATM   30  C3  UNL     1      -3.888  -3.801  -5.625  1.00  0.00     0.021 C 
HETATM   31  C4  UNL     1      -5.161  -2.772  -7.530  1.00  0.00     0.021 C 
ENDBRANCH  22  28
BRANCH  26  32
HETATM   32  O1  UNL     1      -3.632   1.535  -4.314  1.00  0.00    -0.344 OA
ATOM     33  H1  UNL     1      -2.685   1.594  -4.278  1.00  0.00     0.219 HD
ENDBRANCH  26  32
ENDBRANCH  20  21
ENDBRANCH  19  20
ENDBRANCH   1  19
TORSDOF 5
ENDMDL
MODEL 5
REMARK VINA RESULT: -4.861015155      2.942      4.723
REMARK  5 active torsions:
REMARK  status: ('A' for Active; 'I' for Inactive)
REMARK    1  A    between atoms: C2_2  and  C5_5 
REMARK    2  A    between atoms: C6_10  and  O1_11 
REMARK    3  A    between atoms: C7_13  and  C8_14 
REMARK    4  A    between atoms: C8_14  and  C9_15 
REMARK    5  A    between atoms: C9_15  and  C10_16 
ROOT
HETATM    1  C10 UNL     1      -3.517   1.228  -6.056  1.00  0.00     0.123 A 
HETATM    2  N3  UNL     1      -2.383   0.634  -5.554  1.00  0.00    -0.284 N 
ATOM      3  H3  UNL     1      -1.693   1.090  -4.958  1.00  0.00     0.188 HD
HETATM    4  N4  UNL     1      -2.329  -0.606  -5.961  1.00  0.00    -0.285 N 
ATOM      5  H4  UNL     1      -1.587  -1.266  -5.728  1.00  0.00     0.188 HD
HETATM    6  C11 UNL     1      -3.391  -0.883  -6.727  1.00  0.00     0.136 A 
HETATM    7  N5  UNL     1      -4.113   0.239  -6.786  1.00  0.00    -0.317 N 
HETATM    8  C12 UNL     1      -5.315   0.276  -7.570  1.00  0.00     0.159 C 
HETATM    9  C13 UNL     1      -5.505  -0.954  -8.374  1.00  0.00     0.254 C 
HETATM   10  N6  UNL     1      -5.143  -2.172  -7.749  1.00  0.00    -0.058 N 
ATOM     11  H61 UNL     1      -5.376  -2.975  -8.333  1.00  0.00     0.278 HD
ATOM     12  H62 UNL     1      -5.746  -2.376  -6.953  1.00  0.00     0.278 HD
HETATM   13  C14 UNL     1      -3.732  -2.179  -7.367  1.00  0.00     0.184 C 
HETATM   14  C15 UNL     1      -3.566  -3.287  -6.356  1.00  0.00     0.047 C 
HETATM   15  C16 UNL     1      -2.754  -4.425  -6.983  1.00  0.00     0.003 C 
HETATM   16  C17 UNL     1      -1.395  -3.850  -7.301  1.00  0.00     0.000 C 
HETATM   17  C18 UNL     1      -1.545  -2.853  -8.403  1.00  0.00     0.003 C 
HETATM   18  C19 UNL     1      -2.948  -2.396  -8.638  1.00  0.00     0.047 C 
ENDROOT
BRANCH   1  19
HETATM   19  C9  UNL     1      -3.888   2.609  -5.798  1.00  0.00     0.051 C 
BRANCH  19  20
HETATM   20  C8  UNL     1      -3.992   3.596  -6.617  1.00  0.00     0.022 C 
BRANCH  20  21
HETATM   21  C7  UNL     1      -3.143   4.778  -6.662  1.00  0.00     0.041 A 
HETATM   22  C5  UNL     1      -2.080   4.972  -7.555  1.00  0.00     0.048 A 
HETATM   23  N1  UNL     1      -1.563   6.167  -7.273  1.00  0.00    -0.301 N 
HETATM   24  N2  UNL     1      -2.209   6.721  -6.292  1.00  0.00    -0.279 N 
ATOM     25  H1  UNL     1      -0.771   6.588  -7.759  1.00  0.00     0.186 HD
HETATM   26  C6  UNL     1      -3.215   5.891  -5.867  1.00  0.00     0.167 A 
ATOM     27  H2  UNL     1      -2.000   7.638  -5.896  1.00  0.00     0.189 HD
BRANCH  22  28
HETATM   28  C2  UNL     1      -1.667   4.019  -8.574  1.00  0.00    -0.006 C 
HETATM   29  C1  UNL     1      -0.704   4.727  -9.531  1.00  0.00     0.021 C 
HETATM   30  C3  UNL     1      -2.849   3.568  -9.437  1.00  0.00     0.021 C 
HETATM   31  C4  UNL     1      -0.908   2.831  -8.025  1.00  0.00     0.021 C 
ENDBRANCH  22  28
BRANCH  26  32
HETATM   32  O1  UNL     1      -4.091   6.203  -4.822  1.00  0.00    -0.344 OA
ATOM     33  H1  UNL     1      -4.691   5.579  -4.433  1.00  0.00     0.219 HD
ENDBRANCH  26  32
ENDBRANCH  20  21
ENDBRANCH  19  20
ENDBRANCH   1  19
TORSDOF 5
ENDMDL
