MODEL 1
REMARK VINA RESULT: -4.588694252      0.000      0.000
REMARK  10 active torsions:
REMARK  status: ('A' for Active; 'I' for Inactive)
REMARK    1  A    between atoms: C2_2  and  C3_3 
REMARK    2  A    between atoms: C3_3  and  C4_4 
REMARK    3  A    between atoms: C4_4  and  C5_5 
REMARK    4  A    between atoms: C5_5  and  O1_6 
REMARK    5  A    between atoms: O1_6  and  C6_7 
REMARK    6  A    between atoms: C9_10  and  C10_11 
REMARK    7  A    between atoms: C10_11  and  O2_13 
REMARK    8  A    between atoms: C13_16  and  C14_17 
REMARK    9  A    between atoms: C14_17  and  C16_19 
REMARK   10  A    between atoms: C16_19  and  C17_20 
ROOT
HETATM    1  C6  UNL     1       2.634   0.787   7.273  1.00  0.00     0.075 A 
HETATM    2  C7  UNL     1       1.267   0.948   7.164  1.00  0.00     0.038 A 
HETATM    3  C8  UNL     1       0.476   0.368   8.145  1.00  0.00     0.012 A 
HETATM    4  C9  UNL     1       1.045  -0.342   9.186  1.00  0.00    -0.029 A 
HETATM    5  C12 UNL     1       2.422  -0.462   9.226  1.00  0.00     0.020 A 
HETATM    6  C13 UNL     1       3.257   0.096   8.273  1.00  0.00    -0.020 A 
ENDROOT
BRANCH   1   7
HETATM    7  O1  UNL     1       3.433   1.402   6.300  1.00  0.00    -0.351 OA
BRANCH   7   8
HETATM    8  C5  UNL     1       3.546   0.803   5.008  1.00  0.00     0.175 C 
BRANCH   8   9
HETATM    9  C4  UNL     1       4.682   1.513   4.270  1.00  0.00     0.027 C 
BRANCH   9  10
HETATM   10  C3  UNL     1       5.429   0.466   3.463  1.00  0.00     0.002 C 
BRANCH  10  11
HETATM   11  C2  UNL     1       6.879   0.802   3.226  1.00  0.00    -0.004 C 
HETATM   12  C1  UNL     1       7.658  -0.251   2.514  1.00  0.00     0.005 C 
ENDBRANCH  10  11
ENDBRANCH   9  10
ENDBRANCH   8   9
ENDBRANCH   7   8
ENDBRANCH   1   7
BRANCH   6  13
HETATM   13  C14 UNL     1       4.699  -0.190   8.191  1.00  0.00     0.017 C 
HETATM   14  C15 UNL     1       5.133  -0.624   9.635  1.00  0.00     0.015 C 
BRANCH  13  15
HETATM   15  C16 UNL     1       4.921  -1.481   7.372  1.00  0.00     0.009 C 
BRANCH  15  16
HETATM   16  C17 UNL     1       5.918  -1.305   6.276  1.00  0.00    -0.004 C 
HETATM   17  C18 UNL     1       6.890  -0.212   6.648  1.00  0.00     0.005 C 
ENDBRANCH  15  16
ENDBRANCH  13  15
ENDBRANCH   6  13
BRANCH   4  18
HETATM   18  C10 UNL     1       0.113  -0.916  10.151  1.00  0.00     0.147 C 
HETATM   19  C11 UNL     1       0.579  -0.545  11.572  1.00  0.00     0.044 C 
BRANCH  18  20
HETATM   20  O2  UNL     1      -1.176  -0.394  10.021  1.00  0.00    -0.391 OA
ATOM     21  H2  UNL     1      -1.841  -1.072  10.015  1.00  0.00     0.210 HD
ENDBRANCH  18  20
ENDBRANCH   4  18
TORSDOF 10
ENDMDL
MODEL 2
REMARK VINA RESULT: -4.488645827      1.936      6.369
REMARK  10 active torsions:
REMARK  status: ('A' for Active; 'I' for Inactive)
REMARK    1  A    between atoms: C2_2  and  C3_3 
REMARK    2  A    between atoms: C3_3  and  C4_4 
REMARK    3  A    between atoms: C4_4  and  C5_5 
REMARK    4  A    between atoms: C5_5  and  O1_6 
REMARK    5  A    between atoms: O1_6  and  C6_7 
REMARK    6  A    between atoms: C9_10  and  C10_11 
REMARK    7  A    between atoms: C10_11  and  O2_13 
REMARK    8  A    between atoms: C13_16  and  C14_17 
REMARK    9  A    between atoms: C14_17  and  C16_19 
REMARK   10  A    between atoms: C16_19  and  C17_20 
ROOT
HETATM    1  C6  UNL     1       4.048   0.915   7.211  1.00  0.00     0.075 A 
HETATM    2  C7  UNL     1       5.056   1.704   6.692  1.00  0.00     0.038 A 
HETATM    3  C8  UNL     1       5.663   1.274   5.521  1.00  0.00     0.012 A 
HETATM    4  C9  UNL     1       5.267   0.100   4.908  1.00  0.00    -0.029 A 
HETATM    5  C12 UNL     1       4.252  -0.637   5.489  1.00  0.00     0.020 A 
HETATM    6  C13 UNL     1       3.613  -0.255   6.657  1.00  0.00    -0.020 A 
ENDROOT
BRANCH   1   7
HETATM    7  O1  UNL     1       3.414   1.369   8.376  1.00  0.00    -0.351 OA
BRANCH   7   8
HETATM    8  C5  UNL     1       2.049   1.783   8.313  1.00  0.00     0.175 C 
BRANCH   8   9
HETATM    9  C4  UNL     1       1.335   1.202   9.533  1.00  0.00     0.027 C 
BRANCH   9  10
HETATM   10  C3  UNL     1       0.289   0.223   9.029  1.00  0.00     0.002 C 
BRANCH  10  11
HETATM   11  C2  UNL     1      -0.059  -0.857  10.020  1.00  0.00    -0.004 C 
HETATM   12  C1  UNL     1       0.331  -0.564  11.428  1.00  0.00     0.005 C 
ENDBRANCH  10  11
ENDBRANCH   9  10
ENDBRANCH   8   9
ENDBRANCH   7   8
ENDBRANCH   1   7
BRANCH   6  13
HETATM   13  C14 UNL     1       2.678  -1.122   7.391  1.00  0.00     0.017 C 
HETATM   14  C15 UNL     1       1.840  -1.873   6.297  1.00  0.00     0.015 C 
BRANCH  13  15
HETATM   15  C16 UNL     1       3.462  -2.272   8.061  1.00  0.00     0.009 C 
BRANCH  15  16
HETATM   16  C17 UNL     1       3.277  -2.312   9.541  1.00  0.00    -0.004 C 
HETATM   17  C18 UNL     1       3.833  -1.051  10.154  1.00  0.00     0.005 C 
ENDBRANCH  15  16
ENDBRANCH  13  15
ENDBRANCH   6  13
BRANCH   4  18
HETATM   18  C10 UNL     1       5.986  -0.257   3.689  1.00  0.00     0.147 C 
HETATM   19  C11 UNL     1       7.311   0.529   3.646  1.00  0.00     0.044 C 
BRANCH  18  20
HETATM   20  O2  UNL     1       6.340  -1.607   3.655  1.00  0.00    -0.391 OA
ATOM     21  H2  UNL     1       6.530  -1.909   2.775  1.00  0.00     0.210 HD
ENDBRANCH  18  20
ENDBRANCH   4  18
TORSDOF 10
ENDMDL
MODEL 3
REMARK VINA RESULT: -4.179049747      1.540      2.787
REMARK  10 active torsions:
REMARK  status: ('A' for Active; 'I' for Inactive)
REMARK    1  A    between atoms: C2_2  and  C3_3 
REMARK    2  A    between atoms: C3_3  and  C4_4 
REMARK    3  A    between atoms: C4_4  and  C5_5 
REMARK    4  A    between atoms: C5_5  and  O1_6 
REMARK    5  A    between atoms: O1_6  and  C6_7 
REMARK    6  A    between atoms: C9_10  and  C10_11 
REMARK    7  A    between atoms: C10_11  and  O2_13 
REMARK    8  A    between atoms: C13_16  and  C14_17 
REMARK    9  A    between atoms: C14_17  and  C16_19 
REMARK   10  A    between atoms: C16_19  and  C17_20 
ROOT
HETATM    1  C6  UNL     1       3.281  -1.410   7.855  1.00  0.00     0.075 A 
HETATM    2  C7  UNL     1       3.371  -2.264   8.937  1.00  0.00     0.038 A 
HETATM    3  C8  UNL     1       2.629  -1.944  10.064  1.00  0.00     0.012 A 
HETATM    4  C9  UNL     1       1.835  -0.812  10.093  1.00  0.00    -0.029 A 
HETATM    5  C12 UNL     1       1.799  -0.005   8.972  1.00  0.00     0.020 A 
HETATM    6  C13 UNL     1       2.520  -0.277   7.821  1.00  0.00    -0.020 A 
ENDROOT
BRANCH   1   7
HETATM    7  O1  UNL     1       4.006  -1.753   6.705  1.00  0.00    -0.351 OA
BRANCH   7   8
HETATM    8  C5  UNL     1       5.423  -1.578   6.693  1.00  0.00     0.175 C 
BRANCH   8   9
HETATM    9  C4  UNL     1       5.895  -1.745   5.249  1.00  0.00     0.027 C 
BRANCH   9  10
HETATM   10  C3  UNL     1       4.812  -1.181   4.345  1.00  0.00     0.002 C 
BRANCH  10  11
HETATM   11  C2  UNL     1       5.331  -0.231   3.297  1.00  0.00    -0.004 C 
HETATM   12  C1  UNL     1       6.816  -0.127   3.226  1.00  0.00     0.005 C 
ENDBRANCH  10  11
ENDBRANCH   9  10
ENDBRANCH   8   9
ENDBRANCH   7   8
ENDBRANCH   1   7
BRANCH   6  13
HETATM   13  C14 UNL     1       2.649   0.670   6.701  1.00  0.00     0.017 C 
HETATM   14  C15 UNL     1       1.400   1.616   6.794  1.00  0.00     0.015 C 
BRANCH  13  15
HETATM   15  C16 UNL     1       3.823   1.636   6.979  1.00  0.00     0.009 C 
BRANCH  15  16
HETATM   16  C17 UNL     1       4.713   1.817   5.795  1.00  0.00    -0.004 C 
HETATM   17  C18 UNL     1       6.155   1.804   6.240  1.00  0.00     0.005 C 
ENDBRANCH  15  16
ENDBRANCH  13  15
ENDBRANCH   6  13
BRANCH   4  18
HETATM   18  C10 UNL     1       1.111  -0.573  11.337  1.00  0.00     0.147 C 
HETATM   19  C11 UNL     1       0.465   0.826  11.274  1.00  0.00     0.044 C 
BRANCH  18  20
HETATM   20  O2  UNL     1       0.059  -1.472  11.521  1.00  0.00    -0.391 OA
ATOM     21  H2  UNL     1       0.010  -1.794  12.414  1.00  0.00     0.210 HD
ENDBRANCH  18  20
ENDBRANCH   4  18
TORSDOF 10
ENDMDL
MODEL 4
REMARK VINA RESULT: -4.139693844      1.728      6.532
REMARK  10 active torsions:
REMARK  status: ('A' for Active; 'I' for Inactive)
REMARK    1  A    between atoms: C2_2  and  C3_3 
REMARK    2  A    between atoms: C3_3  and  C4_4 
REMARK    3  A    between atoms: C4_4  and  C5_5 
REMARK    4  A    between atoms: C5_5  and  O1_6 
REMARK    5  A    between atoms: O1_6  and  C6_7 
REMARK    6  A    between atoms: C9_10  and  C10_11 
REMARK    7  A    between atoms: C10_11  and  O2_13 
REMARK    8  A    between atoms: C13_16  and  C14_17 
REMARK    9  A    between atoms: C14_17  and  C16_19 
REMARK   10  A    between atoms: C16_19  and  C17_20 
ROOT
HETATM    1  C6  UNL     1       4.180   0.375   7.853  1.00  0.00     0.075 A 
HETATM    2  C7  UNL     1       5.423  -0.108   7.492  1.00  0.00     0.038 A 
HETATM    3  C8  UNL     1       5.774  -0.027   6.153  1.00  0.00     0.012 A 
HETATM    4  C9  UNL     1       4.906   0.516   5.224  1.00  0.00    -0.029 A 
HETATM    5  C12 UNL     1       3.678   0.976   5.660  1.00  0.00     0.020 A 
HETATM    6  C13 UNL     1       3.277   0.919   6.985  1.00  0.00    -0.020 A 
ENDROOT
BRANCH   1   7
HETATM    7  O1  UNL     1       3.841   0.323   9.211  1.00  0.00    -0.351 OA
BRANCH   7   8
HETATM    8  C5  UNL     1       3.874  -0.931   9.893  1.00  0.00     0.175 C 
BRANCH   8   9
HETATM    9  C4  UNL     1       2.515  -1.124  10.568  1.00  0.00     0.027 C 
BRANCH   9  10
HETATM   10  C3  UNL     1       2.013   0.248  10.986  1.00  0.00     0.002 C 
BRANCH  10  11
HETATM   11  C2  UNL     1       0.512   0.344  11.072  1.00  0.00    -0.004 C 
HETATM   12  C1  UNL     1      -0.221  -0.873  10.619  1.00  0.00     0.005 C 
ENDBRANCH  10  11
ENDBRANCH   9  10
ENDBRANCH   8   9
ENDBRANCH   7   8
ENDBRANCH   1   7
BRANCH   6  13
HETATM   13  C14 UNL     1       1.906   1.218   7.431  1.00  0.00     0.017 C 
HETATM   14  C15 UNL     1       1.233   2.005   6.252  1.00  0.00     0.015 C 
BRANCH  13  15
HETATM   15  C16 UNL     1       1.084  -0.090   7.473  1.00  0.00     0.009 C 
BRANCH  15  16
HETATM   16  C17 UNL     1       1.793  -1.238   6.836  1.00  0.00    -0.004 C 
HETATM   17  C18 UNL     1       1.616  -2.475   7.683  1.00  0.00     0.005 C 
ENDBRANCH  15  16
ENDBRANCH  13  15
ENDBRANCH   6  13
BRANCH   4  18
HETATM   18  C10 UNL     1       5.380   0.536   3.843  1.00  0.00     0.147 C 
HETATM   19  C11 UNL     1       6.748  -0.170   3.778  1.00  0.00     0.044 C 
BRANCH  18  20
HETATM   20  O2  UNL     1       4.541  -0.173   2.982  1.00  0.00    -0.391 OA
ATOM     21  H2  UNL     1       4.955  -0.956   2.638  1.00  0.00     0.210 HD
ENDBRANCH  18  20
ENDBRANCH   4  18
TORSDOF 10
ENDMDL
MODEL 5
REMARK VINA RESULT: -4.131514172      1.811      6.672
REMARK  10 active torsions:
REMARK  status: ('A' for Active; 'I' for Inactive)
REMARK    1  A    between atoms: C2_2  and  C3_3 
REMARK    2  A    between atoms: C3_3  and  C4_4 
REMARK    3  A    between atoms: C4_4  and  C5_5 
REMARK    4  A    between atoms: C5_5  and  O1_6 
REMARK    5  A    between atoms: O1_6  and  C6_7 
REMARK    6  A    between atoms: C9_10  and  C10_11 
REMARK    7  A    between atoms: C10_11  and  O2_13 
REMARK    8  A    between atoms: C13_16  and  C14_17 
REMARK    9  A    between atoms: C14_17  and  C16_19 
REMARK   10  A    between atoms: C16_19  and  C17_20 
ROOT
HETATM    1  C6  UNL     1       4.311  -0.568   7.583  1.00  0.00     0.075 A 
HETATM    2  C7  UNL     1       5.668  -0.314   7.529  1.00  0.00     0.038 A 
HETATM    3  C8  UNL     1       6.185   0.138   6.324  1.00  0.00     0.012 A 
HETATM    4  C9  UNL     1       5.365   0.323   5.226  1.00  0.00    -0.029 A 
HETATM    5  C12 UNL     1       4.017   0.045   5.356  1.00  0.00     0.020 A 
HETATM    6  C13 UNL     1       3.449  -0.409   6.535  1.00  0.00    -0.020 A 
ENDROOT
BRANCH   1   7
HETATM    7  O1  UNL     1       3.786  -0.993   8.810  1.00  0.00    -0.351 OA
BRANCH   7   8
HETATM    8  C5  UNL     1       4.179  -0.323  10.009  1.00  0.00     0.175 C 
BRANCH   8   9
HETATM    9  C4  UNL     1       2.909  -0.024  10.806  1.00  0.00     0.027 C 
BRANCH   9  10
HETATM   10  C3  UNL     1       2.033  -1.264  10.754  1.00  0.00     0.002 C 
BRANCH  10  11
HETATM   11  C2  UNL     1       0.585  -0.998  11.075  1.00  0.00    -0.004 C 
HETATM   12  C1  UNL     1       0.234   0.442  11.240  1.00  0.00     0.005 C 
ENDBRANCH  10  11
ENDBRANCH   9  10
ENDBRANCH   8   9
ENDBRANCH   7   8
ENDBRANCH   1   7
BRANCH   6  13
HETATM   13  C14 UNL     1       2.064  -0.897   6.633  1.00  0.00     0.017 C 
HETATM   14  C15 UNL     1       2.142  -2.258   7.412  1.00  0.00     0.015 C 
BRANCH  13  15
HETATM   15  C16 UNL     1       1.271   0.002   7.608  1.00  0.00     0.009 C 
BRANCH  15  16
HETATM   16  C17 UNL     1       1.407   1.454   7.294  1.00  0.00    -0.004 C 
HETATM   17  C18 UNL     1       1.983   2.178   8.486  1.00  0.00     0.005 C 
ENDBRANCH  15  16
ENDBRANCH  13  15
ENDBRANCH   6  13
BRANCH   4  18
HETATM   18  C10 UNL     1       6.023   0.790   4.010  1.00  0.00     0.147 C 
HETATM   19  C11 UNL     1       7.536   0.517   4.128  1.00  0.00     0.044 C 
BRANCH  18  20
HETATM   20  O2  UNL     1       5.596   0.099   2.875  1.00  0.00    -0.391 OA
ATOM     21  H2  UNL     1       4.945   0.583   2.381  1.00  0.00     0.210 HD
ENDBRANCH  18  20
ENDBRANCH   4  18
TORSDOF 10
ENDMDL
