MODEL 1
REMARK VINA RESULT: -5.668765687      0.000      0.000
REMARK  9 active torsions:
REMARK  status: ('A' for Active; 'I' for Inactive)
REMARK    1  A    between atoms: C2_2  and  C3_3 
REMARK    2  A    between atoms: C3_3  and  C4_4 
REMARK    3  A    between atoms: C4_4  and  C5_5 
REMARK    4  A    between atoms: C5_5  and  C6_6 
REMARK    5  A    between atoms: C10_10  and  O1_11 
REMARK    6  A    between atoms: O1_11  and  C11_12 
REMARK    7  A    between atoms: C14_15  and  C15_16 
REMARK    8  A    between atoms: C15_16  and  C16_17 
REMARK    9  A    between atoms: C16_17  and  O2_18 
ROOT
HETATM    1  C6  UNL     1       3.485   0.595   7.284  1.00  0.00    -0.051 A 
HETATM    2  C7  UNL     1       3.641   1.101   5.985  1.00  0.00     0.017 A 
HETATM    3  C8  UNL     1       4.597   0.671   5.104  1.00  0.00    -0.028 A 
HETATM    4  C9  UNL     1       4.693   1.261   3.741  1.00  0.00     0.051 C 
HETATM    5  C10 UNL     1       5.449  -0.318   5.527  1.00  0.00     0.075 A 
HETATM    6  C13 UNL     1       5.320  -0.831   6.793  1.00  0.00     0.045 A 
HETATM    7  C14 UNL     1       4.346  -0.388   7.688  1.00  0.00    -0.047 A 
ENDROOT
BRANCH   1   8
HETATM    8  C5  UNL     1       2.353   1.107   8.093  1.00  0.00     0.039 C 
BRANCH   8   9
HETATM    9  C4  UNL     1       1.051   0.425   7.772  1.00  0.00     0.005 C 
BRANCH   9  10
HETATM   10  C3  UNL     1       0.484  -0.217   8.999  1.00  0.00    -0.000 C 
BRANCH  10  11
HETATM   11  C2  UNL     1       0.986   0.403  10.267  1.00  0.00    -0.005 C 
HETATM   12  C1  UNL     1       0.442  -0.318  11.470  1.00  0.00     0.005 C 
ENDBRANCH  10  11
ENDBRANCH   9  10
ENDBRANCH   8   9
ENDBRANCH   1   8
BRANCH   7  13
HETATM   13  C15 UNL     1       4.296  -0.912   9.064  1.00  0.00     0.065 C 
BRANCH  13  14
HETATM   14  C16 UNL     1       3.581  -2.229   9.205  1.00  0.00     0.168 C 
BRANCH  14  15
HETATM   15  O2  UNL     1       3.128  -2.380  10.534  1.00  0.00    -0.401 OA
ATOM     16  H2  UNL     1       2.282  -1.957  10.630  1.00  0.00     0.209 HD
ENDBRANCH  14  15
ENDBRANCH  13  14
ENDBRANCH   7  13
BRANCH   5  17
HETATM   17  O1  UNL     1       6.424  -0.799   4.709  1.00  0.00    -0.351 OA
BRANCH  17  18
HETATM   18  C11 UNL     1       7.627  -0.257   4.318  1.00  0.00     0.171 C 
HETATM   19  C12 UNL     1       7.978  -0.358   2.879  1.00  0.00     0.034 C 
ENDBRANCH  17  18
ENDBRANCH   5  17
TORSDOF 9
ENDMDL
MODEL 2
REMARK VINA RESULT: -5.436258564      0.826      1.041
REMARK  9 active torsions:
REMARK  status: ('A' for Active; 'I' for Inactive)
REMARK    1  A    between atoms: C2_2  and  C3_3 
REMARK    2  A    between atoms: C3_3  and  C4_4 
REMARK    3  A    between atoms: C4_4  and  C5_5 
REMARK    4  A    between atoms: C5_5  and  C6_6 
REMARK    5  A    between atoms: C10_10  and  O1_11 
REMARK    6  A    between atoms: O1_11  and  C11_12 
REMARK    7  A    between atoms: C14_15  and  C15_16 
REMARK    8  A    between atoms: C15_16  and  C16_17 
REMARK    9  A    between atoms: C16_17  and  O2_18 
ROOT
HETATM    1  C6  UNL     1       3.407   0.322   6.798  1.00  0.00    -0.051 A 
HETATM    2  C7  UNL     1       3.977   1.216   5.880  1.00  0.00     0.017 A 
HETATM    3  C8  UNL     1       5.157   0.993   5.221  1.00  0.00    -0.028 A 
HETATM    4  C9  UNL     1       5.690   1.997   4.261  1.00  0.00     0.051 C 
HETATM    5  C10 UNL     1       5.814  -0.183   5.481  1.00  0.00     0.075 A 
HETATM    6  C13 UNL     1       5.280  -1.077   6.375  1.00  0.00     0.045 A 
HETATM    7  C14 UNL     1       4.080  -0.844   7.045  1.00  0.00    -0.047 A 
ENDROOT
BRANCH   1   8
HETATM    8  C5  UNL     1       2.086   0.669   7.372  1.00  0.00     0.039 C 
BRANCH   8   9
HETATM    9  C4  UNL     1       2.192   1.485   8.631  1.00  0.00     0.005 C 
BRANCH   9  10
HETATM   10  C3  UNL     1       1.376   0.868   9.722  1.00  0.00    -0.000 C 
BRANCH  10  11
HETATM   11  C2  UNL     1       0.415  -0.165   9.218  1.00  0.00    -0.005 C 
HETATM   12  C1  UNL     1       0.238  -1.270  10.224  1.00  0.00     0.005 C 
ENDBRANCH  10  11
ENDBRANCH   9  10
ENDBRANCH   8   9
ENDBRANCH   1   8
BRANCH   7  13
HETATM   13  C15 UNL     1       3.586  -1.796   8.055  1.00  0.00     0.065 C 
BRANCH  13  14
HETATM   14  C16 UNL     1       4.037  -1.507   9.461  1.00  0.00     0.168 C 
BRANCH  14  15
HETATM   15  O2  UNL     1       3.547  -2.508  10.329  1.00  0.00    -0.401 OA
ATOM     16  H2  UNL     1       4.006  -2.459  11.159  1.00  0.00     0.209 HD
ENDBRANCH  14  15
ENDBRANCH  13  14
ENDBRANCH   7  13
BRANCH   5  17
HETATM   17  O1  UNL     1       6.991  -0.478   4.865  1.00  0.00    -0.351 OA
BRANCH  17  18
HETATM   18  C11 UNL     1       7.269  -0.836   3.566  1.00  0.00     0.171 C 
HETATM   19  C12 UNL     1       8.446  -0.199   2.926  1.00  0.00     0.034 C 
ENDBRANCH  17  18
ENDBRANCH   5  17
TORSDOF 9
ENDMDL
MODEL 3
REMARK VINA RESULT: -5.382615244      1.574      2.616
REMARK  9 active torsions:
REMARK  status: ('A' for Active; 'I' for Inactive)
REMARK    1  A    between atoms: C2_2  and  C3_3 
REMARK    2  A    between atoms: C3_3  and  C4_4 
REMARK    3  A    between atoms: C4_4  and  C5_5 
REMARK    4  A    between atoms: C5_5  and  C6_6 
REMARK    5  A    between atoms: C10_10  and  O1_11 
REMARK    6  A    between atoms: O1_11  and  C11_12 
REMARK    7  A    between atoms: C14_15  and  C15_16 
REMARK    8  A    between atoms: C15_16  and  C16_17 
REMARK    9  A    between atoms: C16_17  and  O2_18 
ROOT
HETATM    1  C6  UNL     1       4.481   0.031   7.820  1.00  0.00    -0.051 A 
HETATM    2  C7  UNL     1       5.730  -0.476   7.433  1.00  0.00     0.017 A 
HETATM    3  C8  UNL     1       6.207  -0.447   6.150  1.00  0.00    -0.028 A 
HETATM    4  C9  UNL     1       7.547  -1.009   5.826  1.00  0.00     0.051 C 
HETATM    5  C10 UNL     1       5.406   0.116   5.189  1.00  0.00     0.075 A 
HETATM    6  C13 UNL     1       4.178   0.621   5.538  1.00  0.00     0.045 A 
HETATM    7  C14 UNL     1       3.696   0.587   6.847  1.00  0.00    -0.047 A 
ENDROOT
BRANCH   1   8
HETATM    8  C5  UNL     1       4.137  -0.002   9.261  1.00  0.00     0.039 C 
BRANCH   8   9
HETATM    9  C4  UNL     1       3.693  -1.362   9.724  1.00  0.00     0.005 C 
BRANCH   9  10
HETATM   10  C3  UNL     1       2.316  -1.290  10.305  1.00  0.00    -0.000 C 
BRANCH  10  11
HETATM   11  C2  UNL     1       1.961   0.080  10.796  1.00  0.00    -0.005 C 
HETATM   12  C1  UNL     1       0.556   0.111  11.334  1.00  0.00     0.005 C 
ENDBRANCH  10  11
ENDBRANCH   9  10
ENDBRANCH   8   9
ENDBRANCH   1   8
BRANCH   7  13
HETATM   13  C15 UNL     1       2.339   1.069   7.160  1.00  0.00     0.065 C 
BRANCH  13  14
HETATM   14  C16 UNL     1       1.281  -0.001   7.163  1.00  0.00     0.168 C 
BRANCH  14  15
HETATM   15  O2  UNL     1       0.170   0.437   7.917  1.00  0.00    -0.401 OA
ATOM     16  H2  UNL     1      -0.332  -0.315   8.208  1.00  0.00     0.209 HD
ENDBRANCH  14  15
ENDBRANCH  13  14
ENDBRANCH   7  13
BRANCH   5  17
HETATM   17  O1  UNL     1       5.810   0.183   3.892  1.00  0.00    -0.351 OA
BRANCH  17  18
HETATM   18  C11 UNL     1       6.809   0.913   3.291  1.00  0.00     0.171 C 
HETATM   19  C12 UNL     1       7.670   0.204   2.312  1.00  0.00     0.034 C 
ENDBRANCH  17  18
ENDBRANCH   5  17
TORSDOF 9
ENDMDL
MODEL 4
REMARK VINA RESULT: -5.337895403      1.374      6.747
REMARK  9 active torsions:
REMARK  status: ('A' for Active; 'I' for Inactive)
REMARK    1  A    between atoms: C2_2  and  C3_3 
REMARK    2  A    between atoms: C3_3  and  C4_4 
REMARK    3  A    between atoms: C4_4  and  C5_5 
REMARK    4  A    between atoms: C5_5  and  C6_6 
REMARK    5  A    between atoms: C10_10  and  O1_11 
REMARK    6  A    between atoms: O1_11  and  C11_12 
REMARK    7  A    between atoms: C14_15  and  C15_16 
REMARK    8  A    between atoms: C15_16  and  C16_17 
REMARK    9  A    between atoms: C16_17  and  O2_18 
ROOT
HETATM    1  C6  UNL     1       5.385   0.123   6.871  1.00  0.00    -0.051 A 
HETATM    2  C7  UNL     1       5.100  -0.569   8.057  1.00  0.00     0.017 A 
HETATM    3  C8  UNL     1       3.837  -0.898   8.470  1.00  0.00    -0.028 A 
HETATM    4  C9  UNL     1       3.623  -1.635   9.745  1.00  0.00     0.051 C 
HETATM    5  C10 UNL     1       2.790  -0.526   7.664  1.00  0.00     0.075 A 
HETATM    6  C13 UNL     1       3.039   0.153   6.497  1.00  0.00     0.045 A 
HETATM    7  C14 UNL     1       4.328   0.488   6.082  1.00  0.00    -0.047 A 
ENDROOT
BRANCH   1   8
HETATM    8  C5  UNL     1       6.809   0.338   6.521  1.00  0.00     0.039 C 
BRANCH   8   9
HETATM    9  C4  UNL     1       7.312  -0.640   5.494  1.00  0.00     0.005 C 
BRANCH   9  10
HETATM   10  C3  UNL     1       7.941   0.087   4.348  1.00  0.00    -0.000 C 
BRANCH  10  11
HETATM   11  C2  UNL     1       7.830  -0.657   3.053  1.00  0.00    -0.005 C 
HETATM   12  C1  UNL     1       8.111   0.249   1.886  1.00  0.00     0.005 C 
ENDBRANCH  10  11
ENDBRANCH   9  10
ENDBRANCH   8   9
ENDBRANCH   1   8
BRANCH   7  13
HETATM   13  C15 UNL     1       4.541   1.285   4.862  1.00  0.00     0.065 C 
BRANCH  13  14
HETATM   14  C16 UNL     1       4.389   0.515   3.578  1.00  0.00     0.168 C 
BRANCH  14  15
HETATM   15  O2  UNL     1       4.382  -0.870   3.857  1.00  0.00    -0.401 OA
ATOM     16  H2  UNL     1       4.298  -1.356   3.045  1.00  0.00     0.209 HD
ENDBRANCH  14  15
ENDBRANCH  13  14
ENDBRANCH   7  13
BRANCH   5  17
HETATM   17  O1  UNL     1       1.506  -0.817   8.005  1.00  0.00    -0.351 OA
BRANCH  17  18
HETATM   18  C11 UNL     1       0.562  -0.087   8.689  1.00  0.00     0.171 C 
HETATM   19  C12 UNL     1       0.021  -0.681   9.937  1.00  0.00     0.034 C 
ENDBRANCH  17  18
ENDBRANCH   5  17
TORSDOF 9
ENDMDL
MODEL 5
REMARK VINA RESULT: -5.325855295      1.657      6.369
REMARK  9 active torsions:
REMARK  status: ('A' for Active; 'I' for Inactive)
REMARK    1  A    between atoms: C2_2  and  C3_3 
REMARK    2  A    between atoms: C3_3  and  C4_4 
REMARK    3  A    between atoms: C4_4  and  C5_5 
REMARK    4  A    between atoms: C5_5  and  C6_6 
REMARK    5  A    between atoms: C10_10  and  O1_11 
REMARK    6  A    between atoms: O1_11  and  C11_12 
REMARK    7  A    between atoms: C14_15  and  C15_16 
REMARK    8  A    between atoms: C15_16  and  C16_17 
REMARK    9  A    between atoms: C16_17  and  O2_18 
ROOT
HETATM    1  C6  UNL     1       4.306  -0.392   5.950  1.00  0.00    -0.051 A 
HETATM    2  C7  UNL     1       2.923  -0.249   6.136  1.00  0.00     0.017 A 
HETATM    3  C8  UNL     1       2.344   0.169   7.305  1.00  0.00    -0.028 A 
HETATM    4  C9  UNL     1       0.866   0.295   7.416  1.00  0.00     0.051 C 
HETATM    5  C10 UNL     1       3.178   0.464   8.354  1.00  0.00     0.075 A 
HETATM    6  C13 UNL     1       4.536   0.333   8.201  1.00  0.00     0.045 A 
HETATM    7  C14 UNL     1       5.120  -0.095   7.008  1.00  0.00    -0.047 A 
ENDROOT
BRANCH   1   8
HETATM    8  C5  UNL     1       4.785  -0.779   4.602  1.00  0.00     0.039 C 
BRANCH   8   9
HETATM    9  C4  UNL     1       4.848   0.383   3.649  1.00  0.00     0.005 C 
BRANCH   9  10
HETATM   10  C3  UNL     1       6.252   0.594   3.177  1.00  0.00    -0.000 C 
BRANCH  10  11
HETATM   11  C2  UNL     1       7.112  -0.621   3.342  1.00  0.00    -0.005 C 
HETATM   12  C1  UNL     1       8.480  -0.395   2.759  1.00  0.00     0.005 C 
ENDBRANCH  10  11
ENDBRANCH   9  10
ENDBRANCH   8   9
ENDBRANCH   1   8
BRANCH   7  13
HETATM   13  C15 UNL     1       6.577  -0.297   6.916  1.00  0.00     0.065 C 
BRANCH  13  14
HETATM   14  C16 UNL     1       7.366   0.957   6.653  1.00  0.00     0.168 C 
BRANCH  14  15
HETATM   15  O2  UNL     1       6.486   1.999   6.284  1.00  0.00    -0.401 OA
ATOM     16  H2  UNL     1       5.604   1.782   6.562  1.00  0.00     0.209 HD
ENDBRANCH  14  15
ENDBRANCH  13  14
ENDBRANCH   7  13
BRANCH   5  17
HETATM   17  O1  UNL     1       2.680   0.887   9.547  1.00  0.00    -0.351 OA
BRANCH  17  18
HETATM   18  C11 UNL     1       2.239   0.183  10.644  1.00  0.00     0.171 C 
HETATM   19  C12 UNL     1       0.856   0.452  11.110  1.00  0.00     0.034 C 
ENDBRANCH  17  18
ENDBRANCH   5  17
TORSDOF 9
ENDMDL
