MODEL 1
REMARK VINA RESULT: -6.717270739      0.000      0.000
REMARK  8 active torsions:
REMARK  status: ('A' for Active; 'I' for Inactive)
REMARK    1  A    between atoms: C2_2  and  C3_3 
REMARK    2  A    between atoms: C3_3  and  C4_4 
REMARK    3  A    between atoms: C4_4  and  C5_5 
REMARK    4  A    between atoms: C5_5  and  C6_6 
REMARK    5  A    between atoms: C6_6  and  C7_7 
REMARK    6  A    between atoms: C7_7  and  C8_9 
REMARK    7  A    between atoms: C10_11  and  C11_12 
REMARK    8  A    between atoms: C13_14  and  O2_15 
ROOT
HETATM    1  C8  UNL     1       4.546   0.066   6.036  1.00  0.00     0.016 A 
HETATM    2  C9  UNL     1       3.225  -0.268   6.392  1.00  0.00     0.025 A 
HETATM    3  C10 UNL     1       2.867  -0.688   7.655  1.00  0.00    -0.024 A 
HETATM    4  C13 UNL     1       3.871  -0.774   8.594  1.00  0.00     0.072 A 
HETATM    5  C14 UNL     1       5.176  -0.459   8.300  1.00  0.00     0.044 A 
HETATM    6  C15 UNL     1       5.514  -0.031   6.996  1.00  0.00    -0.045 A 
HETATM    7  C16 UNL     1       6.920   0.285   6.745  1.00  0.00     0.049 C 
ENDROOT
BRANCH   1   8
HETATM    8  C7  UNL     1       4.851   0.507   4.704  1.00  0.00     0.160 C 
HETATM    9  O1  UNL     1       4.567   1.685   4.355  1.00  0.00    -0.292 OA
BRANCH   8  10
HETATM   10  C6  UNL     1       5.498  -0.299   3.632  1.00  0.00     0.084 C 
BRANCH  10  11
HETATM   11  C5  UNL     1       6.685   0.435   3.058  1.00  0.00     0.008 C 
BRANCH  11  12
HETATM   12  C4  UNL     1       7.963  -0.357   3.179  1.00  0.00     0.004 C 
BRANCH  12  13
HETATM   13  C3  UNL     1       8.683  -0.527   1.891  1.00  0.00     0.026 C 
BRANCH  13  14
HETATM   14  C2  UNL     1      10.104  -0.105   2.088  1.00  0.00    -0.037 C 
HETATM   15  C1  UNL     1      10.478   1.150   2.278  1.00  0.00     0.007 C 
ENDBRANCH  13  14
ENDBRANCH  12  13
ENDBRANCH  11  12
ENDBRANCH  10  11
ENDBRANCH   8  10
ENDBRANCH   1   8
BRANCH   3  16
HETATM   16  C11 UNL     1       1.457  -1.031   7.982  1.00  0.00     0.037 C 
HETATM   17  C12 UNL     1       0.665   0.177   8.422  1.00  0.00     0.010 C 
ENDBRANCH   3  16
BRANCH   4  18
HETATM   18  O2  UNL     1       3.495  -1.199   9.864  1.00  0.00    -0.360 OA
ATOM     19  H2  UNL     1       3.252  -2.114   9.949  1.00  0.00     0.217 HD
ENDBRANCH   4  18
TORSDOF 8
ENDMDL
MODEL 2
REMARK VINA RESULT: -6.553905859      1.146      1.176
REMARK  8 active torsions:
REMARK  status: ('A' for Active; 'I' for Inactive)
REMARK    1  A    between atoms: C2_2  and  C3_3 
REMARK    2  A    between atoms: C3_3  and  C4_4 
REMARK    3  A    between atoms: C4_4  and  C5_5 
REMARK    4  A    between atoms: C5_5  and  C6_6 
REMARK    5  A    between atoms: C6_6  and  C7_7 
REMARK    6  A    between atoms: C7_7  and  C8_9 
REMARK    7  A    between atoms: C10_11  and  C11_12 
REMARK    8  A    between atoms: C13_14  and  O2_15 
ROOT
HETATM    1  C8  UNL     1       4.739  -0.507   6.090  1.00  0.00     0.016 A 
HETATM    2  C9  UNL     1       3.381  -0.658   6.430  1.00  0.00     0.025 A 
HETATM    3  C10 UNL     1       2.887  -0.408   7.693  1.00  0.00    -0.024 A 
HETATM    4  C13 UNL     1       3.789   0.008   8.646  1.00  0.00     0.072 A 
HETATM    5  C14 UNL     1       5.125   0.173   8.367  1.00  0.00     0.044 A 
HETATM    6  C15 UNL     1       5.603  -0.090   7.064  1.00  0.00    -0.045 A 
HETATM    7  C16 UNL     1       7.035   0.100   6.832  1.00  0.00     0.049 C 
ENDROOT
BRANCH   1   8
HETATM    8  C7  UNL     1       5.189  -0.774   4.753  1.00  0.00     0.160 C 
HETATM    9  O1  UNL     1       5.687  -1.898   4.473  1.00  0.00    -0.292 OA
BRANCH   8  10
HETATM   10  C6  UNL     1       5.134   0.164   3.597  1.00  0.00     0.084 C 
BRANCH  10  11
HETATM   11  C5  UNL     1       6.422   0.943   3.483  1.00  0.00     0.008 C 
BRANCH  11  12
HETATM   12  C4  UNL     1       7.382   0.325   2.499  1.00  0.00     0.004 C 
BRANCH  12  13
HETATM   13  C3  UNL     1       8.568  -0.303   3.136  1.00  0.00     0.026 C 
BRANCH  13  14
HETATM   14  C2  UNL     1       9.780   0.069   2.341  1.00  0.00    -0.037 C 
HETATM   15  C1  UNL     1      10.339   1.268   2.371  1.00  0.00     0.007 C 
ENDBRANCH  13  14
ENDBRANCH  12  13
ENDBRANCH  11  12
ENDBRANCH  10  11
ENDBRANCH   8  10
ENDBRANCH   1   8
BRANCH   3  16
HETATM   16  C11 UNL     1       1.444  -0.585   8.003  1.00  0.00     0.037 C 
HETATM   17  C12 UNL     1       0.616   0.592   7.545  1.00  0.00     0.010 C 
ENDBRANCH   3  16
BRANCH   4  18
HETATM   18  O2  UNL     1       3.276   0.256   9.915  1.00  0.00    -0.360 OA
ATOM     19  H2  UNL     1       3.535   1.075  10.323  1.00  0.00     0.217 HD
ENDBRANCH   4  18
TORSDOF 8
ENDMDL
MODEL 3
REMARK VINA RESULT: -6.510056139      1.447      2.326
REMARK  8 active torsions:
REMARK  status: ('A' for Active; 'I' for Inactive)
REMARK    1  A    between atoms: C2_2  and  C3_3 
REMARK    2  A    between atoms: C3_3  and  C4_4 
REMARK    3  A    between atoms: C4_4  and  C5_5 
REMARK    4  A    between atoms: C5_5  and  C6_6 
REMARK    5  A    between atoms: C6_6  and  C7_7 
REMARK    6  A    between atoms: C7_7  and  C8_9 
REMARK    7  A    between atoms: C10_11  and  C11_12 
REMARK    8  A    between atoms: C13_14  and  O2_15 
ROOT
HETATM    1  C8  UNL     1       5.171   0.415   6.652  1.00  0.00     0.016 A 
HETATM    2  C9  UNL     1       4.867  -0.075   7.937  1.00  0.00     0.025 A 
HETATM    3  C10 UNL     1       3.580  -0.178   8.420  1.00  0.00    -0.024 A 
HETATM    4  C13 UNL     1       2.563   0.225   7.583  1.00  0.00     0.072 A 
HETATM    5  C14 UNL     1       2.805   0.710   6.320  1.00  0.00     0.044 A 
HETATM    6  C15 UNL     1       4.134   0.804   5.851  1.00  0.00    -0.045 A 
HETATM    7  C16 UNL     1       4.325   1.332   4.499  1.00  0.00     0.049 C 
ENDROOT
BRANCH   1   8
HETATM    8  C7  UNL     1       6.533   0.487   6.204  1.00  0.00     0.160 C 
HETATM    9  O1  UNL     1       7.174   1.567   6.322  1.00  0.00    -0.292 OA
BRANCH   8  10
HETATM   10  C6  UNL     1       7.321  -0.615   5.587  1.00  0.00     0.084 C 
BRANCH  10  11
HETATM   11  C5  UNL     1       6.950  -0.785   4.134  1.00  0.00     0.008 C 
BRANCH  11  12
HETATM   12  C4  UNL     1       7.698   0.166   3.235  1.00  0.00     0.004 C 
BRANCH  12  13
HETATM   13  C3  UNL     1       8.483  -0.512   2.170  1.00  0.00     0.026 C 
BRANCH  13  14
HETATM   14  C2  UNL     1       9.915  -0.103   2.310  1.00  0.00    -0.037 C 
HETATM   15  C1  UNL     1      10.318   1.157   2.353  1.00  0.00     0.007 C 
ENDBRANCH  13  14
ENDBRANCH  12  13
ENDBRANCH  11  12
ENDBRANCH  10  11
ENDBRANCH   8  10
ENDBRANCH   1   8
BRANCH   3  16
HETATM   16  C11 UNL     1       3.310  -0.701   9.786  1.00  0.00     0.037 C 
HETATM   17  C12 UNL     1       3.475  -2.200   9.863  1.00  0.00     0.010 C 
ENDBRANCH   3  16
BRANCH   4  18
HETATM   18  O2  UNL     1       1.270   0.116   8.084  1.00  0.00    -0.360 OA
ATOM     19  H2  UNL     1       0.571   0.422   7.519  1.00  0.00     0.217 HD
ENDBRANCH   4  18
TORSDOF 8
ENDMDL
MODEL 4
REMARK VINA RESULT: -6.237325163      2.585      6.968
REMARK  8 active torsions:
REMARK  status: ('A' for Active; 'I' for Inactive)
REMARK    1  A    between atoms: C2_2  and  C3_3 
REMARK    2  A    between atoms: C3_3  and  C4_4 
REMARK    3  A    between atoms: C4_4  and  C5_5 
REMARK    4  A    between atoms: C5_5  and  C6_6 
REMARK    5  A    between atoms: C6_6  and  C7_7 
REMARK    6  A    between atoms: C7_7  and  C8_9 
REMARK    7  A    between atoms: C10_11  and  C11_12 
REMARK    8  A    between atoms: C13_14  and  O2_15 
ROOT
HETATM    1  C8  UNL     1       3.721   0.579   7.471  1.00  0.00     0.016 A 
HETATM    2  C9  UNL     1       4.014   0.852   6.121  1.00  0.00     0.025 A 
HETATM    3  C10 UNL     1       5.205   0.500   5.521  1.00  0.00    -0.024 A 
HETATM    4  C13 UNL     1       6.132  -0.149   6.305  1.00  0.00     0.072 A 
HETATM    5  C14 UNL     1       5.896  -0.440   7.628  1.00  0.00     0.044 A 
HETATM    6  C15 UNL     1       4.666  -0.067   8.216  1.00  0.00    -0.045 A 
HETATM    7  C16 UNL     1       4.478  -0.401   9.628  1.00  0.00     0.049 C 
ENDROOT
BRANCH   1   8
HETATM    8  C7  UNL     1       2.457   0.964   8.033  1.00  0.00     0.160 C 
HETATM    9  O1  UNL     1       2.395   1.950   8.817  1.00  0.00    -0.292 OA
BRANCH   8  10
HETATM   10  C6  UNL     1       1.143   0.308   7.788  1.00  0.00     0.084 C 
BRANCH  10  11
HETATM   11  C5  UNL     1       1.261  -1.190   7.939  1.00  0.00     0.008 C 
BRANCH  11  12
HETATM   12  C4  UNL     1       1.018  -1.645   9.355  1.00  0.00     0.004 C 
BRANCH  12  13
HETATM   13  C3  UNL     1      -0.152  -0.994  10.000  1.00  0.00     0.026 C 
BRANCH  13  14
HETATM   14  C2  UNL     1       0.277  -0.467  11.331  1.00  0.00    -0.037 C 
HETATM   15  C1  UNL     1       1.401   0.203  11.529  1.00  0.00     0.007 C 
ENDBRANCH  13  14
ENDBRANCH  12  13
ENDBRANCH  11  12
ENDBRANCH  10  11
ENDBRANCH   8  10
ENDBRANCH   1   8
BRANCH   3  16
HETATM   16  C11 UNL     1       5.468   0.812   4.091  1.00  0.00     0.037 C 
HETATM   17  C12 UNL     1       4.734  -0.125   3.161  1.00  0.00     0.010 C 
ENDBRANCH   3  16
BRANCH   4  18
HETATM   18  O2  UNL     1       7.329  -0.498   5.687  1.00  0.00    -0.360 OA
ATOM     19  H2  UNL     1       7.754  -1.286   6.004  1.00  0.00     0.217 HD
ENDBRANCH   4  18
TORSDOF 8
ENDMDL
MODEL 5
REMARK VINA RESULT: -6.172096472      1.400      1.603
REMARK  8 active torsions:
REMARK  status: ('A' for Active; 'I' for Inactive)
REMARK    1  A    between atoms: C2_2  and  C3_3 
REMARK    2  A    between atoms: C3_3  and  C4_4 
REMARK    3  A    between atoms: C4_4  and  C5_5 
REMARK    4  A    between atoms: C5_5  and  C6_6 
REMARK    5  A    between atoms: C6_6  and  C7_7 
REMARK    6  A    between atoms: C7_7  and  C8_9 
REMARK    7  A    between atoms: C10_11  and  C11_12 
REMARK    8  A    between atoms: C13_14  and  O2_15 
ROOT
HETATM    1  C8  UNL     1       5.010   0.329   6.756  1.00  0.00     0.016 A 
HETATM    2  C9  UNL     1       4.134   0.903   7.698  1.00  0.00     0.025 A 
HETATM    3  C10 UNL     1       3.406   0.159   8.603  1.00  0.00    -0.024 A 
HETATM    4  C13 UNL     1       3.564  -1.208   8.559  1.00  0.00     0.072 A 
HETATM    5  C14 UNL     1       4.406  -1.819   7.661  1.00  0.00     0.044 A 
HETATM    6  C15 UNL     1       5.140  -1.032   6.746  1.00  0.00    -0.045 A 
HETATM    7  C16 UNL     1       6.015  -1.743   5.812  1.00  0.00     0.049 C 
ENDROOT
BRANCH   1   8
HETATM    8  C7  UNL     1       5.748   1.160   5.847  1.00  0.00     0.160 C 
HETATM    9  O1  UNL     1       6.851   1.654   6.207  1.00  0.00    -0.292 OA
BRANCH   8  10
HETATM   10  C6  UNL     1       5.349   1.526   4.461  1.00  0.00     0.084 C 
BRANCH  10  11
HETATM   11  C5  UNL     1       5.814   0.478   3.479  1.00  0.00     0.008 C 
BRANCH  11  12
HETATM   12  C4  UNL     1       7.204   0.752   2.964  1.00  0.00     0.004 C 
BRANCH  12  13
HETATM   13  C3  UNL     1       8.022  -0.475   2.774  1.00  0.00     0.026 C 
BRANCH  13  14
HETATM   14  C2  UNL     1       9.454  -0.067   2.633  1.00  0.00    -0.037 C 
HETATM   15  C1  UNL     1       9.847   1.182   2.442  1.00  0.00     0.007 C 
ENDBRANCH  13  14
ENDBRANCH  12  13
ENDBRANCH  11  12
ENDBRANCH  10  11
ENDBRANCH   8  10
ENDBRANCH   1   8
BRANCH   3  16
HETATM   16  C11 UNL     1       2.493   0.813   9.577  1.00  0.00     0.037 C 
HETATM   17  C12 UNL     1       1.040   0.621   9.210  1.00  0.00     0.010 C 
ENDBRANCH   3  16
BRANCH   4  18
HETATM   18  O2  UNL     1       2.823  -1.945   9.477  1.00  0.00    -0.360 OA
ATOM     19  H2  UNL     1       3.190  -2.780   9.743  1.00  0.00     0.217 HD
ENDBRANCH   4  18
TORSDOF 8
ENDMDL
