MODEL 1
REMARK VINA RESULT: -5.629759680      0.000      0.000
REMARK  3 active torsions:
REMARK  status: ('A' for Active; 'I' for Inactive)
REMARK    1  A    between atoms: C2_7  and  C3_8 
REMARK    2  A    between atoms: C3_8  and  N3_9 
REMARK    3  A    between atoms: C12_22  and  O3_23 
ROOT
HETATM    1  N1  UNL     1       3.394  -2.333  10.057  1.00  0.00    -0.384 N 
ATOM      2  H11 UNL     1       2.684  -2.617  10.732  1.00  0.00     0.157 HD
ATOM      3  H12 UNL     1       3.986  -3.155   9.940  1.00  0.00     0.157 HD
HETATM    4  C1  UNL     1       3.559  -1.271   9.482  1.00  0.00     0.129 A 
HETATM    5  N2  UNL     1       4.545  -0.876   8.546  1.00  0.00    -0.329 N 
ATOM      6  H2  UNL     1       5.308  -1.454   8.192  1.00  0.00     0.168 HD
HETATM    7  C2  UNL     1       4.274   0.478   8.187  1.00  0.00     0.112 A 
HETATM    8  N4  UNL     1       3.244   0.928   8.804  1.00  0.00    -0.340 N 
ATOM      9  H4  UNL     1       2.867   1.871   8.703  1.00  0.00     0.167 HD
HETATM   10  C11 UNL     1       2.704  -0.083   9.651  1.00  0.00     0.099 A 
HETATM   11  C12 UNL     1       1.642   0.030  10.432  1.00  0.00     0.164 C 
ENDROOT
BRANCH   7  12
HETATM   12  C3  UNL     1       5.116   1.218   7.218  1.00  0.00     0.348 C 
BRANCH  12  13
HETATM   13  N3  UNL     1       5.469   0.392   6.072  1.00  0.00     0.098 N 
HETATM   14  C4  UNL     1       4.557   0.694   5.020  1.00  0.00     0.275 C 
HETATM   15  C5  UNL     1       4.898   0.118   3.688  1.00  0.00     0.065 C 
HETATM   16  C6  UNL     1       6.364   0.437   3.399  1.00  0.00     0.153 C 
HETATM   17  O1  UNL     1       6.778  -0.074   2.190  1.00  0.00    -0.381 OA
HETATM   18  C9  UNL     1       7.164  -0.176   4.496  1.00  0.00     0.178 C 
HETATM   19  C7  UNL     1       8.090   0.364   2.001  1.00  0.00     0.194 C 
HETATM   20  C8  UNL     1       9.015  -0.046   3.083  1.00  0.00     0.194 C 
HETATM   21  O2  UNL     1       8.480  -0.343   4.284  1.00  0.00    -0.379 OA
HETATM   22  C10 UNL     1       6.847   0.626   5.766  1.00  0.00     0.307 C 
ENDBRANCH  12  13
ENDBRANCH   7  12
BRANCH  11  23
HETATM   23  O3  UNL     1       0.963   1.239  10.456  1.00  0.00    -0.370 OA
ATOM     24  H3  UNL     1       1.379   1.986  10.870  1.00  0.00     0.216 HD
ENDBRANCH  11  23
TORSDOF 3
ENDMDL
MODEL 2
REMARK VINA RESULT: -5.626506318      1.599      7.400
REMARK  3 active torsions:
REMARK  status: ('A' for Active; 'I' for Inactive)
REMARK    1  A    between atoms: C2_7  and  C3_8 
REMARK    2  A    between atoms: C3_8  and  N3_9 
REMARK    3  A    between atoms: C12_22  and  O3_23 
ROOT
HETATM    1  N1  UNL     1       4.529   0.105   2.662  1.00  0.00    -0.384 N 
ATOM      2  H11 UNL     1       4.985   0.039   1.753  1.00  0.00     0.157 HD
ATOM      3  H12 UNL     1       3.536   0.196   2.451  1.00  0.00     0.157 HD
HETATM    4  C1  UNL     1       5.000   0.086   3.786  1.00  0.00     0.129 A 
HETATM    5  N2  UNL     1       4.368   0.178   5.050  1.00  0.00    -0.329 N 
ATOM      6  H2  UNL     1       3.367   0.280   5.218  1.00  0.00     0.168 HD
HETATM    7  C2  UNL     1       5.388   0.102   6.044  1.00  0.00     0.112 A 
HETATM    8  N4  UNL     1       6.549  -0.023   5.514  1.00  0.00    -0.340 N 
ATOM      9  H4  UNL     1       7.425  -0.095   6.032  1.00  0.00     0.167 HD
HETATM   10  C11 UNL     1       6.435  -0.046   4.093  1.00  0.00     0.099 A 
HETATM   11  C12 UNL     1       7.428  -0.164   3.226  1.00  0.00     0.164 C 
ENDROOT
BRANCH   7  12
HETATM   12  C3  UNL     1       5.082   0.166   7.492  1.00  0.00     0.348 C 
BRANCH  12  13
HETATM   13  N3  UNL     1       3.661  -0.019   7.750  1.00  0.00     0.098 N 
HETATM   14  C4  UNL     1       3.398  -1.420   7.753  1.00  0.00     0.275 C 
HETATM   15  C5  UNL     1       2.043  -1.819   8.227  1.00  0.00     0.065 C 
HETATM   16  C6  UNL     1       1.776  -1.098   9.548  1.00  0.00     0.153 C 
HETATM   17  O1  UNL     1       0.531  -1.392  10.057  1.00  0.00    -0.381 OA
HETATM   18  C9  UNL     1       1.864   0.363   9.267  1.00  0.00     0.178 C 
HETATM   19  C7  UNL     1       0.449  -0.757  11.298  1.00  0.00     0.194 C 
HETATM   20  C8  UNL     1       0.649   0.710  11.228  1.00  0.00     0.194 C 
HETATM   21  O2  UNL     1       1.322   1.200  10.168  1.00  0.00    -0.379 OA
HETATM   22  C10 UNL     1       3.339   0.660   8.968  1.00  0.00     0.307 C 
ENDBRANCH  12  13
ENDBRANCH   7  12
BRANCH  11  23
HETATM   23  O3  UNL     1       8.721  -0.277   3.712  1.00  0.00    -0.370 OA
ATOM     24  H3  UNL     1       9.428  -0.419   3.093  1.00  0.00     0.216 HD
ENDBRANCH  11  23
TORSDOF 3
ENDMDL
MODEL 3
REMARK VINA RESULT: -5.539137306      1.419      1.795
REMARK  3 active torsions:
REMARK  status: ('A' for Active; 'I' for Inactive)
REMARK    1  A    between atoms: C2_7  and  C3_8 
REMARK    2  A    between atoms: C3_8  and  N3_9 
REMARK    3  A    between atoms: C12_22  and  O3_23 
ROOT
HETATM    1  N1  UNL     1       0.659   0.101   8.474  1.00  0.00    -0.384 N 
ATOM      2  H11 UNL     1       0.078  -0.488   9.069  1.00  0.00     0.157 HD
ATOM      3  H12 UNL     1       0.006   0.743   8.024  1.00  0.00     0.157 HD
HETATM    4  C1  UNL     1       1.864   0.097   8.290  1.00  0.00     0.129 A 
HETATM    5  N2  UNL     1       2.671   0.915   7.463  1.00  0.00    -0.329 N 
ATOM      6  H2  UNL     1       2.346   1.673   6.862  1.00  0.00     0.168 HD
HETATM    7  C2  UNL     1       4.022   0.484   7.624  1.00  0.00     0.112 A 
HETATM    8  N4  UNL     1       4.105  -0.494   8.450  1.00  0.00    -0.340 N 
ATOM      9  H4  UNL     1       4.971  -0.962   8.717  1.00  0.00     0.167 HD
HETATM   10  C11 UNL     1       2.808  -0.829   8.939  1.00  0.00     0.099 A 
HETATM   11  C12 UNL     1       2.519  -1.786   9.806  1.00  0.00     0.164 C 
ENDROOT
BRANCH   7  12
HETATM   12  C3  UNL     1       5.143   1.126   6.900  1.00  0.00     0.348 C 
BRANCH  12  13
HETATM   13  N3  UNL     1       5.559   0.339   5.747  1.00  0.00     0.098 N 
HETATM   14  C4  UNL     1       4.706   0.682   4.657  1.00  0.00     0.275 C 
HETATM   15  C5  UNL     1       5.119   0.152   3.326  1.00  0.00     0.065 C 
HETATM   16  C6  UNL     1       6.599   0.478   3.130  1.00  0.00     0.153 C 
HETATM   17  O1  UNL     1       7.078   0.008   1.928  1.00  0.00    -0.381 OA
HETATM   18  C9  UNL     1       7.337  -0.176   4.247  1.00  0.00     0.178 C 
HETATM   19  C7  UNL     1       8.399   0.449   1.827  1.00  0.00     0.194 C 
HETATM   20  C8  UNL     1       9.262  -0.002   2.942  1.00  0.00     0.194 C 
HETATM   21  O2  UNL     1       8.663  -0.339   4.101  1.00  0.00    -0.379 OA
HETATM   22  C10 UNL     1       6.952   0.581   5.525  1.00  0.00     0.307 C 
ENDBRANCH  12  13
ENDBRANCH   7  12
BRANCH  11  23
HETATM   23  O3  UNL     1       3.553  -2.559  10.309  1.00  0.00    -0.370 OA
ATOM     24  H3  UNL     1       3.828  -3.325   9.819  1.00  0.00     0.216 HD
ENDBRANCH  11  23
TORSDOF 3
ENDMDL
MODEL 4
REMARK VINA RESULT: -5.499085978      2.632      7.313
REMARK  3 active torsions:
REMARK  status: ('A' for Active; 'I' for Inactive)
REMARK    1  A    between atoms: C2_7  and  C3_8 
REMARK    2  A    between atoms: C3_8  and  N3_9 
REMARK    3  A    between atoms: C12_22  and  O3_23 
ROOT
HETATM    1  N1  UNL     1      10.277  -0.287   2.565  1.00  0.00    -0.384 N 
ATOM      2  H11 UNL     1      11.024   0.177   2.049  1.00  0.00     0.157 HD
ATOM      3  H12 UNL     1      10.722  -1.097   2.997  1.00  0.00     0.157 HD
HETATM    4  C1  UNL     1       9.099   0.002   2.684  1.00  0.00     0.129 A 
HETATM    5  N2  UNL     1       8.061  -0.641   3.401  1.00  0.00    -0.329 N 
ATOM      6  H2  UNL     1       8.149  -1.492   3.956  1.00  0.00     0.168 HD
HETATM    7  C2  UNL     1       6.870   0.120   3.203  1.00  0.00     0.112 A 
HETATM    8  N4  UNL     1       7.085   1.137   2.452  1.00  0.00    -0.340 N 
ATOM      9  H4  UNL     1       6.379   1.820   2.177  1.00  0.00     0.167 HD
HETATM   10  C11 UNL     1       8.455   1.172   2.061  1.00  0.00     0.099 A 
HETATM   11  C12 UNL     1       9.029   2.081   1.289  1.00  0.00     0.164 C 
ENDROOT
BRANCH   7  12
HETATM   12  C3  UNL     1       5.578  -0.269   3.815  1.00  0.00     0.348 C 
BRANCH  12  13
HETATM   13  N3  UNL     1       5.635  -0.218   5.269  1.00  0.00     0.098 N 
HETATM   14  C4  UNL     1       5.765   1.149   5.651  1.00  0.00     0.275 C 
HETATM   15  C5  UNL     1       5.607   1.428   7.107  1.00  0.00     0.065 C 
HETATM   16  C6  UNL     1       4.335   0.730   7.584  1.00  0.00     0.153 C 
HETATM   17  O1  UNL     1       4.114   0.916   8.930  1.00  0.00    -0.381 OA
HETATM   18  C9  UNL     1       4.509  -0.723   7.307  1.00  0.00     0.178 C 
HETATM   19  C7  UNL     1       2.885   0.320   9.218  1.00  0.00     0.194 C 
HETATM   20  C8  UNL     1       2.830  -1.121   8.877  1.00  0.00     0.194 C 
HETATM   21  O2  UNL     1       3.697  -1.578   7.952  1.00  0.00    -0.379 OA
HETATM   22  C10 UNL     1       4.476  -0.882   5.781  1.00  0.00     0.307 C 
ENDBRANCH  12  13
ENDBRANCH   7  12
BRANCH  11  23
HETATM   23  O3  UNL     1       8.251   3.116   0.793  1.00  0.00    -0.370 OA
ATOM     24  H3  UNL     1       8.399   3.994   1.123  1.00  0.00     0.216 HD
ENDBRANCH  11  23
TORSDOF 3
ENDMDL
MODEL 5
REMARK VINA RESULT: -5.472655821      3.062      7.388
REMARK  3 active torsions:
REMARK  status: ('A' for Active; 'I' for Inactive)
REMARK    1  A    between atoms: C2_7  and  C3_8 
REMARK    2  A    between atoms: C3_8  and  N3_9 
REMARK    3  A    between atoms: C12_22  and  O3_23 
ROOT
HETATM    1  N1  UNL     1      11.166   0.692   1.802  1.00  0.00    -0.384 N 
ATOM      2  H11 UNL     1      11.635   1.387   1.222  1.00  0.00     0.157 HD
ATOM      3  H12 UNL     1      11.901   0.038   2.071  1.00  0.00     0.157 HD
HETATM    4  C1  UNL     1       9.998   0.599   2.138  1.00  0.00     0.129 A 
HETATM    5  N2  UNL     1       9.347  -0.366   2.944  1.00  0.00    -0.329 N 
ATOM      6  H2  UNL     1       9.782  -1.175   3.388  1.00  0.00     0.168 HD
HETATM    7  C2  UNL     1       7.970   0.000   3.020  1.00  0.00     0.112 A 
HETATM    8  N4  UNL     1       7.734   1.070   2.352  1.00  0.00    -0.340 N 
ATOM      9  H4  UNL     1       6.820   1.515   2.265  1.00  0.00     0.167 HD
HETATM   10  C11 UNL     1       8.936   1.543   1.749  1.00  0.00     0.099 A 
HETATM   11  C12 UNL     1       9.064   2.620   0.992  1.00  0.00     0.164 C 
ENDROOT
BRANCH   7  12
HETATM   12  C3  UNL     1       6.986  -0.795   3.789  1.00  0.00     0.348 C 
BRANCH  12  13
HETATM   13  N3  UNL     1       6.241   0.032   4.727  1.00  0.00     0.098 N 
HETATM   14  C4  UNL     1       5.030   0.429   4.090  1.00  0.00     0.275 C 
HETATM   15  C5  UNL     1       4.026   1.091   4.971  1.00  0.00     0.065 C 
HETATM   16  C6  UNL     1       3.858   0.230   6.221  1.00  0.00     0.153 C 
HETATM   17  O1  UNL     1       2.958   0.775   7.110  1.00  0.00    -0.381 OA
HETATM   18  C9  UNL     1       5.198   0.141   6.867  1.00  0.00     0.178 C 
HETATM   19  C7  UNL     1       2.822  -0.144   8.152  1.00  0.00     0.194 C 
HETATM   20  C8  UNL     1       4.099  -0.461   8.834  1.00  0.00     0.194 C 
HETATM   21  O2  UNL     1       5.241  -0.252   8.151  1.00  0.00    -0.379 OA
HETATM   22  C10 UNL     1       6.072  -0.712   5.938  1.00  0.00     0.307 C 
ENDBRANCH  12  13
ENDBRANCH   7  12
BRANCH  11  23
HETATM   23  O3  UNL     1       7.939   3.388   0.736  1.00  0.00    -0.370 OA
ATOM     24  H3  UNL     1       8.038   4.185   0.228  1.00  0.00     0.216 HD
ENDBRANCH  11  23
TORSDOF 3
ENDMDL
