MODEL 1
REMARK VINA RESULT: -6.767404442      0.000      0.000
REMARK  6 active torsions:
REMARK  status: ('A' for Active; 'I' for Inactive)
REMARK    1  A    between atoms: C2_2  and  C3_3 
REMARK    2  A    between atoms: C3_3  and  O1_4 
REMARK    3  A    between atoms: O1_4  and  C4_5 
REMARK    4  A    between atoms: C4_5  and  C5_6 
REMARK    5  A    between atoms: C5_6  and  O2_7 
REMARK    6  A    between atoms: O2_7  and  C6_8 
ROOT
HETATM    1  C6  UNL     1     -13.274  10.065 -21.688  1.00  0.00     0.075 A 
HETATM    2  C7  UNL     1     -13.147   8.934 -22.460  1.00  0.00     0.044 A 
HETATM    3  C8  UNL     1     -13.783   8.757 -23.690  1.00  0.00    -0.059 A 
HETATM    4  C9  UNL     1     -13.610   7.512 -24.481  1.00  0.00     0.048 C 
HETATM    5  C10 UNL     1     -14.575   9.796 -24.122  1.00  0.00     0.014 A 
HETATM    6  C11 UNL     1     -14.707  10.934 -23.355  1.00  0.00    -0.053 A 
HETATM    7  C12 UNL     1     -15.573  12.026 -23.869  1.00  0.00     0.049 C 
HETATM    8  C13 UNL     1     -14.090  11.118 -22.151  1.00  0.00    -0.023 A 
HETATM    9  C14 UNL     1     -14.236  12.342 -21.332  1.00  0.00     0.052 C 
ENDROOT
BRANCH   1  10
HETATM   10  O2  UNL     1     -12.657  10.240 -20.497  1.00  0.00    -0.348 OA
BRANCH  10  11
HETATM   11  C5  UNL     1     -11.355  10.421 -20.090  1.00  0.00     0.201 C 
BRANCH  11  12
HETATM   12  C4  UNL     1     -10.928  11.845 -20.260  1.00  0.00     0.194 C 
BRANCH  12  13
HETATM   13  O1  UNL     1     -11.101  12.623 -19.147  1.00  0.00    -0.389 OA
BRANCH  13  14
HETATM   14  C3  UNL     1     -10.648  12.137 -17.960  1.00  0.00     0.167 C 
BRANCH  14  15
HETATM   15  C2  UNL     1      -9.265  12.521 -17.558  1.00  0.00     0.022 C 
HETATM   16  C1  UNL     1      -8.266  11.400 -17.730  1.00  0.00     0.007 C 
ENDBRANCH  14  15
ENDBRANCH  13  14
ENDBRANCH  12  13
ENDBRANCH  11  12
ENDBRANCH  10  11
ENDBRANCH   1  10
TORSDOF 6
ENDMDL
MODEL 2
REMARK VINA RESULT: -6.265572704      0.917      2.507
REMARK  6 active torsions:
REMARK  status: ('A' for Active; 'I' for Inactive)
REMARK    1  A    between atoms: C2_2  and  C3_3 
REMARK    2  A    between atoms: C3_3  and  O1_4 
REMARK    3  A    between atoms: O1_4  and  C4_5 
REMARK    4  A    between atoms: C4_5  and  C5_6 
REMARK    5  A    between atoms: C5_6  and  O2_7 
REMARK    6  A    between atoms: O2_7  and  C6_8 
ROOT
HETATM    1  C6  UNL     1     -13.669  10.813 -21.646  1.00  0.00     0.075 A 
HETATM    2  C7  UNL     1     -14.462  11.656 -22.390  1.00  0.00     0.044 A 
HETATM    3  C8  UNL     1     -14.950  11.343 -23.660  1.00  0.00    -0.059 A 
HETATM    4  C9  UNL     1     -15.801  12.293 -24.420  1.00  0.00     0.048 C 
HETATM    5  C10 UNL     1     -14.598  10.111 -24.162  1.00  0.00     0.014 A 
HETATM    6  C11 UNL     1     -13.805   9.260 -23.423  1.00  0.00    -0.053 A 
HETATM    7  C12 UNL     1     -13.456   7.942 -24.012  1.00  0.00     0.049 C 
HETATM    8  C13 UNL     1     -13.322   9.555 -22.181  1.00  0.00    -0.023 A 
HETATM    9  C14 UNL     1     -12.471   8.637 -21.391  1.00  0.00     0.052 C 
ENDROOT
BRANCH   1  10
HETATM   10  O2  UNL     1     -13.197  11.113 -20.415  1.00  0.00    -0.348 OA
BRANCH  10  11
HETATM   11  C5  UNL     1     -12.408  12.110 -19.889  1.00  0.00     0.201 C 
BRANCH  11  12
HETATM   12  C4  UNL     1     -10.984  11.958 -20.322  1.00  0.00     0.194 C 
BRANCH  12  13
HETATM   13  O1  UNL     1     -10.097  11.783 -19.294  1.00  0.00    -0.389 OA
BRANCH  13  14
HETATM   14  C3  UNL     1     -10.595  11.755 -18.029  1.00  0.00     0.167 C 
BRANCH  14  15
HETATM   15  C2  UNL     1      -9.660  12.125 -16.928  1.00  0.00     0.022 C 
HETATM   16  C1  UNL     1      -8.474  12.930 -17.404  1.00  0.00     0.007 C 
ENDBRANCH  14  15
ENDBRANCH  13  14
ENDBRANCH  12  13
ENDBRANCH  11  12
ENDBRANCH  10  11
ENDBRANCH   1  10
TORSDOF 6
ENDMDL
MODEL 3
REMARK VINA RESULT: -5.899700961      1.079      1.232
REMARK  6 active torsions:
REMARK  status: ('A' for Active; 'I' for Inactive)
REMARK    1  A    between atoms: C2_2  and  C3_3 
REMARK    2  A    between atoms: C3_3  and  O1_4 
REMARK    3  A    between atoms: O1_4  and  C4_5 
REMARK    4  A    between atoms: C4_5  and  C5_6 
REMARK    5  A    between atoms: C5_6  and  O2_7 
REMARK    6  A    between atoms: O2_7  and  C6_8 
ROOT
HETATM    1  C6  UNL     1     -12.672  10.002 -21.289  1.00  0.00     0.075 A 
HETATM    2  C7  UNL     1     -12.656   9.027 -22.259  1.00  0.00     0.044 A 
HETATM    3  C8  UNL     1     -13.658   8.868 -23.218  1.00  0.00    -0.059 A 
HETATM    4  C9  UNL     1     -13.590   7.795 -24.242  1.00  0.00     0.048 C 
HETATM    5  C10 UNL     1     -14.707   9.758 -23.157  1.00  0.00     0.014 A 
HETATM    6  C11 UNL     1     -14.730  10.739 -22.189  1.00  0.00    -0.053 A 
HETATM    7  C12 UNL     1     -15.884  11.673 -22.169  1.00  0.00     0.049 C 
HETATM    8  C13 UNL     1     -13.756  10.903 -21.247  1.00  0.00    -0.023 A 
HETATM    9  C14 UNL     1     -13.786  11.958 -20.209  1.00  0.00     0.052 C 
ENDROOT
BRANCH   1  10
HETATM   10  O2  UNL     1     -11.702  10.159 -20.360  1.00  0.00    -0.348 OA
BRANCH  10  11
HETATM   11  C5  UNL     1     -10.747  11.114 -20.099  1.00  0.00     0.201 C 
BRANCH  11  12
HETATM   12  C4  UNL     1     -10.650  11.395 -18.632  1.00  0.00     0.194 C 
BRANCH  12  13
HETATM   13  O1  UNL     1      -9.896  12.493 -18.316  1.00  0.00    -0.389 OA
BRANCH  13  14
HETATM   14  C3  UNL     1      -9.219  12.474 -17.136  1.00  0.00     0.167 C 
BRANCH  14  15
HETATM   15  C2  UNL     1      -7.866  13.099 -17.125  1.00  0.00     0.022 C 
HETATM   16  C1  UNL     1      -6.762  12.124 -17.463  1.00  0.00     0.007 C 
ENDBRANCH  14  15
ENDBRANCH  13  14
ENDBRANCH  12  13
ENDBRANCH  11  12
ENDBRANCH  10  11
ENDBRANCH   1  10
TORSDOF 6
ENDMDL
MODEL 4
REMARK VINA RESULT: -5.343933404      1.667      2.588
REMARK  6 active torsions:
REMARK  status: ('A' for Active; 'I' for Inactive)
REMARK    1  A    between atoms: C2_2  and  C3_3 
REMARK    2  A    between atoms: C3_3  and  O1_4 
REMARK    3  A    between atoms: O1_4  and  C4_5 
REMARK    4  A    between atoms: C4_5  and  C5_6 
REMARK    5  A    between atoms: C5_6  and  O2_7 
REMARK    6  A    between atoms: O2_7  and  C6_8 
ROOT
HETATM    1  C6  UNL     1     -12.346  11.565 -20.093  1.00  0.00     0.075 A 
HETATM    2  C7  UNL     1     -11.847  10.283 -20.106  1.00  0.00     0.044 A 
HETATM    3  C8  UNL     1     -12.425   9.230 -20.817  1.00  0.00    -0.059 A 
HETATM    4  C9  UNL     1     -11.844   7.864 -20.794  1.00  0.00     0.048 C 
HETATM    5  C10 UNL     1     -13.560   9.532 -21.536  1.00  0.00     0.014 A 
HETATM    6  C11 UNL     1     -14.066  10.814 -21.530  1.00  0.00    -0.053 A 
HETATM    7  C12 UNL     1     -15.292  11.084 -22.323  1.00  0.00     0.049 C 
HETATM    8  C13 UNL     1     -13.509  11.850 -20.838  1.00  0.00    -0.023 A 
HETATM    9  C14 UNL     1     -14.057  13.225 -20.835  1.00  0.00     0.052 C 
ENDROOT
BRANCH   1  10
HETATM   10  O2  UNL     1     -11.786  12.586 -19.406  1.00  0.00    -0.348 OA
BRANCH  10  11
HETATM   11  C5  UNL     1     -10.599  12.776 -18.736  1.00  0.00     0.201 C 
BRANCH  11  12
HETATM   12  C4  UNL     1     -10.581  12.022 -17.443  1.00  0.00     0.194 C 
BRANCH  12  13
HETATM   13  O1  UNL     1      -9.564  11.113 -17.333  1.00  0.00    -0.389 OA
BRANCH  13  14
HETATM   14  C3  UNL     1      -8.524  11.222 -18.203  1.00  0.00     0.167 C 
BRANCH  14  15
HETATM   15  C2  UNL     1      -7.158  11.317 -17.614  1.00  0.00     0.022 C 
HETATM   16  C1  UNL     1      -6.938  12.592 -16.834  1.00  0.00     0.007 C 
ENDBRANCH  14  15
ENDBRANCH  13  14
ENDBRANCH  12  13
ENDBRANCH  11  12
ENDBRANCH  10  11
ENDBRANCH   1  10
TORSDOF 6
ENDMDL
MODEL 5
REMARK VINA RESULT: -5.335125962      6.193     10.459
REMARK  6 active torsions:
REMARK  status: ('A' for Active; 'I' for Inactive)
REMARK    1  A    between atoms: C2_2  and  C3_3 
REMARK    2  A    between atoms: C3_3  and  O1_4 
REMARK    3  A    between atoms: O1_4  and  C4_5 
REMARK    4  A    between atoms: C4_5  and  C5_6 
REMARK    5  A    between atoms: C5_6  and  O2_7 
REMARK    6  A    between atoms: O2_7  and  C6_8 
ROOT
HETATM    1  C6  UNL     1      -6.348  16.857 -17.526  1.00  0.00     0.075 A 
HETATM    2  C7  UNL     1      -6.931  17.496 -16.456  1.00  0.00     0.044 A 
HETATM    3  C8  UNL     1      -6.885  18.877 -16.257  1.00  0.00    -0.059 A 
HETATM    4  C9  UNL     1      -7.533  19.515 -15.082  1.00  0.00     0.048 C 
HETATM    5  C10 UNL     1      -6.210  19.608 -17.208  1.00  0.00     0.014 A 
HETATM    6  C11 UNL     1      -5.623  18.976 -18.283  1.00  0.00    -0.053 A 
HETATM    7  C12 UNL     1      -4.907  19.812 -19.280  1.00  0.00     0.049 C 
HETATM    8  C13 UNL     1      -5.661  17.627 -18.488  1.00  0.00    -0.023 A 
HETATM    9  C14 UNL     1      -5.030  16.953 -19.644  1.00  0.00     0.052 C 
ENDROOT
BRANCH   1  10
HETATM   10  O2  UNL     1      -6.393  15.520 -17.722  1.00  0.00    -0.348 OA
BRANCH  10  11
HETATM   11  C5  UNL     1      -6.816  14.439 -16.983  1.00  0.00     0.201 C 
BRANCH  11  12
HETATM   12  C4  UNL     1      -5.919  13.259 -17.188  1.00  0.00     0.194 C 
BRANCH  12  13
HETATM   13  O1  UNL     1      -6.413  12.318 -18.051  1.00  0.00    -0.389 OA
BRANCH  13  14
HETATM   14  C3  UNL     1      -7.266  11.385 -17.546  1.00  0.00     0.167 C 
BRANCH  14  15
HETATM   15  C2  UNL     1      -8.623  11.311 -18.159  1.00  0.00     0.022 C 
HETATM   16  C1  UNL     1      -9.684  11.996 -17.330  1.00  0.00     0.007 C 
ENDBRANCH  14  15
ENDBRANCH  13  14
ENDBRANCH  12  13
ENDBRANCH  11  12
ENDBRANCH  10  11
ENDBRANCH   1  10
TORSDOF 6
ENDMDL
