MODEL 1
REMARK VINA RESULT: -6.722895127      0.000      0.000
REMARK  7 active torsions:
REMARK  status: ('A' for Active; 'I' for Inactive)
REMARK    1  A    between atoms: C2_2  and  C3_3 
REMARK    2  A    between atoms: C3_3  and  C4_4 
REMARK    3  A    between atoms: C4_4  and  O1_5 
REMARK    4  A    between atoms: C4_4  and  C5_7 
REMARK    5  A    between atoms: C5_7  and  O2_8 
REMARK    6  A    between atoms: O2_8  and  C6_9 
REMARK    7  A    between atoms: C6_9  and  C7_10 
ROOT
HETATM    1  C6  UNL     1     -13.373  10.186 -20.289  1.00  0.00     0.206 C 
ENDROOT
BRANCH   1   2
HETATM    2  O2  UNL     1     -13.376  11.486 -19.874  1.00  0.00    -0.384 OA
BRANCH   2   3
HETATM    3  C5  UNL     1     -12.260  11.857 -19.204  1.00  0.00     0.199 C 
BRANCH   3   4
HETATM    4  C4  UNL     1     -10.967  11.517 -19.926  1.00  0.00     0.142 C 
BRANCH   4   5
HETATM    5  C3  UNL     1      -9.832  11.440 -18.931  1.00  0.00     0.033 C 
BRANCH   5   6
HETATM    6  C2  UNL     1      -9.922  12.493 -17.896  1.00  0.00    -0.002 C 
HETATM    7  C1  UNL     1      -8.577  12.894 -17.408  1.00  0.00     0.005 C 
ENDBRANCH   5   6
ENDBRANCH   4   5
BRANCH   4   8
HETATM    8  O1  UNL     1     -10.745  12.494 -20.920  1.00  0.00    -0.393 OA
ATOM      9  H1  UNL     1     -10.920  12.167 -21.794  1.00  0.00     0.210 HD
ENDBRANCH   4   8
ENDBRANCH   3   4
ENDBRANCH   2   3
ENDBRANCH   1   2
BRANCH   1  10
HETATM   10  C7  UNL     1     -13.810  10.131 -21.711  1.00  0.00    -0.034 A 
HETATM   11  C8  UNL     1     -14.481  11.177 -22.286  1.00  0.00     0.016 A 
HETATM   12  C9  UNL     1     -14.876  11.098 -23.610  1.00  0.00    -0.061 A 
HETATM   13  C10 UNL     1     -15.603  12.254 -24.197  1.00  0.00     0.048 C 
HETATM   14  C11 UNL     1     -14.581   9.952 -24.337  1.00  0.00     0.013 A 
HETATM   15  C12 UNL     1     -13.906   8.893 -23.773  1.00  0.00    -0.061 A 
HETATM   16  C13 UNL     1     -13.572   7.650 -24.519  1.00  0.00     0.048 C 
HETATM   17  C14 UNL     1     -13.518   8.981 -22.454  1.00  0.00     0.016 A 
ENDBRANCH   1  10
TORSDOF 7
ENDMDL
MODEL 2
REMARK VINA RESULT: -6.720348638      0.988      1.164
REMARK  7 active torsions:
REMARK  status: ('A' for Active; 'I' for Inactive)
REMARK    1  A    between atoms: C2_2  and  C3_3 
REMARK    2  A    between atoms: C3_3  and  C4_4 
REMARK    3  A    between atoms: C4_4  and  O1_5 
REMARK    4  A    between atoms: C4_4  and  C5_7 
REMARK    5  A    between atoms: C5_7  and  O2_8 
REMARK    6  A    between atoms: O2_8  and  C6_9 
REMARK    7  A    between atoms: C6_9  and  C7_10 
ROOT
HETATM    1  C6  UNL     1     -13.227  10.386 -20.196  1.00  0.00     0.206 C 
ENDROOT
BRANCH   1   2
HETATM    2  O2  UNL     1     -12.306  11.390 -20.119  1.00  0.00    -0.384 OA
BRANCH   2   3
HETATM    3  C5  UNL     1     -11.037  10.965 -19.923  1.00  0.00     0.199 C 
BRANCH   3   4
HETATM    4  C4  UNL     1     -10.169  11.950 -19.156  1.00  0.00     0.142 C 
BRANCH   4   5
HETATM    5  C3  UNL     1      -9.684  11.313 -17.875  1.00  0.00     0.033 C 
BRANCH   5   6
HETATM    6  C2  UNL     1      -8.434  10.544 -18.070  1.00  0.00    -0.002 C 
HETATM    7  C1  UNL     1      -7.244  11.323 -17.640  1.00  0.00     0.005 C 
ENDBRANCH   5   6
ENDBRANCH   4   5
BRANCH   4   8
HETATM    8  O1  UNL     1     -10.927  13.117 -18.922  1.00  0.00    -0.393 OA
ATOM      9  H1  UNL     1     -11.862  12.961 -18.988  1.00  0.00     0.210 HD
ENDBRANCH   4   8
ENDBRANCH   3   4
ENDBRANCH   2   3
ENDBRANCH   1   2
BRANCH   1  10
HETATM   10  C7  UNL     1     -13.694  10.262 -21.604  1.00  0.00    -0.034 A 
HETATM   11  C8  UNL     1     -14.405  11.267 -22.204  1.00  0.00     0.016 A 
HETATM   12  C9  UNL     1     -14.826  11.125 -23.515  1.00  0.00    -0.061 A 
HETATM   13  C10 UNL     1     -15.596  12.238 -24.130  1.00  0.00     0.048 C 
HETATM   14  C11 UNL     1     -14.518   9.959 -24.202  1.00  0.00     0.013 A 
HETATM   15  C12 UNL     1     -13.803   8.941 -23.612  1.00  0.00    -0.061 A 
HETATM   16  C13 UNL     1     -13.454   7.677 -24.315  1.00  0.00     0.048 C 
HETATM   17  C14 UNL     1     -13.389   9.091 -22.307  1.00  0.00     0.016 A 
ENDBRANCH   1  10
TORSDOF 7
ENDMDL
MODEL 3
REMARK VINA RESULT: -6.710901142      0.989      2.446
REMARK  7 active torsions:
REMARK  status: ('A' for Active; 'I' for Inactive)
REMARK    1  A    between atoms: C2_2  and  C3_3 
REMARK    2  A    between atoms: C3_3  and  C4_4 
REMARK    3  A    between atoms: C4_4  and  O1_5 
REMARK    4  A    between atoms: C4_4  and  C5_7 
REMARK    5  A    between atoms: C5_7  and  O2_8 
REMARK    6  A    between atoms: O2_8  and  C6_9 
REMARK    7  A    between atoms: C6_9  and  C7_10 
ROOT
HETATM    1  C6  UNL     1     -13.225  10.440 -20.200  1.00  0.00     0.206 C 
ENDROOT
BRANCH   1   2
HETATM    2  O2  UNL     1     -12.284  11.427 -20.160  1.00  0.00    -0.384 OA
BRANCH   2   3
HETATM    3  C5  UNL     1     -11.025  10.985 -19.934  1.00  0.00     0.199 C 
BRANCH   3   4
HETATM    4  C4  UNL     1     -10.159  11.962 -19.156  1.00  0.00     0.142 C 
BRANCH   4   5
HETATM    5  C3  UNL     1      -9.679  11.313 -17.879  1.00  0.00     0.033 C 
BRANCH   5   6
HETATM    6  C2  UNL     1      -8.418  10.562 -18.072  1.00  0.00    -0.002 C 
HETATM    7  C1  UNL     1      -7.240  11.357 -17.637  1.00  0.00     0.005 C 
ENDBRANCH   5   6
ENDBRANCH   4   5
BRANCH   4   8
HETATM    8  O1  UNL     1     -10.917  13.128 -18.914  1.00  0.00    -0.393 OA
ATOM      9  H1  UNL     1     -11.659  13.205 -19.502  1.00  0.00     0.210 HD
ENDBRANCH   4   8
ENDBRANCH   3   4
ENDBRANCH   2   3
ENDBRANCH   1   2
BRANCH   1  10
HETATM   10  C7  UNL     1     -13.670  10.251 -21.607  1.00  0.00    -0.034 A 
HETATM   11  C8  UNL     1     -13.382   9.100 -22.292  1.00  0.00     0.016 A 
HETATM   12  C9  UNL     1     -13.808   8.951 -23.600  1.00  0.00    -0.061 A 
HETATM   13  C10 UNL     1     -13.474   7.688 -24.309  1.00  0.00     0.048 C 
HETATM   14  C11 UNL     1     -14.526   9.978 -24.199  1.00  0.00     0.013 A 
HETATM   15  C12 UNL     1     -14.824  11.140 -23.523  1.00  0.00    -0.061 A 
HETATM   16  C13 UNL     1     -15.590  12.261 -24.130  1.00  0.00     0.048 C 
HETATM   17  C14 UNL     1     -14.395  11.279 -22.222  1.00  0.00     0.016 A 
ENDBRANCH   1  10
TORSDOF 7
ENDMDL
MODEL 4
REMARK VINA RESULT: -6.333017576      1.517      6.636
REMARK  7 active torsions:
REMARK  status: ('A' for Active; 'I' for Inactive)
REMARK    1  A    between atoms: C2_2  and  C3_3 
REMARK    2  A    between atoms: C3_3  and  C4_4 
REMARK    3  A    between atoms: C4_4  and  O1_5 
REMARK    4  A    between atoms: C4_4  and  C5_7 
REMARK    5  A    between atoms: C5_7  and  O2_8 
REMARK    6  A    between atoms: O2_8  and  C6_9 
REMARK    7  A    between atoms: C6_9  and  C7_10 
ROOT
HETATM    1  C6  UNL     1     -11.625  11.869 -20.283  1.00  0.00     0.206 C 
ENDROOT
BRANCH   1   2
HETATM    2  O2  UNL     1     -12.860  11.544 -19.804  1.00  0.00    -0.384 OA
BRANCH   2   3
HETATM    3  C5  UNL     1     -13.338  10.362 -20.257  1.00  0.00     0.199 C 
BRANCH   3   4
HETATM    4  C4  UNL     1     -12.611   9.832 -21.482  1.00  0.00     0.142 C 
BRANCH   4   5
HETATM    5  C3  UNL     1     -13.609   9.522 -22.573  1.00  0.00     0.033 C 
BRANCH   5   6
HETATM    6  C2  UNL     1     -14.866  10.288 -22.417  1.00  0.00    -0.002 C 
HETATM    7  C1  UNL     1     -15.130  11.146 -23.600  1.00  0.00     0.005 C 
ENDBRANCH   5   6
ENDBRANCH   4   5
BRANCH   4   8
HETATM    8  O1  UNL     1     -11.865   8.698 -21.097  1.00  0.00    -0.393 OA
ATOM      9  H1  UNL     1     -11.205   8.903 -20.445  1.00  0.00     0.210 HD
ENDBRANCH   4   8
ENDBRANCH   3   4
ENDBRANCH   2   3
ENDBRANCH   1   2
BRANCH   1  10
HETATM   10  C7  UNL     1     -10.651  11.860 -19.158  1.00  0.00    -0.034 A 
HETATM   11  C8  UNL     1     -11.070  11.963 -17.858  1.00  0.00     0.016 A 
HETATM   12  C9  UNL     1     -10.142  11.951 -16.831  1.00  0.00    -0.061 A 
HETATM   13  C10 UNL     1     -10.638  12.067 -15.435  1.00  0.00     0.048 C 
HETATM   14  C11 UNL     1      -8.794  11.835 -17.139  1.00  0.00     0.013 A 
HETATM   15  C12 UNL     1      -8.357  11.729 -18.440  1.00  0.00    -0.061 A 
HETATM   16  C13 UNL     1      -6.922  11.602 -18.810  1.00  0.00     0.048 C 
HETATM   17  C14 UNL     1      -9.287  11.742 -19.455  1.00  0.00     0.016 A 
ENDBRANCH   1  10
TORSDOF 7
ENDMDL
MODEL 5
REMARK VINA RESULT: -6.325733852      1.505      6.762
REMARK  7 active torsions:
REMARK  status: ('A' for Active; 'I' for Inactive)
REMARK    1  A    between atoms: C2_2  and  C3_3 
REMARK    2  A    between atoms: C3_3  and  C4_4 
REMARK    3  A    between atoms: C4_4  and  O1_5 
REMARK    4  A    between atoms: C4_4  and  C5_7 
REMARK    5  A    between atoms: C5_7  and  O2_8 
REMARK    6  A    between atoms: O2_8  and  C6_9 
REMARK    7  A    between atoms: C6_9  and  C7_10 
ROOT
HETATM    1  C6  UNL     1     -11.647  11.914 -20.320  1.00  0.00     0.206 C 
ENDROOT
BRANCH   1   2
HETATM    2  O2  UNL     1     -12.862  11.570 -19.804  1.00  0.00    -0.384 OA
BRANCH   2   3
HETATM    3  C5  UNL     1     -13.340  10.386 -20.252  1.00  0.00     0.199 C 
BRANCH   3   4
HETATM    4  C4  UNL     1     -12.643   9.874 -21.502  1.00  0.00     0.142 C 
BRANCH   4   5
HETATM    5  C3  UNL     1     -13.671   9.549 -22.562  1.00  0.00     0.033 C 
BRANCH   5   6
HETATM    6  C2  UNL     1     -14.882  10.392 -22.445  1.00  0.00    -0.002 C 
HETATM    7  C1  UNL     1     -15.102  11.202 -23.671  1.00  0.00     0.005 C 
ENDBRANCH   5   6
ENDBRANCH   4   5
BRANCH   4   8
HETATM    8  O1  UNL     1     -11.865   8.753 -21.147  1.00  0.00    -0.393 OA
ATOM      9  H1  UNL     1     -11.045   8.998 -20.735  1.00  0.00     0.210 HD
ENDBRANCH   4   8
ENDBRANCH   3   4
ENDBRANCH   2   3
ENDBRANCH   1   2
BRANCH   1  10
HETATM   10  C7  UNL     1     -10.631  11.881 -19.232  1.00  0.00    -0.034 A 
HETATM   11  C8  UNL     1      -9.297  11.757 -19.514  1.00  0.00     0.016 A 
HETATM   12  C9  UNL     1      -8.374  11.728 -18.483  1.00  0.00    -0.061 A 
HETATM   13  C10 UNL     1      -6.936  11.591 -18.831  1.00  0.00     0.048 C 
HETATM   14  C11 UNL     1      -8.821  11.827 -17.172  1.00  0.00     0.013 A 
HETATM   15  C12 UNL     1     -10.159  11.954 -16.873  1.00  0.00    -0.061 A 
HETATM   16  C13 UNL     1     -10.676  12.063 -15.483  1.00  0.00     0.048 C 
HETATM   17  C14 UNL     1     -11.070  11.980 -17.906  1.00  0.00     0.016 A 
ENDBRANCH   1  10
TORSDOF 7
ENDMDL
