MODEL 1
REMARK VINA RESULT: -7.878918556      0.000      0.000
REMARK  9 active torsions:
REMARK  status: ('A' for Active; 'I' for Inactive)
REMARK    1  A    between atoms: C2_2  and  C3_3 
REMARK    2  A    between atoms: C3_3  and  C4_4 
REMARK    3  A    between atoms: C4_4  and  C5_5 
REMARK    4  A    between atoms: C5_5  and  C6_6 
REMARK    5  A    between atoms: C6_6  and  C7_7 
REMARK    6  A    between atoms: C7_7  and  C8_8 
REMARK    7  A    between atoms: C8_8  and  O1_9 
REMARK    8  A    between atoms: O1_9  and  C9_10 
REMARK    9  A    between atoms: C14_15  and  O2_16 
ROOT
HETATM    1  O1  UNL     1     -13.329  10.689 -20.115  1.00  0.00    -0.348 OA
ENDROOT
BRANCH   1   2
HETATM    2  C8  UNL     1     -12.718  11.807 -19.605  1.00  0.00     0.176 C 
BRANCH   2   3
HETATM    3  C7  UNL     1     -11.462  12.140 -20.368  1.00  0.00     0.027 C 
BRANCH   3   4
HETATM    4  C6  UNL     1     -10.307  11.722 -19.456  1.00  0.00     0.002 C 
BRANCH   4   5
HETATM    5  C5  UNL     1     -10.648  12.024 -18.002  1.00  0.00     0.000 C 
BRANCH   5   6
HETATM    6  C4  UNL     1      -9.313  12.358 -17.330  1.00  0.00     0.000 C 
BRANCH   6   7
HETATM    7  C3  UNL     1      -8.307  11.359 -17.848  1.00  0.00    -0.000 C 
BRANCH   7   8
HETATM    8  C2  UNL     1      -6.914  11.826 -17.426  1.00  0.00    -0.005 C 
HETATM    9  C1  UNL     1      -7.108  13.012 -16.505  1.00  0.00     0.005 C 
ENDBRANCH   7   8
ENDBRANCH   6   7
ENDBRANCH   5   6
ENDBRANCH   4   5
ENDBRANCH   3   4
ENDBRANCH   2   3
ENDBRANCH   1   2
BRANCH   1  10
HETATM   10  C9  UNL     1     -13.778  10.484 -21.391  1.00  0.00     0.101 A 
HETATM   11  C10 UNL     1     -14.780  11.178 -22.028  1.00  0.00     0.039 A 
HETATM   12  C11 UNL     1     -15.181  10.894 -23.341  1.00  0.00     0.003 A 
HETATM   13  C12 UNL     1     -14.582   9.895 -24.068  1.00  0.00     0.003 A 
HETATM   14  C13 UNL     1     -13.576   9.191 -23.447  1.00  0.00     0.039 A 
HETATM   15  C14 UNL     1     -13.179   9.462 -22.164  1.00  0.00     0.099 A 
BRANCH  15  16
HETATM   16  O2  UNL     1     -12.160   8.751 -21.532  1.00  0.00    -0.358 OA
ATOM     17  H2  UNL     1     -12.020   7.867 -21.851  1.00  0.00     0.217 HD
ENDBRANCH  15  16
ENDBRANCH   1  10
TORSDOF 9
ENDMDL
MODEL 2
REMARK VINA RESULT: -7.578305752      1.590      7.300
REMARK  9 active torsions:
REMARK  status: ('A' for Active; 'I' for Inactive)
REMARK    1  A    between atoms: C2_2  and  C3_3 
REMARK    2  A    between atoms: C3_3  and  C4_4 
REMARK    3  A    between atoms: C4_4  and  C5_5 
REMARK    4  A    between atoms: C5_5  and  C6_6 
REMARK    5  A    between atoms: C6_6  and  C7_7 
REMARK    6  A    between atoms: C7_7  and  C8_8 
REMARK    7  A    between atoms: C8_8  and  O1_9 
REMARK    8  A    between atoms: O1_9  and  C9_10 
REMARK    9  A    between atoms: C14_15  and  O2_16 
ROOT
HETATM    1  O1  UNL     1     -10.742  10.733 -19.067  1.00  0.00    -0.348 OA
ENDROOT
BRANCH   1   2
HETATM    2  C8  UNL     1     -11.138  10.848 -20.376  1.00  0.00     0.176 C 
BRANCH   2   3
HETATM    3  C7  UNL     1     -12.004   9.686 -20.790  1.00  0.00     0.027 C 
BRANCH   3   4
HETATM    4  C6  UNL     1     -13.424  10.063 -20.365  1.00  0.00     0.002 C 
BRANCH   4   5
HETATM    5  C5  UNL     1     -13.988  11.126 -21.298  1.00  0.00     0.000 C 
BRANCH   5   6
HETATM    6  C4  UNL     1     -15.126  10.439 -22.060  1.00  0.00     0.000 C 
BRANCH   6   7
HETATM    7  C3  UNL     1     -15.067  10.953 -23.478  1.00  0.00    -0.000 C 
BRANCH   7   8
HETATM    8  C2  UNL     1     -14.037  10.121 -24.243  1.00  0.00    -0.005 C 
HETATM    9  C1  UNL     1     -14.408   8.667 -24.038  1.00  0.00     0.005 C 
ENDBRANCH   7   8
ENDBRANCH   6   7
ENDBRANCH   5   6
ENDBRANCH   4   5
ENDBRANCH   3   4
ENDBRANCH   2   3
ENDBRANCH   1   2
BRANCH   1  10
HETATM   10  C9  UNL     1      -9.578  11.169 -18.498  1.00  0.00     0.101 A 
HETATM   11  C10 UNL     1      -8.433  10.431 -18.307  1.00  0.00     0.039 A 
HETATM   12  C11 UNL     1      -7.282  10.960 -17.707  1.00  0.00     0.003 A 
HETATM   13  C12 UNL     1      -7.239  12.264 -17.276  1.00  0.00     0.003 A 
HETATM   14  C13 UNL     1      -8.375  13.018 -17.461  1.00  0.00     0.039 A 
HETATM   15  C14 UNL     1      -9.504  12.507 -18.046  1.00  0.00     0.099 A 
BRANCH  15  16
HETATM   16  O2  UNL     1     -10.656  13.268 -18.235  1.00  0.00    -0.358 OA
ATOM     17  H2  UNL     1     -10.511  14.180 -18.463  1.00  0.00     0.217 HD
ENDBRANCH  15  16
ENDBRANCH   1  10
TORSDOF 9
ENDMDL
MODEL 3
REMARK VINA RESULT: -7.451818022      0.879      1.705
REMARK  9 active torsions:
REMARK  status: ('A' for Active; 'I' for Inactive)
REMARK    1  A    between atoms: C2_2  and  C3_3 
REMARK    2  A    between atoms: C3_3  and  C4_4 
REMARK    3  A    between atoms: C4_4  and  C5_5 
REMARK    4  A    between atoms: C5_5  and  C6_6 
REMARK    5  A    between atoms: C6_6  and  C7_7 
REMARK    6  A    between atoms: C7_7  and  C8_8 
REMARK    7  A    between atoms: C8_8  and  O1_9 
REMARK    8  A    between atoms: O1_9  and  C9_10 
REMARK    9  A    between atoms: C14_15  and  O2_16 
ROOT
HETATM    1  O1  UNL     1     -12.775  10.204 -20.487  1.00  0.00    -0.348 OA
ENDROOT
BRANCH   1   2
HETATM    2  C8  UNL     1     -11.434  10.338 -20.227  1.00  0.00     0.176 C 
BRANCH   2   3
HETATM    3  C7  UNL     1     -10.980  11.762 -20.419  1.00  0.00     0.027 C 
BRANCH   3   4
HETATM    4  C6  UNL     1     -11.305  12.475 -19.106  1.00  0.00     0.002 C 
BRANCH   4   5
HETATM    5  C5  UNL     1     -10.683  11.729 -17.933  1.00  0.00     0.000 C 
BRANCH   5   6
HETATM    6  C4  UNL     1      -9.320  12.388 -17.704  1.00  0.00     0.000 C 
BRANCH   6   7
HETATM    7  C3  UNL     1      -8.282  11.304 -17.875  1.00  0.00    -0.000 C 
BRANCH   7   8
HETATM    8  C2  UNL     1      -6.937  11.856 -17.403  1.00  0.00    -0.005 C 
HETATM    9  C1  UNL     1      -7.237  13.063 -16.539  1.00  0.00     0.005 C 
ENDBRANCH   7   8
ENDBRANCH   6   7
ENDBRANCH   5   6
ENDBRANCH   4   5
ENDBRANCH   3   4
ENDBRANCH   2   3
ENDBRANCH   1   2
BRANCH   1  10
HETATM   10  C9  UNL     1     -13.391  10.117 -21.705  1.00  0.00     0.101 A 
HETATM   11  C10 UNL     1     -13.247   9.104 -22.625  1.00  0.00     0.039 A 
HETATM   12  C11 UNL     1     -13.916   9.100 -23.857  1.00  0.00     0.003 A 
HETATM   13  C12 UNL     1     -14.762  10.123 -24.212  1.00  0.00     0.003 A 
HETATM   14  C13 UNL     1     -14.918  11.144 -23.303  1.00  0.00     0.039 A 
HETATM   15  C14 UNL     1     -14.267  11.155 -22.098  1.00  0.00     0.099 A 
BRANCH  15  16
HETATM   16  O2  UNL     1     -14.424  12.188 -21.175  1.00  0.00    -0.358 OA
ATOM     17  H2  UNL     1     -14.576  13.049 -21.547  1.00  0.00     0.217 HD
ENDBRANCH  15  16
ENDBRANCH   1  10
TORSDOF 9
ENDMDL
MODEL 4
REMARK VINA RESULT: -7.448796242      1.755      7.340
REMARK  9 active torsions:
REMARK  status: ('A' for Active; 'I' for Inactive)
REMARK    1  A    between atoms: C2_2  and  C3_3 
REMARK    2  A    between atoms: C3_3  and  C4_4 
REMARK    3  A    between atoms: C4_4  and  C5_5 
REMARK    4  A    between atoms: C5_5  and  C6_6 
REMARK    5  A    between atoms: C6_6  and  C7_7 
REMARK    6  A    between atoms: C7_7  and  C8_8 
REMARK    7  A    between atoms: C8_8  and  O1_9 
REMARK    8  A    between atoms: O1_9  and  C9_10 
REMARK    9  A    between atoms: C14_15  and  O2_16 
ROOT
HETATM    1  O1  UNL     1     -10.261  10.927 -19.027  1.00  0.00    -0.348 OA
ENDROOT
BRANCH   1   2
HETATM    2  C8  UNL     1     -11.022  11.466 -20.034  1.00  0.00     0.176 C 
BRANCH   2   3
HETATM    3  C7  UNL     1     -11.882  10.417 -20.691  1.00  0.00     0.027 C 
BRANCH   3   4
HETATM    4  C6  UNL     1     -13.317  10.745 -20.276  1.00  0.00     0.002 C 
BRANCH   4   5
HETATM    5  C5  UNL     1     -14.012  11.547 -21.369  1.00  0.00     0.000 C 
BRANCH   5   6
HETATM    6  C4  UNL     1     -14.967  10.564 -22.053  1.00  0.00     0.000 C 
BRANCH   6   7
HETATM    7  C3  UNL     1     -15.067  10.994 -23.496  1.00  0.00    -0.000 C 
BRANCH   7   8
HETATM    8  C2  UNL     1     -14.112  10.127 -24.317  1.00  0.00    -0.005 C 
HETATM    9  C1  UNL     1     -14.410   8.685 -23.960  1.00  0.00     0.005 C 
ENDBRANCH   7   8
ENDBRANCH   6   7
ENDBRANCH   5   6
ENDBRANCH   4   5
ENDBRANCH   3   4
ENDBRANCH   2   3
ENDBRANCH   1   2
BRANCH   1  10
HETATM   10  C9  UNL     1      -9.244  11.521 -18.331  1.00  0.00     0.101 A 
HETATM   11  C10 UNL     1      -9.258  12.778 -17.774  1.00  0.00     0.039 A 
HETATM   12  C11 UNL     1      -8.164  13.311 -17.080  1.00  0.00     0.003 A 
HETATM   13  C12 UNL     1      -7.004  12.591 -16.918  1.00  0.00     0.003 A 
HETATM   14  C13 UNL     1      -6.973  11.331 -17.468  1.00  0.00     0.039 A 
HETATM   15  C14 UNL     1      -8.039  10.804 -18.148  1.00  0.00     0.099 A 
BRANCH  15  16
HETATM   16  O2  UNL     1      -8.011   9.527 -18.706  1.00  0.00    -0.358 OA
ATOM     17  H2  UNL     1      -8.380   8.837 -18.167  1.00  0.00     0.217 HD
ENDBRANCH  15  16
ENDBRANCH   1  10
TORSDOF 9
ENDMDL
MODEL 5
REMARK VINA RESULT: -7.412972709      0.945      1.642
REMARK  9 active torsions:
REMARK  status: ('A' for Active; 'I' for Inactive)
REMARK    1  A    between atoms: C2_2  and  C3_3 
REMARK    2  A    between atoms: C3_3  and  C4_4 
REMARK    3  A    between atoms: C4_4  and  C5_5 
REMARK    4  A    between atoms: C5_5  and  C6_6 
REMARK    5  A    between atoms: C6_6  and  C7_7 
REMARK    6  A    between atoms: C7_7  and  C8_8 
REMARK    7  A    between atoms: C8_8  and  O1_9 
REMARK    8  A    between atoms: O1_9  and  C9_10 
REMARK    9  A    between atoms: C14_15  and  O2_16 
ROOT
HETATM    1  O1  UNL     1     -12.228  10.982 -19.639  1.00  0.00    -0.348 OA
ENDROOT
BRANCH   1   2
HETATM    2  C8  UNL     1     -11.445  12.067 -19.332  1.00  0.00     0.176 C 
BRANCH   2   3
HETATM    3  C7  UNL     1     -10.969  12.011 -17.903  1.00  0.00     0.027 C 
BRANCH   3   4
HETATM    4  C6  UNL     1      -9.508  12.460 -17.941  1.00  0.00     0.002 C 
BRANCH   4   5
HETATM    5  C5  UNL     1      -8.592  11.260 -18.143  1.00  0.00     0.000 C 
BRANCH   5   6
HETATM    6  C4  UNL     1      -7.254  11.655 -17.511  1.00  0.00     0.000 C 
BRANCH   6   7
HETATM    7  C3  UNL     1      -7.530  12.843 -16.622  1.00  0.00    -0.000 C 
BRANCH   7   8
HETATM    8  C2  UNL     1      -6.237  13.646 -16.486  1.00  0.00    -0.005 C 
HETATM    9  C1  UNL     1      -6.520  15.031 -17.030  1.00  0.00     0.005 C 
ENDBRANCH   7   8
ENDBRANCH   6   7
ENDBRANCH   5   6
ENDBRANCH   4   5
ENDBRANCH   3   4
ENDBRANCH   2   3
ENDBRANCH   1   2
BRANCH   1  10
HETATM   10  C9  UNL     1     -13.030  10.806 -20.732  1.00  0.00     0.101 A 
HETATM   11  C10 UNL     1     -14.051  11.633 -21.140  1.00  0.00     0.039 A 
HETATM   12  C11 UNL     1     -14.830  11.371 -22.276  1.00  0.00     0.003 A 
HETATM   13  C12 UNL     1     -14.607  10.258 -23.051  1.00  0.00     0.003 A 
HETATM   14  C13 UNL     1     -13.589   9.421 -22.659  1.00  0.00     0.039 A 
HETATM   15  C14 UNL     1     -12.824   9.671 -21.549  1.00  0.00     0.099 A 
BRANCH  15  16
HETATM   16  O2  UNL     1     -11.791   8.824 -21.149  1.00  0.00    -0.358 OA
ATOM     17  H2  UNL     1     -11.882   7.916 -21.413  1.00  0.00     0.217 HD
ENDBRANCH  15  16
ENDBRANCH   1  10
TORSDOF 9
ENDMDL
