MODEL 1
REMARK VINA RESULT: -7.117669944      0.000      0.000
REMARK  7 active torsions:
REMARK  status: ('A' for Active; 'I' for Inactive)
REMARK    1  A    between atoms: C2_2  and  C3_3 
REMARK    2  A    between atoms: C3_3  and  C4_4 
REMARK    3  A    between atoms: C4_4  and  C5_5 
REMARK    4  A    between atoms: C6_7  and  C7_8 
REMARK    5  A    between atoms: C6_7  and  O2_10 
REMARK    6  A    between atoms: O2_10  and  C9_11 
REMARK    7  A    between atoms: C9_11  and  C10_12 
ROOT
HETATM    1  O2  UNL     1       9.032 -18.411  -3.040  1.00  0.00    -0.350 OA
ENDROOT
BRANCH   1   2
HETATM    2  C6  UNL     1       9.941 -17.934  -3.917  1.00  0.00     0.055 C 
HETATM    3  C4  UNL     1      10.042 -16.645  -4.271  1.00  0.00     0.009 C 
BRANCH   3   4
HETATM    4  C3  UNL     1      11.039 -16.167  -5.269  1.00  0.00     0.044 C 
BRANCH   4   5
HETATM    5  C2  UNL     1      11.996 -15.137  -4.708  1.00  0.00     0.000 C 
HETATM    6  C1  UNL     1      13.056 -15.867  -3.890  1.00  0.00     0.005 C 
ENDBRANCH   4   5
ENDBRANCH   3   4
BRANCH   3   7
HETATM    7  C5  UNL     1       9.205 -15.652  -3.612  1.00  0.00     0.268 C 
HETATM    8  O1  UNL     1       9.469 -15.198  -2.454  1.00  0.00    -0.302 OA
ENDBRANCH   3   7
BRANCH   2   9
HETATM    9  C7  UNL     1      10.856 -18.967  -4.512  1.00  0.00     0.061 C 
HETATM   10  C8  UNL     1      10.197 -19.561  -5.756  1.00  0.00     0.012 C 
ENDBRANCH   2   9
ENDBRANCH   1   2
BRANCH   1  11
HETATM   11  C9  UNL     1       7.713 -18.695  -2.979  1.00  0.00     0.215 C 
BRANCH  11  12
HETATM   12  C10 UNL     1       7.196 -19.882  -3.692  1.00  0.00    -0.022 A 
HETATM   13  C11 UNL     1       7.289 -21.157  -3.227  1.00  0.00    -0.053 A 
HETATM   14  C12 UNL     1       7.702 -21.398  -1.838  1.00  0.00     0.049 C 
HETATM   15  C13 UNL     1       6.939 -22.276  -4.012  1.00  0.00     0.014 A 
HETATM   16  C14 UNL     1       6.482 -22.117  -5.293  1.00  0.00    -0.061 A 
HETATM   17  C15 UNL     1       6.130 -23.306  -6.124  1.00  0.00     0.048 C 
HETATM   18  C16 UNL     1       6.378 -20.824  -5.778  1.00  0.00     0.014 A 
HETATM   19  C17 UNL     1       6.726 -19.725  -5.000  1.00  0.00    -0.053 A 
HETATM   20  C18 UNL     1       6.574 -18.370  -5.601  1.00  0.00     0.049 C 
ENDBRANCH  11  12
ENDBRANCH   1  11
TORSDOF 7
ENDMDL
MODEL 2
REMARK VINA RESULT: -6.949535446      1.020      2.230
REMARK  7 active torsions:
REMARK  status: ('A' for Active; 'I' for Inactive)
REMARK    1  A    between atoms: C2_2  and  C3_3 
REMARK    2  A    between atoms: C3_3  and  C4_4 
REMARK    3  A    between atoms: C4_4  and  C5_5 
REMARK    4  A    between atoms: C6_7  and  C7_8 
REMARK    5  A    between atoms: C6_7  and  O2_10 
REMARK    6  A    between atoms: O2_10  and  C9_11 
REMARK    7  A    between atoms: C9_11  and  C10_12 
ROOT
HETATM    1  O2  UNL     1       8.331 -18.489  -2.116  1.00  0.00    -0.350 OA
ENDROOT
BRANCH   1   2
HETATM    2  C6  UNL     1       9.409 -17.878  -2.653  1.00  0.00     0.055 C 
HETATM    3  C4  UNL     1       9.521 -16.552  -2.812  1.00  0.00     0.009 C 
BRANCH   3   4
HETATM    4  C3  UNL     1      10.716 -15.921  -3.441  1.00  0.00     0.044 C 
BRANCH   4   5
HETATM    5  C2  UNL     1      10.378 -15.082  -4.654  1.00  0.00     0.000 C 
HETATM    6  C1  UNL     1      11.319 -13.881  -4.679  1.00  0.00     0.005 C 
ENDBRANCH   4   5
ENDBRANCH   3   4
BRANCH   3   7
HETATM    7  C5  UNL     1       8.481 -15.675  -2.291  1.00  0.00     0.268 C 
HETATM    8  O1  UNL     1       8.732 -14.717  -1.494  1.00  0.00    -0.302 OA
ENDBRANCH   3   7
BRANCH   2   9
HETATM    9  C7  UNL     1      10.510 -18.800  -3.097  1.00  0.00     0.061 C 
HETATM   10  C8  UNL     1      10.297 -19.161  -4.567  1.00  0.00     0.012 C 
ENDBRANCH   2   9
ENDBRANCH   1   2
BRANCH   1  11
HETATM   11  C9  UNL     1       7.119 -18.950  -2.490  1.00  0.00     0.215 C 
BRANCH  11  12
HETATM   12  C10 UNL     1       7.035 -20.026  -3.502  1.00  0.00    -0.022 A 
HETATM   13  C11 UNL     1       6.664 -19.835  -4.796  1.00  0.00    -0.053 A 
HETATM   14  C12 UNL     1       6.560 -18.470  -5.331  1.00  0.00     0.049 C 
HETATM   15  C13 UNL     1       6.431 -20.907  -5.683  1.00  0.00     0.014 A 
HETATM   16  C14 UNL     1       6.575 -22.203  -5.266  1.00  0.00    -0.061 A 
HETATM   17  C15 UNL     1       6.310 -23.333  -6.204  1.00  0.00     0.048 C 
HETATM   18  C16 UNL     1       6.957 -22.413  -3.951  1.00  0.00     0.014 A 
HETATM   19  C17 UNL     1       7.184 -21.352  -3.081  1.00  0.00    -0.053 A 
HETATM   20  C18 UNL     1       7.600 -21.671  -1.687  1.00  0.00     0.049 C 
ENDBRANCH  11  12
ENDBRANCH   1  11
TORSDOF 7
ENDMDL
MODEL 3
REMARK VINA RESULT: -6.810900671      2.930      4.225
REMARK  7 active torsions:
REMARK  status: ('A' for Active; 'I' for Inactive)
REMARK    1  A    between atoms: C2_2  and  C3_3 
REMARK    2  A    between atoms: C3_3  and  C4_4 
REMARK    3  A    between atoms: C4_4  and  C5_5 
REMARK    4  A    between atoms: C6_7  and  C7_8 
REMARK    5  A    between atoms: C6_7  and  O2_10 
REMARK    6  A    between atoms: O2_10  and  C9_11 
REMARK    7  A    between atoms: C9_11  and  C10_12 
ROOT
HETATM    1  O2  UNL     1       7.213 -19.896  -0.410  1.00  0.00    -0.350 OA
ENDROOT
BRANCH   1   2
HETATM    2  C6  UNL     1       7.963 -18.991  -1.075  1.00  0.00     0.055 C 
HETATM    3  C4  UNL     1       7.514 -17.797  -1.488  1.00  0.00     0.009 C 
BRANCH   3   4
HETATM    4  C3  UNL     1       8.368 -16.842  -2.248  1.00  0.00     0.044 C 
BRANCH   4   5
HETATM    5  C2  UNL     1       7.784 -16.459  -3.591  1.00  0.00     0.000 C 
HETATM    6  C1  UNL     1       7.773 -17.702  -4.476  1.00  0.00     0.005 C 
ENDBRANCH   4   5
ENDBRANCH   3   4
BRANCH   3   7
HETATM    7  C5  UNL     1       6.170 -17.371  -1.124  1.00  0.00     0.268 C 
HETATM    8  O1  UNL     1       5.144 -17.698  -1.799  1.00  0.00    -0.302 OA
ENDBRANCH   3   7
BRANCH   2   9
HETATM    9  C7  UNL     1       9.377 -19.417  -1.355  1.00  0.00     0.061 C 
HETATM   10  C8  UNL     1       9.877 -20.281  -0.198  1.00  0.00     0.012 C 
ENDBRANCH   2   9
ENDBRANCH   1   2
BRANCH   1  11
HETATM   11  C9  UNL     1       6.310 -20.867  -0.664  1.00  0.00     0.215 C 
BRANCH  11  12
HETATM   12  C10 UNL     1       6.784 -22.202  -1.089  1.00  0.00    -0.022 A 
HETATM   13  C11 UNL     1       7.033 -23.233  -0.239  1.00  0.00    -0.053 A 
HETATM   14  C12 UNL     1       6.595 -23.147   1.161  1.00  0.00     0.049 C 
HETATM   15  C13 UNL     1       7.646 -24.432  -0.662  1.00  0.00     0.014 A 
HETATM   16  C14 UNL     1       8.017 -24.604  -1.968  1.00  0.00    -0.061 A 
HETATM   17  C15 UNL     1       8.682 -25.867  -2.406  1.00  0.00     0.048 C 
HETATM   18  C16 UNL     1       7.767 -23.562  -2.846  1.00  0.00     0.014 A 
HETATM   19  C17 UNL     1       7.163 -22.383  -2.423  1.00  0.00    -0.053 A 
HETATM   20  C18 UNL     1       6.924 -21.319  -3.438  1.00  0.00     0.049 C 
ENDBRANCH  11  12
ENDBRANCH   1  11
TORSDOF 7
ENDMDL
MODEL 4
REMARK VINA RESULT: -6.784905661      3.037      6.876
REMARK  7 active torsions:
REMARK  status: ('A' for Active; 'I' for Inactive)
REMARK    1  A    between atoms: C2_2  and  C3_3 
REMARK    2  A    between atoms: C3_3  and  C4_4 
REMARK    3  A    between atoms: C4_4  and  C5_5 
REMARK    4  A    between atoms: C6_7  and  C7_8 
REMARK    5  A    between atoms: C6_7  and  O2_10 
REMARK    6  A    between atoms: O2_10  and  C9_11 
REMARK    7  A    between atoms: C9_11  and  C10_12 
ROOT
HETATM    1  O2  UNL     1       6.190 -21.136  -0.389  1.00  0.00    -0.350 OA
ENDROOT
BRANCH   1   2
HETATM    2  C6  UNL     1       6.411 -22.468  -0.424  1.00  0.00     0.055 C 
HETATM    3  C4  UNL     1       6.732 -23.149  -1.533  1.00  0.00     0.009 C 
BRANCH   3   4
HETATM    4  C3  UNL     1       6.934 -24.625  -1.532  1.00  0.00     0.044 C 
BRANCH   4   5
HETATM    5  C2  UNL     1       8.374 -25.030  -1.761  1.00  0.00     0.000 C 
HETATM    6  C1  UNL     1       8.460 -25.741  -3.108  1.00  0.00     0.005 C 
ENDBRANCH   4   5
ENDBRANCH   3   4
BRANCH   3   7
HETATM    7  C5  UNL     1       6.969 -22.428  -2.775  1.00  0.00     0.268 C 
HETATM    8  O1  UNL     1       6.502 -22.818  -3.891  1.00  0.00    -0.302 OA
ENDBRANCH   3   7
BRANCH   2   9
HETATM    9  C7  UNL     1       6.252 -23.175   0.892  1.00  0.00     0.061 C 
HETATM   10  C8  UNL     1       7.566 -23.090   1.668  1.00  0.00     0.012 C 
ENDBRANCH   2   9
ENDBRANCH   1   2
BRANCH   1  11
HETATM   11  C9  UNL     1       6.827 -19.998  -0.038  1.00  0.00     0.215 C 
BRANCH  11  12
HETATM   12  C10 UNL     1       7.813 -19.405  -0.967  1.00  0.00    -0.022 A 
HETATM   13  C11 UNL     1       9.152 -19.632  -0.913  1.00  0.00    -0.053 A 
HETATM   14  C12 UNL     1       9.675 -20.704  -0.054  1.00  0.00     0.049 C 
HETATM   15  C13 UNL     1      10.074 -18.917  -1.705  1.00  0.00     0.014 A 
HETATM   16  C14 UNL     1       9.647 -17.951  -2.576  1.00  0.00    -0.061 A 
HETATM   17  C15 UNL     1      10.628 -17.184  -3.398  1.00  0.00     0.048 C 
HETATM   18  C16 UNL     1       8.284 -17.711  -2.645  1.00  0.00     0.014 A 
HETATM   19  C17 UNL     1       7.380 -18.419  -1.860  1.00  0.00    -0.053 A 
HETATM   20  C18 UNL     1       5.932 -18.100  -2.006  1.00  0.00     0.049 C 
ENDBRANCH  11  12
ENDBRANCH   1  11
TORSDOF 7
ENDMDL
MODEL 5
REMARK VINA RESULT: -6.775664692      2.915      4.550
REMARK  7 active torsions:
REMARK  status: ('A' for Active; 'I' for Inactive)
REMARK    1  A    between atoms: C2_2  and  C3_3 
REMARK    2  A    between atoms: C3_3  and  C4_4 
REMARK    3  A    between atoms: C4_4  and  C5_5 
REMARK    4  A    between atoms: C6_7  and  C7_8 
REMARK    5  A    between atoms: C6_7  and  O2_10 
REMARK    6  A    between atoms: O2_10  and  C9_11 
REMARK    7  A    between atoms: C9_11  and  C10_12 
ROOT
HETATM    1  O2  UNL     1       7.177 -20.015  -0.421  1.00  0.00    -0.350 OA
ENDROOT
BRANCH   1   2
HETATM    2  C6  UNL     1       7.938 -19.099  -1.059  1.00  0.00     0.055 C 
HETATM    3  C4  UNL     1       7.487 -17.913  -1.491  1.00  0.00     0.009 C 
BRANCH   3   4
HETATM    4  C3  UNL     1       8.354 -16.947  -2.220  1.00  0.00     0.044 C 
BRANCH   4   5
HETATM    5  C2  UNL     1       7.788 -16.531  -3.561  1.00  0.00     0.000 C 
HETATM    6  C1  UNL     1       7.822 -17.743  -4.488  1.00  0.00     0.005 C 
ENDBRANCH   4   5
ENDBRANCH   3   4
BRANCH   3   7
HETATM    7  C5  UNL     1       6.124 -17.507  -1.178  1.00  0.00     0.268 C 
HETATM    8  O1  UNL     1       5.121 -17.915  -1.844  1.00  0.00    -0.302 OA
ENDBRANCH   3   7
BRANCH   2   9
HETATM    9  C7  UNL     1       9.368 -19.505  -1.285  1.00  0.00     0.061 C 
HETATM   10  C8  UNL     1       9.888 -20.220  -0.039  1.00  0.00     0.012 C 
ENDBRANCH   2   9
ENDBRANCH   1   2
BRANCH   1  11
HETATM   11  C9  UNL     1       6.444 -21.114  -0.698  1.00  0.00     0.215 C 
BRANCH  11  12
HETATM   12  C10 UNL     1       7.097 -22.275  -1.342  1.00  0.00    -0.022 A 
HETATM   13  C11 UNL     1       7.230 -22.431  -2.686  1.00  0.00    -0.053 A 
HETATM   14  C12 UNL     1       6.942 -21.304  -3.584  1.00  0.00     0.049 C 
HETATM   15  C13 UNL     1       7.703 -23.627  -3.266  1.00  0.00     0.014 A 
HETATM   16  C14 UNL     1       8.053 -24.694  -2.482  1.00  0.00    -0.061 A 
HETATM   17  C15 UNL     1       8.535 -25.963  -3.102  1.00  0.00     0.048 C 
HETATM   18  C16 UNL     1       7.925 -24.547  -1.111  1.00  0.00     0.014 A 
HETATM   19  C17 UNL     1       7.458 -23.366  -0.545  1.00  0.00    -0.053 A 
HETATM   20  C18 UNL     1       7.361 -23.294   0.940  1.00  0.00     0.049 C 
ENDBRANCH  11  12
ENDBRANCH   1  11
TORSDOF 7
ENDMDL
