MODEL 1
REMARK VINA RESULT: -6.897595400      0.000      0.000
REMARK  10 active torsions:
REMARK  status: ('A' for Active; 'I' for Inactive)
REMARK    1  A    between atoms: C2_2  and  C3_3 
REMARK    2  A    between atoms: C3_3  and  C4_4 
REMARK    3  A    between atoms: C4_4  and  C5_5 
REMARK    4  A    between atoms: C5_5  and  O1_6 
REMARK    5  A    between atoms: O1_6  and  C6_7 
REMARK    6  A    between atoms: C9_10  and  C10_11 
REMARK    7  A    between atoms: C10_11  and  O2_13 
REMARK    8  A    between atoms: C13_16  and  C14_17 
REMARK    9  A    between atoms: C14_17  and  C16_19 
REMARK   10  A    between atoms: C16_19  and  C17_20 
ROOT
HETATM    1  C6  UNL     1       7.183 -20.750  -2.976  1.00  0.00     0.075 A 
HETATM    2  C7  UNL     1       6.831 -19.614  -3.678  1.00  0.00     0.038 A 
HETATM    3  C8  UNL     1       6.623 -18.453  -2.949  1.00  0.00     0.012 A 
HETATM    4  C9  UNL     1       6.764 -18.445  -1.574  1.00  0.00    -0.029 A 
HETATM    5  C12 UNL     1       7.117 -19.622  -0.941  1.00  0.00     0.020 A 
HETATM    6  C13 UNL     1       7.336 -20.809  -1.620  1.00  0.00    -0.020 A 
ENDROOT
BRANCH   1   7
HETATM    7  O1  UNL     1       7.426 -21.914  -3.718  1.00  0.00    -0.351 OA
BRANCH   7   8
HETATM    8  C5  UNL     1       6.638 -22.180  -4.879  1.00  0.00     0.175 C 
BRANCH   8   9
HETATM    9  C4  UNL     1       6.674 -23.689  -5.123  1.00  0.00     0.027 C 
BRANCH   9  10
HETATM   10  C3  UNL     1       6.681 -24.372  -3.767  1.00  0.00     0.002 C 
BRANCH  10  11
HETATM   11  C2  UNL     1       7.756 -25.419  -3.621  1.00  0.00    -0.004 C 
HETATM   12  C1  UNL     1       8.584 -25.297  -2.387  1.00  0.00     0.005 C 
ENDBRANCH  10  11
ENDBRANCH   9  10
ENDBRANCH   8   9
ENDBRANCH   7   8
ENDBRANCH   1   7
BRANCH   6  13
HETATM   13  C14 UNL     1       7.514 -22.107  -0.949  1.00  0.00     0.017 C 
HETATM   14  C15 UNL     1       8.260 -21.796   0.396  1.00  0.00     0.015 C 
BRANCH  13  15
HETATM   15  C16 UNL     1       6.142 -22.624  -0.460  1.00  0.00     0.009 C 
BRANCH  15  16
HETATM   16  C17 UNL     1       5.973 -22.502   1.017  1.00  0.00    -0.004 C 
HETATM   17  C18 UNL     1       4.726 -21.706   1.319  1.00  0.00     0.005 C 
ENDBRANCH  15  16
ENDBRANCH  13  15
ENDBRANCH   6  13
BRANCH   4  18
HETATM   18  C10 UNL     1       6.508 -17.169  -0.913  1.00  0.00     0.147 C 
HETATM   19  C11 UNL     1       7.335 -16.073  -1.614  1.00  0.00     0.044 C 
BRANCH  18  20
HETATM   20  O2  UNL     1       5.174 -16.771  -1.024  1.00  0.00    -0.391 OA
ATOM     21  H2  UNL     1       5.086 -15.834  -1.157  1.00  0.00     0.210 HD
ENDBRANCH  18  20
ENDBRANCH   4  18
TORSDOF 10
ENDMDL
MODEL 2
REMARK VINA RESULT: -6.852937622      1.205      2.207
REMARK  10 active torsions:
REMARK  status: ('A' for Active; 'I' for Inactive)
REMARK    1  A    between atoms: C2_2  and  C3_3 
REMARK    2  A    between atoms: C3_3  and  C4_4 
REMARK    3  A    between atoms: C4_4  and  C5_5 
REMARK    4  A    between atoms: C5_5  and  O1_6 
REMARK    5  A    between atoms: O1_6  and  C6_7 
REMARK    6  A    between atoms: C9_10  and  C10_11 
REMARK    7  A    between atoms: C10_11  and  O2_13 
REMARK    8  A    between atoms: C13_16  and  C14_17 
REMARK    9  A    between atoms: C14_17  and  C16_19 
REMARK   10  A    between atoms: C16_19  and  C17_20 
ROOT
HETATM    1  C6  UNL     1       7.743 -21.611  -1.294  1.00  0.00     0.075 A 
HETATM    2  C7  UNL     1       7.226 -21.186  -2.502  1.00  0.00     0.038 A 
HETATM    3  C8  UNL     1       6.751 -19.884  -2.570  1.00  0.00     0.012 A 
HETATM    4  C9  UNL     1       6.798 -19.055  -1.465  1.00  0.00    -0.029 A 
HETATM    5  C12 UNL     1       7.327 -19.552  -0.289  1.00  0.00     0.020 A 
HETATM    6  C13 UNL     1       7.814 -20.843  -0.166  1.00  0.00    -0.020 A 
ENDROOT
BRANCH   1   7
HETATM    7  O1  UNL     1       8.252 -22.915  -1.237  1.00  0.00    -0.351 OA
BRANCH   7   8
HETATM    8  C5  UNL     1       7.361 -24.021  -1.383  1.00  0.00     0.175 C 
BRANCH   8   9
HETATM    9  C4  UNL     1       8.155 -25.174  -1.999  1.00  0.00     0.027 C 
BRANCH   9  10
HETATM   10  C3  UNL     1       8.105 -25.009  -3.508  1.00  0.00     0.002 C 
BRANCH  10  11
HETATM   11  C2  UNL     1       6.713 -24.822  -4.052  1.00  0.00    -0.004 C 
HETATM   12  C1  UNL     1       6.615 -23.893  -5.214  1.00  0.00     0.005 C 
ENDBRANCH  10  11
ENDBRANCH   9  10
ENDBRANCH   8   9
ENDBRANCH   7   8
ENDBRANCH   1   7
BRANCH   6  13
HETATM   13  C14 UNL     1       8.193 -21.449   1.121  1.00  0.00     0.017 C 
HETATM   14  C15 UNL     1       9.060 -20.372   1.862  1.00  0.00     0.015 C 
BRANCH  13  15
HETATM   15  C16 UNL     1       6.944 -21.554   2.025  1.00  0.00     0.009 C 
BRANCH  15  16
HETATM   16  C17 UNL     1       5.940 -22.530   1.511  1.00  0.00    -0.004 C 
HETATM   17  C18 UNL     1       4.651 -21.810   1.196  1.00  0.00     0.005 C 
ENDBRANCH  15  16
ENDBRANCH  13  15
ENDBRANCH   6  13
BRANCH   4  18
HETATM   18  C10 UNL     1       6.258 -17.711  -1.653  1.00  0.00     0.147 C 
HETATM   19  C11 UNL     1       5.350 -17.711  -2.899  1.00  0.00     0.044 C 
BRANCH  18  20
HETATM   20  O2  UNL     1       5.449 -17.309  -0.589  1.00  0.00    -0.391 OA
ATOM     21  H2  UNL     1       5.110 -16.430  -0.705  1.00  0.00     0.210 HD
ENDBRANCH  18  20
ENDBRANCH   4  18
TORSDOF 10
ENDMDL
MODEL 3
REMARK VINA RESULT: -6.834560824      1.933      5.239
REMARK  10 active torsions:
REMARK  status: ('A' for Active; 'I' for Inactive)
REMARK    1  A    between atoms: C2_2  and  C3_3 
REMARK    2  A    between atoms: C3_3  and  C4_4 
REMARK    3  A    between atoms: C4_4  and  C5_5 
REMARK    4  A    between atoms: C5_5  and  O1_6 
REMARK    5  A    between atoms: O1_6  and  C6_7 
REMARK    6  A    between atoms: C9_10  and  C10_11 
REMARK    7  A    between atoms: C10_11  and  O2_13 
REMARK    8  A    between atoms: C13_16  and  C14_17 
REMARK    9  A    between atoms: C14_17  and  C16_19 
REMARK   10  A    between atoms: C16_19  and  C17_20 
ROOT
HETATM    1  C6  UNL     1       7.547 -21.501  -2.829  1.00  0.00     0.075 A 
HETATM    2  C7  UNL     1       7.140 -20.604  -1.861  1.00  0.00     0.038 A 
HETATM    3  C8  UNL     1       6.660 -21.127  -0.669  1.00  0.00     0.012 A 
HETATM    4  C9  UNL     1       6.595 -22.494  -0.470  1.00  0.00    -0.029 A 
HETATM    5  C12 UNL     1       7.019 -23.329  -1.486  1.00  0.00     0.020 A 
HETATM    6  C13 UNL     1       7.506 -22.860  -2.695  1.00  0.00    -0.020 A 
ENDROOT
BRANCH   1   7
HETATM    7  O1  UNL     1       8.063 -20.971  -4.019  1.00  0.00    -0.351 OA
BRANCH   7   8
HETATM    8  C5  UNL     1       8.305 -19.567  -4.112  1.00  0.00     0.175 C 
BRANCH   8   9
HETATM    9  C4  UNL     1       7.599 -19.061  -5.370  1.00  0.00     0.027 C 
BRANCH   9  10
HETATM   10  C3  UNL     1       6.224 -18.567  -4.956  1.00  0.00     0.002 C 
BRANCH  10  11
HETATM   11  C2  UNL     1       6.258 -17.475  -3.919  1.00  0.00    -0.004 C 
HETATM   12  C1  UNL     1       5.212 -17.583  -2.862  1.00  0.00     0.005 C 
ENDBRANCH  10  11
ENDBRANCH   9  10
ENDBRANCH   8   9
ENDBRANCH   7   8
ENDBRANCH   1   7
BRANCH   6  13
HETATM   13  C14 UNL     1       7.771 -23.728  -3.854  1.00  0.00     0.017 C 
HETATM   14  C15 UNL     1       8.169 -25.126  -3.261  1.00  0.00     0.015 C 
BRANCH  13  15
HETATM   15  C16 UNL     1       6.441 -24.038  -4.578  1.00  0.00     0.009 C 
BRANCH  15  16
HETATM   16  C17 UNL     1       6.415 -23.530  -5.980  1.00  0.00    -0.004 C 
HETATM   17  C18 UNL     1       5.654 -22.228  -6.033  1.00  0.00     0.005 C 
ENDBRANCH  15  16
ENDBRANCH  13  15
ENDBRANCH   6  13
BRANCH   4  18
HETATM   18  C10 UNL     1       6.062 -22.926   0.819  1.00  0.00     0.147 C 
HETATM   19  C11 UNL     1       7.204 -22.924   1.854  1.00  0.00     0.044 C 
BRANCH  18  20
HETATM   20  O2  UNL     1       5.094 -22.050   1.315  1.00  0.00    -0.391 OA
ATOM     21  H2  UNL     1       4.672 -22.383   2.097  1.00  0.00     0.210 HD
ENDBRANCH  18  20
ENDBRANCH   4  18
TORSDOF 10
ENDMDL
MODEL 4
REMARK VINA RESULT: -6.788173937      1.998      4.950
REMARK  10 active torsions:
REMARK  status: ('A' for Active; 'I' for Inactive)
REMARK    1  A    between atoms: C2_2  and  C3_3 
REMARK    2  A    between atoms: C3_3  and  C4_4 
REMARK    3  A    between atoms: C4_4  and  C5_5 
REMARK    4  A    between atoms: C5_5  and  O1_6 
REMARK    5  A    between atoms: O1_6  and  C6_7 
REMARK    6  A    between atoms: C9_10  and  C10_11 
REMARK    7  A    between atoms: C10_11  and  O2_13 
REMARK    8  A    between atoms: C13_16  and  C14_17 
REMARK    9  A    between atoms: C14_17  and  C16_19 
REMARK   10  A    between atoms: C16_19  and  C17_20 
ROOT
HETATM    1  C6  UNL     1       7.255 -20.905  -3.346  1.00  0.00     0.075 A 
HETATM    2  C7  UNL     1       7.783 -19.629  -3.345  1.00  0.00     0.038 A 
HETATM    3  C8  UNL     1       8.020 -19.037  -4.576  1.00  0.00     0.012 A 
HETATM    4  C9  UNL     1       7.736 -19.707  -5.752  1.00  0.00    -0.029 A 
HETATM    5  C12 UNL     1       7.211 -20.983  -5.673  1.00  0.00     0.020 A 
HETATM    6  C13 UNL     1       6.956 -21.622  -4.470  1.00  0.00    -0.020 A 
ENDROOT
BRANCH   1   7
HETATM    7  O1  UNL     1       6.985 -21.489  -2.101  1.00  0.00    -0.351 OA
BRANCH   7   8
HETATM    8  C5  UNL     1       7.904 -21.299  -1.025  1.00  0.00     0.175 C 
BRANCH   8   9
HETATM    9  C4  UNL     1       8.125 -22.659  -0.363  1.00  0.00     0.027 C 
BRANCH   9  10
HETATM   10  C3  UNL     1       6.759 -23.276  -0.118  1.00  0.00     0.002 C 
BRANCH  10  11
HETATM   11  C2  UNL     1       6.194 -22.980   1.247  1.00  0.00    -0.004 C 
HETATM   12  C1  UNL     1       5.032 -22.045   1.254  1.00  0.00     0.005 C 
ENDBRANCH  10  11
ENDBRANCH   9  10
ENDBRANCH   8   9
ENDBRANCH   7   8
ENDBRANCH   1   7
BRANCH   6  13
HETATM   13  C14 UNL     1       6.589 -23.044  -4.369  1.00  0.00     0.017 C 
HETATM   14  C15 UNL     1       6.220 -23.496  -5.825  1.00  0.00     0.015 C 
BRANCH  13  15
HETATM   15  C16 UNL     1       7.853 -23.879  -4.068  1.00  0.00     0.009 C 
BRANCH  15  16
HETATM   16  C17 UNL     1       7.538 -25.198  -3.445  1.00  0.00    -0.004 C 
HETATM   17  C18 UNL     1       8.661 -25.601  -2.520  1.00  0.00     0.005 C 
ENDBRANCH  15  16
ENDBRANCH  13  15
ENDBRANCH   6  13
BRANCH   4  18
HETATM   18  C10 UNL     1       8.039 -18.988  -6.985  1.00  0.00     0.147 C 
HETATM   19  C11 UNL     1       9.560 -18.747  -7.059  1.00  0.00     0.044 C 
BRANCH  18  20
HETATM   20  O2  UNL     1       7.712 -19.725  -8.125  1.00  0.00    -0.391 OA
ATOM     21  H2  UNL     1       8.429 -19.765  -8.747  1.00  0.00     0.210 HD
ENDBRANCH  18  20
ENDBRANCH   4  18
TORSDOF 10
ENDMDL
MODEL 5
REMARK VINA RESULT: -6.755003204      1.695      5.582
REMARK  10 active torsions:
REMARK  status: ('A' for Active; 'I' for Inactive)
REMARK    1  A    between atoms: C2_2  and  C3_3 
REMARK    2  A    between atoms: C3_3  and  C4_4 
REMARK    3  A    between atoms: C4_4  and  C5_5 
REMARK    4  A    between atoms: C5_5  and  O1_6 
REMARK    5  A    between atoms: O1_6  and  C6_7 
REMARK    6  A    between atoms: C9_10  and  C10_11 
REMARK    7  A    between atoms: C10_11  and  O2_13 
REMARK    8  A    between atoms: C13_16  and  C14_17 
REMARK    9  A    between atoms: C14_17  and  C16_19 
REMARK   10  A    between atoms: C16_19  and  C17_20 
ROOT
HETATM    1  C6  UNL     1       6.863 -21.229  -1.382  1.00  0.00     0.075 A 
HETATM    2  C7  UNL     1       7.097 -21.407  -2.732  1.00  0.00     0.038 A 
HETATM    3  C8  UNL     1       7.320 -22.703  -3.174  1.00  0.00     0.012 A 
HETATM    4  C9  UNL     1       7.307 -23.766  -2.290  1.00  0.00    -0.029 A 
HETATM    5  C12 UNL     1       7.068 -23.508  -0.953  1.00  0.00     0.020 A 
HETATM    6  C13 UNL     1       6.840 -22.234  -0.458  1.00  0.00    -0.020 A 
ENDROOT
BRANCH   1   7
HETATM    7  O1  UNL     1       6.605 -19.924  -0.943  1.00  0.00    -0.351 OA
BRANCH   7   8
HETATM    8  C5  UNL     1       7.083 -18.819  -1.712  1.00  0.00     0.175 C 
BRANCH   8   9
HETATM    9  C4  UNL     1       5.953 -17.793  -1.794  1.00  0.00     0.027 C 
BRANCH   9  10
HETATM   10  C3  UNL     1       5.493 -17.731  -3.240  1.00  0.00     0.002 C 
BRANCH  10  11
HETATM   11  C2  UNL     1       6.592 -17.994  -4.237  1.00  0.00    -0.004 C 
HETATM   12  C1  UNL     1       6.213 -18.895  -5.363  1.00  0.00     0.005 C 
ENDBRANCH  10  11
ENDBRANCH   9  10
ENDBRANCH   8   9
ENDBRANCH   7   8
ENDBRANCH   1   7
BRANCH   6  13
HETATM   13  C14 UNL     1       6.784 -21.921   0.979  1.00  0.00     0.017 C 
HETATM   14  C15 UNL     1       6.143 -23.176   1.668  1.00  0.00     0.015 C 
BRANCH  13  15
HETATM   15  C16 UNL     1       8.216 -21.915   1.559  1.00  0.00     0.009 C 
BRANCH  15  16
HETATM   16  C17 UNL     1       8.824 -20.553   1.583  1.00  0.00    -0.004 C 
HETATM   17  C18 UNL     1       9.964 -20.490   0.595  1.00  0.00     0.005 C 
ENDBRANCH  15  16
ENDBRANCH  13  15
ENDBRANCH   6  13
BRANCH   4  18
HETATM   18  C10 UNL     1       7.566 -25.080  -2.869  1.00  0.00     0.147 C 
HETATM   19  C11 UNL     1       6.815 -25.188  -4.211  1.00  0.00     0.044 C 
BRANCH  18  20
HETATM   20  O2  UNL     1       8.916 -25.273  -3.169  1.00  0.00    -0.391 OA
ATOM     21  H2  UNL     1       9.311 -25.953  -2.637  1.00  0.00     0.210 HD
ENDBRANCH  18  20
ENDBRANCH   4  18
TORSDOF 10
ENDMDL
