MODEL 1
REMARK VINA RESULT: -6.854418153      0.000      0.000
REMARK  15 active torsions:
REMARK  status: ('A' for Active; 'I' for Inactive)
REMARK    1  A    between atoms: C2_2  and  C3_3 
REMARK    2  A    between atoms: C3_3  and  C4_4 
REMARK    3  A    between atoms: C4_4  and  C5_5 
REMARK    4  A    between atoms: C5_5  and  O1_6 
REMARK    5  A    between atoms: O1_6  and  C6_7 
REMARK    6  A    between atoms: C6_7  and  C7_8 
REMARK    7  A    between atoms: C7_8  and  C8_9 
REMARK    8  A    between atoms: C9_10  and  N1_11 
REMARK    9  A    between atoms: N1_11  and  C10_13 
REMARK   10  A    between atoms: C10_13  and  O2_14 
REMARK       I    between atoms: N5_26  and  C16_27 
REMARK   11  A    between atoms: C16_27  and  C17_29 
REMARK   12  A    between atoms: C17_29  and  N6_30 
REMARK       I    between atoms: N6_30  and  C19_32 
REMARK       I    between atoms: C19_32  and  N8_36 
REMARK   13  A    between atoms: N8_36  and  P1_38 
REMARK   14  A    between atoms: P1_38  and  O4_39 
REMARK   15  A    between atoms: P1_38  and  O5_41 
ROOT
HETATM    1  C8  UNL     1      -8.165  -9.854 -11.873  1.00  0.00     0.146 C 
HETATM    2  C9  UNL     1      -6.761 -10.086 -12.106  1.00  0.00     0.061 C 
HETATM    3  C11 UNL     1      -5.890 -10.089 -11.039  1.00  0.00     0.102 A 
HETATM    4  C12 UNL     1      -6.437  -9.810  -9.705  1.00  0.00     0.079 A 
HETATM    5  N2  UNL     1      -5.770  -9.939  -8.631  1.00  0.00    -0.348 N 
ATOM      6  H2  UNL     1      -6.194  -9.738  -7.725  1.00  0.00     0.167 HD
HETATM    7  C13 UNL     1      -4.446 -10.362  -8.719  1.00  0.00     0.198 A 
HETATM    8  N3  UNL     1      -3.860 -10.623  -9.805  1.00  0.00    -0.294 N 
ATOM      9  H3  UNL     1      -2.886 -10.924  -9.789  1.00  0.00     0.188 HD
HETATM   10  N4  UNL     1      -4.570 -10.498 -11.116  1.00  0.00    -0.292 N 
HETATM   11  C14 UNL     1      -3.777 -10.704 -12.243  1.00  0.00     0.178 C 
HETATM   12  C15 UNL     1      -7.727  -9.092  -9.526  1.00  0.00     0.127 C 
HETATM   13  N5  UNL     1      -8.532  -9.114 -10.630  1.00  0.00    -0.314 N 
HETATM   14  C16 UNL     1      -9.827  -8.515 -10.594  1.00  0.00     0.242 C 
HETATM   15  O3  UNL     1     -10.561  -8.385 -11.634  1.00  0.00    -0.271 OA
ENDROOT
BRANCH   1  16
HETATM   16  C7  UNL     1      -8.788 -11.231 -11.312  1.00  0.00     0.058 C 
BRANCH  16  17
HETATM   17  C6  UNL     1      -8.956 -12.269 -12.369  1.00  0.00     0.170 C 
BRANCH  17  18
HETATM   18  O1  UNL     1      -9.739 -11.729 -13.285  1.00  0.00    -0.391 OA
BRANCH  18  19
HETATM   19  C5  UNL     1     -10.959 -11.412 -13.429  1.00  0.00     0.167 C 
BRANCH  19  20
HETATM   20  C4  UNL     1     -11.448 -10.597 -14.554  1.00  0.00     0.026 C 
BRANCH  20  21
HETATM   21  C3  UNL     1     -10.733  -9.287 -14.743  1.00  0.00     0.002 C 
BRANCH  21  22
HETATM   22  C2  UNL     1     -11.841  -8.365 -15.273  1.00  0.00    -0.004 C 
HETATM   23  C1  UNL     1     -12.556  -8.979 -16.414  1.00  0.00     0.005 C 
ENDBRANCH  21  22
ENDBRANCH  20  21
ENDBRANCH  19  20
ENDBRANCH  18  19
ENDBRANCH  17  18
ENDBRANCH  16  17
ENDBRANCH   1  16
BRANCH  14  24
HETATM   24  C17 UNL     1     -10.400  -8.041  -9.340  1.00  0.00     0.228 C 
BRANCH  24  25
HETATM   25  N6  UNL     1     -11.438  -7.026  -9.455  1.00  0.00    -0.349 N 
HETATM   26  C18 UNL     1     -12.838  -7.306  -9.308  1.00  0.00     0.153 C 
HETATM   27  C19 UNL     1     -11.021  -5.708  -9.746  1.00  0.00     0.177 C 
HETATM   28  N7  UNL     1     -11.663  -4.860 -10.520  1.00  0.00    -0.371 N 
HETATM   29  N8  UNL     1      -9.748  -5.169  -9.200  1.00  0.00    -0.292 N 
ATOM     30  H72 UNL     1     -12.537  -5.229 -10.895  1.00  0.00     0.159 HD
ATOM     31  H71 UNL     1     -11.361  -3.908 -10.730  1.00  0.00     0.159 HD
ATOM     32  H8  UNL     1      -9.625  -4.852  -8.239  1.00  0.00     0.171 HD
BRANCH  29  33
HETATM   33  P1  UNL     1      -8.456  -5.146 -10.441  1.00  0.00     0.286 P 
BRANCH  33  34
HETATM   34  O4  UNL     1      -9.077  -4.356 -11.846  1.00  0.00    -0.333 OA
ATOM     35  H4  UNL     1      -8.913  -4.916 -12.596  1.00  0.00     0.219 HD
ENDBRANCH  33  34
BRANCH  33  36
HETATM   36  O5  UNL     1      -7.034  -4.375  -9.881  1.00  0.00    -0.333 OA
ATOM     37  H5  UNL     1      -7.069  -3.432  -9.991  1.00  0.00     0.219 HD
ENDBRANCH  33  36
ENDBRANCH  29  33
ENDBRANCH  24  25
ENDBRANCH  14  24
BRANCH   2  38
HETATM   38  N1  UNL     1      -6.128 -10.332 -13.346  1.00  0.00    -0.368 N 
ATOM     39  H1  UNL     1      -5.254 -10.857 -13.315  1.00  0.00     0.161 HD
BRANCH  38  40
HETATM   40  C10 UNL     1      -6.591  -9.915 -14.663  1.00  0.00     0.287 C 
BRANCH  40  41
HETATM   41  O2  UNL     1      -7.283 -11.042 -15.143  1.00  0.00    -0.382 OA
ATOM     42  H2  UNL     1      -7.499 -10.808 -16.038  1.00  0.00     0.211 HD
ENDBRANCH  40  41
ENDBRANCH  38  40
ENDBRANCH   2  38
TORSDOF 15
ENDMDL
MODEL 2
REMARK VINA RESULT: -6.771014236      2.822      6.066
REMARK  15 active torsions:
REMARK  status: ('A' for Active; 'I' for Inactive)
REMARK    1  A    between atoms: C2_2  and  C3_3 
REMARK    2  A    between atoms: C3_3  and  C4_4 
REMARK    3  A    between atoms: C4_4  and  C5_5 
REMARK    4  A    between atoms: C5_5  and  O1_6 
REMARK    5  A    between atoms: O1_6  and  C6_7 
REMARK    6  A    between atoms: C6_7  and  C7_8 
REMARK    7  A    between atoms: C7_8  and  C8_9 
REMARK    8  A    between atoms: C9_10  and  N1_11 
REMARK    9  A    between atoms: N1_11  and  C10_13 
REMARK   10  A    between atoms: C10_13  and  O2_14 
REMARK       I    between atoms: N5_26  and  C16_27 
REMARK   11  A    between atoms: C16_27  and  C17_29 
REMARK   12  A    between atoms: C17_29  and  N6_30 
REMARK       I    between atoms: N6_30  and  C19_32 
REMARK       I    between atoms: C19_32  and  N8_36 
REMARK   13  A    between atoms: N8_36  and  P1_38 
REMARK   14  A    between atoms: P1_38  and  O4_39 
REMARK   15  A    between atoms: P1_38  and  O5_41 
ROOT
HETATM    1  C8  UNL     1      -8.640  -9.204 -11.394  1.00  0.00     0.146 C 
HETATM    2  C9  UNL     1      -9.386 -10.030 -12.310  1.00  0.00     0.061 C 
HETATM    3  C11 UNL     1     -10.430  -9.479 -13.022  1.00  0.00     0.102 A 
HETATM    4  C12 UNL     1     -10.759  -8.070 -12.776  1.00  0.00     0.079 A 
HETATM    5  N2  UNL     1     -11.588  -7.409 -13.477  1.00  0.00    -0.348 N 
ATOM      6  H2  UNL     1     -11.782  -6.428 -13.272  1.00  0.00     0.167 HD
HETATM    7  C13 UNL     1     -12.227  -8.055 -14.533  1.00  0.00     0.198 A 
HETATM    8  N3  UNL     1     -12.037  -9.264 -14.838  1.00  0.00    -0.294 N 
ATOM      9  H3  UNL     1     -12.546  -9.669 -15.623  1.00  0.00     0.188 HD
HETATM   10  N4  UNL     1     -11.078 -10.115 -14.066  1.00  0.00    -0.292 N 
HETATM   11  C14 UNL     1     -11.048 -11.459 -14.432  1.00  0.00     0.178 C 
HETATM   12  C15 UNL     1     -10.355  -7.381 -11.521  1.00  0.00     0.127 C 
HETATM   13  N5  UNL     1      -9.328  -7.993 -10.859  1.00  0.00    -0.314 N 
HETATM   14  C16 UNL     1      -8.792  -7.420  -9.666  1.00  0.00     0.242 C 
HETATM   15  O3  UNL     1      -7.931  -8.019  -8.934  1.00  0.00    -0.271 OA
ENDROOT
BRANCH   1  16
HETATM   16  C7  UNL     1      -7.625  -8.314 -12.277  1.00  0.00     0.058 C 
BRANCH  16  17
HETATM   17  C6  UNL     1      -6.400  -9.059 -12.688  1.00  0.00     0.170 C 
BRANCH  17  18
HETATM   18  O1  UNL     1      -5.666  -9.177 -11.598  1.00  0.00    -0.391 OA
BRANCH  18  19
HETATM   19  C5  UNL     1      -5.163 -10.096 -10.883  1.00  0.00     0.167 C 
BRANCH  19  20
HETATM   20  C4  UNL     1      -5.321 -10.151  -9.419  1.00  0.00     0.026 C 
BRANCH  20  21
HETATM   21  C3  UNL     1      -4.030 -10.191  -8.647  1.00  0.00     0.002 C 
BRANCH  21  22
HETATM   22  C2  UNL     1      -3.057 -10.843  -9.640  1.00  0.00    -0.004 C 
HETATM   23  C1  UNL     1      -2.168 -11.816  -8.967  1.00  0.00     0.005 C 
ENDBRANCH  21  22
ENDBRANCH  20  21
ENDBRANCH  19  20
ENDBRANCH  18  19
ENDBRANCH  17  18
ENDBRANCH  16  17
ENDBRANCH   1  16
BRANCH  14  24
HETATM   24  C17 UNL     1      -9.186  -6.085  -9.233  1.00  0.00     0.228 C 
BRANCH  24  25
HETATM   25  N6  UNL     1      -8.266  -5.007  -9.573  1.00  0.00    -0.349 N 
HETATM   26  C18 UNL     1      -7.713  -4.823 -10.884  1.00  0.00     0.153 C 
HETATM   27  C19 UNL     1      -7.902  -4.120  -8.535  1.00  0.00     0.177 C 
HETATM   28  N7  UNL     1      -6.711  -3.586  -8.374  1.00  0.00    -0.371 N 
HETATM   29  N8  UNL     1      -8.874  -3.736  -7.478  1.00  0.00    -0.292 N 
ATOM     30  H72 UNL     1      -6.043  -3.849  -9.099  1.00  0.00     0.159 HD
ATOM     31  H71 UNL     1      -6.448  -2.945  -7.625  1.00  0.00     0.159 HD
ATOM     32  H8  UNL     1      -9.626  -3.060  -7.610  1.00  0.00     0.171 HD
BRANCH  29  33
HETATM   33  P1  UNL     1      -8.562  -4.609  -5.946  1.00  0.00     0.286 P 
BRANCH  33  34
HETATM   34  O4  UNL     1      -8.300  -6.275  -6.322  1.00  0.00    -0.333 OA
ATOM     35  H4  UNL     1      -7.507  -6.556  -5.880  1.00  0.00     0.219 HD
ENDBRANCH  33  34
BRANCH  33  36
HETATM   36  O5  UNL     1      -7.231  -3.957  -5.089  1.00  0.00    -0.333 OA
ATOM     37  H5  UNL     1      -6.955  -4.517  -4.373  1.00  0.00     0.219 HD
ENDBRANCH  33  36
ENDBRANCH  29  33
ENDBRANCH  24  25
ENDBRANCH  14  24
BRANCH   2  38
HETATM   38  N1  UNL     1      -9.175 -11.399 -12.596  1.00  0.00    -0.368 N 
ATOM     39  H1  UNL     1      -9.843 -11.840 -13.228  1.00  0.00     0.161 HD
BRANCH  38  40
HETATM   40  C10 UNL     1      -8.105 -12.244 -12.086  1.00  0.00     0.287 C 
BRANCH  40  41
HETATM   41  O2  UNL     1      -8.329 -13.481 -12.717  1.00  0.00    -0.382 OA
ATOM     42  H2  UNL     1      -9.004 -13.885 -12.185  1.00  0.00     0.211 HD
ENDBRANCH  40  41
ENDBRANCH  38  40
ENDBRANCH   2  38
TORSDOF 15
ENDMDL
MODEL 3
REMARK VINA RESULT: -6.754608055      3.167      5.395
REMARK  15 active torsions:
REMARK  status: ('A' for Active; 'I' for Inactive)
REMARK    1  A    between atoms: C2_2  and  C3_3 
REMARK    2  A    between atoms: C3_3  and  C4_4 
REMARK    3  A    between atoms: C4_4  and  C5_5 
REMARK    4  A    between atoms: C5_5  and  O1_6 
REMARK    5  A    between atoms: O1_6  and  C6_7 
REMARK    6  A    between atoms: C6_7  and  C7_8 
REMARK    7  A    between atoms: C7_8  and  C8_9 
REMARK    8  A    between atoms: C9_10  and  N1_11 
REMARK    9  A    between atoms: N1_11  and  C10_13 
REMARK   10  A    between atoms: C10_13  and  O2_14 
REMARK       I    between atoms: N5_26  and  C16_27 
REMARK   11  A    between atoms: C16_27  and  C17_29 
REMARK   12  A    between atoms: C17_29  and  N6_30 
REMARK       I    between atoms: N6_30  and  C19_32 
REMARK       I    between atoms: C19_32  and  N8_36 
REMARK   13  A    between atoms: N8_36  and  P1_38 
REMARK   14  A    between atoms: P1_38  and  O4_39 
REMARK   15  A    between atoms: P1_38  and  O5_41 
ROOT
HETATM    1  C8  UNL     1      -9.365  -9.214  -9.849  1.00  0.00     0.146 C 
HETATM    2  C9  UNL     1      -9.254 -10.463 -10.561  1.00  0.00     0.061 C 
HETATM    3  C11 UNL     1      -8.732 -10.471 -11.836  1.00  0.00     0.102 A 
HETATM    4  C12 UNL     1      -8.350  -9.183 -12.429  1.00  0.00     0.079 A 
HETATM    5  N2  UNL     1      -7.717  -9.074 -13.526  1.00  0.00    -0.348 N 
ATOM      6  H2  UNL     1      -7.469  -8.157 -13.897  1.00  0.00     0.167 HD
HETATM    7  C13 UNL     1      -7.371 -10.237 -14.209  1.00  0.00     0.198 A 
HETATM    8  N3  UNL     1      -7.651 -11.400 -13.809  1.00  0.00    -0.294 N 
ATOM      9  H3  UNL     1      -7.366 -12.204 -14.368  1.00  0.00     0.188 HD
HETATM   10  N4  UNL     1      -8.393 -11.619 -12.529  1.00  0.00    -0.292 N 
HETATM   11  C14 UNL     1      -8.738 -12.942 -12.262  1.00  0.00     0.178 C 
HETATM   12  C15 UNL     1      -8.912  -7.899 -11.933  1.00  0.00     0.127 C 
HETATM   13  N5  UNL     1      -9.428  -7.970 -10.670  1.00  0.00    -0.314 N 
HETATM   14  C16 UNL     1      -9.955  -6.805 -10.035  1.00  0.00     0.242 C 
HETATM   15  O3  UNL     1     -10.573  -6.842  -8.916  1.00  0.00    -0.271 OA
ENDROOT
BRANCH   1  16
HETATM   16  C7  UNL     1      -7.894  -8.850  -9.297  1.00  0.00     0.058 C 
BRANCH  16  17
HETATM   17  C6  UNL     1      -7.499  -9.658  -8.107  1.00  0.00     0.170 C 
BRANCH  17  18
HETATM   18  O1  UNL     1      -6.229  -9.969  -8.286  1.00  0.00    -0.391 OA
BRANCH  18  19
HETATM   19  C5  UNL     1      -5.405 -10.094  -9.243  1.00  0.00     0.167 C 
BRANCH  19  20
HETATM   20  C4  UNL     1      -3.962 -10.311  -9.035  1.00  0.00     0.026 C 
BRANCH  20  21
HETATM   21  C3  UNL     1      -3.243 -10.928 -10.203  1.00  0.00     0.002 C 
BRANCH  21  22
HETATM   22  C2  UNL     1      -4.216 -10.693 -11.368  1.00  0.00    -0.004 C 
HETATM   23  C1  UNL     1      -3.966 -11.634 -12.481  1.00  0.00     0.005 C 
ENDBRANCH  21  22
ENDBRANCH  20  21
ENDBRANCH  19  20
ENDBRANCH  18  19
ENDBRANCH  17  18
ENDBRANCH  16  17
ENDBRANCH   1  16
BRANCH  14  24
HETATM   24  C17 UNL     1      -9.782  -5.484 -10.630  1.00  0.00     0.228 C 
BRANCH  24  25
HETATM   25  N6  UNL     1      -8.407  -5.020 -10.766  1.00  0.00    -0.349 N 
HETATM   26  C18 UNL     1      -7.648  -5.142 -11.977  1.00  0.00     0.153 C 
HETATM   27  C19 UNL     1      -7.808  -4.441  -9.625  1.00  0.00     0.177 C 
HETATM   28  N7  UNL     1      -6.549  -4.583  -9.272  1.00  0.00    -0.371 N 
HETATM   29  N8  UNL     1      -8.603  -3.617  -8.676  1.00  0.00    -0.292 N 
ATOM     30  H72 UNL     1      -6.003  -5.148  -9.923  1.00  0.00     0.159 HD
ATOM     31  H71 UNL     1      -6.116  -4.164  -8.448  1.00  0.00     0.159 HD
ATOM     32  H8  UNL     1      -8.885  -2.653  -8.852  1.00  0.00     0.171 HD
BRANCH  29  33
HETATM   33  P1  UNL     1      -9.002  -4.529  -7.187  1.00  0.00     0.286 P 
BRANCH  33  34
HETATM   34  O4  UNL     1     -10.721  -4.668  -7.089  1.00  0.00    -0.333 OA
ATOM     35  H4  UNL     1     -10.925  -5.436  -6.567  1.00  0.00     0.219 HD
ENDBRANCH  33  34
BRANCH  33  36
HETATM   36  O5  UNL     1      -8.257  -6.070  -7.152  1.00  0.00    -0.333 OA
ATOM     37  H5  UNL     1      -8.766  -6.725  -7.615  1.00  0.00     0.219 HD
ENDBRANCH  33  36
ENDBRANCH  29  33
ENDBRANCH  24  25
ENDBRANCH  14  24
BRANCH   2  38
HETATM   38  N1  UNL     1      -9.619 -11.748 -10.099  1.00  0.00    -0.368 N 
ATOM     39  H1  UNL     1      -9.139 -12.540 -10.526  1.00  0.00     0.161 HD
BRANCH  38  40
HETATM   40  C10 UNL     1     -10.609 -12.062  -9.077  1.00  0.00     0.287 C 
BRANCH  40  41
HETATM   41  O2  UNL     1     -10.387 -13.425  -8.808  1.00  0.00    -0.382 OA
ATOM     42  H2  UNL     1     -11.254 -13.756  -8.599  1.00  0.00     0.211 HD
ENDBRANCH  40  41
ENDBRANCH  38  40
ENDBRANCH   2  38
TORSDOF 15
ENDMDL
MODEL 4
REMARK VINA RESULT: -6.713601072      2.956      6.009
REMARK  15 active torsions:
REMARK  status: ('A' for Active; 'I' for Inactive)
REMARK    1  A    between atoms: C2_2  and  C3_3 
REMARK    2  A    between atoms: C3_3  and  C4_4 
REMARK    3  A    between atoms: C4_4  and  C5_5 
REMARK    4  A    between atoms: C5_5  and  O1_6 
REMARK    5  A    between atoms: O1_6  and  C6_7 
REMARK    6  A    between atoms: C6_7  and  C7_8 
REMARK    7  A    between atoms: C7_8  and  C8_9 
REMARK    8  A    between atoms: C9_10  and  N1_11 
REMARK    9  A    between atoms: N1_11  and  C10_13 
REMARK   10  A    between atoms: C10_13  and  O2_14 
REMARK       I    between atoms: N5_26  and  C16_27 
REMARK   11  A    between atoms: C16_27  and  C17_29 
REMARK   12  A    between atoms: C17_29  and  N6_30 
REMARK       I    between atoms: N6_30  and  C19_32 
REMARK       I    between atoms: C19_32  and  N8_36 
REMARK   13  A    between atoms: N8_36  and  P1_38 
REMARK   14  A    between atoms: P1_38  and  O4_39 
REMARK   15  A    between atoms: P1_38  and  O5_41 
ROOT
HETATM    1  C8  UNL     1      -8.659  -8.452 -11.788  1.00  0.00     0.146 C 
HETATM    2  C9  UNL     1      -9.535  -8.784 -12.884  1.00  0.00     0.061 C 
HETATM    3  C11 UNL     1     -10.753  -8.149 -12.992  1.00  0.00     0.102 A 
HETATM    4  C12 UNL     1     -11.119  -7.184 -11.947  1.00  0.00     0.079 A 
HETATM    5  N2  UNL     1     -12.136  -6.424 -12.017  1.00  0.00    -0.348 N 
ATOM      6  H2  UNL     1     -12.348  -5.765 -11.267  1.00  0.00     0.167 HD
HETATM    7  C13 UNL     1     -12.953  -6.512 -13.141  1.00  0.00     0.198 A 
HETATM    8  N3  UNL     1     -12.751  -7.306 -14.100  1.00  0.00    -0.294 N 
ATOM      9  H3  UNL     1     -13.398  -7.315 -14.888  1.00  0.00     0.188 HD
HETATM   10  N4  UNL     1     -11.579  -8.236 -14.099  1.00  0.00    -0.292 N 
HETATM   11  C14 UNL     1     -11.536  -9.139 -15.159  1.00  0.00     0.178 C 
HETATM   12  C15 UNL     1     -10.486  -7.214 -10.602  1.00  0.00     0.127 C 
HETATM   13  N5  UNL     1      -9.290  -7.875 -10.566  1.00  0.00    -0.314 N 
HETATM   14  C16 UNL     1      -8.535  -7.941  -9.357  1.00  0.00     0.242 C 
HETATM   15  O3  UNL     1      -7.485  -8.661  -9.232  1.00  0.00    -0.271 OA
ENDROOT
BRANCH   1  16
HETATM   16  C7  UNL     1      -7.946  -7.053 -12.157  1.00  0.00     0.058 C 
BRANCH  16  17
HETATM   17  C6  UNL     1      -6.757  -7.219 -13.042  1.00  0.00     0.170 C 
BRANCH  17  18
HETATM   18  O1  UNL     1      -6.134  -8.300 -12.612  1.00  0.00    -0.391 OA
BRANCH  18  19
HETATM   19  C5  UNL     1      -5.118  -8.997 -12.914  1.00  0.00     0.167 C 
BRANCH  19  20
HETATM   20  C4  UNL     1      -4.867 -10.335 -12.351  1.00  0.00     0.026 C 
BRANCH  20  21
HETATM   21  C3  UNL     1      -4.631 -10.361 -10.866  1.00  0.00     0.002 C 
BRANCH  21  22
HETATM   22  C2  UNL     1      -3.253 -11.028 -10.749  1.00  0.00    -0.004 C 
HETATM   23  C1  UNL     1      -2.799 -11.090  -9.342  1.00  0.00     0.005 C 
ENDBRANCH  21  22
ENDBRANCH  20  21
ENDBRANCH  19  20
ENDBRANCH  18  19
ENDBRANCH  17  18
ENDBRANCH  16  17
ENDBRANCH   1  16
BRANCH  14  24
HETATM   24  C17 UNL     1      -8.914  -7.150  -8.192  1.00  0.00     0.228 C 
BRANCH  24  25
HETATM   25  N6  UNL     1      -9.609  -7.868  -7.131  1.00  0.00    -0.349 N 
HETATM   26  C18 UNL     1     -10.255  -9.134  -7.326  1.00  0.00     0.153 C 
HETATM   27  C19 UNL     1      -9.649  -7.256  -5.859  1.00  0.00     0.177 C 
HETATM   28  N7  UNL     1     -10.668  -7.294  -5.028  1.00  0.00    -0.371 N 
HETATM   29  N8  UNL     1      -8.502  -6.455  -5.356  1.00  0.00    -0.292 N 
ATOM     30  H72 UNL     1     -11.456  -7.844  -5.373  1.00  0.00     0.159 HD
ATOM     31  H71 UNL     1     -10.698  -6.852  -4.109  1.00  0.00     0.159 HD
ATOM     32  H8  UNL     1      -7.641  -6.858  -4.986  1.00  0.00     0.171 HD
BRANCH  29  33
HETATM   33  P1  UNL     1      -8.820  -4.697  -5.481  1.00  0.00     0.286 P 
BRANCH  33  34
HETATM   34  O4  UNL     1      -7.505  -3.975  -6.338  1.00  0.00    -0.333 OA
ATOM     35  H4  UNL     1      -7.642  -4.123  -7.267  1.00  0.00     0.219 HD
ENDBRANCH  33  34
BRANCH  33  36
HETATM   36  O5  UNL     1     -10.312  -4.362  -6.250  1.00  0.00    -0.333 OA
ATOM     37  H5  UNL     1     -10.203  -3.832  -7.031  1.00  0.00     0.219 HD
ENDBRANCH  33  36
ENDBRANCH  29  33
ENDBRANCH  24  25
ENDBRANCH  14  24
BRANCH   2  38
HETATM   38  N1  UNL     1      -9.297  -9.715 -13.921  1.00  0.00    -0.368 N 
ATOM     39  H1  UNL     1      -9.887  -9.636 -14.749  1.00  0.00     0.161 HD
BRANCH  38  40
HETATM   40  C10 UNL     1      -8.297 -10.774 -13.932  1.00  0.00     0.287 C 
BRANCH  40  41
HETATM   41  O2  UNL     1      -7.353 -10.330 -14.876  1.00  0.00    -0.382 OA
ATOM     42  H2  UNL     1      -7.624 -10.754 -15.682  1.00  0.00     0.211 HD
ENDBRANCH  40  41
ENDBRANCH  38  40
ENDBRANCH   2  38
TORSDOF 15
ENDMDL
MODEL 5
REMARK VINA RESULT: -6.694334779      2.678      6.020
REMARK  15 active torsions:
REMARK  status: ('A' for Active; 'I' for Inactive)
REMARK    1  A    between atoms: C2_2  and  C3_3 
REMARK    2  A    between atoms: C3_3  and  C4_4 
REMARK    3  A    between atoms: C4_4  and  C5_5 
REMARK    4  A    between atoms: C5_5  and  O1_6 
REMARK    5  A    between atoms: O1_6  and  C6_7 
REMARK    6  A    between atoms: C6_7  and  C7_8 
REMARK    7  A    between atoms: C7_8  and  C8_9 
REMARK    8  A    between atoms: C9_10  and  N1_11 
REMARK    9  A    between atoms: N1_11  and  C10_13 
REMARK   10  A    between atoms: C10_13  and  O2_14 
REMARK       I    between atoms: N5_26  and  C16_27 
REMARK   11  A    between atoms: C16_27  and  C17_29 
REMARK   12  A    between atoms: C17_29  and  N6_30 
REMARK       I    between atoms: N6_30  and  C19_32 
REMARK       I    between atoms: C19_32  and  N8_36 
REMARK   13  A    between atoms: N8_36  and  P1_38 
REMARK   14  A    between atoms: P1_38  and  O4_39 
REMARK   15  A    between atoms: P1_38  and  O5_41 
ROOT
HETATM    1  C8  UNL     1      -8.180  -8.812 -11.710  1.00  0.00     0.146 C 
HETATM    2  C9  UNL     1      -8.966  -9.855 -12.320  1.00  0.00     0.061 C 
HETATM    3  C11 UNL     1     -10.053  -9.516 -13.097  1.00  0.00     0.102 A 
HETATM    4  C12 UNL     1     -10.384  -8.092 -13.229  1.00  0.00     0.079 A 
HETATM    5  N2  UNL     1     -11.258  -7.645 -14.037  1.00  0.00    -0.348 N 
ATOM      6  H2  UNL     1     -11.451  -6.645 -14.098  1.00  0.00     0.167 HD
HETATM    7  C13 UNL     1     -11.946  -8.554 -14.837  1.00  0.00     0.198 A 
HETATM    8  N3  UNL     1     -11.760  -9.801 -14.809  1.00  0.00    -0.294 N 
ATOM      9  H3  UNL     1     -12.307 -10.404 -15.424  1.00  0.00     0.188 HD
HETATM   10  N4  UNL     1     -10.751 -10.411 -13.888  1.00  0.00    -0.292 N 
HETATM   11  C14 UNL     1     -10.726 -11.804 -13.873  1.00  0.00     0.178 C 
HETATM   12  C15 UNL     1      -9.919  -7.087 -12.236  1.00  0.00     0.127 C 
HETATM   13  N5  UNL     1      -8.851  -7.498 -11.490  1.00  0.00    -0.314 N 
HETATM   14  C16 UNL     1      -8.256  -6.623 -10.532  1.00  0.00     0.242 C 
HETATM   15  O3  UNL     1      -7.349  -7.001  -9.713  1.00  0.00    -0.271 OA
ENDROOT
BRANCH   1  16
HETATM   16  C7  UNL     1      -7.225  -8.204 -12.858  1.00  0.00     0.058 C 
BRANCH  16  17
HETATM   17  C6  UNL     1      -5.985  -9.004 -13.073  1.00  0.00     0.170 C 
BRANCH  17  18
HETATM   18  O1  UNL     1      -5.488  -9.230 -11.871  1.00  0.00    -0.391 OA
BRANCH  18  19
HETATM   19  C5  UNL     1      -4.662 -10.016 -11.314  1.00  0.00     0.167 C 
BRANCH  19  20
HETATM   20  C4  UNL     1      -3.691 -10.826 -12.070  1.00  0.00     0.026 C 
BRANCH  20  21
HETATM   21  C3  UNL     1      -2.755 -11.643 -11.222  1.00  0.00     0.002 C 
BRANCH  21  22
HETATM   22  C2  UNL     1      -2.927 -11.022  -9.827  1.00  0.00    -0.004 C 
HETATM   23  C1  UNL     1      -2.196 -11.793  -8.798  1.00  0.00     0.005 C 
ENDBRANCH  21  22
ENDBRANCH  20  21
ENDBRANCH  19  20
ENDBRANCH  18  19
ENDBRANCH  17  18
ENDBRANCH  16  17
ENDBRANCH   1  16
BRANCH  14  24
HETATM   24  C17 UNL     1      -8.640  -5.218 -10.461  1.00  0.00     0.228 C 
BRANCH  24  25
HETATM   25  N6  UNL     1      -8.740  -4.650  -9.122  1.00  0.00    -0.349 N 
HETATM   26  C18 UNL     1      -7.617  -4.123  -8.402  1.00  0.00     0.153 C 
HETATM   27  C19 UNL     1     -10.017  -4.648  -8.518  1.00  0.00     0.177 C 
HETATM   28  N7  UNL     1     -10.254  -4.853  -7.240  1.00  0.00    -0.371 N 
HETATM   29  N8  UNL     1     -11.247  -4.438  -9.325  1.00  0.00    -0.292 N 
ATOM     30  H72 UNL     1      -9.410  -4.997  -6.686  1.00  0.00     0.159 HD
ATOM     31  H71 UNL     1     -11.176  -4.851  -6.804  1.00  0.00     0.159 HD
ATOM     32  H8  UNL     1     -11.557  -3.530  -9.672  1.00  0.00     0.171 HD
BRANCH  29  33
HETATM   33  P1  UNL     1     -12.116  -5.977  -9.615  1.00  0.00     0.286 P 
BRANCH  33  34
HETATM   34  O4  UNL     1     -11.443  -7.177  -8.571  1.00  0.00    -0.333 OA
ATOM     35  H4  UNL     1     -12.157  -7.601  -8.109  1.00  0.00     0.219 HD
ENDBRANCH  33  34
BRANCH  33  36
HETATM   36  O5  UNL     1     -13.803  -5.824  -9.368  1.00  0.00    -0.333 OA
ATOM     37  H5  UNL     1     -14.301  -6.437  -9.897  1.00  0.00     0.219 HD
ENDBRANCH  33  36
ENDBRANCH  29  33
ENDBRANCH  24  25
ENDBRANCH  14  24
BRANCH   2  38
HETATM   38  N1  UNL     1      -8.756 -11.251 -12.232  1.00  0.00    -0.368 N 
ATOM     39  H1  UNL     1      -9.403 -11.843 -12.753  1.00  0.00     0.161 HD
BRANCH  38  40
HETATM   40  C10 UNL     1      -7.713 -11.932 -11.477  1.00  0.00     0.287 C 
BRANCH  40  41
HETATM   41  O2  UNL     1      -6.923 -12.535 -12.472  1.00  0.00    -0.382 OA
ATOM     42  H2  UNL     1      -6.212 -11.917 -12.599  1.00  0.00     0.211 HD
ENDBRANCH  40  41
ENDBRANCH  38  40
ENDBRANCH   2  38
TORSDOF 15
ENDMDL
