MODEL 1
REMARK VINA RESULT: -7.362470572      0.000      0.000
REMARK  16 active torsions:
REMARK  status: ('A' for Active; 'I' for Inactive)
REMARK    1  A    between atoms: C2_2  and  O1_3 
REMARK    2  A    between atoms: O1_3  and  P1_4 
REMARK    3  A    between atoms: P1_4  and  O2_5 
REMARK    4  A    between atoms: P1_4  and  O3_8 
REMARK    5  A    between atoms: O2_5  and  C3_6 
REMARK    6  A    between atoms: O3_8  and  C5_9 
REMARK    7  A    between atoms: C5_9  and  C6_10 
REMARK    8  A    between atoms: C6_10  and  N1_11 
REMARK    9  A    between atoms: N1_11  and  C7_13 
REMARK   10  A    between atoms: C9_17  and  C10_18 
REMARK   11  A    between atoms: N3_19  and  N4_21 
REMARK   12  A    between atoms: C11_24  and  C13_26 
REMARK       I    between atoms: C13_26  and  N5_28 
REMARK   13  A    between atoms: N5_28  and  C14_30 
REMARK   14  A    between atoms: C14_30  and  C15_31 
REMARK   15  A    between atoms: C15_31  and  O5_32 
REMARK   16  A    between atoms: C17_35  and  C18_36 
ROOT
HETATM    1  C7  UNL     1      -7.825  -9.520 -11.008  1.00  0.00     0.119 C 
HETATM    2  N2  UNL     1      -8.450 -10.690 -10.876  1.00  0.00    -0.344 N 
ATOM      3  H2  UNL     1      -8.087 -11.514 -10.395  1.00  0.00     0.167 HD
HETATM    4  C8  UNL     1      -9.795 -10.582 -11.568  1.00  0.00     0.033 C 
HETATM    5  C9  UNL     1     -10.913 -10.407 -10.914  1.00  0.00     0.045 C 
HETATM    6  C11 UNL     1      -9.599 -10.527 -13.005  1.00  0.00     0.098 C 
HETATM    7  C12 UNL     1      -8.462 -11.511 -13.412  1.00  0.00     0.037 C 
HETATM    8  C16 UNL     1      -8.964  -9.126 -13.128  1.00  0.00     0.017 C 
HETATM    9  C17 UNL     1      -8.139  -8.688 -12.192  1.00  0.00     0.051 C 
ENDROOT
BRANCH   1  10
HETATM   10  N1  UNL     1      -6.542  -9.240 -10.435  1.00  0.00    -0.353 N 
ATOM     11  H1  UNL     1      -6.517  -8.451  -9.789  1.00  0.00     0.166 HD
BRANCH  10  12
HETATM   12  C6  UNL     1      -5.331  -9.883 -10.630  1.00  0.00     0.089 C 
BRANCH  12  13
HETATM   13  C5  UNL     1      -4.782 -10.374 -11.913  1.00  0.00     0.222 C 
BRANCH  13  14
HETATM   14  O3  UNL     1      -3.382 -10.560 -11.562  1.00  0.00    -0.312 OA
BRANCH  14  15
HETATM   15  P1  UNL     1      -2.954 -12.197 -12.068  1.00  0.00     0.334 P 
BRANCH  15  16
HETATM   16  O1  UNL     1      -2.104 -12.792 -10.468  1.00  0.00    -0.318 OA
BRANCH  16  17
HETATM   17  C2  UNL     1      -2.191 -11.649  -9.683  1.00  0.00     0.173 C 
HETATM   18  C1  UNL     1      -2.419 -12.026  -8.250  1.00  0.00     0.034 C 
ENDBRANCH  16  17
ENDBRANCH  15  16
BRANCH  15  19
HETATM   19  O2  UNL     1      -1.406 -12.196 -12.947  1.00  0.00    -0.318 OA
BRANCH  19  20
HETATM   20  C3  UNL     1      -1.593 -11.756 -14.224  1.00  0.00     0.173 C 
HETATM   21  C4  UNL     1      -0.226 -11.385 -14.799  1.00  0.00     0.034 C 
ENDBRANCH  19  20
ENDBRANCH  15  19
ENDBRANCH  14  15
ENDBRANCH  13  14
ENDBRANCH  12  13
ENDBRANCH  10  12
ENDBRANCH   1  10
BRANCH   9  22
HETATM   22  C18 UNL     1      -7.690  -7.260 -12.236  1.00  0.00     0.134 A 
HETATM   23  N6  UNL     1      -8.295  -6.225 -11.580  1.00  0.00    -0.336 N 
HETATM   24  C19 UNL     1      -7.646  -5.067 -11.887  1.00  0.00     0.199 A 
ATOM     25  H6  UNL     1      -9.101  -6.306 -10.961  1.00  0.00     0.168 HD
HETATM   26  N7  UNL     1      -6.648  -5.415 -12.715  1.00  0.00    -0.295 N 
HETATM   27  N8  UNL     1      -6.699  -6.757 -12.917  1.00  0.00    -0.284 N 
ATOM     28  H7  UNL     1      -5.965  -4.777 -13.124  1.00  0.00     0.187 HD
ATOM     29  H8  UNL     1      -6.062  -7.289 -13.510  1.00  0.00     0.188 HD
ENDBRANCH   9  22
BRANCH   5  30
HETATM   30  C10 UNL     1     -11.026 -10.279  -9.454  1.00  0.00     0.108 C 
HETATM   31  N3  UNL     1     -11.030  -9.109  -8.908  1.00  0.00    -0.318 N 
ATOM     32  H3  UNL     1     -11.115  -9.033  -7.895  1.00  0.00     0.185 HD
BRANCH  31  33
HETATM   33  N4  UNL     1     -10.920  -7.929  -9.684  1.00  0.00    -0.345 N 
ATOM     34  H42 UNL     1     -11.773  -7.416  -9.905  1.00  0.00     0.176 HD
ATOM     35  H41 UNL     1     -10.017  -7.593 -10.017  1.00  0.00     0.176 HD
ENDBRANCH  31  33
ENDBRANCH   5  30
BRANCH   6  36
HETATM   36  C13 UNL     1     -10.672 -10.759 -13.931  1.00  0.00     0.235 C 
HETATM   37  O4  UNL     1     -11.400 -11.800 -14.040  1.00  0.00    -0.272 OA
HETATM   38  N5  UNL     1     -10.989  -9.711 -14.857  1.00  0.00    -0.358 N 
ATOM     39  H5  UNL     1     -10.457  -8.841 -14.847  1.00  0.00     0.162 HD
BRANCH  38  40
HETATM   40  C14 UNL     1     -12.085  -9.894 -15.821  1.00  0.00     0.148 C 
BRANCH  40  41
HETATM   41  C15 UNL     1     -12.276  -8.623 -16.634  1.00  0.00     0.183 C 
BRANCH  41  42
HETATM   42  O5  UNL     1     -11.230  -7.744 -16.186  1.00  0.00    -0.399 OA
ATOM     43  H5  UNL     1     -11.468  -6.892 -16.531  1.00  0.00     0.209 HD
ENDBRANCH  41  42
ENDBRANCH  40  41
ENDBRANCH  38  40
ENDBRANCH   6  36
TORSDOF 16
ENDMDL
MODEL 2
REMARK VINA RESULT: -7.330401185      3.998      6.497
REMARK  16 active torsions:
REMARK  status: ('A' for Active; 'I' for Inactive)
REMARK    1  A    between atoms: C2_2  and  O1_3 
REMARK    2  A    between atoms: O1_3  and  P1_4 
REMARK    3  A    between atoms: P1_4  and  O2_5 
REMARK    4  A    between atoms: P1_4  and  O3_8 
REMARK    5  A    between atoms: O2_5  and  C3_6 
REMARK    6  A    between atoms: O3_8  and  C5_9 
REMARK    7  A    between atoms: C5_9  and  C6_10 
REMARK    8  A    between atoms: C6_10  and  N1_11 
REMARK    9  A    between atoms: N1_11  and  C7_13 
REMARK   10  A    between atoms: C9_17  and  C10_18 
REMARK   11  A    between atoms: N3_19  and  N4_21 
REMARK   12  A    between atoms: C11_24  and  C13_26 
REMARK       I    between atoms: C13_26  and  N5_28 
REMARK   13  A    between atoms: N5_28  and  C14_30 
REMARK   14  A    between atoms: C14_30  and  C15_31 
REMARK   15  A    between atoms: C15_31  and  O5_32 
REMARK   16  A    between atoms: C17_35  and  C18_36 
ROOT
HETATM    1  C7  UNL     1      -9.236 -10.350  -9.870  1.00  0.00     0.119 C 
HETATM    2  N2  UNL     1      -8.629  -9.848 -10.945  1.00  0.00    -0.344 N 
ATOM      3  H2  UNL     1      -7.969  -9.070 -10.954  1.00  0.00     0.167 HD
HETATM    4  C8  UNL     1      -9.091 -10.639 -12.154  1.00  0.00     0.033 C 
HETATM    5  C9  UNL     1      -8.359 -11.567 -12.713  1.00  0.00     0.045 C 
HETATM    6  C11 UNL     1     -10.478 -10.322 -12.440  1.00  0.00     0.098 C 
HETATM    7  C12 UNL     1     -10.718  -8.798 -12.224  1.00  0.00     0.037 C 
HETATM    8  C16 UNL     1     -11.155 -10.997 -11.229  1.00  0.00     0.017 C 
HETATM    9  C17 UNL     1     -10.560 -10.988 -10.047  1.00  0.00     0.051 C 
ENDROOT
BRANCH   1  10
HETATM   10  N1  UNL     1      -9.002  -9.879  -8.538  1.00  0.00    -0.353 N 
ATOM     11  H1  UNL     1      -9.292 -10.514  -7.794  1.00  0.00     0.166 HD
BRANCH  10  12
HETATM   12  C6  UNL     1      -8.438  -8.688  -8.111  1.00  0.00     0.089 C 
BRANCH  12  13
HETATM   13  C5  UNL     1      -8.862  -7.320  -8.484  1.00  0.00     0.222 C 
BRANCH  13  14
HETATM   14  O3  UNL     1      -7.868  -6.988  -9.493  1.00  0.00    -0.312 OA
BRANCH  14  15
HETATM   15  P1  UNL     1      -8.537  -5.649 -10.429  1.00  0.00     0.334 P 
BRANCH  15  16
HETATM   16  O1  UNL     1      -6.958  -5.111 -11.354  1.00  0.00    -0.318 OA
BRANCH  16  17
HETATM   17  C2  UNL     1      -7.337  -5.335 -12.671  1.00  0.00     0.173 C 
HETATM   18  C1  UNL     1      -6.999  -6.740 -13.071  1.00  0.00     0.034 C 
ENDBRANCH  16  17
ENDBRANCH  15  16
BRANCH  15  19
HETATM   19  O2  UNL     1      -8.540  -4.150  -9.466  1.00  0.00    -0.318 OA
BRANCH  19  20
HETATM   20  C3  UNL     1      -7.357  -4.022  -8.797  1.00  0.00     0.173 C 
HETATM   21  C4  UNL     1      -7.674  -3.847  -7.312  1.00  0.00     0.034 C 
ENDBRANCH  19  20
ENDBRANCH  15  19
ENDBRANCH  14  15
ENDBRANCH  13  14
ENDBRANCH  12  13
ENDBRANCH  10  12
ENDBRANCH   1  10
BRANCH   9  22
HETATM   22  C18 UNL     1     -11.142 -11.813  -8.940  1.00  0.00     0.134 A 
HETATM   23  N6  UNL     1     -12.137 -11.407  -8.096  1.00  0.00    -0.336 N 
HETATM   24  C19 UNL     1     -12.378 -12.395  -7.190  1.00  0.00     0.199 A 
ATOM     25  H6  UNL     1     -12.620 -10.510  -8.137  1.00  0.00     0.168 HD
HETATM   26  N7  UNL     1     -11.536 -13.392  -7.502  1.00  0.00    -0.295 N 
HETATM   27  N8  UNL     1     -10.788 -13.012  -8.570  1.00  0.00    -0.284 N 
ATOM     28  H7  UNL     1     -11.469 -14.288  -7.018  1.00  0.00     0.187 HD
ATOM     29  H8  UNL     1     -10.063 -13.576  -9.014  1.00  0.00     0.188 HD
ENDBRANCH   9  22
BRANCH   5  30
HETATM   30  C10 UNL     1      -7.025 -11.977 -12.257  1.00  0.00     0.108 C 
HETATM   31  N3  UNL     1      -5.972 -11.445 -12.783  1.00  0.00    -0.318 N 
ATOM     32  H3  UNL     1      -5.051 -11.734 -12.454  1.00  0.00     0.185 HD
BRANCH  31  33
HETATM   33  N4  UNL     1      -6.067 -10.470 -13.806  1.00  0.00    -0.345 N 
ATOM     34  H42 UNL     1      -6.763 -10.607 -14.539  1.00  0.00     0.176 HD
ATOM     35  H41 UNL     1      -5.461  -9.650 -13.818  1.00  0.00     0.176 HD
ENDBRANCH  31  33
ENDBRANCH   5  30
BRANCH   6  36
HETATM   36  C13 UNL     1     -11.091 -10.643 -13.698  1.00  0.00     0.235 C 
HETATM   37  O4  UNL     1     -11.483 -11.785 -14.109  1.00  0.00    -0.272 OA
HETATM   38  N5  UNL     1     -11.305  -9.570 -14.626  1.00  0.00    -0.358 N 
ATOM     39  H5  UNL     1     -11.020  -8.621 -14.386  1.00  0.00     0.162 HD
BRANCH  38  40
HETATM   40  C14 UNL     1     -11.938  -9.844 -15.926  1.00  0.00     0.148 C 
BRANCH  40  41
HETATM   41  C15 UNL     1     -12.069  -8.553 -16.718  1.00  0.00     0.183 C 
BRANCH  41  42
HETATM   42  O5  UNL     1     -11.161  -7.639 -16.078  1.00  0.00    -0.399 OA
ATOM     43  H5  UNL     1     -11.708  -6.916 -15.795  1.00  0.00     0.209 HD
ENDBRANCH  41  42
ENDBRANCH  40  41
ENDBRANCH  38  40
ENDBRANCH   6  36
TORSDOF 16
ENDMDL
MODEL 3
REMARK VINA RESULT: -7.290895249      3.585      6.004
REMARK  16 active torsions:
REMARK  status: ('A' for Active; 'I' for Inactive)
REMARK    1  A    between atoms: C2_2  and  O1_3 
REMARK    2  A    between atoms: O1_3  and  P1_4 
REMARK    3  A    between atoms: P1_4  and  O2_5 
REMARK    4  A    between atoms: P1_4  and  O3_8 
REMARK    5  A    between atoms: O2_5  and  C3_6 
REMARK    6  A    between atoms: O3_8  and  C5_9 
REMARK    7  A    between atoms: C5_9  and  C6_10 
REMARK    8  A    between atoms: C6_10  and  N1_11 
REMARK    9  A    between atoms: N1_11  and  C7_13 
REMARK   10  A    between atoms: C9_17  and  C10_18 
REMARK   11  A    between atoms: N3_19  and  N4_21 
REMARK   12  A    between atoms: C11_24  and  C13_26 
REMARK       I    between atoms: C13_26  and  N5_28 
REMARK   13  A    between atoms: N5_28  and  C14_30 
REMARK   14  A    between atoms: C14_30  and  C15_31 
REMARK   15  A    between atoms: C15_31  and  O5_32 
REMARK   16  A    between atoms: C17_35  and  C18_36 
ROOT
HETATM    1  C7  UNL     1      -7.839  -9.444 -10.626  1.00  0.00     0.119 C 
HETATM    2  N2  UNL     1      -8.932  -8.699 -10.457  1.00  0.00    -0.344 N 
ATOM      3  H2  UNL     1      -9.488  -8.634  -9.604  1.00  0.00     0.167 HD
HETATM    4  C8  UNL     1      -9.202  -7.965 -11.756  1.00  0.00     0.033 C 
HETATM    5  C9  UNL     1      -8.901  -6.705 -11.932  1.00  0.00     0.045 C 
HETATM    6  C11 UNL     1      -9.656  -8.908 -12.761  1.00  0.00     0.098 C 
HETATM    7  C12 UNL     1     -10.616  -9.945 -12.105  1.00  0.00     0.037 C 
HETATM    8  C16 UNL     1      -8.345  -9.688 -12.999  1.00  0.00     0.017 C 
HETATM    9  C17 UNL     1      -7.525  -9.928 -11.989  1.00  0.00     0.051 C 
ENDROOT
BRANCH   1  10
HETATM   10  N1  UNL     1      -7.257 -10.240  -9.587  1.00  0.00    -0.353 N 
ATOM     11  H1  UNL     1      -6.886 -11.141  -9.886  1.00  0.00     0.166 HD
BRANCH  10  12
HETATM   12  C6  UNL     1      -7.124  -9.964  -8.236  1.00  0.00     0.089 C 
BRANCH  12  13
HETATM   13  C5  UNL     1      -8.090  -9.245  -7.376  1.00  0.00     0.222 C 
BRANCH  13  14
HETATM   14  O3  UNL     1      -8.740 -10.357  -6.699  1.00  0.00    -0.312 OA
BRANCH  14  15
HETATM   15  P1  UNL     1     -10.379 -10.445  -7.348  1.00  0.00     0.334 P 
BRANCH  15  16
HETATM   16  O1  UNL     1     -10.026 -11.467  -8.919  1.00  0.00    -0.318 OA
BRANCH  16  17
HETATM   17  C2  UNL     1     -10.829 -12.579  -8.695  1.00  0.00     0.173 C 
HETATM   18  C1  UNL     1     -11.560 -12.431  -7.394  1.00  0.00     0.034 C 
ENDBRANCH  16  17
ENDBRANCH  15  16
BRANCH  15  19
HETATM   19  O2  UNL     1     -10.749  -8.997  -8.317  1.00  0.00    -0.318 OA
BRANCH  19  20
HETATM   20  C3  UNL     1     -12.079  -8.966  -8.621  1.00  0.00     0.173 C 
HETATM   21  C4  UNL     1     -12.318  -7.782  -9.558  1.00  0.00     0.034 C 
ENDBRANCH  19  20
ENDBRANCH  15  19
ENDBRANCH  14  15
ENDBRANCH  13  14
ENDBRANCH  12  13
ENDBRANCH  10  12
ENDBRANCH   1  10
BRANCH   9  22
HETATM   22  C18 UNL     1      -6.177 -10.512 -12.278  1.00  0.00     0.134 A 
HETATM   23  N6  UNL     1      -4.985  -9.970 -11.888  1.00  0.00    -0.336 N 
HETATM   24  C19 UNL     1      -3.970 -10.745 -12.365  1.00  0.00     0.199 A 
ATOM     25  H6  UNL     1      -4.872  -9.124 -11.330  1.00  0.00     0.168 HD
HETATM   26  N7  UNL     1      -4.559 -11.753 -13.027  1.00  0.00    -0.295 N 
HETATM   27  N8  UNL     1      -5.905 -11.586 -12.965  1.00  0.00    -0.284 N 
ATOM     28  H7  UNL     1      -4.075 -12.517 -13.499  1.00  0.00     0.187 HD
ATOM     29  H8  UNL     1      -6.597 -12.205 -13.389  1.00  0.00     0.188 HD
ENDBRANCH   9  22
BRANCH   5  30
HETATM   30  C10 UNL     1      -8.263  -5.842 -10.928  1.00  0.00     0.108 C 
HETATM   31  N3  UNL     1      -7.378  -4.975 -11.293  1.00  0.00    -0.318 N 
ATOM     32  H3  UNL     1      -6.946  -4.378 -10.588  1.00  0.00     0.185 HD
BRANCH  31  33
HETATM   33  N4  UNL     1      -6.994  -4.835 -12.649  1.00  0.00    -0.345 N 
ATOM     34  H42 UNL     1      -7.480  -5.395 -13.349  1.00  0.00     0.176 HD
ATOM     35  H41 UNL     1      -6.251  -4.194 -12.929  1.00  0.00     0.176 HD
ENDBRANCH  31  33
ENDBRANCH   5  30
BRANCH   6  36
HETATM   36  C13 UNL     1     -10.303  -8.483 -13.971  1.00  0.00     0.235 C 
HETATM   37  O4  UNL     1      -9.803  -7.810 -14.931  1.00  0.00    -0.272 OA
HETATM   38  N5  UNL     1     -11.679  -8.848 -14.152  1.00  0.00    -0.358 N 
ATOM     39  H5  UNL     1     -12.165  -9.384 -13.434  1.00  0.00     0.162 HD
BRANCH  38  40
HETATM   40  C14 UNL     1     -12.386  -8.445 -15.377  1.00  0.00     0.148 C 
BRANCH  40  41
HETATM   41  C15 UNL     1     -12.433  -9.610 -16.353  1.00  0.00     0.183 C 
BRANCH  41  42
HETATM   42  O5  UNL     1     -11.247  -9.464 -17.152  1.00  0.00    -0.399 OA
ATOM     43  H5  UNL     1     -10.908 -10.346 -17.243  1.00  0.00     0.209 HD
ENDBRANCH  41  42
ENDBRANCH  40  41
ENDBRANCH  38  40
ENDBRANCH   6  36
TORSDOF 16
ENDMDL
MODEL 4
REMARK VINA RESULT: -7.202089130      0.570      2.251
REMARK  16 active torsions:
REMARK  status: ('A' for Active; 'I' for Inactive)
REMARK    1  A    between atoms: C2_2  and  O1_3 
REMARK    2  A    between atoms: O1_3  and  P1_4 
REMARK    3  A    between atoms: P1_4  and  O2_5 
REMARK    4  A    between atoms: P1_4  and  O3_8 
REMARK    5  A    between atoms: O2_5  and  C3_6 
REMARK    6  A    between atoms: O3_8  and  C5_9 
REMARK    7  A    between atoms: C5_9  and  C6_10 
REMARK    8  A    between atoms: C6_10  and  N1_11 
REMARK    9  A    between atoms: N1_11  and  C7_13 
REMARK   10  A    between atoms: C9_17  and  C10_18 
REMARK   11  A    between atoms: N3_19  and  N4_21 
REMARK   12  A    between atoms: C11_24  and  C13_26 
REMARK       I    between atoms: C13_26  and  N5_28 
REMARK   13  A    between atoms: N5_28  and  C14_30 
REMARK   14  A    between atoms: C14_30  and  C15_31 
REMARK   15  A    between atoms: C15_31  and  O5_32 
REMARK   16  A    between atoms: C17_35  and  C18_36 
ROOT
HETATM    1  C7  UNL     1      -8.043  -9.567 -10.969  1.00  0.00     0.119 C 
HETATM    2  N2  UNL     1      -8.703 -10.719 -10.856  1.00  0.00    -0.344 N 
ATOM      3  H2  UNL     1      -8.386 -11.545 -10.347  1.00  0.00     0.167 HD
HETATM    4  C8  UNL     1     -10.007 -10.587 -11.618  1.00  0.00     0.033 C 
HETATM    5  C9  UNL     1     -11.154 -10.377 -11.025  1.00  0.00     0.045 C 
HETATM    6  C11 UNL     1      -9.736 -10.556 -13.043  1.00  0.00     0.098 C 
HETATM    7  C12 UNL     1      -8.604 -11.573 -13.379  1.00  0.00     0.037 C 
HETATM    8  C16 UNL     1      -9.061  -9.173 -13.150  1.00  0.00     0.017 C 
HETATM    9  C17 UNL     1      -8.275  -8.743 -12.177  1.00  0.00     0.051 C 
ENDROOT
BRANCH   1  10
HETATM   10  N1  UNL     1      -6.786  -9.310 -10.333  1.00  0.00    -0.353 N 
ATOM     11  H1  UNL     1      -6.823  -8.676  -9.534  1.00  0.00     0.166 HD
BRANCH  10  12
HETATM   12  C6  UNL     1      -5.526  -9.795 -10.644  1.00  0.00     0.089 C 
BRANCH  12  13
HETATM   13  C5  UNL     1      -5.047 -10.238 -11.971  1.00  0.00     0.222 C 
BRANCH  13  14
HETATM   14  O3  UNL     1      -4.479 -11.536 -11.642  1.00  0.00    -0.312 OA
BRANCH  14  15
HETATM   15  P1  UNL     1      -2.822 -11.236 -11.114  1.00  0.00     0.334 P 
BRANCH  15  16
HETATM   16  O1  UNL     1      -1.918 -12.488 -12.233  1.00  0.00    -0.318 OA
BRANCH  16  17
HETATM   17  C2  UNL     1      -2.014 -11.854 -13.466  1.00  0.00     0.173 C 
HETATM   18  C1  UNL     1      -0.664 -11.790 -14.116  1.00  0.00     0.034 C 
ENDBRANCH  16  17
ENDBRANCH  15  16
BRANCH  15  19
HETATM   19  O2  UNL     1      -2.445 -12.193  -9.660  1.00  0.00    -0.318 OA
BRANCH  19  20
HETATM   20  C3  UNL     1      -2.751 -11.479  -8.538  1.00  0.00     0.173 C 
HETATM   21  C4  UNL     1      -2.381 -12.331  -7.324  1.00  0.00     0.034 C 
ENDBRANCH  19  20
ENDBRANCH  15  19
ENDBRANCH  14  15
ENDBRANCH  13  14
ENDBRANCH  12  13
ENDBRANCH  10  12
ENDBRANCH   1  10
BRANCH   9  22
HETATM   22  C18 UNL     1      -7.790  -7.326 -12.214  1.00  0.00     0.134 A 
HETATM   23  N6  UNL     1      -8.416  -6.264 -11.624  1.00  0.00    -0.336 N 
HETATM   24  C19 UNL     1      -7.717  -5.129 -11.904  1.00  0.00     0.199 A 
ATOM     25  H6  UNL     1      -9.267  -6.314 -11.066  1.00  0.00     0.168 HD
HETATM   26  N7  UNL     1      -6.670  -5.516 -12.649  1.00  0.00    -0.295 N 
HETATM   27  N8  UNL     1      -6.739  -6.860 -12.829  1.00  0.00    -0.284 N 
ATOM     28  H7  UNL     1      -5.943  -4.902 -13.018  1.00  0.00     0.187 HD
ATOM     29  H8  UNL     1      -6.073  -7.419 -13.363  1.00  0.00     0.188 HD
ENDBRANCH   9  22
BRANCH   5  30
HETATM   30  C10 UNL     1     -11.339 -10.228  -9.575  1.00  0.00     0.108 C 
HETATM   31  N3  UNL     1     -11.329  -9.051  -9.042  1.00  0.00    -0.318 N 
ATOM     32  H3  UNL     1     -11.465  -8.960  -8.035  1.00  0.00     0.185 HD
BRANCH  31  33
HETATM   33  N4  UNL     1     -11.136  -7.886  -9.822  1.00  0.00    -0.345 N 
ATOM     34  H42 UNL     1     -10.463  -7.924 -10.588  1.00  0.00     0.176 HD
ATOM     35  H41 UNL     1     -11.650  -7.026  -9.633  1.00  0.00     0.176 HD
ENDBRANCH  31  33
ENDBRANCH   5  30
BRANCH   6  36
HETATM   36  C13 UNL     1     -10.765 -10.775 -14.021  1.00  0.00     0.235 C 
HETATM   37  O4  UNL     1     -11.453 -11.831 -14.210  1.00  0.00    -0.272 OA
HETATM   38  N5  UNL     1     -11.083  -9.691 -14.905  1.00  0.00    -0.358 N 
ATOM     39  H5  UNL     1     -10.581  -8.806 -14.831  1.00  0.00     0.162 HD
BRANCH  38  40
HETATM   40  C14 UNL     1     -12.135  -9.859 -15.919  1.00  0.00     0.148 C 
BRANCH  40  41
HETATM   41  C15 UNL     1     -12.321  -8.562 -16.690  1.00  0.00     0.183 C 
BRANCH  41  42
HETATM   42  O5  UNL     1     -11.251  -7.714 -16.240  1.00  0.00    -0.399 OA
ATOM     43  H5  UNL     1     -10.470  -8.080 -16.636  1.00  0.00     0.209 HD
ENDBRANCH  41  42
ENDBRANCH  40  41
ENDBRANCH  38  40
ENDBRANCH   6  36
TORSDOF 16
ENDMDL
MODEL 5
REMARK VINA RESULT: -7.174138833      2.979      4.033
REMARK  16 active torsions:
REMARK  status: ('A' for Active; 'I' for Inactive)
REMARK    1  A    between atoms: C2_2  and  O1_3 
REMARK    2  A    between atoms: O1_3  and  P1_4 
REMARK    3  A    between atoms: P1_4  and  O2_5 
REMARK    4  A    between atoms: P1_4  and  O3_8 
REMARK    5  A    between atoms: O2_5  and  C3_6 
REMARK    6  A    between atoms: O3_8  and  C5_9 
REMARK    7  A    between atoms: C5_9  and  C6_10 
REMARK    8  A    between atoms: C6_10  and  N1_11 
REMARK    9  A    between atoms: N1_11  and  C7_13 
REMARK   10  A    between atoms: C9_17  and  C10_18 
REMARK   11  A    between atoms: N3_19  and  N4_21 
REMARK   12  A    between atoms: C11_24  and  C13_26 
REMARK       I    between atoms: C13_26  and  N5_28 
REMARK   13  A    between atoms: N5_28  and  C14_30 
REMARK   14  A    between atoms: C14_30  and  C15_31 
REMARK   15  A    between atoms: C15_31  and  O5_32 
REMARK   16  A    between atoms: C17_35  and  C18_36 
ROOT
HETATM    1  C7  UNL     1     -10.868  -7.351  -9.705  1.00  0.00     0.119 C 
HETATM    2  N2  UNL     1     -11.854  -8.085 -10.220  1.00  0.00    -0.344 N 
ATOM      3  H2  UNL     1     -12.432  -8.754  -9.712  1.00  0.00     0.167 HD
HETATM    4  C8  UNL     1     -11.963  -7.752 -11.695  1.00  0.00     0.033 C 
HETATM    5  C9  UNL     1     -12.890  -6.963 -12.174  1.00  0.00     0.045 C 
HETATM    6  C11 UNL     1     -10.814  -8.288 -12.401  1.00  0.00     0.098 C 
HETATM    7  C12 UNL     1     -10.460  -9.692 -11.827  1.00  0.00     0.037 C 
HETATM    8  C16 UNL     1      -9.713  -7.355 -11.853  1.00  0.00     0.017 C 
HETATM    9  C17 UNL     1      -9.759  -6.942 -10.597  1.00  0.00     0.051 C 
ENDROOT
BRANCH   1  10
HETATM   10  N1  UNL     1     -10.509  -7.369  -8.318  1.00  0.00    -0.353 N 
ATOM     11  H1  UNL     1     -10.921  -6.627  -7.753  1.00  0.00     0.166 HD
BRANCH  10  12
HETATM   12  C6  UNL     1      -9.686  -8.247  -7.633  1.00  0.00     0.089 C 
BRANCH  12  13
HETATM   13  C5  UNL     1      -8.877  -9.342  -8.211  1.00  0.00     0.222 C 
BRANCH  13  14
HETATM   14  O3  UNL     1      -7.631  -8.647  -8.495  1.00  0.00    -0.312 OA
BRANCH  14  15
HETATM   15  P1  UNL     1      -6.814  -9.582  -9.750  1.00  0.00     0.334 P 
BRANCH  15  16
HETATM   16  O1  UNL     1      -5.006  -9.202  -9.277  1.00  0.00    -0.318 OA
BRANCH  16  17
HETATM   17  C2  UNL     1      -4.575 -10.455  -8.859  1.00  0.00     0.173 C 
HETATM   18  C1  UNL     1      -3.243 -10.771  -9.473  1.00  0.00     0.034 C 
ENDBRANCH  16  17
ENDBRANCH  15  16
BRANCH  15  19
HETATM   19  O2  UNL     1      -6.671  -8.629 -11.248  1.00  0.00    -0.318 OA
BRANCH  19  20
HETATM   20  C3  UNL     1      -5.987  -9.339 -12.190  1.00  0.00     0.173 C 
HETATM   21  C4  UNL     1      -6.723  -9.184 -13.521  1.00  0.00     0.034 C 
ENDBRANCH  19  20
ENDBRANCH  15  19
ENDBRANCH  14  15
ENDBRANCH  13  14
ENDBRANCH  12  13
ENDBRANCH  10  12
ENDBRANCH   1  10
BRANCH   9  22
HETATM   22  C18 UNL     1      -8.793  -5.890 -10.148  1.00  0.00     0.134 A 
HETATM   23  N6  UNL     1      -9.136  -4.714  -9.543  1.00  0.00    -0.336 N 
HETATM   24  C19 UNL     1      -8.006  -3.986  -9.319  1.00  0.00     0.199 A 
ATOM     25  H6  UNL     1     -10.083  -4.427  -9.299  1.00  0.00     0.168 HD
HETATM   26  N7  UNL     1      -6.991  -4.734  -9.779  1.00  0.00    -0.295 N 
HETATM   27  N8  UNL     1      -7.497  -5.889 -10.285  1.00  0.00    -0.284 N 
ATOM     28  H7  UNL     1      -6.004  -4.478  -9.752  1.00  0.00     0.187 HD
ATOM     29  H8  UNL     1      -6.948  -6.638 -10.707  1.00  0.00     0.188 HD
ENDBRANCH   9  22
BRANCH   5  30
HETATM   30  C10 UNL     1     -13.923  -6.292 -11.374  1.00  0.00     0.108 C 
HETATM   31  N3  UNL     1     -13.787  -5.047 -11.059  1.00  0.00    -0.318 N 
ATOM     32  H3  UNL     1     -14.513  -4.591 -10.508  1.00  0.00     0.185 HD
BRANCH  31  33
HETATM   33  N4  UNL     1     -12.652  -4.301 -11.460  1.00  0.00    -0.345 N 
ATOM     34  H42 UNL     1     -11.944  -4.768 -12.026  1.00  0.00     0.176 HD
ATOM     35  H41 UNL     1     -12.536  -3.323 -11.196  1.00  0.00     0.176 HD
ENDBRANCH  31  33
ENDBRANCH   5  30
BRANCH   6  36
HETATM   36  C13 UNL     1     -10.794  -8.430 -13.830  1.00  0.00     0.235 C 
HETATM   37  O4  UNL     1     -10.073  -7.795 -14.669  1.00  0.00    -0.272 OA
HETATM   38  N5  UNL     1     -11.676  -9.398 -14.414  1.00  0.00    -0.358 N 
ATOM     39  H5  UNL     1     -12.293  -9.951 -13.821  1.00  0.00     0.162 HD
BRANCH  38  40
HETATM   40  C14 UNL     1     -11.688  -9.589 -15.873  1.00  0.00     0.148 C 
BRANCH  40  41
HETATM   41  C15 UNL     1     -12.735  -8.686 -16.504  1.00  0.00     0.183 C 
BRANCH  41  42
HETATM   42  O5  UNL     1     -11.980  -7.649 -17.152  1.00  0.00    -0.399 OA
ATOM     43  H5  UNL     1     -12.361  -6.839 -16.834  1.00  0.00     0.209 HD
ENDBRANCH  41  42
ENDBRANCH  40  41
ENDBRANCH  38  40
ENDBRANCH   6  36
TORSDOF 16
ENDMDL
