MODEL 1
REMARK VINA RESULT: -7.774822104      0.000      0.000
REMARK  14 active torsions:
REMARK  status: ('A' for Active; 'I' for Inactive)
REMARK    1  A    between atoms: N1_1  and  C1_5 
REMARK    2  A    between atoms: C1_5  and  C2_6 
REMARK    3  A    between atoms: C2_6  and  O1_7 
REMARK    4  A    between atoms: O1_7  and  C3_8 
REMARK    5  A    between atoms: C3_8  and  C4_9 
REMARK    6  A    between atoms: C4_9  and  N2_10 
REMARK    7  A    between atoms: C6_16  and  N5_17 
REMARK    8  A    between atoms: C11_26  and  C12_27 
REMARK    9  A    between atoms: C12_27  and  N8_28 
REMARK   10  A    between atoms: N8_28  and  C13_30 
REMARK   11  A    between atoms: C16_33  and  P1_34 
REMARK   12  A    between atoms: P1_34  and  O3_35 
REMARK   13  A    between atoms: P1_34  and  O4_37 
REMARK   14  A    between atoms: O4_37  and  O5_38 
ROOT
HETATM    1  C3  UNL     1     -10.235  -8.680 -12.403  1.00  0.00     0.090 C 
HETATM    2  C8  UNL     1     -10.305  -9.211 -13.813  1.00  0.00     0.067 C 
HETATM    3  C9  UNL     1     -11.331 -10.264 -14.038  1.00  0.00     0.170 C 
HETATM    4  O2  UNL     1     -11.445 -11.200 -13.008  1.00  0.00    -0.390 OA
HETATM    5  C10 UNL     1     -11.743 -10.584 -11.800  1.00  0.00     0.180 C 
HETATM    6  C11 UNL     1     -10.485  -9.782 -11.446  1.00  0.00     0.084 C 
ENDROOT
BRANCH   1   7
HETATM    7  O1  UNL     1      -8.929  -8.196 -12.211  1.00  0.00    -0.376 OA
BRANCH   7   8
HETATM    8  C2  UNL     1      -8.221  -7.980 -13.355  1.00  0.00     0.196 C 
BRANCH   8   9
HETATM    9  C1  UNL     1      -6.762  -7.611 -13.053  1.00  0.00     0.255 C 
BRANCH   9  10
HETATM   10  N1  UNL     1      -6.514  -6.234 -13.110  1.00  0.00    -0.077 N 
ATOM     11  H13 UNL     1      -7.046  -5.801 -13.866  1.00  0.00     0.274 HD
ATOM     12  H12 UNL     1      -6.935  -5.757 -12.313  1.00  0.00     0.274 HD
ATOM     13  H11 UNL     1      -5.523  -6.004 -13.187  1.00  0.00     0.274 HD
ENDBRANCH   9  10
ENDBRANCH   8   9
ENDBRANCH   7   8
ENDBRANCH   1   7
BRANCH   1  14
HETATM   14  C4  UNL     1     -11.241  -7.569 -12.266  1.00  0.00     0.187 C 
BRANCH  14  15
HETATM   15  N2  UNL     1     -11.527  -7.076 -10.973  1.00  0.00    -0.174 N 
HETATM   16  C5  UNL     1     -12.529  -7.353 -10.088  1.00  0.00     0.218 A 
HETATM   17  N3  UNL     1     -12.380  -6.679  -8.941  1.00  0.00    -0.281 N 
HETATM   18  N4  UNL     1     -11.311  -5.968  -9.049  1.00  0.00    -0.131 N 
ATOM     19  H3  UNL     1     -12.999  -6.722  -8.130  1.00  0.00     0.188 HD
HETATM   20  C6  UNL     1     -10.759  -6.174 -10.264  1.00  0.00     0.702 A 
ATOM     21  H4  UNL     1     -10.940  -5.346  -8.330  1.00  0.00     0.205 HD
BRANCH  20  22
HETATM   22  N5  UNL     1      -9.606  -5.506 -10.742  1.00  0.00    -0.164 N 
HETATM   23  C7  UNL     1      -8.515  -5.481 -10.090  1.00  0.00     0.215 C 
HETATM   24  N6  UNL     1      -8.402  -6.128  -8.843  1.00  0.00    -0.066 NA
HETATM   25  N7  UNL     1      -7.365  -4.790 -10.616  1.00  0.00    -0.066 NA
ATOM     26  H5  UNL     1      -9.651  -5.029 -11.643  1.00  0.00     0.186 HD
ENDBRANCH  20  22
ENDBRANCH  14  15
ENDBRANCH   1  14
BRANCH   6  27
HETATM   27  C12 UNL     1      -9.411 -10.697 -11.086  1.00  0.00     0.071 C 
BRANCH  27  28
HETATM   28  N8  UNL     1      -8.277 -10.305 -10.343  1.00  0.00    -0.369 N 
ATOM     29  H8  UNL     1      -8.400  -9.812  -9.458  1.00  0.00     0.165 HD
BRANCH  28  30
HETATM   30  C13 UNL     1      -6.927 -10.598 -10.826  1.00  0.00     0.031 A 
HETATM   31  C14 UNL     1      -6.804 -11.250 -12.025  1.00  0.00     0.030 A 
HETATM   32  C15 UNL     1      -5.528 -11.532 -12.483  1.00  0.00     0.019 A 
HETATM   33  C16 UNL     1      -4.416 -11.165 -11.754  1.00  0.00     0.025 A 
HETATM   34  C17 UNL     1      -4.572 -10.508 -10.549  1.00  0.00     0.019 A 
HETATM   35  C18 UNL     1      -5.834 -10.236 -10.105  1.00  0.00     0.030 A 
BRANCH  33  36
HETATM   36  P1  UNL     1      -2.737 -11.537 -12.361  1.00  0.00     0.239 P 
BRANCH  36  37
HETATM   37  O3  UNL     1      -2.861 -12.512 -13.815  1.00  0.00    -0.344 OA
ATOM     38  H3  UNL     1      -2.826 -13.430 -13.574  1.00  0.00     0.217 HD
ENDBRANCH  36  37
BRANCH  36  39
HETATM   39  O4  UNL     1      -1.770 -12.317 -11.183  1.00  0.00    -0.181 OA
BRANCH  39  40
HETATM   40  O5  UNL     1      -2.214 -13.511 -10.857  1.00  0.00    -0.244 OA
ATOM     41  H5  UNL     1      -1.986 -13.765  -9.970  1.00  0.00     0.254 HD
ENDBRANCH  39  40
ENDBRANCH  36  39
ENDBRANCH  33  36
ENDBRANCH  28  30
ENDBRANCH  27  28
ENDBRANCH   6  27
TORSDOF 14
ENDMDL
MODEL 2
REMARK VINA RESULT: -7.629910264      1.124      1.534
REMARK  14 active torsions:
REMARK  status: ('A' for Active; 'I' for Inactive)
REMARK    1  A    between atoms: N1_1  and  C1_5 
REMARK    2  A    between atoms: C1_5  and  C2_6 
REMARK    3  A    between atoms: C2_6  and  O1_7 
REMARK    4  A    between atoms: O1_7  and  C3_8 
REMARK    5  A    between atoms: C3_8  and  C4_9 
REMARK    6  A    between atoms: C4_9  and  N2_10 
REMARK    7  A    between atoms: C6_16  and  N5_17 
REMARK    8  A    between atoms: C11_26  and  C12_27 
REMARK    9  A    between atoms: C12_27  and  N8_28 
REMARK   10  A    between atoms: N8_28  and  C13_30 
REMARK   11  A    between atoms: C16_33  and  P1_34 
REMARK   12  A    between atoms: P1_34  and  O3_35 
REMARK   13  A    between atoms: P1_34  and  O4_37 
REMARK   14  A    between atoms: O4_37  and  O5_38 
ROOT
HETATM    1  C3  UNL     1     -10.287  -8.279 -11.550  1.00  0.00     0.090 C 
HETATM    2  C8  UNL     1     -10.803  -9.445 -12.355  1.00  0.00     0.067 C 
HETATM    3  C9  UNL     1     -11.739 -10.345 -11.630  1.00  0.00     0.170 C 
HETATM    4  O2  UNL     1     -11.394 -10.601 -10.301  1.00  0.00    -0.390 OA
HETATM    5  C10 UNL     1     -11.300  -9.425  -9.569  1.00  0.00     0.180 C 
HETATM    6  C11 UNL     1     -10.078  -8.700 -10.145  1.00  0.00     0.084 C 
ENDROOT
BRANCH   1   7
HETATM    7  O1  UNL     1      -9.048  -7.913 -12.106  1.00  0.00    -0.376 OA
BRANCH   7   8
HETATM    8  C2  UNL     1      -8.829  -8.365 -13.372  1.00  0.00     0.196 C 
BRANCH   8   9
HETATM    9  C1  UNL     1      -7.333  -8.369 -13.718  1.00  0.00     0.255 C 
BRANCH   9  10
HETATM   10  N1  UNL     1      -6.529  -7.824 -12.709  1.00  0.00    -0.077 N 
ATOM     11  H13 UNL     1      -6.992  -7.030 -12.265  1.00  0.00     0.274 HD
ATOM     12  H12 UNL     1      -6.473  -8.455 -11.909  1.00  0.00     0.274 HD
ATOM     13  H11 UNL     1      -5.596  -7.565 -13.031  1.00  0.00     0.274 HD
ENDBRANCH   9  10
ENDBRANCH   8   9
ENDBRANCH   7   8
ENDBRANCH   1   7
BRANCH   1  14
HETATM   14  C4  UNL     1     -11.276  -7.151 -11.665  1.00  0.00     0.187 C 
BRANCH  14  15
HETATM   15  N2  UNL     1     -11.278  -6.153 -10.665  1.00  0.00    -0.174 N 
HETATM   16  C5  UNL     1     -12.124  -5.901  -9.623  1.00  0.00     0.218 A 
HETATM   17  N3  UNL     1     -11.710  -4.864  -8.885  1.00  0.00    -0.281 N 
HETATM   18  N4  UNL     1     -10.618  -4.427  -9.414  1.00  0.00    -0.131 N 
ATOM     19  H3  UNL     1     -12.173  -4.489  -8.056  1.00  0.00     0.188 HD
HETATM   20  C6  UNL     1     -10.317  -5.176 -10.496  1.00  0.00     0.702 A 
ATOM     21  H4  UNL     1     -10.069  -3.640  -9.069  1.00  0.00     0.205 HD
BRANCH  20  22
HETATM   22  N5  UNL     1      -9.214  -4.938 -11.352  1.00  0.00    -0.164 N 
HETATM   23  C7  UNL     1      -8.014  -5.144 -10.987  1.00  0.00     0.215 C 
HETATM   24  N6  UNL     1      -7.722  -5.627  -9.696  1.00  0.00    -0.066 NA
HETATM   25  N7  UNL     1      -6.922  -4.887 -11.892  1.00  0.00    -0.066 NA
ATOM     26  H5  UNL     1      -9.389  -4.590 -12.294  1.00  0.00     0.186 HD
ENDBRANCH  20  22
ENDBRANCH  14  15
ENDBRANCH   1  14
BRANCH   6  27
HETATM   27  C12 UNL     1      -8.866  -9.413  -9.768  1.00  0.00     0.071 C 
BRANCH  27  28
HETATM   28  N8  UNL     1      -8.476 -10.638 -10.350  1.00  0.00    -0.369 N 
ATOM     29  H8  UNL     1      -9.153 -11.398 -10.428  1.00  0.00     0.165 HD
BRANCH  28  30
HETATM   30  C13 UNL     1      -7.112 -10.833 -10.842  1.00  0.00     0.031 A 
HETATM   31  C14 UNL     1      -6.085 -10.292 -10.113  1.00  0.00     0.030 A 
HETATM   32  C15 UNL     1      -4.793 -10.471 -10.577  1.00  0.00     0.019 A 
HETATM   33  C16 UNL     1      -4.549 -11.174 -11.738  1.00  0.00     0.025 A 
HETATM   34  C17 UNL     1      -5.604 -11.709 -12.452  1.00  0.00     0.019 A 
HETATM   35  C18 UNL     1      -6.875 -11.525 -11.986  1.00  0.00     0.030 A 
BRANCH  33  36
HETATM   36  P1  UNL     1      -2.846 -11.409 -12.347  1.00  0.00     0.239 P 
BRANCH  36  37
HETATM   37  O3  UNL     1      -2.898 -12.329 -13.841  1.00  0.00    -0.344 OA
ATOM     38  H3  UNL     1      -3.706 -12.827 -13.867  1.00  0.00     0.217 HD
ENDBRANCH  36  37
BRANCH  36  39
HETATM   39  O4  UNL     1      -1.835 -12.170 -11.195  1.00  0.00    -0.181 OA
BRANCH  39  40
HETATM   40  O5  UNL     1      -2.209 -13.399 -10.911  1.00  0.00    -0.244 OA
ATOM     41  H5  UNL     1      -2.996 -13.436 -10.380  1.00  0.00     0.254 HD
ENDBRANCH  39  40
ENDBRANCH  36  39
ENDBRANCH  33  36
ENDBRANCH  28  30
ENDBRANCH  27  28
ENDBRANCH   6  27
TORSDOF 14
ENDMDL
MODEL 3
REMARK VINA RESULT: -7.245825763      2.206      3.132
REMARK  14 active torsions:
REMARK  status: ('A' for Active; 'I' for Inactive)
REMARK    1  A    between atoms: N1_1  and  C1_5 
REMARK    2  A    between atoms: C1_5  and  C2_6 
REMARK    3  A    between atoms: C2_6  and  O1_7 
REMARK    4  A    between atoms: O1_7  and  C3_8 
REMARK    5  A    between atoms: C3_8  and  C4_9 
REMARK    6  A    between atoms: C4_9  and  N2_10 
REMARK    7  A    between atoms: C6_16  and  N5_17 
REMARK    8  A    between atoms: C11_26  and  C12_27 
REMARK    9  A    between atoms: C12_27  and  N8_28 
REMARK   10  A    between atoms: N8_28  and  C13_30 
REMARK   11  A    between atoms: C16_33  and  P1_34 
REMARK   12  A    between atoms: P1_34  and  O3_35 
REMARK   13  A    between atoms: P1_34  and  O4_37 
REMARK   14  A    between atoms: O4_37  and  O5_38 
ROOT
HETATM    1  C3  UNL     1     -11.063  -8.306 -12.679  1.00  0.00     0.090 C 
HETATM    2  C8  UNL     1     -11.182  -9.809 -12.665  1.00  0.00     0.067 C 
HETATM    3  C9  UNL     1     -10.591 -10.476 -11.474  1.00  0.00     0.170 C 
HETATM    4  O2  UNL     1      -9.376  -9.937 -11.044  1.00  0.00    -0.390 OA
HETATM    5  C10 UNL     1      -9.503  -8.587 -10.742  1.00  0.00     0.180 C 
HETATM    6  C11 UNL     1      -9.764  -7.906 -12.091  1.00  0.00     0.084 C 
ENDROOT
BRANCH   1   7
HETATM    7  O1  UNL     1     -11.097  -7.904 -14.026  1.00  0.00    -0.376 OA
BRANCH   7   8
HETATM    8  C2  UNL     1     -11.557  -8.846 -14.896  1.00  0.00     0.196 C 
BRANCH   8   9
HETATM    9  C1  UNL     1     -12.562  -8.250 -15.892  1.00  0.00     0.255 C 
BRANCH   9  10
HETATM   10  N1  UNL     1     -11.985  -7.897 -17.119  1.00  0.00    -0.077 N 
ATOM     11  H13 UNL     1     -12.371  -7.017 -17.461  1.00  0.00     0.274 HD
ATOM     12  H12 UNL     1     -11.012  -7.617 -16.994  1.00  0.00     0.274 HD
ATOM     13  H11 UNL     1     -12.064  -8.627 -17.827  1.00  0.00     0.274 HD
ENDBRANCH   9  10
ENDBRANCH   8   9
ENDBRANCH   7   8
ENDBRANCH   1   7
BRANCH   1  14
HETATM   14  C4  UNL     1     -12.230  -7.733 -11.922  1.00  0.00     0.187 C 
BRANCH  14  15
HETATM   15  N2  UNL     1     -12.642  -6.414 -12.217  1.00  0.00    -0.174 N 
HETATM   16  C5  UNL     1     -13.593  -5.918 -13.062  1.00  0.00     0.218 A 
HETATM   17  N3  UNL     1     -13.681  -4.584 -12.986  1.00  0.00    -0.281 N 
HETATM   18  N4  UNL     1     -12.814  -4.191 -12.116  1.00  0.00    -0.131 N 
ATOM     19  H3  UNL     1     -14.317  -3.989 -13.518  1.00  0.00     0.188 HD
HETATM   20  C6  UNL     1     -12.159  -5.264 -11.624  1.00  0.00     0.702 A 
ATOM     21  H4  UNL     1     -12.649  -3.223 -11.844  1.00  0.00     0.205 HD
BRANCH  20  22
HETATM   22  N5  UNL     1     -11.098  -5.194 -10.689  1.00  0.00    -0.164 N 
HETATM   23  C7  UNL     1     -11.231  -4.652  -9.547  1.00  0.00     0.215 C 
HETATM   24  N6  UNL     1     -12.462  -4.091  -9.151  1.00  0.00    -0.066 NA
HETATM   25  N7  UNL     1     -10.123  -4.603  -8.628  1.00  0.00    -0.066 NA
ATOM     26  H5  UNL     1     -10.193  -5.592 -10.942  1.00  0.00     0.186 HD
ENDBRANCH  20  22
ENDBRANCH  14  15
ENDBRANCH   1  14
BRANCH   6  27
HETATM   27  C12 UNL     1      -8.553  -7.944 -12.898  1.00  0.00     0.071 C 
BRANCH  27  28
HETATM   28  N8  UNL     1      -8.099  -9.106 -13.558  1.00  0.00    -0.369 N 
ATOM     29  H8  UNL     1      -8.666  -9.519 -14.299  1.00  0.00     0.165 HD
BRANCH  28  30
HETATM   30  C13 UNL     1      -6.825  -9.726 -13.192  1.00  0.00     0.031 A 
HETATM   31  C14 UNL     1      -5.725  -8.916 -13.088  1.00  0.00     0.030 A 
HETATM   32  C15 UNL     1      -4.517  -9.500 -12.745  1.00  0.00     0.019 A 
HETATM   33  C16 UNL     1      -4.427 -10.856 -12.514  1.00  0.00     0.025 A 
HETATM   34  C17 UNL     1      -5.554 -11.648 -12.624  1.00  0.00     0.019 A 
HETATM   35  C18 UNL     1      -6.740 -11.062 -12.964  1.00  0.00     0.030 A 
BRANCH  33  36
HETATM   36  P1  UNL     1      -2.835 -11.622 -12.061  1.00  0.00     0.239 P 
BRANCH  36  37
HETATM   37  O3  UNL     1      -2.769 -13.240 -12.739  1.00  0.00    -0.344 OA
ATOM     38  H3  UNL     1      -1.875 -13.430 -12.996  1.00  0.00     0.217 HD
ENDBRANCH  36  37
BRANCH  36  39
HETATM   39  O4  UNL     1      -2.580 -11.658 -10.368  1.00  0.00    -0.181 OA
BRANCH  39  40
HETATM   40  O5  UNL     1      -2.040 -12.782  -9.951  1.00  0.00    -0.244 OA
ATOM     41  H5  UNL     1      -1.408 -12.655  -9.253  1.00  0.00     0.254 HD
ENDBRANCH  39  40
ENDBRANCH  36  39
ENDBRANCH  33  36
ENDBRANCH  28  30
ENDBRANCH  27  28
ENDBRANCH   6  27
TORSDOF 14
ENDMDL
MODEL 4
REMARK VINA RESULT: -7.165303441      1.712      2.495
REMARK  14 active torsions:
REMARK  status: ('A' for Active; 'I' for Inactive)
REMARK    1  A    between atoms: N1_1  and  C1_5 
REMARK    2  A    between atoms: C1_5  and  C2_6 
REMARK    3  A    between atoms: C2_6  and  O1_7 
REMARK    4  A    between atoms: O1_7  and  C3_8 
REMARK    5  A    between atoms: C3_8  and  C4_9 
REMARK    6  A    between atoms: C4_9  and  N2_10 
REMARK    7  A    between atoms: C6_16  and  N5_17 
REMARK    8  A    between atoms: C11_26  and  C12_27 
REMARK    9  A    between atoms: C12_27  and  N8_28 
REMARK   10  A    between atoms: N8_28  and  C13_30 
REMARK   11  A    between atoms: C16_33  and  P1_34 
REMARK   12  A    between atoms: P1_34  and  O3_35 
REMARK   13  A    between atoms: P1_34  and  O4_37 
REMARK   14  A    between atoms: O4_37  and  O5_38 
ROOT
HETATM    1  C3  UNL     1      -9.920  -7.662 -11.002  1.00  0.00     0.090 C 
HETATM    2  C8  UNL     1      -9.729  -8.043 -12.448  1.00  0.00     0.067 C 
HETATM    3  C9  UNL     1      -9.869  -9.495 -12.740  1.00  0.00     0.170 C 
HETATM    4  O2  UNL     1      -9.298 -10.341 -11.786  1.00  0.00    -0.390 OA
HETATM    5  C10 UNL     1      -9.840 -10.118 -10.527  1.00  0.00     0.180 C 
HETATM    6  C11 UNL     1      -9.354  -8.719 -10.132  1.00  0.00     0.084 C 
ENDROOT
BRANCH   1   7
HETATM    7  O1  UNL     1      -9.206  -6.469 -10.795  1.00  0.00    -0.376 OA
BRANCH   7   8
HETATM    8  C2  UNL     1      -8.793  -5.841 -11.931  1.00  0.00     0.196 C 
BRANCH   8   9
HETATM    9  C1  UNL     1      -7.541  -4.988 -11.679  1.00  0.00     0.255 C 
BRANCH   9  10
HETATM   10  N1  UNL     1      -7.209  -4.875 -10.323  1.00  0.00    -0.077 N 
ATOM     11  H13 UNL     1      -7.364  -3.923  -9.989  1.00  0.00     0.274 HD
ATOM     12  H12 UNL     1      -7.887  -5.369  -9.742  1.00  0.00     0.274 HD
ATOM     13  H11 UNL     1      -6.260  -5.183 -10.112  1.00  0.00     0.274 HD
ENDBRANCH   9  10
ENDBRANCH   8   9
ENDBRANCH   7   8
ENDBRANCH   1   7
BRANCH   1  14
HETATM   14  C4  UNL     1     -11.390  -7.453 -10.758  1.00  0.00     0.187 C 
BRANCH  14  15
HETATM   15  N2  UNL     1     -11.859  -6.134 -10.560  1.00  0.00    -0.174 N 
HETATM   16  C5  UNL     1     -12.577  -5.288 -11.356  1.00  0.00     0.218 A 
HETATM   17  N3  UNL     1     -12.848  -4.133 -10.736  1.00  0.00    -0.281 N 
HETATM   18  N4  UNL     1     -12.327  -4.196  -9.559  1.00  0.00    -0.131 N 
ATOM     19  H3  UNL     1     -13.371  -3.347 -11.124  1.00  0.00     0.188 HD
HETATM   20  C6  UNL     1     -11.715  -5.390  -9.406  1.00  0.00     0.702 A 
ATOM     21  H4  UNL     1     -12.369  -3.460  -8.854  1.00  0.00     0.205 HD
BRANCH  20  22
HETATM   22  N5  UNL     1     -10.987  -5.774  -8.254  1.00  0.00    -0.164 N 
HETATM   23  C7  UNL     1      -9.970  -5.129  -7.845  1.00  0.00     0.215 C 
HETATM   24  N6  UNL     1      -9.516  -3.984  -8.529  1.00  0.00    -0.066 NA
HETATM   25  N7  UNL     1      -9.260  -5.557  -6.667  1.00  0.00    -0.066 NA
ATOM     26  H5  UNL     1     -11.289  -6.598  -7.733  1.00  0.00     0.186 HD
ENDBRANCH  20  22
ENDBRANCH  14  15
ENDBRANCH   1  14
BRANCH   6  27
HETATM   27  C12 UNL     1      -7.923  -8.758  -9.866  1.00  0.00     0.071 C 
BRANCH  27  28
HETATM   28  N8  UNL     1      -6.946  -8.454 -10.839  1.00  0.00    -0.369 N 
ATOM     29  H8  UNL     1      -6.945  -7.535 -11.282  1.00  0.00     0.165 HD
BRANCH  28  30
HETATM   30  C13 UNL     1      -5.935  -9.441 -11.218  1.00  0.00     0.031 A 
HETATM   31  C14 UNL     1      -5.057  -9.862 -10.254  1.00  0.00     0.030 A 
HETATM   32  C15 UNL     1      -4.097 -10.795 -10.610  1.00  0.00     0.019 A 
HETATM   33  C16 UNL     1      -4.029 -11.283 -11.898  1.00  0.00     0.025 A 
HETATM   34  C17 UNL     1      -4.928 -10.841 -12.849  1.00  0.00     0.019 A 
HETATM   35  C18 UNL     1      -5.871  -9.921 -12.487  1.00  0.00     0.030 A 
BRANCH  33  36
HETATM   36  P1  UNL     1      -2.764 -12.511 -12.365  1.00  0.00     0.239 P 
BRANCH  36  37
HETATM   37  O3  UNL     1      -2.143 -13.269 -10.909  1.00  0.00    -0.344 OA
ATOM     38  H3  UNL     1      -2.456 -12.787 -10.153  1.00  0.00     0.217 HD
ENDBRANCH  36  37
BRANCH  36  39
HETATM   39  O4  UNL     1      -1.494 -11.829 -13.288  1.00  0.00    -0.181 OA
BRANCH  39  40
HETATM   40  O5  UNL     1      -1.713 -11.878 -14.584  1.00  0.00    -0.244 OA
ATOM     41  H5  UNL     1      -1.692 -12.761 -14.932  1.00  0.00     0.254 HD
ENDBRANCH  39  40
ENDBRANCH  36  39
ENDBRANCH  33  36
ENDBRANCH  28  30
ENDBRANCH  27  28
ENDBRANCH   6  27
TORSDOF 14
ENDMDL
MODEL 5
REMARK VINA RESULT: -7.157025412      1.757      3.267
REMARK  14 active torsions:
REMARK  status: ('A' for Active; 'I' for Inactive)
REMARK    1  A    between atoms: N1_1  and  C1_5 
REMARK    2  A    between atoms: C1_5  and  C2_6 
REMARK    3  A    between atoms: C2_6  and  O1_7 
REMARK    4  A    between atoms: O1_7  and  C3_8 
REMARK    5  A    between atoms: C3_8  and  C4_9 
REMARK    6  A    between atoms: C4_9  and  N2_10 
REMARK    7  A    between atoms: C6_16  and  N5_17 
REMARK    8  A    between atoms: C11_26  and  C12_27 
REMARK    9  A    between atoms: C12_27  and  N8_28 
REMARK   10  A    between atoms: N8_28  and  C13_30 
REMARK   11  A    between atoms: C16_33  and  P1_34 
REMARK   12  A    between atoms: P1_34  and  O3_35 
REMARK   13  A    between atoms: P1_34  and  O4_37 
REMARK   14  A    between atoms: O4_37  and  O5_38 
ROOT
HETATM    1  C3  UNL     1      -9.856  -8.493 -11.086  1.00  0.00     0.090 C 
HETATM    2  C8  UNL     1     -11.282  -8.951 -10.908  1.00  0.00     0.067 C 
HETATM    3  C9  UNL     1     -11.998  -8.346  -9.754  1.00  0.00     0.170 C 
HETATM    4  O2  UNL     1     -11.232  -8.213  -8.594  1.00  0.00    -0.390 OA
HETATM    5  C10 UNL     1     -10.098  -7.446  -8.825  1.00  0.00     0.180 C 
HETATM    6  C11 UNL     1      -9.229  -8.299  -9.758  1.00  0.00     0.084 C 
ENDROOT
BRANCH   1   7
HETATM    7  O1  UNL     1      -9.178  -9.520 -11.765  1.00  0.00    -0.376 OA
BRANCH   7   8
HETATM    8  C2  UNL     1      -9.788  -9.960 -12.901  1.00  0.00     0.196 C 
BRANCH   8   9
HETATM    9  C1  UNL     1      -8.792 -10.649 -13.844  1.00  0.00     0.255 C 
BRANCH   9  10
HETATM   10  N1  UNL     1      -8.422 -11.933 -13.421  1.00  0.00    -0.077 N 
ATOM     11  H13 UNL     1      -9.218 -12.570 -13.458  1.00  0.00     0.274 HD
ATOM     12  H12 UNL     1      -7.815 -12.380 -14.108  1.00  0.00     0.274 HD
ATOM     13  H11 UNL     1      -7.992 -11.945 -12.496  1.00  0.00     0.274 HD
ENDBRANCH   9  10
ENDBRANCH   8   9
ENDBRANCH   7   8
ENDBRANCH   1   7
BRANCH   1  14
HETATM   14  C4  UNL     1      -9.864  -7.228 -11.901  1.00  0.00     0.187 C 
BRANCH  14  15
HETATM   15  N2  UNL     1      -8.629  -6.604 -12.186  1.00  0.00    -0.174 N 
HETATM   16  C5  UNL     1      -7.607  -6.937 -13.028  1.00  0.00     0.218 A 
HETATM   17  N3  UNL     1      -6.635  -6.016 -13.019  1.00  0.00    -0.281 N 
HETATM   18  N4  UNL     1      -6.990  -5.091 -12.195  1.00  0.00    -0.131 N 
ATOM     19  H3  UNL     1      -5.773  -6.043 -13.564  1.00  0.00     0.188 HD
HETATM   20  C6  UNL     1      -8.191  -5.403 -11.665  1.00  0.00     0.702 A 
ATOM     21  H4  UNL     1      -6.448  -4.254 -11.978  1.00  0.00     0.205 HD
BRANCH  20  22
HETATM   22  N5  UNL     1      -8.854  -4.635 -10.676  1.00  0.00    -0.164 N 
HETATM   23  C7  UNL     1      -8.319  -4.362  -9.555  1.00  0.00     0.215 C 
HETATM   24  N6  UNL     1      -7.023  -4.818  -9.241  1.00  0.00    -0.066 NA
HETATM   25  N7  UNL     1      -9.031  -3.577  -8.579  1.00  0.00    -0.066 NA
ATOM     26  H5  UNL     1      -9.793  -4.287 -10.871  1.00  0.00     0.186 HD
ENDBRANCH  20  22
ENDBRANCH  14  15
ENDBRANCH   1  14
BRANCH   6  27
HETATM   27  C12 UNL     1      -8.704  -9.441  -9.023  1.00  0.00     0.071 C 
BRANCH  27  28
HETATM   28  N8  UNL     1      -7.376  -9.512  -8.549  1.00  0.00    -0.369 N 
ATOM     29  H8  UNL     1      -7.168  -9.228  -7.591  1.00  0.00     0.165 HD
BRANCH  28  30
HETATM   30  C13 UNL     1      -6.297  -9.988  -9.413  1.00  0.00     0.031 A 
HETATM   31  C14 UNL     1      -5.042 -10.094  -8.871  1.00  0.00     0.030 A 
HETATM   32  C15 UNL     1      -4.017 -10.541  -9.688  1.00  0.00     0.019 A 
HETATM   33  C16 UNL     1      -4.253 -10.869 -11.006  1.00  0.00     0.025 A 
HETATM   34  C17 UNL     1      -5.529 -10.753 -11.524  1.00  0.00     0.019 A 
HETATM   35  C18 UNL     1      -6.533 -10.311 -10.711  1.00  0.00     0.030 A 
BRANCH  33  36
HETATM   36  P1  UNL     1      -2.901 -11.458 -12.079  1.00  0.00     0.239 P 
BRANCH  36  37
HETATM   37  O3  UNL     1      -3.586 -12.398 -13.393  1.00  0.00    -0.344 OA
ATOM     38  H3  UNL     1      -4.442 -12.047 -13.609  1.00  0.00     0.217 HD
ENDBRANCH  36  37
BRANCH  36  39
HETATM   39  O4  UNL     1      -1.731 -12.368 -11.222  1.00  0.00    -0.181 OA
BRANCH  39  40
HETATM   40  O5  UNL     1      -2.195 -13.511 -10.769  1.00  0.00    -0.244 OA
ATOM     41  H5  UNL     1      -1.766 -14.267 -11.153  1.00  0.00     0.254 HD
ENDBRANCH  39  40
ENDBRANCH  36  39
ENDBRANCH  33  36
ENDBRANCH  28  30
ENDBRANCH  27  28
ENDBRANCH   6  27
TORSDOF 14
ENDMDL
