MODEL 1
REMARK VINA RESULT: -7.416228536      0.000      0.000
REMARK  15 active torsions:
REMARK  status: ('A' for Active; 'I' for Inactive)
REMARK    1  A    between atoms: C2_2  and  N1_3 
REMARK    2  A    between atoms: C2_2  and  C3_7 
REMARK    3  A    between atoms: C3_7  and  C4_8 
REMARK       I    between atoms: C4_8  and  N2_10 
REMARK    4  A    between atoms: N2_10  and  C5_12 
REMARK    5  A    between atoms: C5_12  and  C6_13 
REMARK    6  A    between atoms: C8_19  and  C9_20 
REMARK    7  A    between atoms: C9_20  and  N6_34 
REMARK    8  A    between atoms: N5_21  and  C10_23 
REMARK    9  A    between atoms: C13_26  and  P1_27 
REMARK   10  A    between atoms: P1_27  and  O2_28 
REMARK   11  A    between atoms: P1_27  and  O3_30 
REMARK       I    between atoms: N6_34  and  C16_36 
REMARK       I    between atoms: C16_36  and  N7_38 
REMARK   12  A    between atoms: N7_38  and  C17_40 
REMARK   13  A    between atoms: C17_40  and  C18_41 
REMARK   14  A    between atoms: C18_41  and  C19_42 
REMARK   15  A    between atoms: C19_42  and  O5_43 
ROOT
HETATM    1  C9  UNL     1     -10.050  -6.354 -10.937  1.00  0.00     0.138 C 
HETATM    2  N5  UNL     1     -10.954  -7.207 -11.363  1.00  0.00    -0.340 N 
ATOM      3  H5  UNL     1     -10.779  -7.812 -12.165  1.00  0.00     0.167 HD
ENDROOT
BRANCH   1   4
HETATM    4  C8  UNL     1      -8.793  -6.313 -11.662  1.00  0.00     0.095 A 
HETATM    5  C7  UNL     1      -8.122  -5.134 -11.773  1.00  0.00     0.140 A 
HETATM    6  N4  UNL     1      -6.952  -5.105 -12.443  1.00  0.00    -0.308 N 
HETATM    7  N3  UNL     1      -6.492  -6.213 -12.968  1.00  0.00    -0.288 N 
ATOM      8  H4  UNL     1      -6.433  -4.232 -12.539  1.00  0.00     0.186 HD
HETATM    9  C6  UNL     1      -7.127  -7.373 -12.873  1.00  0.00     0.114 A 
ATOM     10  H3  UNL     1      -5.606  -6.183 -13.472  1.00  0.00     0.188 HD
HETATM   11  N8  UNL     1      -8.300  -7.429 -12.208  1.00  0.00    -0.339 N 
ATOM     12  H8  UNL     1      -8.804  -8.313 -12.122  1.00  0.00     0.167 HD
BRANCH   9  13
HETATM   13  C5  UNL     1      -6.639  -8.634 -13.461  1.00  0.00     0.200 C 
BRANCH  13  14
HETATM   14  N2  UNL     1      -5.363  -8.986 -12.855  1.00  0.00    -0.354 N 
HETATM   15  C4  UNL     1      -4.939 -10.331 -12.734  1.00  0.00     0.219 C 
HETATM   16  O1  UNL     1      -5.637 -11.294 -13.139  1.00  0.00    -0.274 OA
ATOM     17  H2  UNL     1      -4.757  -8.242 -12.508  1.00  0.00     0.162 HD
BRANCH  15  18
HETATM   18  C3  UNL     1      -3.630 -10.617 -12.107  1.00  0.00     0.135 C 
BRANCH  18  19
HETATM   19  C2  UNL     1      -3.225 -12.068 -12.355  1.00  0.00     0.188 C 
HETATM   20  C1  UNL     1      -2.291 -12.552 -11.303  1.00  0.00     0.040 C 
BRANCH  19  21
HETATM   21  N1  UNL     1      -2.664 -12.160 -13.689  1.00  0.00    -0.075 N 
ATOM     22  H13 UNL     1      -2.650 -11.247 -14.144  1.00  0.00     0.274 HD
ATOM     23  H12 UNL     1      -1.661 -12.340 -13.652  1.00  0.00     0.274 HD
ATOM     24  H11 UNL     1      -3.138 -12.851 -14.270  1.00  0.00     0.274 HD
ENDBRANCH  19  21
ENDBRANCH  18  19
ENDBRANCH  15  18
ENDBRANCH  13  14
ENDBRANCH   9  13
ENDBRANCH   1   4
BRANCH   1  25
HETATM   25  N6  UNL     1     -10.307  -5.533  -9.831  1.00  0.00    -0.293 N 
HETATM   26  C16 UNL     1      -9.804  -5.810  -8.551  1.00  0.00     0.321 C 
HETATM   27  O4  UNL     1      -9.104  -6.816  -8.352  1.00  0.00    -0.247 OA
HETATM   28  N7  UNL     1     -10.081  -4.949  -7.446  1.00  0.00    -0.343 N 
ATOM     29  H7  UNL     1     -10.663  -4.128  -7.611  1.00  0.00     0.164 HD
ATOM     30  H6  UNL     1     -10.881  -4.701  -9.962  1.00  0.00     0.172 HD
BRANCH  28  31
HETATM   31  C17 UNL     1      -9.588  -5.170  -6.121  1.00  0.00     0.126 C 
BRANCH  31  32
HETATM   32  C18 UNL     1      -9.042  -3.914  -5.504  1.00  0.00     0.046 C 
BRANCH  32  33
HETATM   33  C19 UNL     1      -7.819  -3.481  -6.312  1.00  0.00     0.165 C 
BRANCH  33  34
HETATM   34  O5  UNL     1      -8.188  -2.688  -7.390  1.00  0.00    -0.401 OA
ATOM     35  H5  UNL     1      -8.400  -3.220  -8.148  1.00  0.00     0.209 HD
ENDBRANCH  33  34
ENDBRANCH  32  33
ENDBRANCH  31  32
ENDBRANCH  28  31
ENDBRANCH   1  25
BRANCH   2  36
HETATM   36  C10 UNL     1     -12.192  -7.251 -10.655  1.00  0.00     0.033 A 
HETATM   37  C11 UNL     1     -12.386  -8.171  -9.638  1.00  0.00     0.030 A 
HETATM   38  C12 UNL     1     -13.576  -8.221  -8.951  1.00  0.00     0.019 A 
HETATM   39  C13 UNL     1     -14.602  -7.358  -9.261  1.00  0.00     0.022 A 
HETATM   40  C14 UNL     1     -14.414  -6.434 -10.279  1.00  0.00     0.019 A 
HETATM   41  C15 UNL     1     -13.228  -6.373 -10.973  1.00  0.00     0.030 A 
BRANCH  39  42
HETATM   42  P1  UNL     1     -16.173  -7.433  -8.348  1.00  0.00     0.200 P 
BRANCH  42  43
HETATM   43  O2  UNL     1     -17.036  -5.956  -8.626  1.00  0.00    -0.346 OA
ATOM     44  H2  UNL     1     -17.846  -6.164  -9.075  1.00  0.00     0.217 HD
ENDBRANCH  42  43
BRANCH  42  45
HETATM   45  O3  UNL     1     -15.825  -7.613  -6.660  1.00  0.00    -0.346 OA
ATOM     46  H3  UNL     1     -15.644  -6.756  -6.294  1.00  0.00     0.217 HD
ENDBRANCH  42  45
ENDBRANCH  39  42
ENDBRANCH   2  36
TORSDOF 15
ENDMDL
MODEL 2
REMARK VINA RESULT: -7.375259478      2.868      5.068
REMARK  15 active torsions:
REMARK  status: ('A' for Active; 'I' for Inactive)
REMARK    1  A    between atoms: C2_2  and  N1_3 
REMARK    2  A    between atoms: C2_2  and  C3_7 
REMARK    3  A    between atoms: C3_7  and  C4_8 
REMARK       I    between atoms: C4_8  and  N2_10 
REMARK    4  A    between atoms: N2_10  and  C5_12 
REMARK    5  A    between atoms: C5_12  and  C6_13 
REMARK    6  A    between atoms: C8_19  and  C9_20 
REMARK    7  A    between atoms: C9_20  and  N6_34 
REMARK    8  A    between atoms: N5_21  and  C10_23 
REMARK    9  A    between atoms: C13_26  and  P1_27 
REMARK   10  A    between atoms: P1_27  and  O2_28 
REMARK   11  A    between atoms: P1_27  and  O3_30 
REMARK       I    between atoms: N6_34  and  C16_36 
REMARK       I    between atoms: C16_36  and  N7_38 
REMARK   12  A    between atoms: N7_38  and  C17_40 
REMARK   13  A    between atoms: C17_40  and  C18_41 
REMARK   14  A    between atoms: C18_41  and  C19_42 
REMARK   15  A    between atoms: C19_42  and  O5_43 
ROOT
HETATM    1  C9  UNL     1      -8.348  -5.075 -10.031  1.00  0.00     0.138 C 
HETATM    2  N5  UNL     1      -7.540  -5.136  -8.996  1.00  0.00    -0.340 N 
ATOM      3  H5  UNL     1      -6.609  -5.546  -9.071  1.00  0.00     0.167 HD
ENDROOT
BRANCH   1   4
HETATM    4  C8  UNL     1      -7.853  -5.619 -11.282  1.00  0.00     0.095 A 
HETATM    5  C7  UNL     1      -7.620  -4.782 -12.331  1.00  0.00     0.140 A 
HETATM    6  N4  UNL     1      -7.155  -5.294 -13.488  1.00  0.00    -0.308 N 
HETATM    7  N3  UNL     1      -6.938  -6.583 -13.573  1.00  0.00    -0.288 N 
ATOM      8  H4  UNL     1      -6.974  -4.685 -14.287  1.00  0.00     0.186 HD
HETATM    9  C6  UNL     1      -7.157  -7.418 -12.566  1.00  0.00     0.114 A 
ATOM     10  H3  UNL     1      -6.585  -6.962 -14.451  1.00  0.00     0.188 HD
HETATM   11  N8  UNL     1      -7.623  -6.930 -11.396  1.00  0.00    -0.339 N 
ATOM     12  H8  UNL     1      -7.796  -7.555 -10.608  1.00  0.00     0.167 HD
BRANCH   9  13
HETATM   13  C5  UNL     1      -6.932  -8.873 -12.634  1.00  0.00     0.200 C 
BRANCH  13  14
HETATM   14  N2  UNL     1      -5.559  -9.167 -12.251  1.00  0.00    -0.354 N 
HETATM   15  C4  UNL     1      -4.957 -10.417 -12.529  1.00  0.00     0.219 C 
HETATM   16  O1  UNL     1      -5.570 -11.342 -13.116  1.00  0.00    -0.274 OA
ATOM     17  H2  UNL     1      -5.015  -8.450 -11.770  1.00  0.00     0.162 HD
BRANCH  15  18
HETATM   18  C3  UNL     1      -3.556 -10.647 -12.112  1.00  0.00     0.135 C 
BRANCH  18  19
HETATM   19  C2  UNL     1      -3.160 -12.102 -12.353  1.00  0.00     0.188 C 
HETATM   20  C1  UNL     1      -2.235 -12.589 -11.294  1.00  0.00     0.040 C 
BRANCH  19  21
HETATM   21  N1  UNL     1      -2.591 -12.202 -13.683  1.00  0.00    -0.075 N 
ATOM     22  H13 UNL     1      -2.686 -11.321 -14.189  1.00  0.00     0.274 HD
ATOM     23  H12 UNL     1      -1.573 -12.260 -13.642  1.00  0.00     0.274 HD
ATOM     24  H11 UNL     1      -2.980 -12.976 -14.221  1.00  0.00     0.274 HD
ENDBRANCH  19  21
ENDBRANCH  18  19
ENDBRANCH  15  18
ENDBRANCH  13  14
ENDBRANCH   9  13
ENDBRANCH   1   4
BRANCH   1  25
HETATM   25  N6  UNL     1      -9.622  -4.505  -9.910  1.00  0.00    -0.293 N 
HETATM   26  C16 UNL     1     -10.780  -5.137 -10.388  1.00  0.00     0.321 C 
HETATM   27  O4  UNL     1     -10.711  -6.243 -10.947  1.00  0.00    -0.247 OA
HETATM   28  N7  UNL     1     -12.065  -4.531 -10.245  1.00  0.00    -0.343 N 
ATOM     29  H7  UNL     1     -12.117  -3.618  -9.793  1.00  0.00     0.164 HD
ATOM     30  H6  UNL     1      -9.711  -3.596  -9.458  1.00  0.00     0.172 HD
BRANCH  28  31
HETATM   31  C17 UNL     1     -13.283  -5.128 -10.699  1.00  0.00     0.126 C 
BRANCH  31  32
HETATM   32  C18 UNL     1     -13.732  -4.566 -12.018  1.00  0.00     0.046 C 
BRANCH  32  33
HETATM   33  C19 UNL     1     -13.754  -5.704 -13.037  1.00  0.00     0.165 C 
BRANCH  33  34
HETATM   34  O5  UNL     1     -12.584  -6.450 -12.978  1.00  0.00    -0.401 OA
ATOM     35  H5  UNL     1     -11.835  -5.896 -12.791  1.00  0.00     0.209 HD
ENDBRANCH  33  34
ENDBRANCH  32  33
ENDBRANCH  31  32
ENDBRANCH  28  31
ENDBRANCH   1  25
BRANCH   2  36
HETATM   36  C10 UNL     1      -8.021  -4.603  -7.763  1.00  0.00     0.033 A 
HETATM   37  C11 UNL     1      -8.967  -5.292  -7.023  1.00  0.00     0.030 A 
HETATM   38  C12 UNL     1      -9.438  -4.785  -5.834  1.00  0.00     0.019 A 
HETATM   39  C13 UNL     1      -8.978  -3.580  -5.356  1.00  0.00     0.022 A 
HETATM   40  C14 UNL     1      -8.031  -2.884  -6.093  1.00  0.00     0.019 A 
HETATM   41  C15 UNL     1      -7.552  -3.381  -7.283  1.00  0.00     0.030 A 
BRANCH  39  42
HETATM   42  P1  UNL     1      -9.608  -2.917  -3.782  1.00  0.00     0.200 P 
BRANCH  42  43
HETATM   43  O2  UNL     1     -11.240  -2.390  -4.028  1.00  0.00    -0.346 OA
ATOM     44  H2  UNL     1     -11.264  -1.444  -3.945  1.00  0.00     0.217 HD
ENDBRANCH  42  43
BRANCH  42  45
HETATM   45  O3  UNL     1      -8.613  -1.581  -3.307  1.00  0.00    -0.346 OA
ATOM     46  H3  UNL     1      -7.764  -1.913  -3.040  1.00  0.00     0.217 HD
ENDBRANCH  42  45
ENDBRANCH  39  42
ENDBRANCH   2  36
TORSDOF 15
ENDMDL
MODEL 3
REMARK VINA RESULT: -7.263886904      4.333      8.692
REMARK  15 active torsions:
REMARK  status: ('A' for Active; 'I' for Inactive)
REMARK    1  A    between atoms: C2_2  and  N1_3 
REMARK    2  A    between atoms: C2_2  and  C3_7 
REMARK    3  A    between atoms: C3_7  and  C4_8 
REMARK       I    between atoms: C4_8  and  N2_10 
REMARK    4  A    between atoms: N2_10  and  C5_12 
REMARK    5  A    between atoms: C5_12  and  C6_13 
REMARK    6  A    between atoms: C8_19  and  C9_20 
REMARK    7  A    between atoms: C9_20  and  N6_34 
REMARK    8  A    between atoms: N5_21  and  C10_23 
REMARK    9  A    between atoms: C13_26  and  P1_27 
REMARK   10  A    between atoms: P1_27  and  O2_28 
REMARK   11  A    between atoms: P1_27  and  O3_30 
REMARK       I    between atoms: N6_34  and  C16_36 
REMARK       I    between atoms: C16_36  and  N7_38 
REMARK   12  A    between atoms: N7_38  and  C17_40 
REMARK   13  A    between atoms: C17_40  and  C18_41 
REMARK   14  A    between atoms: C18_41  and  C19_42 
REMARK   15  A    between atoms: C19_42  and  O5_43 
ROOT
HETATM    1  C9  UNL     1     -10.262  -8.090 -12.663  1.00  0.00     0.138 C 
HETATM    2  N5  UNL     1     -10.877  -7.017 -12.218  1.00  0.00    -0.340 N 
ATOM      3  H5  UNL     1     -11.770  -6.715 -12.608  1.00  0.00     0.167 HD
ENDROOT
BRANCH   1   4
HETATM    4  C8  UNL     1     -10.914  -8.823 -13.733  1.00  0.00     0.095 A 
HETATM    5  C7  UNL     1     -10.893 -10.185 -13.721  1.00  0.00     0.140 A 
HETATM    6  N4  UNL     1     -11.506 -10.859 -14.715  1.00  0.00    -0.308 N 
HETATM    7  N3  UNL     1     -12.106 -10.186 -15.665  1.00  0.00    -0.288 N 
ATOM      8  H4  UNL     1     -11.501 -11.879 -14.727  1.00  0.00     0.186 HD
HETATM    9  C6  UNL     1     -12.140  -8.861 -15.698  1.00  0.00     0.114 A 
ATOM     10  H3  UNL     1     -12.567 -10.704 -16.413  1.00  0.00     0.188 HD
HETATM   11  N8  UNL     1     -11.534  -8.162 -14.715  1.00  0.00    -0.339 N 
ATOM     12  H8  UNL     1     -11.550  -7.142 -14.720  1.00  0.00     0.167 HD
BRANCH   9  13
HETATM   13  C5  UNL     1     -12.799  -8.076 -16.759  1.00  0.00     0.200 C 
BRANCH  13  14
HETATM   14  N2  UNL     1     -13.911  -7.332 -16.186  1.00  0.00    -0.354 N 
HETATM   15  C4  UNL     1     -14.807  -6.589 -16.992  1.00  0.00     0.219 C 
HETATM   16  O1  UNL     1     -14.694  -6.529 -18.241  1.00  0.00    -0.274 OA
ATOM     17  H2  UNL     1     -14.049  -7.346 -15.175  1.00  0.00     0.162 HD
BRANCH  15  18
HETATM   18  C3  UNL     1     -15.915  -5.856 -16.343  1.00  0.00     0.135 C 
BRANCH  18  19
HETATM   19  C2  UNL     1     -15.429  -4.506 -15.820  1.00  0.00     0.188 C 
HETATM   20  C1  UNL     1     -16.565  -3.677 -15.336  1.00  0.00     0.040 C 
BRANCH  19  21
HETATM   21  N1  UNL     1     -14.672  -3.859 -16.874  1.00  0.00    -0.075 N 
ATOM     22  H13 UNL     1     -14.680  -4.417 -17.727  1.00  0.00     0.274 HD
ATOM     23  H12 UNL     1     -15.157  -3.029 -17.216  1.00  0.00     0.274 HD
ATOM     24  H11 UNL     1     -13.717  -3.634 -16.593  1.00  0.00     0.274 HD
ENDBRANCH  19  21
ENDBRANCH  18  19
ENDBRANCH  15  18
ENDBRANCH  13  14
ENDBRANCH   9  13
ENDBRANCH   1   4
BRANCH   1  25
HETATM   25  N6  UNL     1      -9.037  -8.491 -12.114  1.00  0.00    -0.293 N 
HETATM   26  C16 UNL     1      -7.844  -8.499 -12.853  1.00  0.00     0.321 C 
HETATM   27  O4  UNL     1      -7.837  -8.146 -14.043  1.00  0.00    -0.247 OA
HETATM   28  N7  UNL     1      -6.611  -8.910 -12.262  1.00  0.00    -0.343 N 
ATOM     29  H7  UNL     1      -6.623  -9.207 -11.286  1.00  0.00     0.164 HD
ATOM     30  H6  UNL     1      -9.011  -8.789 -11.140  1.00  0.00     0.172 HD
BRANCH  28  31
HETATM   31  C17 UNL     1      -5.361  -8.929 -12.958  1.00  0.00     0.126 C 
BRANCH  31  32
HETATM   32  C18 UNL     1      -4.492 -10.077 -12.529  1.00  0.00     0.046 C 
BRANCH  32  33
HETATM   33  C19 UNL     1      -5.351 -11.341 -12.511  1.00  0.00     0.165 C 
BRANCH  33  34
HETATM   34  O5  UNL     1      -6.141 -11.423 -13.650  1.00  0.00    -0.401 OA
ATOM     35  H5  UNL     1      -6.938 -11.910 -13.478  1.00  0.00     0.209 HD
ENDBRANCH  33  34
ENDBRANCH  32  33
ENDBRANCH  31  32
ENDBRANCH  28  31
ENDBRANCH   1  25
BRANCH   2  36
HETATM   36  C10 UNL     1     -10.241  -6.292 -11.167  1.00  0.00     0.033 A 
HETATM   37  C11 UNL     1      -9.236  -5.382 -11.451  1.00  0.00     0.030 A 
HETATM   38  C12 UNL     1      -8.616  -4.680 -10.444  1.00  0.00     0.019 A 
HETATM   39  C13 UNL     1      -8.982  -4.869  -9.130  1.00  0.00     0.022 A 
HETATM   40  C14 UNL     1      -9.987  -5.779  -8.839  1.00  0.00     0.019 A 
HETATM   41  C15 UNL     1     -10.615  -6.487  -9.838  1.00  0.00     0.030 A 
BRANCH  39  42
HETATM   42  P1  UNL     1      -8.155  -3.936  -7.805  1.00  0.00     0.200 P 
BRANCH  42  43
HETATM   43  O2  UNL     1      -6.666  -3.307  -8.429  1.00  0.00    -0.346 OA
ATOM     44  H2  UNL     1      -6.508  -2.461  -8.028  1.00  0.00     0.217 HD
ENDBRANCH  42  43
BRANCH  42  45
HETATM   45  O3  UNL     1      -7.843  -5.011  -6.482  1.00  0.00    -0.346 OA
ATOM     46  H3  UNL     1      -8.341  -4.718  -5.728  1.00  0.00     0.217 HD
ENDBRANCH  42  45
ENDBRANCH  39  42
ENDBRANCH   2  36
TORSDOF 15
ENDMDL
MODEL 4
REMARK VINA RESULT: -7.244440956      4.554      9.391
REMARK  15 active torsions:
REMARK  status: ('A' for Active; 'I' for Inactive)
REMARK    1  A    between atoms: C2_2  and  N1_3 
REMARK    2  A    between atoms: C2_2  and  C3_7 
REMARK    3  A    between atoms: C3_7  and  C4_8 
REMARK       I    between atoms: C4_8  and  N2_10 
REMARK    4  A    between atoms: N2_10  and  C5_12 
REMARK    5  A    between atoms: C5_12  and  C6_13 
REMARK    6  A    between atoms: C8_19  and  C9_20 
REMARK    7  A    between atoms: C9_20  and  N6_34 
REMARK    8  A    between atoms: N5_21  and  C10_23 
REMARK    9  A    between atoms: C13_26  and  P1_27 
REMARK   10  A    between atoms: P1_27  and  O2_28 
REMARK   11  A    between atoms: P1_27  and  O3_30 
REMARK       I    between atoms: N6_34  and  C16_36 
REMARK       I    between atoms: C16_36  and  N7_38 
REMARK   12  A    between atoms: N7_38  and  C17_40 
REMARK   13  A    between atoms: C17_40  and  C18_41 
REMARK   14  A    between atoms: C18_41  and  C19_42 
REMARK   15  A    between atoms: C19_42  and  O5_43 
ROOT
HETATM    1  C9  UNL     1     -10.134  -6.920 -11.235  1.00  0.00     0.138 C 
HETATM    2  N5  UNL     1      -8.885  -6.560 -11.045  1.00  0.00    -0.340 N 
ATOM      3  H5  UNL     1      -8.645  -5.625 -10.714  1.00  0.00     0.167 HD
ENDROOT
BRANCH   1   4
HETATM    4  C8  UNL     1     -11.154  -5.925 -10.952  1.00  0.00     0.095 A 
HETATM    5  C7  UNL     1     -11.175  -5.314  -9.736  1.00  0.00     0.140 A 
HETATM    6  N4  UNL     1     -12.121  -4.387  -9.483  1.00  0.00    -0.308 N 
HETATM    7  N3  UNL     1     -12.995  -4.099 -10.416  1.00  0.00    -0.288 N 
ATOM      8  H4  UNL     1     -12.156  -3.917  -8.579  1.00  0.00     0.186 HD
HETATM    9  C6  UNL     1     -12.994  -4.680 -11.608  1.00  0.00     0.114 A 
ATOM     10  H3  UNL     1     -13.706  -3.396 -10.217  1.00  0.00     0.188 HD
HETATM   11  N8  UNL     1     -12.057  -5.611 -11.886  1.00  0.00    -0.339 N 
ATOM     12  H8  UNL     1     -12.039  -6.069 -12.798  1.00  0.00     0.167 HD
BRANCH   9  13
HETATM   13  C5  UNL     1     -13.969  -4.383 -12.674  1.00  0.00     0.200 C 
BRANCH  13  14
HETATM   14  N2  UNL     1     -13.950  -5.458 -13.656  1.00  0.00    -0.354 N 
HETATM   15  C4  UNL     1     -14.956  -5.584 -14.644  1.00  0.00     0.219 C 
HETATM   16  O1  UNL     1     -15.918  -4.781 -14.730  1.00  0.00    -0.274 OA
ATOM     17  H2  UNL     1     -13.191  -6.138 -13.631  1.00  0.00     0.162 HD
BRANCH  15  18
HETATM   18  C3  UNL     1     -14.874  -6.700 -15.611  1.00  0.00     0.135 C 
BRANCH  18  19
HETATM   19  C2  UNL     1     -15.175  -6.205 -17.025  1.00  0.00     0.188 C 
HETATM   20  C1  UNL     1     -16.412  -6.834 -17.561  1.00  0.00     0.040 C 
BRANCH  19  21
HETATM   21  N1  UNL     1     -14.012  -6.462 -17.851  1.00  0.00    -0.075 N 
ATOM     22  H13 UNL     1     -14.222  -6.308 -18.837  1.00  0.00     0.274 HD
ATOM     23  H12 UNL     1     -13.303  -5.740 -17.719  1.00  0.00     0.274 HD
ATOM     24  H11 UNL     1     -13.619  -7.391 -17.702  1.00  0.00     0.274 HD
ENDBRANCH  19  21
ENDBRANCH  18  19
ENDBRANCH  15  18
ENDBRANCH  13  14
ENDBRANCH   9  13
ENDBRANCH   1   4
BRANCH   1  25
HETATM   25  N6  UNL     1     -10.447  -8.208 -11.687  1.00  0.00    -0.293 N 
HETATM   26  C16 UNL     1     -10.545  -8.528 -13.050  1.00  0.00     0.321 C 
HETATM   27  O4  UNL     1     -10.358  -7.660 -13.917  1.00  0.00    -0.247 OA
HETATM   28  N7  UNL     1     -10.861  -9.853 -13.477  1.00  0.00    -0.343 N 
ATOM     29  H7  UNL     1     -11.022 -10.562 -12.762  1.00  0.00     0.164 HD
ATOM     30  H6  UNL     1     -10.609  -8.943 -10.999  1.00  0.00     0.172 HD
BRANCH  28  31
HETATM   31  C17 UNL     1     -10.964 -10.245 -14.850  1.00  0.00     0.126 C 
BRANCH  31  32
HETATM   32  C18 UNL     1     -12.225  -9.736 -15.489  1.00  0.00     0.046 C 
BRANCH  32  33
HETATM   33  C19 UNL     1     -11.839  -8.967 -16.752  1.00  0.00     0.165 C 
BRANCH  33  34
HETATM   34  O5  UNL     1     -11.448  -7.670 -16.446  1.00  0.00    -0.401 OA
ATOM     35  H5  UNL     1     -10.787  -7.360 -17.054  1.00  0.00     0.209 HD
ENDBRANCH  33  34
ENDBRANCH  32  33
ENDBRANCH  31  32
ENDBRANCH  28  31
ENDBRANCH   1  25
BRANCH   2  36
HETATM   36  C10 UNL     1      -7.879  -7.533 -11.321  1.00  0.00     0.033 A 
HETATM   37  C11 UNL     1      -7.201  -7.517 -12.529  1.00  0.00     0.030 A 
HETATM   38  C12 UNL     1      -6.231  -8.452 -12.804  1.00  0.00     0.019 A 
HETATM   39  C13 UNL     1      -5.914  -9.426 -11.884  1.00  0.00     0.022 A 
HETATM   40  C14 UNL     1      -6.590  -9.447 -10.673  1.00  0.00     0.019 A 
HETATM   41  C15 UNL     1      -7.562  -8.517 -10.385  1.00  0.00     0.030 A 
BRANCH  39  42
HETATM   42  P1  UNL     1      -4.630 -10.659 -12.258  1.00  0.00     0.200 P 
BRANCH  42  43
HETATM   43  O2  UNL     1      -5.412 -12.140 -12.705  1.00  0.00    -0.346 OA
ATOM     44  H2  UNL     1      -6.119 -12.300 -12.092  1.00  0.00     0.217 HD
ENDBRANCH  42  43
BRANCH  42  45
HETATM   45  O3  UNL     1      -3.661 -10.897 -10.842  1.00  0.00    -0.346 OA
ATOM     46  H3  UNL     1      -4.126 -11.476 -10.250  1.00  0.00     0.217 HD
ENDBRANCH  42  45
ENDBRANCH  39  42
ENDBRANCH   2  36
TORSDOF 15
ENDMDL
MODEL 5
REMARK VINA RESULT: -7.227179235      5.255      9.081
REMARK  15 active torsions:
REMARK  status: ('A' for Active; 'I' for Inactive)
REMARK    1  A    between atoms: C2_2  and  N1_3 
REMARK    2  A    between atoms: C2_2  and  C3_7 
REMARK    3  A    between atoms: C3_7  and  C4_8 
REMARK       I    between atoms: C4_8  and  N2_10 
REMARK    4  A    between atoms: N2_10  and  C5_12 
REMARK    5  A    between atoms: C5_12  and  C6_13 
REMARK    6  A    between atoms: C8_19  and  C9_20 
REMARK    7  A    between atoms: C9_20  and  N6_34 
REMARK    8  A    between atoms: N5_21  and  C10_23 
REMARK    9  A    between atoms: C13_26  and  P1_27 
REMARK   10  A    between atoms: P1_27  and  O2_28 
REMARK   11  A    between atoms: P1_27  and  O3_30 
REMARK       I    between atoms: N6_34  and  C16_36 
REMARK       I    between atoms: C16_36  and  N7_38 
REMARK   12  A    between atoms: N7_38  and  C17_40 
REMARK   13  A    between atoms: C17_40  and  C18_41 
REMARK   14  A    between atoms: C18_41  and  C19_42 
REMARK   15  A    between atoms: C19_42  and  O5_43 
ROOT
HETATM    1  C9  UNL     1     -12.122  -7.220 -12.647  1.00  0.00     0.138 C 
HETATM    2  N5  UNL     1     -11.817  -8.106 -13.568  1.00  0.00    -0.340 N 
ATOM      3  H5  UNL     1     -12.226  -8.066 -14.502  1.00  0.00     0.167 HD
ENDROOT
BRANCH   1   4
HETATM    4  C8  UNL     1     -13.068  -6.184 -13.021  1.00  0.00     0.095 A 
HETATM    5  C7  UNL     1     -13.153  -5.051 -12.270  1.00  0.00     0.140 A 
HETATM    6  N4  UNL     1     -14.030  -4.091 -12.627  1.00  0.00    -0.308 N 
HETATM    7  N3  UNL     1     -14.776  -4.273 -13.688  1.00  0.00    -0.288 N 
ATOM      8  H4  UNL     1     -14.110  -3.235 -12.078  1.00  0.00     0.186 HD
HETATM    9  C6  UNL     1     -14.711  -5.367 -14.435  1.00  0.00     0.114 A 
ATOM     10  H3  UNL     1     -15.436  -3.542 -13.952  1.00  0.00     0.188 HD
HETATM   11  N8  UNL     1     -13.842  -6.343 -14.099  1.00  0.00    -0.339 N 
ATOM     12  H8  UNL     1     -13.775  -7.192 -14.662  1.00  0.00     0.167 HD
BRANCH   9  13
HETATM   13  C5  UNL     1     -15.545  -5.604 -15.628  1.00  0.00     0.200 C 
BRANCH  13  14
HETATM   14  N2  UNL     1     -14.966  -4.905 -16.766  1.00  0.00    -0.354 N 
HETATM   15  C4  UNL     1     -15.241  -3.540 -17.023  1.00  0.00     0.219 C 
HETATM   16  O1  UNL     1     -15.998  -2.858 -16.289  1.00  0.00    -0.274 OA
ATOM     17  H2  UNL     1     -14.345  -5.412 -17.396  1.00  0.00     0.162 HD
BRANCH  15  18
HETATM   18  C3  UNL     1     -14.619  -2.892 -18.198  1.00  0.00     0.135 C 
BRANCH  18  19
HETATM   19  C2  UNL     1     -15.671  -2.603 -19.267  1.00  0.00     0.188 C 
HETATM   20  C1  UNL     1     -15.041  -2.413 -20.602  1.00  0.00     0.040 C 
BRANCH  19  21
HETATM   21  N1  UNL     1     -16.444  -1.452 -18.843  1.00  0.00    -0.075 N 
ATOM     22  H13 UNL     1     -17.441  -1.604 -18.996  1.00  0.00     0.274 HD
ATOM     23  H12 UNL     1     -16.444  -1.367 -17.826  1.00  0.00     0.274 HD
ATOM     24  H11 UNL     1     -16.134  -0.585 -19.282  1.00  0.00     0.274 HD
ENDBRANCH  19  21
ENDBRANCH  18  19
ENDBRANCH  15  18
ENDBRANCH  13  14
ENDBRANCH   9  13
ENDBRANCH   1   4
BRANCH   1  25
HETATM   25  N6  UNL     1     -11.549  -7.288 -11.371  1.00  0.00    -0.293 N 
HETATM   26  C16 UNL     1     -10.360  -6.620 -11.039  1.00  0.00     0.321 C 
HETATM   27  O4  UNL     1      -9.763  -5.936 -11.886  1.00  0.00    -0.247 OA
HETATM   28  N7  UNL     1      -9.804  -6.707  -9.727  1.00  0.00    -0.343 N 
ATOM     29  H7  UNL     1     -10.292  -7.278  -9.036  1.00  0.00     0.164 HD
ATOM     30  H6  UNL     1     -12.013  -7.845 -10.654  1.00  0.00     0.172 HD
BRANCH  28  31
HETATM   31  C17 UNL     1      -8.604  -6.041  -9.324  1.00  0.00     0.126 C 
BRANCH  31  32
HETATM   32  C18 UNL     1      -8.886  -4.741  -8.625  1.00  0.00     0.046 C 
BRANCH  32  33
HETATM   33  C19 UNL     1      -7.572  -3.970  -8.509  1.00  0.00     0.165 C 
BRANCH  33  34
HETATM   34  O5  UNL     1      -6.570  -4.577  -9.254  1.00  0.00    -0.401 OA
ATOM     35  H5  UNL     1      -5.718  -4.437  -8.857  1.00  0.00     0.209 HD
ENDBRANCH  33  34
ENDBRANCH  32  33
ENDBRANCH  31  32
ENDBRANCH  28  31
ENDBRANCH   1  25
BRANCH   2  36
HETATM   36  C10 UNL     1     -10.888  -9.126 -13.206  1.00  0.00     0.033 A 
HETATM   37  C11 UNL     1     -11.299 -10.215 -12.455  1.00  0.00     0.030 A 
HETATM   38  C12 UNL     1     -10.410 -11.202 -12.100  1.00  0.00     0.019 A 
HETATM   39  C13 UNL     1      -9.090 -11.128 -12.484  1.00  0.00     0.022 A 
HETATM   40  C14 UNL     1      -8.672 -10.040 -13.236  1.00  0.00     0.019 A 
HETATM   41  C15 UNL     1      -9.552  -9.046 -13.598  1.00  0.00     0.030 A 
BRANCH  39  42
HETATM   42  P1  UNL     1      -7.922 -12.439 -12.009  1.00  0.00     0.200 P 
BRANCH  42  43
HETATM   43  O2  UNL     1      -6.358 -12.025 -12.630  1.00  0.00    -0.346 OA
ATOM     44  H2  UNL     1      -6.026 -12.766 -13.122  1.00  0.00     0.217 HD
ENDBRANCH  42  43
BRANCH  42  45
HETATM   45  O3  UNL     1      -8.460 -13.936 -12.694  1.00  0.00    -0.346 OA
ATOM     46  H3  UNL     1      -7.871 -14.177 -13.399  1.00  0.00     0.217 HD
ENDBRANCH  42  45
ENDBRANCH  39  42
ENDBRANCH   2  36
TORSDOF 15
ENDMDL
