MODEL 1
REMARK VINA RESULT: -8.443572352      0.000      0.000
REMARK  13 active torsions:
REMARK  status: ('A' for Active; 'I' for Inactive)
REMARK       I    between atoms: C1_4  and  N2_5 
REMARK       I    between atoms: C1_4  and  N6_28 
REMARK    1  A    between atoms: N2_5  and  C2_7 
REMARK    2  A    between atoms: C2_7  and  C3_8 
REMARK    3  A    between atoms: C2_7  and  N3_15 
REMARK    4  A    between atoms: C3_8  and  C4_9 
REMARK    5  A    between atoms: C4_9  and  P1_10 
REMARK    6  A    between atoms: P1_10  and  O1_11 
REMARK    7  A    between atoms: P1_10  and  O2_13 
REMARK       I    between atoms: N3_15  and  C5_17 
REMARK    8  A    between atoms: C5_17  and  C6_19 
REMARK    9  A    between atoms: C13_36  and  C14_37 
REMARK   10  A    between atoms: C14_37  and  C15_38 
REMARK   11  A    between atoms: C15_38  and  C16_39 
REMARK   12  A    between atoms: C17_40  and  C18_41 
REMARK   13  A    between atoms: C19_42  and  O5_43 
ROOT
HETATM    1  N1  UNL     1      -8.237 -10.330  -9.621  1.00  0.00    -0.234 N 
ATOM      2  H11 UNL     1      -7.773 -11.098  -9.137  1.00  0.00     0.174 HD
ATOM      3  H12 UNL     1      -9.032  -9.924  -9.129  1.00  0.00     0.174 HD
HETATM    4  C1  UNL     1      -7.877  -9.958 -10.693  1.00  0.00     0.681 C 
HETATM    5  N2  UNL     1      -8.518  -8.897 -11.362  1.00  0.00    -0.205 N 
ATOM      6  H2  UNL     1      -8.075  -8.606 -12.233  1.00  0.00     0.179 HD
HETATM    7  N6  UNL     1      -6.719 -10.548 -11.409  1.00  0.00    -0.142 N 
HETATM    8  C10 UNL     1      -7.006 -11.064 -12.700  1.00  0.00     0.223 A 
HETATM    9  N7  UNL     1      -5.973 -11.414 -13.449  1.00  0.00    -0.295 N 
ATOM     10  H7  UNL     1      -6.125 -11.787 -14.386  1.00  0.00     0.187 HD
HETATM   11  N8  UNL     1      -4.697 -11.275 -12.964  1.00  0.00    -0.309 N 
ATOM     12  H8  UNL     1      -3.954 -11.562 -13.602  1.00  0.00     0.186 HD
HETATM   13  C11 UNL     1      -4.300 -10.837 -11.830  1.00  0.00     0.137 A 
HETATM   14  C12 UNL     1      -5.423 -10.418 -10.910  1.00  0.00     0.075 A 
HETATM   15  C13 UNL     1      -5.153 -10.146  -9.687  1.00  0.00     0.040 C 
ENDROOT
BRANCH   5  16
HETATM   16  C2  UNL     1      -9.681  -8.174 -11.013  1.00  0.00     0.202 C 
BRANCH  16  17
HETATM   17  C3  UNL     1     -10.416  -7.469 -12.124  1.00  0.00     0.056 C 
BRANCH  17  18
HETATM   18  C4  UNL     1     -11.477  -8.316 -12.768  1.00  0.00     0.097 C 
BRANCH  18  19
HETATM   19  P1  UNL     1     -11.035  -8.932 -14.433  1.00  0.00     0.163 P 
BRANCH  19  20
HETATM   20  O1  UNL     1     -11.093  -7.758 -15.670  1.00  0.00    -0.350 OA
ATOM     21  H1  UNL     1     -10.293  -7.670 -16.174  1.00  0.00     0.217 HD
ENDBRANCH  19  20
BRANCH  19  22
HETATM   22  O2  UNL     1      -9.448  -9.652 -14.402  1.00  0.00    -0.350 OA
ATOM     23  H2  UNL     1      -8.790  -8.998 -14.609  1.00  0.00     0.217 HD
ENDBRANCH  19  22
ENDBRANCH  18  19
ENDBRANCH  17  18
ENDBRANCH  16  17
BRANCH  16  24
HETATM   24  N3  UNL     1      -9.468  -7.207  -9.913  1.00  0.00    -0.335 N 
HETATM   25  C5  UNL     1      -8.383  -6.286 -10.000  1.00  0.00     0.256 C 
HETATM   26  O3  UNL     1      -7.601  -6.279 -10.993  1.00  0.00    -0.268 OA
ATOM     27  H3  UNL     1     -10.088  -7.200  -9.103  1.00  0.00     0.164 HD
BRANCH  25  28
HETATM   28  C6  UNL     1      -8.157  -5.327  -8.938  1.00  0.00     0.063 A 
HETATM   29  C7  UNL     1      -8.737  -5.460  -7.702  1.00  0.00     0.111 A 
HETATM   30  N4  UNL     1      -8.435  -4.555  -6.748  1.00  0.00    -0.318 N 
HETATM   31  C8  UNL     1      -7.584  -3.534  -6.963  1.00  0.00     0.324 A 
ATOM     32  H4  UNL     1      -8.869  -4.647  -5.829  1.00  0.00     0.170 HD
HETATM   33  O4  UNL     1      -7.305  -2.714  -6.073  1.00  0.00    -0.247 OA
HETATM   34  N5  UNL     1      -7.015  -3.397  -8.168  1.00  0.00    -0.318 N 
HETATM   35  C9  UNL     1      -7.276  -4.265  -9.170  1.00  0.00     0.111 A 
ATOM     36  H5  UNL     1      -6.371  -2.623  -8.331  1.00  0.00     0.170 HD
ENDBRANCH  25  28
ENDBRANCH  16  24
ENDBRANCH   5  16
BRANCH  15  37
HETATM   37  C14 UNL     1      -3.747 -10.000  -9.209  1.00  0.00     0.058 C 
BRANCH  37  38
HETATM   38  C15 UNL     1      -3.150 -10.949  -8.740  1.00  0.00    -0.128 C 
BRANCH  38  39
HETATM   39  C16 UNL     1      -2.452 -12.047  -8.200  1.00  0.00     0.055 C 
HETATM   40  C17 UNL     1      -2.462 -12.472  -6.966  1.00  0.00     0.010 C 
BRANCH  40  41
HETATM   41  C18 UNL     1      -3.180 -11.946  -5.830  1.00  0.00     0.024 C 
HETATM   42  C19 UNL     1      -2.499 -12.022  -4.627  1.00  0.00     0.131 C 
BRANCH  42  43
HETATM   43  O5  UNL     1      -1.256 -12.581  -4.680  1.00  0.00    -0.373 OA
ATOM     44  H5  UNL     1      -0.861 -12.794  -3.843  1.00  0.00     0.216 HD
ENDBRANCH  42  43
ENDBRANCH  40  41
ENDBRANCH  38  39
ENDBRANCH  37  38
ENDBRANCH  15  37
TORSDOF 13
ENDMDL
MODEL 2
REMARK VINA RESULT: -8.386297046      1.284      1.414
REMARK  13 active torsions:
REMARK  status: ('A' for Active; 'I' for Inactive)
REMARK       I    between atoms: C1_4  and  N2_5 
REMARK       I    between atoms: C1_4  and  N6_28 
REMARK    1  A    between atoms: N2_5  and  C2_7 
REMARK    2  A    between atoms: C2_7  and  C3_8 
REMARK    3  A    between atoms: C2_7  and  N3_15 
REMARK    4  A    between atoms: C3_8  and  C4_9 
REMARK    5  A    between atoms: C4_9  and  P1_10 
REMARK    6  A    between atoms: P1_10  and  O1_11 
REMARK    7  A    between atoms: P1_10  and  O2_13 
REMARK       I    between atoms: N3_15  and  C5_17 
REMARK    8  A    between atoms: C5_17  and  C6_19 
REMARK    9  A    between atoms: C13_36  and  C14_37 
REMARK   10  A    between atoms: C14_37  and  C15_38 
REMARK   11  A    between atoms: C15_38  and  C16_39 
REMARK   12  A    between atoms: C17_40  and  C18_41 
REMARK   13  A    between atoms: C19_42  and  O5_43 
ROOT
HETATM    1  N1  UNL     1      -8.488 -10.301  -9.750  1.00  0.00    -0.234 N 
ATOM      2  H11 UNL     1      -8.098 -11.117  -9.278  1.00  0.00     0.174 HD
ATOM      3  H12 UNL     1      -9.302  -9.885  -9.299  1.00  0.00     0.174 HD
HETATM    4  C1  UNL     1      -8.026  -9.887 -10.767  1.00  0.00     0.681 C 
HETATM    5  N2  UNL     1      -8.565  -8.761 -11.419  1.00  0.00    -0.205 N 
ATOM      6  H2  UNL     1      -8.041  -8.443 -12.233  1.00  0.00     0.179 HD
HETATM    7  N6  UNL     1      -6.842 -10.491 -11.424  1.00  0.00    -0.142 N 
HETATM    8  C10 UNL     1      -7.045 -10.919 -12.763  1.00  0.00     0.223 A 
HETATM    9  N7  UNL     1      -5.972 -11.276 -13.448  1.00  0.00    -0.295 N 
ATOM     10  H7  UNL     1      -6.063 -11.588 -14.415  1.00  0.00     0.187 HD
HETATM   11  N8  UNL     1      -4.734 -11.226 -12.857  1.00  0.00    -0.309 N 
ATOM     12  H8  UNL     1      -3.956 -11.512 -13.452  1.00  0.00     0.186 HD
HETATM   13  C11 UNL     1      -4.412 -10.872 -11.671  1.00  0.00     0.137 A 
HETATM   14  C12 UNL     1      -5.586 -10.452 -10.819  1.00  0.00     0.075 A 
HETATM   15  C13 UNL     1      -5.404 -10.262  -9.564  1.00  0.00     0.040 C 
ENDROOT
BRANCH   5  16
HETATM   16  C2  UNL     1      -9.720  -8.002 -11.119  1.00  0.00     0.202 C 
BRANCH  16  17
HETATM   17  C3  UNL     1     -10.379  -7.269 -12.258  1.00  0.00     0.056 C 
BRANCH  17  18
HETATM   18  C4  UNL     1     -11.523  -8.026 -12.872  1.00  0.00     0.097 C 
BRANCH  18  19
HETATM   19  P1  UNL     1     -11.131  -8.796 -14.484  1.00  0.00     0.163 P 
BRANCH  19  20
HETATM   20  O1  UNL     1     -11.146  -7.726 -15.813  1.00  0.00    -0.350 OA
ATOM     21  H1  UNL     1     -12.006  -7.561 -16.183  1.00  0.00     0.217 HD
ENDBRANCH  19  20
BRANCH  19  22
HETATM   22  O2  UNL     1      -9.580  -9.588 -14.407  1.00  0.00    -0.350 OA
ATOM     23  H2  UNL     1      -9.584 -10.366 -14.952  1.00  0.00     0.217 HD
ENDBRANCH  19  22
ENDBRANCH  18  19
ENDBRANCH  17  18
ENDBRANCH  16  17
BRANCH  16  24
HETATM   24  N3  UNL     1      -9.527  -7.049 -10.004  1.00  0.00    -0.335 N 
HETATM   25  C5  UNL     1      -8.390  -6.190 -10.015  1.00  0.00     0.256 C 
HETATM   26  O3  UNL     1      -7.543  -6.226 -10.952  1.00  0.00    -0.268 OA
ATOM     27  H3  UNL     1     -10.199  -7.007  -9.237  1.00  0.00     0.164 HD
BRANCH  25  28
HETATM   28  C6  UNL     1      -8.183  -5.244  -8.936  1.00  0.00     0.063 A 
HETATM   29  C7  UNL     1      -8.815  -5.373  -7.725  1.00  0.00     0.111 A 
HETATM   30  N4  UNL     1      -8.529  -4.483  -6.752  1.00  0.00    -0.318 N 
HETATM   31  C8  UNL     1      -7.645  -3.482  -6.924  1.00  0.00     0.324 A 
ATOM     32  H4  UNL     1      -9.001  -4.571  -5.852  1.00  0.00     0.170 HD
HETATM   33  O4  UNL     1      -7.382  -2.676  -6.017  1.00  0.00    -0.247 OA
HETATM   34  N5  UNL     1      -7.025  -3.350  -8.104  1.00  0.00    -0.318 N 
HETATM   35  C9  UNL     1      -7.268  -4.203  -9.123  1.00  0.00     0.111 A 
ATOM     36  H5  UNL     1      -6.357  -2.591  -8.235  1.00  0.00     0.170 HD
ENDBRANCH  25  28
ENDBRANCH  16  24
ENDBRANCH   5  16
BRANCH  15  37
HETATM   37  C14 UNL     1      -4.036 -10.212  -8.970  1.00  0.00     0.058 C 
BRANCH  37  38
HETATM   38  C15 UNL     1      -3.807 -10.730  -7.894  1.00  0.00    -0.128 C 
BRANCH  38  39
HETATM   39  C16 UNL     1      -3.542 -11.337  -6.651  1.00  0.00     0.055 C 
HETATM   40  C17 UNL     1      -3.816 -10.874  -5.461  1.00  0.00     0.010 C 
BRANCH  40  41
HETATM   41  C18 UNL     1      -4.457  -9.635  -5.094  1.00  0.00     0.024 C 
HETATM   42  C19 UNL     1      -5.828  -9.720  -4.920  1.00  0.00     0.131 C 
BRANCH  42  43
HETATM   43  O5  UNL     1      -6.379 -10.950  -5.121  1.00  0.00    -0.373 OA
ATOM     44  H5  UNL     1      -7.237 -10.959  -5.530  1.00  0.00     0.216 HD
ENDBRANCH  42  43
ENDBRANCH  40  41
ENDBRANCH  38  39
ENDBRANCH  37  38
ENDBRANCH  15  37
TORSDOF 13
ENDMDL
MODEL 3
REMARK VINA RESULT: -8.147277806      1.194      1.242
REMARK  13 active torsions:
REMARK  status: ('A' for Active; 'I' for Inactive)
REMARK       I    between atoms: C1_4  and  N2_5 
REMARK       I    between atoms: C1_4  and  N6_28 
REMARK    1  A    between atoms: N2_5  and  C2_7 
REMARK    2  A    between atoms: C2_7  and  C3_8 
REMARK    3  A    between atoms: C2_7  and  N3_15 
REMARK    4  A    between atoms: C3_8  and  C4_9 
REMARK    5  A    between atoms: C4_9  and  P1_10 
REMARK    6  A    between atoms: P1_10  and  O1_11 
REMARK    7  A    between atoms: P1_10  and  O2_13 
REMARK       I    between atoms: N3_15  and  C5_17 
REMARK    8  A    between atoms: C5_17  and  C6_19 
REMARK    9  A    between atoms: C13_36  and  C14_37 
REMARK   10  A    between atoms: C14_37  and  C15_38 
REMARK   11  A    between atoms: C15_38  and  C16_39 
REMARK   12  A    between atoms: C17_40  and  C18_41 
REMARK   13  A    between atoms: C19_42  and  O5_43 
ROOT
HETATM    1  N1  UNL     1      -7.661 -10.005  -9.534  1.00  0.00    -0.234 N 
ATOM      2  H11 UNL     1      -7.317 -10.848  -9.074  1.00  0.00     0.174 HD
ATOM      3  H12 UNL     1      -8.352  -9.473  -9.005  1.00  0.00     0.174 HD
HETATM    4  C1  UNL     1      -7.288  -9.687 -10.619  1.00  0.00     0.681 C 
HETATM    5  N2  UNL     1      -7.764  -8.523 -11.252  1.00  0.00    -0.205 N 
ATOM      6  H2  UNL     1      -7.315  -8.302 -12.141  1.00  0.00     0.179 HD
HETATM    7  N6  UNL     1      -6.283 -10.460 -11.389  1.00  0.00    -0.142 N 
HETATM    8  C10 UNL     1      -6.711 -10.902 -12.669  1.00  0.00     0.223 A 
HETATM    9  N7  UNL     1      -5.788 -11.416 -13.464  1.00  0.00    -0.295 N 
ATOM     10  H7  UNL     1      -6.043 -11.745 -14.396  1.00  0.00     0.187 HD
HETATM   11  N8  UNL     1      -4.487 -11.507 -13.037  1.00  0.00    -0.309 N 
ATOM     12  H8  UNL     1      -3.834 -11.910 -13.709  1.00  0.00     0.186 HD
HETATM   13  C11 UNL     1      -3.972 -11.159 -11.919  1.00  0.00     0.137 A 
HETATM   14  C12 UNL     1      -4.964 -10.563 -10.948  1.00  0.00     0.075 A 
HETATM   15  C13 UNL     1      -4.598 -10.358  -9.737  1.00  0.00     0.040 C 
ENDROOT
BRANCH   5  16
HETATM   16  C2  UNL     1      -8.767  -7.613 -10.848  1.00  0.00     0.202 C 
BRANCH  16  17
HETATM   17  C3  UNL     1      -9.620  -7.000 -11.929  1.00  0.00     0.056 C 
BRANCH  17  18
HETATM   18  C4  UNL     1     -10.731  -7.900 -12.393  1.00  0.00     0.097 C 
BRANCH  18  19
HETATM   19  P1  UNL     1     -10.435  -8.674 -14.024  1.00  0.00     0.163 P 
BRANCH  19  20
HETATM   20  O1  UNL     1     -11.081  -7.819 -15.351  1.00  0.00    -0.350 OA
ATOM     21  H1  UNL     1     -10.622  -7.949 -16.172  1.00  0.00     0.217 HD
ENDBRANCH  19  20
BRANCH  19  22
HETATM   22  O2  UNL     1      -8.725  -8.908 -14.273  1.00  0.00    -0.350 OA
ATOM     23  H2  UNL     1      -8.537  -8.968 -15.202  1.00  0.00     0.217 HD
ENDBRANCH  19  22
ENDBRANCH  18  19
ENDBRANCH  17  18
ENDBRANCH  16  17
BRANCH  16  24
HETATM   24  N3  UNL     1      -8.262  -6.523  -9.983  1.00  0.00    -0.335 N 
HETATM   25  C5  UNL     1      -8.910  -6.268  -8.740  1.00  0.00     0.256 C 
HETATM   26  O3  UNL     1      -9.905  -6.949  -8.361  1.00  0.00    -0.268 OA
ATOM     27  H3  UNL     1      -7.461  -5.962 -10.273  1.00  0.00     0.164 HD
BRANCH  25  28
HETATM   28  C6  UNL     1      -8.430  -5.209  -7.874  1.00  0.00     0.063 A 
HETATM   29  C7  UNL     1      -8.608  -5.246  -6.514  1.00  0.00     0.111 A 
HETATM   30  N4  UNL     1      -8.086  -4.249  -5.769  1.00  0.00    -0.318 N 
HETATM   31  C8  UNL     1      -7.394  -3.228  -6.310  1.00  0.00     0.324 A 
ATOM     32  H4  UNL     1      -8.220  -4.270  -4.758  1.00  0.00     0.170 HD
HETATM   33  O4  UNL     1      -6.909  -2.323  -5.613  1.00  0.00    -0.247 OA
HETATM   34  N5  UNL     1      -7.219  -3.186  -7.637  1.00  0.00    -0.318 N 
HETATM   35  C9  UNL     1      -7.718  -4.148  -8.443  1.00  0.00     0.111 A 
ATOM     36  H5  UNL     1      -6.697  -2.412  -8.047  1.00  0.00     0.170 HD
ENDBRANCH  25  28
ENDBRANCH  16  24
ENDBRANCH   5  16
BRANCH  15  37
HETATM   37  C14 UNL     1      -3.169 -10.464  -9.321  1.00  0.00     0.058 C 
BRANCH  37  38
HETATM   38  C15 UNL     1      -2.820 -11.298  -8.508  1.00  0.00    -0.128 C 
BRANCH  38  39
HETATM   39  C16 UNL     1      -2.413 -12.259  -7.562  1.00  0.00     0.055 C 
HETATM   40  C17 UNL     1      -2.825 -12.393  -6.331  1.00  0.00     0.010 C 
BRANCH  40  41
HETATM   41  C18 UNL     1      -3.797 -11.610  -5.608  1.00  0.00     0.024 C 
HETATM   42  C19 UNL     1      -4.766 -12.349  -4.952  1.00  0.00     0.131 C 
BRANCH  42  43
HETATM   43  O5  UNL     1      -4.672 -13.704  -5.081  1.00  0.00    -0.373 OA
ATOM     44  H5  UNL     1      -5.451 -14.146  -5.397  1.00  0.00     0.216 HD
ENDBRANCH  42  43
ENDBRANCH  40  41
ENDBRANCH  38  39
ENDBRANCH  37  38
ENDBRANCH  15  37
TORSDOF 13
ENDMDL
MODEL 4
REMARK VINA RESULT: -8.108607423      1.643      1.908
REMARK  13 active torsions:
REMARK  status: ('A' for Active; 'I' for Inactive)
REMARK       I    between atoms: C1_4  and  N2_5 
REMARK       I    between atoms: C1_4  and  N6_28 
REMARK    1  A    between atoms: N2_5  and  C2_7 
REMARK    2  A    between atoms: C2_7  and  C3_8 
REMARK    3  A    between atoms: C2_7  and  N3_15 
REMARK    4  A    between atoms: C3_8  and  C4_9 
REMARK    5  A    between atoms: C4_9  and  P1_10 
REMARK    6  A    between atoms: P1_10  and  O1_11 
REMARK    7  A    between atoms: P1_10  and  O2_13 
REMARK       I    between atoms: N3_15  and  C5_17 
REMARK    8  A    between atoms: C5_17  and  C6_19 
REMARK    9  A    between atoms: C13_36  and  C14_37 
REMARK   10  A    between atoms: C14_37  and  C15_38 
REMARK   11  A    between atoms: C15_38  and  C16_39 
REMARK   12  A    between atoms: C17_40  and  C18_41 
REMARK   13  A    between atoms: C19_42  and  O5_43 
ROOT
HETATM    1  N1  UNL     1      -8.248 -10.537  -9.416  1.00  0.00    -0.234 N 
ATOM      2  H11 UNL     1      -7.709 -11.309  -9.026  1.00  0.00     0.174 HD
ATOM      3  H12 UNL     1      -9.003 -10.191  -8.824  1.00  0.00     0.174 HD
HETATM    4  C1  UNL     1      -8.015 -10.094 -10.496  1.00  0.00     0.681 C 
HETATM    5  N2  UNL     1      -8.760  -9.028 -11.035  1.00  0.00    -0.205 N 
ATOM      6  H2  UNL     1      -8.421  -8.672 -11.928  1.00  0.00     0.179 HD
HETATM    7  N6  UNL     1      -6.917 -10.597 -11.358  1.00  0.00    -0.142 N 
HETATM    8  C10 UNL     1      -7.317 -11.055 -12.641  1.00  0.00     0.223 A 
HETATM    9  N7  UNL     1      -6.356 -11.322 -13.509  1.00  0.00    -0.295 N 
ATOM     10  H7  UNL     1      -6.590 -11.651 -14.446  1.00  0.00     0.187 HD
HETATM   11  N8  UNL     1      -5.042 -11.155 -13.149  1.00  0.00    -0.309 N 
ATOM     12  H8  UNL     1      -4.360 -11.377 -13.875  1.00  0.00     0.186 HD
HETATM   13  C11 UNL     1      -4.546 -10.762 -12.038  1.00  0.00     0.137 A 
HETATM   14  C12 UNL     1      -5.582 -10.439 -10.987  1.00  0.00     0.075 A 
HETATM   15  C13 UNL     1      -5.197 -10.221  -9.784  1.00  0.00     0.040 C 
ENDROOT
BRANCH   5  16
HETATM   16  C2  UNL     1      -9.907  -8.373 -10.529  1.00  0.00     0.202 C 
BRANCH  16  17
HETATM   17  C3  UNL     1     -10.852  -7.763 -11.531  1.00  0.00     0.056 C 
BRANCH  17  18
HETATM   18  C4  UNL     1     -11.991  -7.014 -10.897  1.00  0.00     0.097 C 
BRANCH  18  19
HETATM   19  P1  UNL     1     -12.146  -5.278 -11.453  1.00  0.00     0.163 P 
BRANCH  19  20
HETATM   20  O1  UNL     1     -12.834  -4.216 -10.308  1.00  0.00    -0.350 OA
ATOM     21  H1  UNL     1     -12.833  -4.538  -9.415  1.00  0.00     0.217 HD
ENDBRANCH  19  20
BRANCH  19  22
HETATM   22  O2  UNL     1     -10.588  -4.664 -11.938  1.00  0.00    -0.350 OA
ATOM     23  H2  UNL     1      -9.909  -5.021 -11.378  1.00  0.00     0.217 HD
ENDBRANCH  19  22
ENDBRANCH  18  19
ENDBRANCH  17  18
ENDBRANCH  16  17
BRANCH  16  24
HETATM   24  N3  UNL     1      -9.599  -7.352  -9.503  1.00  0.00    -0.335 N 
HETATM   25  C5  UNL     1      -8.605  -6.369  -9.779  1.00  0.00     0.256 C 
HETATM   26  O3  UNL     1      -7.980  -6.351 -10.877  1.00  0.00    -0.268 OA
ATOM     27  H3  UNL     1     -10.091  -7.353  -8.609  1.00  0.00     0.164 HD
BRANCH  25  28
HETATM   28  C6  UNL     1      -8.289  -5.356  -8.791  1.00  0.00     0.063 A 
HETATM   29  C7  UNL     1      -8.807  -5.394  -7.521  1.00  0.00     0.111 A 
HETATM   30  N4  UNL     1      -8.424  -4.445  -6.641  1.00  0.00    -0.318 N 
HETATM   31  C8  UNL     1      -7.551  -3.471  -6.962  1.00  0.00     0.324 A 
ATOM     32  H4  UNL     1      -8.811  -4.465  -5.697  1.00  0.00     0.170 HD
HETATM   33  O4  UNL     1      -7.198  -2.610  -6.141  1.00  0.00    -0.247 OA
HETATM   34  N5  UNL     1      -7.044  -3.428  -8.201  1.00  0.00    -0.318 N 
HETATM   35  C9  UNL     1      -7.387  -4.343  -9.133  1.00  0.00     0.111 A 
ATOM     36  H5  UNL     1      -6.384  -2.689  -8.445  1.00  0.00     0.170 HD
ENDBRANCH  25  28
ENDBRANCH  16  24
ENDBRANCH   5  16
BRANCH  15  37
HETATM   37  C14 UNL     1      -3.755 -10.042  -9.443  1.00  0.00     0.058 C 
BRANCH  37  38
HETATM   38  C15 UNL     1      -3.123 -10.943  -8.928  1.00  0.00    -0.128 C 
BRANCH  38  39
HETATM   39  C16 UNL     1      -2.393 -11.986  -8.326  1.00  0.00     0.055 C 
HETATM   40  C17 UNL     1      -2.449 -12.388  -7.085  1.00  0.00     0.010 C 
BRANCH  40  41
HETATM   41  C18 UNL     1      -3.261 -11.887  -6.003  1.00  0.00     0.024 C 
HETATM   42  C19 UNL     1      -3.867 -12.863  -5.231  1.00  0.00     0.131 C 
BRANCH  42  43
HETATM   43  O5  UNL     1      -3.618 -14.153  -5.598  1.00  0.00    -0.373 OA
ATOM     44  H5  UNL     1      -2.931 -14.276  -6.243  1.00  0.00     0.216 HD
ENDBRANCH  42  43
ENDBRANCH  40  41
ENDBRANCH  38  39
ENDBRANCH  37  38
ENDBRANCH  15  37
TORSDOF 13
ENDMDL
MODEL 5
REMARK VINA RESULT: -8.048070061      2.210      2.475
REMARK  13 active torsions:
REMARK  status: ('A' for Active; 'I' for Inactive)
REMARK       I    between atoms: C1_4  and  N2_5 
REMARK       I    between atoms: C1_4  and  N6_28 
REMARK    1  A    between atoms: N2_5  and  C2_7 
REMARK    2  A    between atoms: C2_7  and  C3_8 
REMARK    3  A    between atoms: C2_7  and  N3_15 
REMARK    4  A    between atoms: C3_8  and  C4_9 
REMARK    5  A    between atoms: C4_9  and  P1_10 
REMARK    6  A    between atoms: P1_10  and  O1_11 
REMARK    7  A    between atoms: P1_10  and  O2_13 
REMARK       I    between atoms: N3_15  and  C5_17 
REMARK    8  A    between atoms: C5_17  and  C6_19 
REMARK    9  A    between atoms: C13_36  and  C14_37 
REMARK   10  A    between atoms: C14_37  and  C15_38 
REMARK   11  A    between atoms: C15_38  and  C16_39 
REMARK   12  A    between atoms: C17_40  and  C18_41 
REMARK   13  A    between atoms: C19_42  and  O5_43 
ROOT
HETATM    1  N1  UNL     1      -8.853  -9.738 -10.172  1.00  0.00    -0.234 N 
ATOM      2  H11 UNL     1      -8.538 -10.693 -10.006  1.00  0.00     0.174 HD
ATOM      3  H12 UNL     1      -9.660  -9.444  -9.623  1.00  0.00     0.174 HD
HETATM    4  C1  UNL     1      -8.318  -9.032 -10.969  1.00  0.00     0.681 C 
HETATM    5  N2  UNL     1      -8.753  -7.713 -11.198  1.00  0.00    -0.205 N 
ATOM      6  H2  UNL     1      -8.171  -7.172 -11.837  1.00  0.00     0.179 HD
HETATM    7  N6  UNL     1      -7.143  -9.458 -11.768  1.00  0.00    -0.142 N 
HETATM    8  C10 UNL     1      -7.308  -9.378 -13.176  1.00  0.00     0.223 A 
HETATM    9  N7  UNL     1      -6.227  -9.554 -13.917  1.00  0.00    -0.295 N 
ATOM     10  H7  UNL     1      -6.291  -9.503 -14.934  1.00  0.00     0.187 HD
HETATM   11  N8  UNL     1      -5.018  -9.806 -13.317  1.00  0.00    -0.309 N 
ATOM     12  H8  UNL     1      -4.232  -9.926 -13.956  1.00  0.00     0.186 HD
HETATM   13  C11 UNL     1      -4.732  -9.912 -12.075  1.00  0.00     0.137 A 
HETATM   14  C12 UNL     1      -5.918  -9.726 -11.157  1.00  0.00     0.075 A 
HETATM   15  C13 UNL     1      -5.785  -9.998  -9.912  1.00  0.00     0.040 C 
ENDROOT
BRANCH   5  16
HETATM   16  C2  UNL     1      -9.872  -7.021 -10.679  1.00  0.00     0.202 C 
BRANCH  16  17
HETATM   17  C3  UNL     1     -10.916  -6.560 -11.662  1.00  0.00     0.056 C 
BRANCH  17  18
HETATM   18  C4  UNL     1     -12.303  -6.520 -11.084  1.00  0.00     0.097 C 
BRANCH  18  19
HETATM   19  P1  UNL     1     -12.918  -4.833 -10.733  1.00  0.00     0.163 P 
BRANCH  19  20
HETATM   20  O1  UNL     1     -12.042  -3.984  -9.540  1.00  0.00    -0.350 OA
ATOM     21  H1  UNL     1     -12.396  -4.051  -8.661  1.00  0.00     0.217 HD
ENDBRANCH  19  20
BRANCH  19  22
HETATM   22  O2  UNL     1     -12.947  -3.890 -12.199  1.00  0.00    -0.350 OA
ATOM     23  H2  UNL     1     -12.468  -3.080 -12.075  1.00  0.00     0.217 HD
ENDBRANCH  19  22
ENDBRANCH  18  19
ENDBRANCH  17  18
ENDBRANCH  16  17
BRANCH  16  24
HETATM   24  N3  UNL     1      -9.509  -5.874  -9.817  1.00  0.00    -0.335 N 
HETATM   25  C5  UNL     1      -8.789  -6.113  -8.611  1.00  0.00     0.256 C 
HETATM   26  O3  UNL     1      -8.457  -7.281  -8.260  1.00  0.00    -0.268 OA
ATOM     27  H3  UNL     1      -9.771  -4.925 -10.083  1.00  0.00     0.164 HD
BRANCH  25  28
HETATM   28  C6  UNL     1      -8.419  -5.005  -7.753  1.00  0.00     0.063 A 
HETATM   29  C7  UNL     1      -8.870  -4.903  -6.462  1.00  0.00     0.111 A 
HETATM   30  N4  UNL     1      -8.438  -3.870  -5.709  1.00  0.00    -0.318 N 
HETATM   31  C8  UNL     1      -7.578  -2.945  -6.175  1.00  0.00     0.324 A 
ATOM     32  H4  UNL     1      -8.776  -3.787  -4.749  1.00  0.00     0.170 HD
HETATM   33  O4  UNL     1      -7.179  -2.006  -5.468  1.00  0.00    -0.247 OA
HETATM   34  N5  UNL     1      -7.135  -3.038  -7.435  1.00  0.00    -0.318 N 
HETATM   35  C9  UNL     1      -7.530  -4.043  -8.246  1.00  0.00     0.111 A 
ATOM     36  H5  UNL     1      -6.485  -2.336  -7.790  1.00  0.00     0.170 HD
ENDBRANCH  25  28
ENDBRANCH  16  24
ENDBRANCH   5  16
BRANCH  15  37
HETATM   37  C14 UNL     1      -4.447 -10.260  -9.305  1.00  0.00     0.058 C 
BRANCH  37  38
HETATM   38  C15 UNL     1      -4.336 -10.463  -8.112  1.00  0.00    -0.128 C 
BRANCH  38  39
HETATM   39  C16 UNL     1      -4.204 -10.692  -6.728  1.00  0.00     0.055 C 
HETATM   40  C17 UNL     1      -3.408 -11.537  -6.131  1.00  0.00     0.010 C 
BRANCH  40  41
HETATM   41  C18 UNL     1      -2.457 -12.454  -6.709  1.00  0.00     0.024 C 
HETATM   42  C19 UNL     1      -1.497 -12.926  -5.831  1.00  0.00     0.131 C 
BRANCH  42  43
HETATM   43  O5  UNL     1      -1.579 -12.460  -4.552  1.00  0.00    -0.373 OA
ATOM     44  H5  UNL     1      -0.923 -12.787  -3.947  1.00  0.00     0.216 HD
ENDBRANCH  42  43
ENDBRANCH  40  41
ENDBRANCH  38  39
ENDBRANCH  37  38
ENDBRANCH  15  37
TORSDOF 13
ENDMDL
