MODEL 1
REMARK VINA RESULT: -7.797071880      0.000      0.000
REMARK  5 active torsions:
REMARK  status: ('A' for Active; 'I' for Inactive)
REMARK    1  A    between atoms: C2_2  and  C5_5 
REMARK    2  A    between atoms: C6_10  and  O1_11 
REMARK    3  A    between atoms: C7_13  and  C8_14 
REMARK    4  A    between atoms: C8_14  and  C9_15 
REMARK    5  A    between atoms: C9_15  and  C10_16 
ROOT
HETATM    1  C10 UNL     1     -33.384 -21.409 -35.896  1.00  0.00     0.123 A 
HETATM    2  N3  UNL     1     -33.293 -21.406 -34.524  1.00  0.00    -0.284 N 
ATOM      3  H3  UNL     1     -33.688 -22.113 -33.905  1.00  0.00     0.188 HD
HETATM    4  N4  UNL     1     -32.621 -20.354 -34.138  1.00  0.00    -0.285 N 
ATOM      5  H4  UNL     1     -32.412 -20.117 -33.168  1.00  0.00     0.188 HD
HETATM    6  C11 UNL     1     -32.247 -19.634 -35.203  1.00  0.00     0.136 A 
HETATM    7  N5  UNL     1     -32.716 -20.279 -36.274  1.00  0.00    -0.317 N 
HETATM    8  C12 UNL     1     -32.506 -19.736 -37.586  1.00  0.00     0.159 C 
HETATM    9  C13 UNL     1     -31.905 -18.381 -37.548  1.00  0.00     0.254 C 
HETATM   10  N6  UNL     1     -30.916 -18.163 -36.560  1.00  0.00    -0.058 N 
ATOM     11  H61 UNL     1     -30.497 -17.238 -36.648  1.00  0.00     0.278 HD
ATOM     12  H62 UNL     1     -30.085 -18.729 -36.732  1.00  0.00     0.278 HD
HETATM   13  C14 UNL     1     -31.445 -18.385 -35.214  1.00  0.00     0.184 C 
HETATM   14  C15 UNL     1     -30.252 -18.556 -34.306  1.00  0.00     0.047 C 
HETATM   15  C16 UNL     1     -30.141 -17.339 -33.382  1.00  0.00     0.003 C 
HETATM   16  C17 UNL     1     -31.395 -17.331 -32.541  1.00  0.00     0.000 C 
HETATM   17  C18 UNL     1     -32.559 -17.021 -33.424  1.00  0.00     0.003 C 
HETATM   18  C19 UNL     1     -32.289 -17.178 -34.885  1.00  0.00     0.047 C 
ENDROOT
BRANCH   1  19
HETATM   19  C9  UNL     1     -34.068 -22.440 -36.657  1.00  0.00     0.051 C 
BRANCH  19  20
HETATM   20  C8  UNL     1     -34.404 -23.631 -36.306  1.00  0.00     0.022 C 
BRANCH  20  21
HETATM   21  C7  UNL     1     -34.462 -24.805 -37.166  1.00  0.00     0.041 A 
HETATM   22  C5  UNL     1     -35.421 -25.822 -37.076  1.00  0.00     0.048 A 
HETATM   23  N1  UNL     1     -35.129 -26.704 -38.031  1.00  0.00    -0.301 N 
HETATM   24  N2  UNL     1     -34.081 -26.321 -38.696  1.00  0.00    -0.279 N 
ATOM     25  H1  UNL     1     -35.654 -27.559 -38.215  1.00  0.00     0.186 HD
HETATM   26  C6  UNL     1     -33.618 -25.132 -38.194  1.00  0.00     0.167 A 
ATOM     27  H2  UNL     1     -33.663 -26.830 -39.475  1.00  0.00     0.189 HD
BRANCH  22  28
HETATM   28  C2  UNL     1     -36.507 -25.856 -36.108  1.00  0.00    -0.006 C 
HETATM   29  C1  UNL     1     -37.339 -27.116 -36.363  1.00  0.00     0.021 C 
HETATM   30  C3  UNL     1     -37.469 -24.680 -36.297  1.00  0.00     0.021 C 
HETATM   31  C4  UNL     1     -36.039 -25.952 -34.671  1.00  0.00     0.021 C 
ENDBRANCH  22  28
BRANCH  26  32
HETATM   32  O1  UNL     1     -32.499 -24.459 -38.698  1.00  0.00    -0.344 OA
ATOM     33  H1  UNL     1     -32.508 -23.547 -38.962  1.00  0.00     0.219 HD
ENDBRANCH  26  32
ENDBRANCH  20  21
ENDBRANCH  19  20
ENDBRANCH   1  19
TORSDOF 5
ENDMDL
MODEL 2
REMARK VINA RESULT: -7.777274435      1.934      2.533
REMARK  5 active torsions:
REMARK  status: ('A' for Active; 'I' for Inactive)
REMARK    1  A    between atoms: C2_2  and  C5_5 
REMARK    2  A    between atoms: C6_10  and  O1_11 
REMARK    3  A    between atoms: C7_13  and  C8_14 
REMARK    4  A    between atoms: C8_14  and  C9_15 
REMARK    5  A    between atoms: C9_15  and  C10_16 
ROOT
HETATM    1  C10 UNL     1     -34.179 -22.583 -36.202  1.00  0.00     0.123 A 
HETATM    2  N3  UNL     1     -34.028 -22.595 -34.835  1.00  0.00    -0.284 N 
ATOM      3  H3  UNL     1     -34.399 -23.307 -34.207  1.00  0.00     0.188 HD
HETATM    4  N4  UNL     1     -33.334 -21.551 -34.467  1.00  0.00    -0.285 N 
ATOM      5  H4  UNL     1     -33.081 -21.325 -33.505  1.00  0.00     0.188 HD
HETATM    6  C11 UNL     1     -33.003 -20.821 -35.540  1.00  0.00     0.136 A 
HETATM    7  N5  UNL     1     -33.522 -21.452 -36.597  1.00  0.00    -0.317 N 
HETATM    8  C12 UNL     1     -33.367 -20.895 -37.911  1.00  0.00     0.159 C 
HETATM    9  C13 UNL     1     -32.758 -19.543 -37.885  1.00  0.00     0.254 C 
HETATM   10  N6  UNL     1     -31.725 -19.341 -36.938  1.00  0.00    -0.058 N 
ATOM     11  H61 UNL     1     -31.306 -18.417 -37.034  1.00  0.00     0.278 HD
ATOM     12  H62 UNL     1     -30.906 -19.909 -37.152  1.00  0.00     0.278 HD
HETATM   13  C14 UNL     1     -32.196 -19.575 -35.573  1.00  0.00     0.184 C 
HETATM   14  C15 UNL     1     -30.965 -19.762 -34.720  1.00  0.00     0.047 C 
HETATM   15  C16 UNL     1     -30.808 -18.556 -33.789  1.00  0.00     0.003 C 
HETATM   16  C17 UNL     1     -32.024 -18.552 -32.893  1.00  0.00     0.000 C 
HETATM   17  C18 UNL     1     -33.224 -18.226 -33.721  1.00  0.00     0.003 C 
HETATM   18  C19 UNL     1     -33.018 -18.368 -35.194  1.00  0.00     0.047 C 
ENDROOT
BRANCH   1  19
HETATM   19  C9  UNL     1     -34.900 -23.602 -36.944  1.00  0.00     0.051 C 
BRANCH  19  20
HETATM   20  C8  UNL     1     -34.768 -24.882 -36.919  1.00  0.00     0.022 C 
BRANCH  20  21
HETATM   21  C7  UNL     1     -35.616 -25.827 -36.206  1.00  0.00     0.041 A 
HETATM   22  C5  UNL     1     -36.511 -26.720 -36.811  1.00  0.00     0.048 A 
HETATM   23  N1  UNL     1     -37.089 -27.402 -35.823  1.00  0.00    -0.301 N 
HETATM   24  N2  UNL     1     -36.632 -27.010 -34.673  1.00  0.00    -0.279 N 
ATOM     25  H1  UNL     1     -37.792 -28.131 -35.953  1.00  0.00     0.186 HD
HETATM   26  C6  UNL     1     -35.702 -26.019 -34.853  1.00  0.00     0.167 A 
ATOM     27  H2  UNL     1     -36.922 -27.384 -33.769  1.00  0.00     0.189 HD
BRANCH  22  28
HETATM   28  C2  UNL     1     -36.725 -26.837 -38.245  1.00  0.00    -0.006 C 
HETATM   29  C1  UNL     1     -37.619 -28.054 -38.500  1.00  0.00     0.021 C 
HETATM   30  C3  UNL     1     -35.418 -27.122 -38.990  1.00  0.00     0.021 C 
HETATM   31  C4  UNL     1     -37.451 -25.655 -38.852  1.00  0.00     0.021 C 
ENDBRANCH  22  28
BRANCH  26  32
HETATM   32  O1  UNL     1     -35.025 -25.388 -33.803  1.00  0.00    -0.344 OA
ATOM     33  H1  UNL     1     -34.104 -25.161 -33.832  1.00  0.00     0.219 HD
ENDBRANCH  26  32
ENDBRANCH  20  21
ENDBRANCH  19  20
ENDBRANCH   1  19
TORSDOF 5
ENDMDL
MODEL 3
REMARK VINA RESULT: -7.771296796      3.014      8.398
REMARK  5 active torsions:
REMARK  status: ('A' for Active; 'I' for Inactive)
REMARK    1  A    between atoms: C2_2  and  C5_5 
REMARK    2  A    between atoms: C6_10  and  O1_11 
REMARK    3  A    between atoms: C7_13  and  C8_14 
REMARK    4  A    between atoms: C8_14  and  C9_15 
REMARK    5  A    between atoms: C9_15  and  C10_16 
ROOT
HETATM    1  C10 UNL     1     -32.903 -20.315 -37.558  1.00  0.00     0.123 A 
HETATM    2  N3  UNL     1     -32.500 -19.861 -38.792  1.00  0.00    -0.284 N 
ATOM      3  H3  UNL     1     -31.917 -19.041 -38.957  1.00  0.00     0.188 HD
HETATM    4  N4  UNL     1     -32.981 -20.645 -39.720  1.00  0.00    -0.285 N 
ATOM      5  H4  UNL     1     -32.829 -20.528 -40.721  1.00  0.00     0.188 HD
HETATM    6  C11 UNL     1     -33.702 -21.625 -39.161  1.00  0.00     0.136 A 
HETATM    7  N5  UNL     1     -33.655 -21.420 -37.842  1.00  0.00    -0.317 N 
HETATM    8  C12 UNL     1     -34.368 -22.295 -36.955  1.00  0.00     0.159 C 
HETATM    9  C13 UNL     1     -35.231 -23.257 -37.681  1.00  0.00     0.254 C 
HETATM   10  N6  UNL     1     -34.699 -23.793 -38.879  1.00  0.00    -0.058 N 
ATOM     11  H61 UNL     1     -35.316 -24.502 -39.276  1.00  0.00     0.278 HD
ATOM     12  H62 UNL     1     -33.884 -24.378 -38.696  1.00  0.00     0.278 HD
HETATM   13  C14 UNL     1     -34.397 -22.742 -39.849  1.00  0.00     0.184 C 
HETATM   14  C15 UNL     1     -33.464 -23.351 -40.866  1.00  0.00     0.047 C 
HETATM   15  C16 UNL     1     -34.200 -23.503 -42.201  1.00  0.00     0.003 C 
HETATM   16  C17 UNL     1     -34.558 -22.105 -42.647  1.00  0.00     0.000 C 
HETATM   17  C18 UNL     1     -35.590 -21.558 -41.715  1.00  0.00     0.003 C 
HETATM   18  C19 UNL     1     -35.720 -22.303 -40.428  1.00  0.00     0.047 C 
ENDROOT
BRANCH   1  19
HETATM   19  C9  UNL     1     -32.544 -19.674 -36.305  1.00  0.00     0.051 C 
BRANCH  19  20
HETATM   20  C8  UNL     1     -31.417 -19.178 -35.931  1.00  0.00     0.022 C 
BRANCH  20  21
HETATM   21  C7  UNL     1     -31.049 -17.770 -35.925  1.00  0.00     0.041 A 
HETATM   22  C5  UNL     1     -30.713 -17.030 -34.784  1.00  0.00     0.048 A 
HETATM   23  N1  UNL     1     -30.443 -15.794 -35.200  1.00  0.00    -0.301 N 
HETATM   24  N2  UNL     1     -30.582 -15.708 -36.488  1.00  0.00    -0.279 N 
ATOM     25  H1  UNL     1     -30.165 -15.022 -34.592  1.00  0.00     0.186 HD
HETATM   26  C6  UNL     1     -30.964 -16.923 -36.998  1.00  0.00     0.167 A 
ATOM     27  H2  UNL     1     -30.431 -14.864 -37.039  1.00  0.00     0.189 HD
BRANCH  22  28
HETATM   28  C2  UNL     1     -30.680 -17.562 -33.430  1.00  0.00    -0.006 C 
HETATM   29  C1  UNL     1     -29.926 -16.568 -32.541  1.00  0.00     0.021 C 
HETATM   30  C3  UNL     1     -29.885 -18.868 -33.356  1.00  0.00     0.021 C 
HETATM   31  C4  UNL     1     -32.050 -17.722 -32.805  1.00  0.00     0.021 C 
ENDBRANCH  22  28
BRANCH  26  32
HETATM   32  O1  UNL     1     -31.195 -17.157 -38.358  1.00  0.00    -0.344 OA
ATOM     33  H1  UNL     1     -30.969 -17.966 -38.800  1.00  0.00     0.219 HD
ENDBRANCH  26  32
ENDBRANCH  20  21
ENDBRANCH  19  20
ENDBRANCH   1  19
TORSDOF 5
ENDMDL
MODEL 4
REMARK VINA RESULT: -7.740424119      1.890      2.503
REMARK  5 active torsions:
REMARK  status: ('A' for Active; 'I' for Inactive)
REMARK    1  A    between atoms: C2_2  and  C5_5 
REMARK    2  A    between atoms: C6_10  and  O1_11 
REMARK    3  A    between atoms: C7_13  and  C8_14 
REMARK    4  A    between atoms: C8_14  and  C9_15 
REMARK    5  A    between atoms: C9_15  and  C10_16 
ROOT
HETATM    1  C10 UNL     1     -33.810 -22.123 -36.341  1.00  0.00     0.123 A 
HETATM    2  N3  UNL     1     -33.770 -22.202 -34.969  1.00  0.00    -0.284 N 
ATOM      3  H3  UNL     1     -34.179 -22.949 -34.409  1.00  0.00     0.188 HD
HETATM    4  N4  UNL     1     -33.127 -21.168 -34.495  1.00  0.00    -0.285 N 
ATOM      5  H4  UNL     1     -32.957 -20.988 -33.506  1.00  0.00     0.188 HD
HETATM    6  C11 UNL     1     -32.722 -20.382 -35.499  1.00  0.00     0.136 A 
HETATM    7  N5  UNL     1     -33.142 -20.965 -36.625  1.00  0.00    -0.317 N 
HETATM    8  C12 UNL     1     -32.891 -20.341 -37.893  1.00  0.00     0.159 C 
HETATM    9  C13 UNL     1     -32.309 -18.984 -37.751  1.00  0.00     0.254 C 
HETATM   10  N6  UNL     1     -31.361 -18.816 -36.714  1.00  0.00    -0.058 N 
ATOM     11  H61 UNL     1     -30.951 -17.883 -36.730  1.00  0.00     0.278 HD
ATOM     12  H62 UNL     1     -30.517 -19.362 -36.888  1.00  0.00     0.278 HD
HETATM   13  C14 UNL     1     -31.937 -19.125 -35.405  1.00  0.00     0.184 C 
HETATM   14  C15 UNL     1     -30.777 -19.338 -34.464  1.00  0.00     0.047 C 
HETATM   15  C16 UNL     1     -30.716 -18.178 -33.465  1.00  0.00     0.003 C 
HETATM   16  C17 UNL     1     -32.001 -18.235 -32.673  1.00  0.00     0.000 C 
HETATM   17  C18 UNL     1     -33.135 -17.884 -33.580  1.00  0.00     0.003 C 
HETATM   18  C19 UNL     1     -32.808 -17.950 -35.036  1.00  0.00     0.047 C 
ENDROOT
BRANCH   1  19
HETATM   19  C9  UNL     1     -34.451 -23.113 -37.189  1.00  0.00     0.051 C 
BRANCH  19  20
HETATM   20  C8  UNL     1     -34.045 -23.631 -38.295  1.00  0.00     0.022 C 
BRANCH  20  21
HETATM   21  C7  UNL     1     -34.315 -24.981 -38.770  1.00  0.00     0.041 A 
HETATM   22  C5  UNL     1     -35.167 -25.304 -39.834  1.00  0.00     0.048 A 
HETATM   23  N1  UNL     1     -35.141 -26.632 -39.950  1.00  0.00    -0.301 N 
HETATM   24  N2  UNL     1     -34.353 -27.149 -39.056  1.00  0.00    -0.279 N 
ATOM     25  H1  UNL     1     -35.665 -27.166 -40.642  1.00  0.00     0.186 HD
HETATM   26  C6  UNL     1     -33.806 -26.156 -38.284  1.00  0.00     0.167 A 
ATOM     27  H2  UNL     1     -34.169 -28.146 -38.944  1.00  0.00     0.189 HD
BRANCH  22  28
HETATM   28  C2  UNL     1     -35.910 -24.337 -40.627  1.00  0.00    -0.006 C 
HETATM   29  C1  UNL     1     -36.628 -25.087 -41.752  1.00  0.00     0.021 C 
HETATM   30  C3  UNL     1     -34.977 -23.342 -41.323  1.00  0.00     0.021 C 
HETATM   31  C4  UNL     1     -36.993 -23.617 -39.851  1.00  0.00     0.021 C 
ENDBRANCH  22  28
BRANCH  26  32
HETATM   32  O1  UNL     1     -32.914 -26.392 -37.233  1.00  0.00    -0.344 OA
ATOM     33  H1  UNL     1     -32.549 -25.706 -36.687  1.00  0.00     0.219 HD
ENDBRANCH  26  32
ENDBRANCH  20  21
ENDBRANCH  19  20
ENDBRANCH   1  19
TORSDOF 5
ENDMDL
MODEL 5
REMARK VINA RESULT: -7.731038854      2.447      8.345
REMARK  5 active torsions:
REMARK  status: ('A' for Active; 'I' for Inactive)
REMARK    1  A    between atoms: C2_2  and  C5_5 
REMARK    2  A    between atoms: C6_10  and  O1_11 
REMARK    3  A    between atoms: C7_13  and  C8_14 
REMARK    4  A    between atoms: C8_14  and  C9_15 
REMARK    5  A    between atoms: C9_15  and  C10_16 
ROOT
HETATM    1  C10 UNL     1     -33.191 -20.706 -37.022  1.00  0.00     0.123 A 
HETATM    2  N3  UNL     1     -33.118 -20.716 -38.395  1.00  0.00    -0.284 N 
ATOM      3  H3  UNL     1     -32.739 -19.965 -38.971  1.00  0.00     0.188 HD
HETATM    4  N4  UNL     1     -33.612 -21.839 -38.846  1.00  0.00    -0.285 N 
ATOM      5  H4  UNL     1     -33.675 -22.096 -39.831  1.00  0.00     0.188 HD
HETATM    6  C11 UNL     1     -34.021 -22.601 -37.825  1.00  0.00     0.136 A 
HETATM    7  N5  UNL     1     -33.766 -21.906 -36.713  1.00  0.00    -0.317 N 
HETATM    8  C12 UNL     1     -34.125 -22.447 -35.432  1.00  0.00     0.159 C 
HETATM    9  C13 UNL     1     -34.916 -23.695 -35.547  1.00  0.00     0.254 C 
HETATM   10  N6  UNL     1     -34.529 -24.589 -36.574  1.00  0.00    -0.058 N 
ATOM     11  H61 UNL     1     -35.067 -25.455 -36.538  1.00  0.00     0.278 HD
ATOM     12  H62 UNL     1     -33.600 -24.974 -36.403  1.00  0.00     0.278 HD
HETATM   13  C14 UNL     1     -34.615 -23.960 -37.891  1.00  0.00     0.184 C 
HETATM   14  C15 UNL     1     -33.793 -24.812 -38.828  1.00  0.00     0.047 C 
HETATM   15  C16 UNL     1     -34.725 -25.533 -39.806  1.00  0.00     0.003 C 
HETATM   16  C17 UNL     1     -35.413 -24.454 -40.607  1.00  0.00     0.000 C 
HETATM   17  C18 UNL     1     -36.335 -23.703 -39.703  1.00  0.00     0.003 C 
HETATM   18  C19 UNL     1     -36.080 -23.912 -38.246  1.00  0.00     0.047 C 
ENDROOT
BRANCH   1  19
HETATM   19  C9  UNL     1     -32.728 -19.604 -36.196  1.00  0.00     0.051 C 
BRANCH  19  20
HETATM   20  C8  UNL     1     -31.528 -19.209 -35.955  1.00  0.00     0.022 C 
BRANCH  20  21
HETATM   21  C7  UNL     1     -31.052 -17.833 -35.952  1.00  0.00     0.041 A 
HETATM   22  C5  UNL     1     -30.617 -17.134 -34.818  1.00  0.00     0.048 A 
HETATM   23  N1  UNL     1     -30.269 -15.917 -35.234  1.00  0.00    -0.301 N 
HETATM   24  N2  UNL     1     -30.450 -15.807 -36.516  1.00  0.00    -0.279 N 
ATOM     25  H1  UNL     1     -29.909 -15.176 -34.632  1.00  0.00     0.186 HD
HETATM   26  C6  UNL     1     -30.943 -16.983 -37.020  1.00  0.00     0.167 A 
ATOM     27  H2  UNL     1     -30.256 -14.970 -37.065  1.00  0.00     0.189 HD
BRANCH  22  28
HETATM   28  C2  UNL     1     -30.573 -17.682 -33.471  1.00  0.00    -0.006 C 
HETATM   29  C1  UNL     1     -29.971 -16.624 -32.541  1.00  0.00     0.021 C 
HETATM   30  C3  UNL     1     -29.636 -18.890 -33.383  1.00  0.00     0.021 C 
HETATM   31  C4  UNL     1     -31.938 -18.008 -32.901  1.00  0.00     0.021 C 
ENDBRANCH  22  28
BRANCH  26  32
HETATM   32  O1  UNL     1     -31.244 -17.183 -38.372  1.00  0.00    -0.344 OA
ATOM     33  H1  UNL     1     -31.172 -18.022 -38.810  1.00  0.00     0.219 HD
ENDBRANCH  26  32
ENDBRANCH  20  21
ENDBRANCH  19  20
ENDBRANCH   1  19
TORSDOF 5
ENDMDL
