MODEL 1
REMARK VINA RESULT: -5.552735330      0.000      0.000
REMARK  10 active torsions:
REMARK  status: ('A' for Active; 'I' for Inactive)
REMARK    1  A    between atoms: C2_2  and  C3_3 
REMARK    2  A    between atoms: C3_3  and  C4_4 
REMARK    3  A    between atoms: C4_4  and  C5_5 
REMARK    4  A    between atoms: C5_5  and  O1_6 
REMARK    5  A    between atoms: O1_6  and  C6_7 
REMARK    6  A    between atoms: C9_10  and  C10_11 
REMARK    7  A    between atoms: C10_11  and  O2_13 
REMARK    8  A    between atoms: C13_16  and  C14_17 
REMARK    9  A    between atoms: C14_17  and  C16_19 
REMARK   10  A    between atoms: C16_19  and  C17_20 
ROOT
HETATM    1  C6  UNL     1     -33.289 -23.649 -42.822  1.00  0.00     0.075 A 
HETATM    2  C7  UNL     1     -33.551 -24.450 -43.916  1.00  0.00     0.038 A 
HETATM    3  C8  UNL     1     -34.716 -25.202 -43.891  1.00  0.00     0.012 A 
HETATM    4  C9  UNL     1     -35.573 -25.146 -42.807  1.00  0.00    -0.029 A 
HETATM    5  C12 UNL     1     -35.242 -24.322 -41.747  1.00  0.00     0.020 A 
HETATM    6  C13 UNL     1     -34.091 -23.552 -41.721  1.00  0.00    -0.020 A 
ENDROOT
BRANCH   1   7
HETATM    7  O1  UNL     1     -32.128 -22.865 -42.864  1.00  0.00    -0.351 OA
BRANCH   7   8
HETATM    8  C5  UNL     1     -30.878 -23.482 -43.176  1.00  0.00     0.175 C 
BRANCH   8   9
HETATM    9  C4  UNL     1     -29.971 -23.324 -41.955  1.00  0.00     0.027 C 
BRANCH   9  10
HETATM   10  C3  UNL     1     -28.535 -23.324 -42.449  1.00  0.00     0.002 C 
BRANCH  10  11
HETATM   11  C2  UNL     1     -28.388 -22.905 -43.889  1.00  0.00    -0.004 C 
HETATM   12  C1  UNL     1     -27.033 -22.408 -44.262  1.00  0.00     0.005 C 
ENDBRANCH  10  11
ENDBRANCH   9  10
ENDBRANCH   8   9
ENDBRANCH   7   8
ENDBRANCH   1   7
BRANCH   6  13
HETATM   13  C14 UNL     1     -33.626 -22.830 -40.525  1.00  0.00     0.017 C 
HETATM   14  C15 UNL     1     -34.478 -21.514 -40.459  1.00  0.00     0.015 C 
BRANCH  13  15
HETATM   15  C16 UNL     1     -34.081 -23.589 -39.258  1.00  0.00     0.009 C 
BRANCH  15  16
HETATM   16  C17 UNL     1     -33.167 -24.711 -38.898  1.00  0.00    -0.004 C 
HETATM   17  C18 UNL     1     -33.968 -25.977 -38.717  1.00  0.00     0.005 C 
ENDBRANCH  15  16
ENDBRANCH  13  15
ENDBRANCH   6  13
BRANCH   4  18
HETATM   18  C10 UNL     1     -36.761 -25.990 -42.888  1.00  0.00     0.147 C 
HETATM   19  C11 UNL     1     -37.401 -26.082 -41.489  1.00  0.00     0.044 C 
BRANCH  18  20
HETATM   20  O2  UNL     1     -37.741 -25.450 -43.723  1.00  0.00    -0.391 OA
ATOM     21  H2  UNL     1     -37.530 -25.553 -44.643  1.00  0.00     0.210 HD
ENDBRANCH  18  20
ENDBRANCH   4  18
TORSDOF 10
ENDMDL
MODEL 2
REMARK VINA RESULT: -5.548914518      7.433      9.293
REMARK  10 active torsions:
REMARK  status: ('A' for Active; 'I' for Inactive)
REMARK    1  A    between atoms: C2_2  and  C3_3 
REMARK    2  A    between atoms: C3_3  and  C4_4 
REMARK    3  A    between atoms: C4_4  and  C5_5 
REMARK    4  A    between atoms: C5_5  and  O1_6 
REMARK    5  A    between atoms: O1_6  and  C6_7 
REMARK    6  A    between atoms: C9_10  and  C10_11 
REMARK    7  A    between atoms: C10_11  and  O2_13 
REMARK    8  A    between atoms: C13_16  and  C14_17 
REMARK    9  A    between atoms: C14_17  and  C16_19 
REMARK   10  A    between atoms: C16_19  and  C17_20 
ROOT
HETATM    1  C6  UNL     1     -31.416 -17.575 -36.133  1.00  0.00     0.075 A 
HETATM    2  C7  UNL     1     -31.692 -18.220 -37.323  1.00  0.00     0.038 A 
HETATM    3  C8  UNL     1     -32.262 -19.482 -37.246  1.00  0.00     0.012 A 
HETATM    4  C9  UNL     1     -32.538 -20.062 -36.022  1.00  0.00    -0.029 A 
HETATM    5  C12 UNL     1     -32.231 -19.356 -34.874  1.00  0.00     0.020 A 
HETATM    6  C13 UNL     1     -31.660 -18.095 -34.893  1.00  0.00    -0.020 A 
ENDROOT
BRANCH   1   7
HETATM    7  O1  UNL     1     -30.871 -16.287 -36.212  1.00  0.00    -0.351 OA
BRANCH   7   8
HETATM    8  C5  UNL     1     -30.066 -15.936 -37.338  1.00  0.00     0.175 C 
BRANCH   8   9
HETATM    9  C4  UNL     1     -30.432 -14.506 -37.737  1.00  0.00     0.027 C 
BRANCH   9  10
HETATM   10  C3  UNL     1     -30.901 -14.539 -39.181  1.00  0.00     0.002 C 
BRANCH  10  11
HETATM   11  C2  UNL     1     -30.528 -15.803 -39.912  1.00  0.00    -0.004 C 
HETATM   12  C1  UNL     1     -31.623 -16.402 -40.727  1.00  0.00     0.005 C 
ENDBRANCH  10  11
ENDBRANCH   9  10
ENDBRANCH   8   9
ENDBRANCH   7   8
ENDBRANCH   1   7
BRANCH   6  13
HETATM   13  C14 UNL     1     -31.147 -17.419 -33.690  1.00  0.00     0.017 C 
HETATM   14  C15 UNL     1     -32.199 -17.697 -32.560  1.00  0.00     0.015 C 
BRANCH  13  15
HETATM   15  C16 UNL     1     -29.896 -18.166 -33.176  1.00  0.00     0.009 C 
BRANCH  15  16
HETATM   16  C17 UNL     1     -28.626 -17.621 -33.739  1.00  0.00    -0.004 C 
HETATM   17  C18 UNL     1     -27.453 -18.175 -32.968  1.00  0.00     0.005 C 
ENDBRANCH  15  16
ENDBRANCH  13  15
ENDBRANCH   6  13
BRANCH   4  18
HETATM   18  C10 UNL     1     -33.126 -21.397 -36.068  1.00  0.00     0.147 C 
HETATM   19  C11 UNL     1     -33.530 -21.811 -34.638  1.00  0.00     0.044 C 
BRANCH  18  20
HETATM   20  O2  UNL     1     -34.300 -21.436 -36.823  1.00  0.00    -0.391 OA
ATOM     21  H2  UNL     1     -34.984 -21.943 -36.403  1.00  0.00     0.210 HD
ENDBRANCH  18  20
ENDBRANCH   4  18
TORSDOF 10
ENDMDL
MODEL 3
REMARK VINA RESULT: -5.506039285      3.247      6.063
REMARK  10 active torsions:
REMARK  status: ('A' for Active; 'I' for Inactive)
REMARK    1  A    between atoms: C2_2  and  C3_3 
REMARK    2  A    between atoms: C3_3  and  C4_4 
REMARK    3  A    between atoms: C4_4  and  C5_5 
REMARK    4  A    between atoms: C5_5  and  O1_6 
REMARK    5  A    between atoms: O1_6  and  C6_7 
REMARK    6  A    between atoms: C9_10  and  C10_11 
REMARK    7  A    between atoms: C10_11  and  O2_13 
REMARK    8  A    between atoms: C13_16  and  C14_17 
REMARK    9  A    between atoms: C14_17  and  C16_19 
REMARK   10  A    between atoms: C16_19  and  C17_20 
ROOT
HETATM    1  C6  UNL     1     -34.563 -22.993 -41.722  1.00  0.00     0.075 A 
HETATM    2  C7  UNL     1     -34.180 -22.405 -40.532  1.00  0.00     0.038 A 
HETATM    3  C8  UNL     1     -34.042 -23.233 -39.428  1.00  0.00     0.012 A 
HETATM    4  C9  UNL     1     -34.281 -24.591 -39.526  1.00  0.00    -0.029 A 
HETATM    5  C12 UNL     1     -34.663 -25.106 -40.750  1.00  0.00     0.020 A 
HETATM    6  C13 UNL     1     -34.817 -24.326 -41.884  1.00  0.00    -0.020 A 
ENDROOT
BRANCH   1   7
HETATM    7  O1  UNL     1     -34.670 -22.161 -42.844  1.00  0.00    -0.351 OA
BRANCH   7   8
HETATM    8  C5  UNL     1     -35.564 -21.048 -42.807  1.00  0.00     0.175 C 
BRANCH   8   9
HETATM    9  C4  UNL     1     -36.948 -21.556 -43.211  1.00  0.00     0.027 C 
BRANCH   9  10
HETATM   10  C3  UNL     1     -37.853 -21.435 -41.997  1.00  0.00     0.002 C 
BRANCH  10  11
HETATM   11  C2  UNL     1     -38.412 -22.751 -41.523  1.00  0.00    -0.004 C 
HETATM   12  C1  UNL     1     -37.904 -23.207 -40.197  1.00  0.00     0.005 C 
ENDBRANCH  10  11
ENDBRANCH   9  10
ENDBRANCH   8   9
ENDBRANCH   7   8
ENDBRANCH   1   7
BRANCH   6  13
HETATM   13  C14 UNL     1     -35.412 -24.821 -43.135  1.00  0.00     0.017 C 
HETATM   14  C15 UNL     1     -34.207 -25.251 -44.043  1.00  0.00     0.015 C 
BRANCH  13  15
HETATM   15  C16 UNL     1     -36.126 -26.165 -42.867  1.00  0.00     0.009 C 
BRANCH  15  16
HETATM   16  C17 UNL     1     -37.612 -26.056 -42.949  1.00  0.00    -0.004 C 
HETATM   17  C18 UNL     1     -37.997 -25.336 -44.218  1.00  0.00     0.005 C 
ENDBRANCH  15  16
ENDBRANCH  13  15
ENDBRANCH   6  13
BRANCH   4  18
HETATM   18  C10 UNL     1     -34.114 -25.358 -38.295  1.00  0.00     0.147 C 
HETATM   19  C11 UNL     1     -34.396 -26.844 -38.594  1.00  0.00     0.044 C 
BRANCH  18  20
HETATM   20  O2  UNL     1     -32.807 -25.307 -37.809  1.00  0.00    -0.391 OA
ATOM     21  H2  UNL     1     -32.194 -25.765 -38.371  1.00  0.00     0.210 HD
ENDBRANCH  18  20
ENDBRANCH   4  18
TORSDOF 10
ENDMDL
MODEL 4
REMARK VINA RESULT: -5.414496155      2.582      5.879
REMARK  10 active torsions:
REMARK  status: ('A' for Active; 'I' for Inactive)
REMARK    1  A    between atoms: C2_2  and  C3_3 
REMARK    2  A    between atoms: C3_3  and  C4_4 
REMARK    3  A    between atoms: C4_4  and  C5_5 
REMARK    4  A    between atoms: C5_5  and  O1_6 
REMARK    5  A    between atoms: O1_6  and  C6_7 
REMARK    6  A    between atoms: C9_10  and  C10_11 
REMARK    7  A    between atoms: C10_11  and  O2_13 
REMARK    8  A    between atoms: C13_16  and  C14_17 
REMARK    9  A    between atoms: C14_17  and  C16_19 
REMARK   10  A    between atoms: C16_19  and  C17_20 
ROOT
HETATM    1  C6  UNL     1     -34.042 -21.921 -40.567  1.00  0.00     0.075 A 
HETATM    2  C7  UNL     1     -34.325 -21.806 -39.221  1.00  0.00     0.038 A 
HETATM    3  C8  UNL     1     -34.349 -22.973 -38.472  1.00  0.00     0.012 A 
HETATM    4  C9  UNL     1     -34.098 -24.198 -39.062  1.00  0.00    -0.029 A 
HETATM    5  C12 UNL     1     -33.824 -24.234 -40.416  1.00  0.00     0.020 A 
HETATM    6  C13 UNL     1     -33.789 -23.100 -41.210  1.00  0.00    -0.020 A 
ENDROOT
BRANCH   1   7
HETATM    7  O1  UNL     1     -33.986 -20.737 -41.315  1.00  0.00    -0.351 OA
BRANCH   7   8
HETATM    8  C5  UNL     1     -35.106 -19.851 -41.307  1.00  0.00     0.175 C 
BRANCH   8   9
HETATM    9  C4  UNL     1     -36.146 -20.416 -42.275  1.00  0.00     0.027 C 
BRANCH   9  10
HETATM   10  C3  UNL     1     -37.402 -20.713 -41.475  1.00  0.00     0.002 C 
BRANCH  10  11
HETATM   11  C2  UNL     1     -37.888 -22.133 -41.613  1.00  0.00    -0.004 C 
HETATM   12  C1  UNL     1     -37.614 -23.006 -40.436  1.00  0.00     0.005 C 
ENDBRANCH  10  11
ENDBRANCH   9  10
ENDBRANCH   8   9
ENDBRANCH   7   8
ENDBRANCH   1   7
BRANCH   6  13
HETATM   13  C14 UNL     1     -33.699 -23.140 -42.679  1.00  0.00     0.017 C 
HETATM   14  C15 UNL     1     -32.182 -23.365 -43.009  1.00  0.00     0.015 C 
BRANCH  13  15
HETATM   15  C16 UNL     1     -34.352 -24.440 -43.198  1.00  0.00     0.009 C 
BRANCH  15  16
HETATM   16  C17 UNL     1     -35.753 -24.235 -43.666  1.00  0.00    -0.004 C 
HETATM   17  C18 UNL     1     -36.625 -25.360 -43.164  1.00  0.00     0.005 C 
ENDBRANCH  15  16
ENDBRANCH  13  15
ENDBRANCH   6  13
BRANCH   4  18
HETATM   18  C10 UNL     1     -34.162 -25.357 -38.177  1.00  0.00     0.147 C 
HETATM   19  C11 UNL     1     -34.685 -26.566 -38.978  1.00  0.00     0.044 C 
BRANCH  18  20
HETATM   20  O2  UNL     1     -32.905 -25.731 -37.698  1.00  0.00    -0.391 OA
ATOM     21  H2  UNL     1     -32.958 -26.209 -36.879  1.00  0.00     0.210 HD
ENDBRANCH  18  20
ENDBRANCH   4  18
TORSDOF 10
ENDMDL
MODEL 5
REMARK VINA RESULT: -5.403143653      3.965      7.790
REMARK  10 active torsions:
REMARK  status: ('A' for Active; 'I' for Inactive)
REMARK    1  A    between atoms: C2_2  and  C3_3 
REMARK    2  A    between atoms: C3_3  and  C4_4 
REMARK    3  A    between atoms: C4_4  and  C5_5 
REMARK    4  A    between atoms: C5_5  and  O1_6 
REMARK    5  A    between atoms: O1_6  and  C6_7 
REMARK    6  A    between atoms: C9_10  and  C10_11 
REMARK    7  A    between atoms: C10_11  and  O2_13 
REMARK    8  A    between atoms: C13_16  and  C14_17 
REMARK    9  A    between atoms: C14_17  and  C16_19 
REMARK   10  A    between atoms: C16_19  and  C17_20 
ROOT
HETATM    1  C6  UNL     1     -34.901 -23.177 -36.284  1.00  0.00     0.075 A 
HETATM    2  C7  UNL     1     -34.396 -22.890 -35.031  1.00  0.00     0.038 A 
HETATM    3  C8  UNL     1     -33.506 -21.830 -34.931  1.00  0.00     0.012 A 
HETATM    4  C9  UNL     1     -33.147 -21.098 -36.048  1.00  0.00    -0.029 A 
HETATM    5  C12 UNL     1     -33.694 -21.447 -37.268  1.00  0.00     0.020 A 
HETATM    6  C13 UNL     1     -34.585 -22.496 -37.425  1.00  0.00    -0.020 A 
ENDROOT
BRANCH   1   7
HETATM    7  O1  UNL     1     -35.825 -24.227 -36.378  1.00  0.00    -0.351 OA
BRANCH   7   8
HETATM    8  C5  UNL     1     -35.750 -25.310 -35.450  1.00  0.00     0.175 C 
BRANCH   8   9
HETATM    9  C4  UNL     1     -35.249 -26.536 -36.214  1.00  0.00     0.027 C 
BRANCH   9  10
HETATM   10  C3  UNL     1     -35.892 -26.513 -37.589  1.00  0.00     0.002 C 
BRANCH  10  11
HETATM   11  C2  UNL     1     -34.916 -26.711 -38.719  1.00  0.00    -0.004 C 
HETATM   12  C1  UNL     1     -33.486 -26.488 -38.358  1.00  0.00     0.005 C 
ENDBRANCH  10  11
ENDBRANCH   9  10
ENDBRANCH   8   9
ENDBRANCH   7   8
ENDBRANCH   1   7
BRANCH   6  13
HETATM   13  C14 UNL     1     -35.017 -23.005 -38.737  1.00  0.00     0.017 C 
HETATM   14  C15 UNL     1     -36.363 -22.266 -39.061  1.00  0.00     0.015 C 
BRANCH  13  15
HETATM   15  C16 UNL     1     -34.068 -22.469 -39.832  1.00  0.00     0.009 C 
BRANCH  15  16
HETATM   16  C17 UNL     1     -33.431 -23.559 -40.627  1.00  0.00    -0.004 C 
HETATM   17  C18 UNL     1     -34.444 -24.150 -41.577  1.00  0.00     0.005 C 
ENDBRANCH  15  16
ENDBRANCH  13  15
ENDBRANCH   6  13
BRANCH   4  18
HETATM   18  C10 UNL     1     -32.196 -20.015 -35.821  1.00  0.00     0.147 C 
HETATM   19  C11 UNL     1     -32.972 -18.757 -35.382  1.00  0.00     0.044 C 
BRANCH  18  20
HETATM   20  O2  UNL     1     -31.305 -20.297 -34.783  1.00  0.00    -0.391 OA
ATOM     21  H2  UNL     1     -31.227 -21.229 -34.617  1.00  0.00     0.210 HD
ENDBRANCH  18  20
ENDBRANCH   4  18
TORSDOF 10
ENDMDL
