MODEL 1
REMARK VINA RESULT: -5.978446348      0.000      0.000
REMARK  10 active torsions:
REMARK  status: ('A' for Active; 'I' for Inactive)
REMARK    1  A    between atoms: C2_2  and  C3_3 
REMARK    2  A    between atoms: C3_3  and  C4_4 
REMARK    3  A    between atoms: C4_4  and  C5_5 
REMARK    4  A    between atoms: C5_5  and  C6_6 
REMARK    5  A    between atoms: C6_6  and  C7_7 
REMARK    6  A    between atoms: C7_7  and  C8_9 
REMARK    7  A    between atoms: C8_9  and  C9_10 
REMARK    8  A    between atoms: C9_10  and  O2_11 
REMARK    9  A    between atoms: C9_10  and  C10_13 
REMARK   10  A    between atoms: C10_13  and  C11_14 
ROOT
HETATM    1  C9  UNL     1     -32.820 -20.668 -35.245  1.00  0.00     0.129 C 
ENDROOT
BRANCH   1   2
HETATM    2  C8  UNL     1     -33.580 -21.887 -34.823  1.00  0.00     0.110 C 
BRANCH   2   3
HETATM    3  C7  UNL     1     -34.146 -22.564 -36.007  1.00  0.00     0.129 C 
HETATM    4  O1  UNL     1     -33.440 -22.841 -36.948  1.00  0.00    -0.298 OA
BRANCH   3   5
HETATM    5  C6  UNL     1     -35.599 -22.918 -36.065  1.00  0.00     0.078 C 
BRANCH   5   6
HETATM    6  C5  UNL     1     -35.639 -24.294 -36.732  1.00  0.00     0.007 C 
BRANCH   6   7
HETATM    7  C4  UNL     1     -35.562 -25.387 -35.707  1.00  0.00     0.000 C 
BRANCH   7   8
HETATM    8  C3  UNL     1     -35.170 -26.670 -36.387  1.00  0.00    -0.000 C 
BRANCH   8   9
HETATM    9  C2  UNL     1     -34.845 -26.443 -37.830  1.00  0.00    -0.005 C 
HETATM   10  C1  UNL     1     -33.451 -26.977 -38.130  1.00  0.00     0.005 C 
ENDBRANCH   8   9
ENDBRANCH   7   8
ENDBRANCH   6   7
ENDBRANCH   5   6
ENDBRANCH   3   5
ENDBRANCH   2   3
ENDBRANCH   1   2
BRANCH   1  11
HETATM   11  O2  UNL     1     -33.501 -20.099 -36.376  1.00  0.00    -0.395 OA
ATOM     12  H2  UNL     1     -33.131 -20.486 -37.160  1.00  0.00     0.210 HD
ENDBRANCH   1  11
BRANCH   1  13
HETATM   13  C10 UNL     1     -32.804 -19.631 -34.159  1.00  0.00     0.070 C 
BRANCH  13  14
HETATM   14  C11 UNL     1     -31.694 -18.683 -34.388  1.00  0.00    -0.055 A 
HETATM   15  C12 UNL     1     -31.726 -17.566 -35.159  1.00  0.00     0.013 A 
HETATM   16  C13 UNL     1     -30.630 -16.729 -35.329  1.00  0.00    -0.061 A 
HETATM   17  C14 UNL     1     -30.708 -15.515 -36.184  1.00  0.00     0.048 C 
HETATM   18  C15 UNL     1     -29.461 -17.054 -34.683  1.00  0.00     0.013 A 
HETATM   19  C16 UNL     1     -29.383 -18.190 -33.882  1.00  0.00    -0.061 A 
HETATM   20  C17 UNL     1     -28.109 -18.548 -33.174  1.00  0.00     0.048 C 
HETATM   21  C18 UNL     1     -30.494 -18.994 -33.739  1.00  0.00     0.013 A 
ENDBRANCH  13  14
ENDBRANCH   1  13
TORSDOF 10
ENDMDL
MODEL 2
REMARK VINA RESULT: -5.972951849      6.219      7.902
REMARK  10 active torsions:
REMARK  status: ('A' for Active; 'I' for Inactive)
REMARK    1  A    between atoms: C2_2  and  C3_3 
REMARK    2  A    between atoms: C3_3  and  C4_4 
REMARK    3  A    between atoms: C4_4  and  C5_5 
REMARK    4  A    between atoms: C5_5  and  C6_6 
REMARK    5  A    between atoms: C6_6  and  C7_7 
REMARK    6  A    between atoms: C7_7  and  C8_9 
REMARK    7  A    between atoms: C8_9  and  C9_10 
REMARK    8  A    between atoms: C9_10  and  O2_11 
REMARK    9  A    between atoms: C9_10  and  C10_13 
REMARK   10  A    between atoms: C10_13  and  C11_14 
ROOT
HETATM    1  C9  UNL     1     -33.309 -23.339 -42.198  1.00  0.00     0.129 C 
ENDROOT
BRANCH   1   2
HETATM    2  C8  UNL     1     -34.520 -23.651 -43.023  1.00  0.00     0.110 C 
BRANCH   2   3
HETATM    3  C7  UNL     1     -34.394 -24.999 -43.614  1.00  0.00     0.129 C 
HETATM    4  O1  UNL     1     -33.646 -25.191 -44.543  1.00  0.00    -0.298 OA
BRANCH   3   5
HETATM    5  C6  UNL     1     -35.187 -26.148 -43.076  1.00  0.00     0.078 C 
BRANCH   5   6
HETATM    6  C5  UNL     1     -36.274 -25.504 -42.213  1.00  0.00     0.007 C 
BRANCH   6   7
HETATM    7  C4  UNL     1     -36.551 -26.333 -40.995  1.00  0.00     0.000 C 
BRANCH   7   8
HETATM    8  C3  UNL     1     -37.675 -25.703 -40.219  1.00  0.00    -0.000 C 
BRANCH   8   9
HETATM    9  C2  UNL     1     -37.995 -26.491 -38.988  1.00  0.00    -0.005 C 
HETATM   10  C1  UNL     1     -37.088 -27.713 -38.914  1.00  0.00     0.005 C 
ENDBRANCH   8   9
ENDBRANCH   7   8
ENDBRANCH   6   7
ENDBRANCH   5   6
ENDBRANCH   3   5
ENDBRANCH   2   3
ENDBRANCH   1   2
BRANCH   1  11
HETATM   11  O2  UNL     1     -32.404 -22.585 -43.021  1.00  0.00    -0.395 OA
ATOM     12  H2  UNL     1     -32.548 -21.664 -42.838  1.00  0.00     0.210 HD
ENDBRANCH   1  11
BRANCH   1  13
HETATM   13  C10 UNL     1     -33.661 -22.487 -41.014  1.00  0.00     0.070 C 
BRANCH  13  14
HETATM   14  C11 UNL     1     -34.085 -23.344 -39.887  1.00  0.00    -0.055 A 
HETATM   15  C12 UNL     1     -33.604 -24.576 -39.579  1.00  0.00     0.013 A 
HETATM   16  C13 UNL     1     -34.066 -25.323 -38.502  1.00  0.00    -0.061 A 
HETATM   17  C14 UNL     1     -33.512 -26.670 -38.200  1.00  0.00     0.048 C 
HETATM   18  C15 UNL     1     -35.057 -24.784 -37.717  1.00  0.00     0.013 A 
HETATM   19  C16 UNL     1     -35.579 -23.524 -37.996  1.00  0.00    -0.061 A 
HETATM   20  C17 UNL     1     -36.660 -22.930 -37.142  1.00  0.00     0.048 C 
HETATM   21  C18 UNL     1     -35.092 -22.814 -39.073  1.00  0.00     0.013 A 
ENDBRANCH  13  14
ENDBRANCH   1  13
TORSDOF 10
ENDMDL
MODEL 3
REMARK VINA RESULT: -5.929743266      2.023      8.304
REMARK  10 active torsions:
REMARK  status: ('A' for Active; 'I' for Inactive)
REMARK    1  A    between atoms: C2_2  and  C3_3 
REMARK    2  A    between atoms: C3_3  and  C4_4 
REMARK    3  A    between atoms: C4_4  and  C5_5 
REMARK    4  A    between atoms: C5_5  and  C6_6 
REMARK    5  A    between atoms: C6_6  and  C7_7 
REMARK    6  A    between atoms: C7_7  and  C8_9 
REMARK    7  A    between atoms: C8_9  and  C9_10 
REMARK    8  A    between atoms: C9_10  and  O2_11 
REMARK    9  A    between atoms: C9_10  and  C10_13 
REMARK   10  A    between atoms: C10_13  and  C11_14 
ROOT
HETATM    1  C9  UNL     1     -34.002 -22.310 -36.738  1.00  0.00     0.129 C 
ENDROOT
BRANCH   1   2
HETATM    2  C8  UNL     1     -33.265 -21.103 -36.244  1.00  0.00     0.110 C 
BRANCH   2   3
HETATM    3  C7  UNL     1     -33.138 -21.156 -34.774  1.00  0.00     0.129 C 
HETATM    4  O1  UNL     1     -33.269 -22.204 -34.187  1.00  0.00    -0.298 OA
BRANCH   3   5
HETATM    5  C6  UNL     1     -32.845 -19.918 -33.986  1.00  0.00     0.078 C 
BRANCH   5   6
HETATM    6  C5  UNL     1     -32.933 -18.778 -35.001  1.00  0.00     0.007 C 
BRANCH   6   7
HETATM    7  C4  UNL     1     -32.831 -17.446 -34.320  1.00  0.00     0.000 C 
BRANCH   7   8
HETATM    8  C3  UNL     1     -32.391 -17.655 -32.898  1.00  0.00    -0.000 C 
BRANCH   8   9
HETATM    9  C2  UNL     1     -31.232 -16.775 -32.552  1.00  0.00    -0.005 C 
HETATM   10  C1  UNL     1     -29.940 -17.416 -33.040  1.00  0.00     0.005 C 
ENDBRANCH   8   9
ENDBRANCH   7   8
ENDBRANCH   6   7
ENDBRANCH   5   6
ENDBRANCH   3   5
ENDBRANCH   2   3
ENDBRANCH   1   2
BRANCH   1  11
HETATM   11  O2  UNL     1     -35.331 -22.263 -36.193  1.00  0.00    -0.395 OA
ATOM     12  H2  UNL     1     -35.570 -23.147 -35.940  1.00  0.00     0.210 HD
ENDBRANCH   1  11
BRANCH   1  13
HETATM   13  C10 UNL     1     -34.126 -22.299 -38.234  1.00  0.00     0.070 C 
BRANCH  13  14
HETATM   14  C11 UNL     1     -34.383 -23.669 -38.725  1.00  0.00    -0.055 A 
HETATM   15  C12 UNL     1     -35.151 -24.019 -39.788  1.00  0.00     0.013 A 
HETATM   16  C13 UNL     1     -35.349 -25.337 -40.180  1.00  0.00    -0.061 A 
HETATM   17  C14 UNL     1     -36.200 -25.678 -41.351  1.00  0.00     0.048 C 
HETATM   18  C15 UNL     1     -34.735 -26.329 -39.452  1.00  0.00     0.013 A 
HETATM   19  C16 UNL     1     -33.938 -26.015 -38.355  1.00  0.00    -0.061 A 
HETATM   20  C17 UNL     1     -33.264 -27.093 -37.557  1.00  0.00     0.048 C 
HETATM   21  C18 UNL     1     -33.766 -24.694 -37.999  1.00  0.00     0.013 A 
ENDBRANCH  13  14
ENDBRANCH   1  13
TORSDOF 10
ENDMDL
MODEL 4
REMARK VINA RESULT: -5.875718936      0.466      1.982
REMARK  10 active torsions:
REMARK  status: ('A' for Active; 'I' for Inactive)
REMARK    1  A    between atoms: C2_2  and  C3_3 
REMARK    2  A    between atoms: C3_3  and  C4_4 
REMARK    3  A    between atoms: C4_4  and  C5_5 
REMARK    4  A    between atoms: C5_5  and  C6_6 
REMARK    5  A    between atoms: C6_6  and  C7_7 
REMARK    6  A    between atoms: C7_7  and  C8_9 
REMARK    7  A    between atoms: C8_9  and  C9_10 
REMARK    8  A    between atoms: C9_10  and  O2_11 
REMARK    9  A    between atoms: C9_10  and  C10_13 
REMARK   10  A    between atoms: C10_13  and  C11_14 
ROOT
HETATM    1  C9  UNL     1     -32.838 -20.609 -35.265  1.00  0.00     0.129 C 
ENDROOT
BRANCH   1   2
HETATM    2  C8  UNL     1     -33.619 -21.810 -34.831  1.00  0.00     0.110 C 
BRANCH   2   3
HETATM    3  C7  UNL     1     -34.092 -22.559 -36.012  1.00  0.00     0.129 C 
HETATM    4  O1  UNL     1     -33.370 -22.709 -36.970  1.00  0.00    -0.298 OA
BRANCH   3   5
HETATM    5  C6  UNL     1     -35.468 -23.146 -36.047  1.00  0.00     0.078 C 
BRANCH   5   6
HETATM    6  C5  UNL     1     -35.459 -24.094 -37.248  1.00  0.00     0.007 C 
BRANCH   6   7
HETATM    7  C4  UNL     1     -35.457 -25.525 -36.799  1.00  0.00     0.000 C 
BRANCH   7   8
HETATM    8  C3  UNL     1     -35.710 -26.411 -37.987  1.00  0.00    -0.000 C 
BRANCH   8   9
HETATM    9  C2  UNL     1     -34.439 -26.730 -38.708  1.00  0.00    -0.005 C 
HETATM   10  C1  UNL     1     -33.346 -27.055 -37.698  1.00  0.00     0.005 C 
ENDBRANCH   8   9
ENDBRANCH   7   8
ENDBRANCH   6   7
ENDBRANCH   5   6
ENDBRANCH   3   5
ENDBRANCH   2   3
ENDBRANCH   1   2
BRANCH   1  11
HETATM   11  O2  UNL     1     -33.489 -20.062 -36.424  1.00  0.00    -0.395 OA
ATOM     12  H2  UNL     1     -33.418 -19.116 -36.376  1.00  0.00     0.210 HD
ENDBRANCH   1  11
BRANCH   1  13
HETATM   13  C10 UNL     1     -32.837 -19.546 -34.204  1.00  0.00     0.070 C 
BRANCH  13  14
HETATM   14  C11 UNL     1     -31.600 -18.744 -34.300  1.00  0.00    -0.055 A 
HETATM   15  C12 UNL     1     -30.403 -19.026 -33.726  1.00  0.00     0.013 A 
HETATM   16  C13 UNL     1     -29.286 -18.210 -33.859  1.00  0.00    -0.061 A 
HETATM   17  C14 UNL     1     -27.993 -18.556 -33.212  1.00  0.00     0.048 C 
HETATM   18  C15 UNL     1     -29.406 -17.064 -34.609  1.00  0.00     0.013 A 
HETATM   19  C16 UNL     1     -30.616 -16.736 -35.216  1.00  0.00    -0.061 A 
HETATM   20  C17 UNL     1     -30.753 -15.487 -36.036  1.00  0.00     0.048 C 
HETATM   21  C18 UNL     1     -31.700 -17.573 -35.060  1.00  0.00     0.013 A 
ENDBRANCH  13  14
ENDBRANCH   1  13
TORSDOF 10
ENDMDL
MODEL 5
REMARK VINA RESULT: -5.849066292      6.334      7.791
REMARK  10 active torsions:
REMARK  status: ('A' for Active; 'I' for Inactive)
REMARK    1  A    between atoms: C2_2  and  C3_3 
REMARK    2  A    between atoms: C3_3  and  C4_4 
REMARK    3  A    between atoms: C4_4  and  C5_5 
REMARK    4  A    between atoms: C5_5  and  C6_6 
REMARK    5  A    between atoms: C6_6  and  C7_7 
REMARK    6  A    between atoms: C7_7  and  C8_9 
REMARK    7  A    between atoms: C8_9  and  C9_10 
REMARK    8  A    between atoms: C9_10  and  O2_11 
REMARK    9  A    between atoms: C9_10  and  C10_13 
REMARK   10  A    between atoms: C10_13  and  C11_14 
ROOT
HETATM    1  C9  UNL     1     -33.311 -23.339 -42.193  1.00  0.00     0.129 C 
ENDROOT
BRANCH   1   2
HETATM    2  C8  UNL     1     -34.504 -23.641 -43.046  1.00  0.00     0.110 C 
BRANCH   2   3
HETATM    3  C7  UNL     1     -34.380 -24.993 -43.627  1.00  0.00     0.129 C 
HETATM    4  O1  UNL     1     -33.628 -25.194 -44.551  1.00  0.00    -0.298 OA
BRANCH   3   5
HETATM    5  C6  UNL     1     -35.181 -26.136 -43.085  1.00  0.00     0.078 C 
BRANCH   5   6
HETATM    6  C5  UNL     1     -36.232 -25.485 -42.185  1.00  0.00     0.007 C 
BRANCH   6   7
HETATM    7  C4  UNL     1     -36.623 -26.405 -41.067  1.00  0.00     0.000 C 
BRANCH   7   8
HETATM    8  C3  UNL     1     -37.792 -25.812 -40.330  1.00  0.00    -0.000 C 
BRANCH   8   9
HETATM    9  C2  UNL     1     -38.097 -26.583 -39.085  1.00  0.00    -0.005 C 
HETATM   10  C1  UNL     1     -37.097 -27.721 -38.930  1.00  0.00     0.005 C 
ENDBRANCH   8   9
ENDBRANCH   7   8
ENDBRANCH   6   7
ENDBRANCH   5   6
ENDBRANCH   3   5
ENDBRANCH   2   3
ENDBRANCH   1   2
BRANCH   1  11
HETATM   11  O2  UNL     1     -32.331 -22.697 -43.027  1.00  0.00    -0.395 OA
ATOM     12  H2  UNL     1     -31.530 -22.619 -42.522  1.00  0.00     0.210 HD
ENDBRANCH   1  11
BRANCH   1  13
HETATM   13  C10 UNL     1     -33.658 -22.386 -41.087  1.00  0.00     0.070 C 
BRANCH  13  14
HETATM   14  C11 UNL     1     -34.267 -23.124 -39.962  1.00  0.00    -0.055 A 
HETATM   15  C12 UNL     1     -35.307 -22.716 -39.191  1.00  0.00     0.013 A 
HETATM   16  C13 UNL     1     -35.817 -23.471 -38.141  1.00  0.00    -0.061 A 
HETATM   17  C14 UNL     1     -36.958 -22.985 -37.321  1.00  0.00     0.048 C 
HETATM   18  C15 UNL     1     -35.236 -24.688 -37.877  1.00  0.00     0.013 A 
HETATM   19  C16 UNL     1     -34.167 -25.147 -38.642  1.00  0.00    -0.061 A 
HETATM   20  C17 UNL     1     -33.529 -26.475 -38.359  1.00  0.00     0.048 C 
HETATM   21  C18 UNL     1     -33.692 -24.368 -39.675  1.00  0.00     0.013 A 
ENDBRANCH  13  14
ENDBRANCH   1  13
TORSDOF 10
ENDMDL
