MODEL 1
REMARK VINA RESULT: -7.170570656      0.000      0.000
REMARK  4 active torsions:
REMARK  status: ('A' for Active; 'I' for Inactive)
REMARK    1  A    between atoms: C4_8  and  C5_9 
REMARK    2  A    between atoms: C5_9  and  C6_10 
REMARK    3  A    between atoms: C6_10  and  C7_11 
REMARK    4  A    between atoms: C7_11  and  C8_12 
ROOT
HETATM    1  F1  UNL     1      21.377  34.402  18.411  1.00  0.00    -0.170 F 
HETATM    2  C1  UNL     1      22.543  34.450  19.186  1.00  0.00     0.391 C 
HETATM    3  F2  UNL     1      22.202  34.408  20.525  1.00  0.00    -0.170 F 
HETATM    4  O1  UNL     1      23.230  35.632  18.995  1.00  0.00    -0.311 OA
HETATM    5  C2  UNL     1      23.652  35.723  17.672  1.00  0.00     0.254 C 
HETATM    6  S1  UNL     1      24.365  34.027  17.473  1.00  0.00    -0.100 SA
HETATM    7  C3  UNL     1      23.398  33.321  18.791  1.00  0.00     0.077 C 
HETATM    8  C4  UNL     1      23.438  32.121  19.274  1.00  0.00    -0.004 C 
ENDROOT
BRANCH   8   9
HETATM    9  C5  UNL     1      24.349  31.050  18.793  1.00  0.00     0.028 C 
BRANCH   9  10
HETATM   10  C6  UNL     1      23.734  29.704  19.054  1.00  0.00     0.004 C 
BRANCH  10  11
HETATM   11  C7  UNL     1      22.329  29.876  19.515  1.00  0.00     0.005 C 
BRANCH  11  12
HETATM   12  C8  UNL     1      21.864  28.741  20.406  1.00  0.00    -0.014 C 
HETATM   13  C9  UNL     1      22.960  27.830  20.848  1.00  0.00     0.004 C 
HETATM   14  C10 UNL     1      22.281  27.015  21.930  1.00  0.00     0.000 C 
HETATM   15  C11 UNL     1      21.364  27.991  22.612  1.00  0.00     0.000 C 
HETATM   16  C12 UNL     1      21.226  29.189  21.675  1.00  0.00     0.004 C 
ENDBRANCH  11  12
ENDBRANCH  10  11
ENDBRANCH   9  10
ENDBRANCH   8   9
TORSDOF 4
ENDMDL
MODEL 2
REMARK VINA RESULT: -6.975959941      3.011      4.666
REMARK  4 active torsions:
REMARK  status: ('A' for Active; 'I' for Inactive)
REMARK    1  A    between atoms: C4_8  and  C5_9 
REMARK    2  A    between atoms: C5_9  and  C6_10 
REMARK    3  A    between atoms: C6_10  and  C7_11 
REMARK    4  A    between atoms: C7_11  and  C8_12 
ROOT
HETATM    1  F1  UNL     1      20.858  39.008  17.081  1.00  0.00    -0.170 F 
HETATM    2  C1  UNL     1      21.846  39.169  18.061  1.00  0.00     0.391 C 
HETATM    3  F2  UNL     1      21.248  39.224  19.306  1.00  0.00    -0.170 F 
HETATM    4  O1  UNL     1      22.528  40.358  17.903  1.00  0.00    -0.311 OA
HETATM    5  C2  UNL     1      23.201  40.357  16.685  1.00  0.00     0.254 C 
HETATM    6  S1  UNL     1      23.982  38.682  16.782  1.00  0.00    -0.100 SA
HETATM    7  C3  UNL     1      22.790  38.047  17.944  1.00  0.00     0.077 C 
HETATM    8  C4  UNL     1      22.764  36.895  18.530  1.00  0.00    -0.004 C 
ENDROOT
BRANCH   8   9
HETATM    9  C5  UNL     1      23.778  35.827  18.334  1.00  0.00     0.028 C 
BRANCH   9  10
HETATM   10  C6  UNL     1      23.175  34.488  18.653  1.00  0.00     0.004 C 
BRANCH  10  11
HETATM   11  C7  UNL     1      24.138  33.409  18.299  1.00  0.00     0.005 C 
BRANCH  11  12
HETATM   12  C8  UNL     1      23.959  32.165  19.146  1.00  0.00    -0.014 C 
HETATM   13  C9  UNL     1      22.536  31.856  19.475  1.00  0.00     0.004 C 
HETATM   14  C10 UNL     1      22.636  30.452  20.036  1.00  0.00     0.000 C 
HETATM   15  C11 UNL     1      23.708  29.796  19.212  1.00  0.00     0.000 C 
HETATM   16  C12 UNL     1      24.466  30.918  18.508  1.00  0.00     0.004 C 
ENDBRANCH  11  12
ENDBRANCH  10  11
ENDBRANCH   9  10
ENDBRANCH   8   9
TORSDOF 4
ENDMDL
MODEL 3
REMARK VINA RESULT: -6.880134476      0.415      1.070
REMARK  4 active torsions:
REMARK  status: ('A' for Active; 'I' for Inactive)
REMARK    1  A    between atoms: C4_8  and  C5_9 
REMARK    2  A    between atoms: C5_9  and  C6_10 
REMARK    3  A    between atoms: C6_10  and  C7_11 
REMARK    4  A    between atoms: C7_11  and  C8_12 
ROOT
HETATM    1  F1  UNL     1      21.432  34.608  18.394  1.00  0.00    -0.170 F 
HETATM    2  C1  UNL     1      22.655  34.696  19.072  1.00  0.00     0.391 C 
HETATM    3  F2  UNL     1      22.426  34.639  20.434  1.00  0.00    -0.170 F 
HETATM    4  O1  UNL     1      23.284  35.901  18.831  1.00  0.00    -0.311 OA
HETATM    5  C2  UNL     1      23.593  36.009  17.479  1.00  0.00     0.254 C 
HETATM    6  S1  UNL     1      24.346  34.339  17.216  1.00  0.00    -0.100 SA
HETATM    7  C3  UNL     1      23.514  33.597  18.604  1.00  0.00     0.077 C 
HETATM    8  C4  UNL     1      23.634  32.399  19.076  1.00  0.00    -0.004 C 
ENDROOT
BRANCH   8   9
HETATM    9  C5  UNL     1      24.540  31.361  18.518  1.00  0.00     0.028 C 
BRANCH   9  10
HETATM   10  C6  UNL     1      24.015  29.994  18.854  1.00  0.00     0.004 C 
BRANCH  10  11
HETATM   11  C7  UNL     1      22.692  30.116  19.526  1.00  0.00     0.005 C 
BRANCH  11  12
HETATM   12  C8  UNL     1      22.595  29.275  20.783  1.00  0.00    -0.014 C 
HETATM   13  C9  UNL     1      21.241  29.276  21.409  1.00  0.00     0.004 C 
HETATM   14  C10 UNL     1      21.355  28.152  22.419  1.00  0.00     0.000 C 
HETATM   15  C11 UNL     1      22.216  27.125  21.738  1.00  0.00     0.000 C 
HETATM   16  C12 UNL     1      22.899  27.832  20.571  1.00  0.00     0.004 C 
ENDBRANCH  11  12
ENDBRANCH  10  11
ENDBRANCH   9  10
ENDBRANCH   8   9
TORSDOF 4
ENDMDL
MODEL 4
REMARK VINA RESULT: -6.772873339      3.275      4.890
REMARK  4 active torsions:
REMARK  status: ('A' for Active; 'I' for Inactive)
REMARK    1  A    between atoms: C4_8  and  C5_9 
REMARK    2  A    between atoms: C5_9  and  C6_10 
REMARK    3  A    between atoms: C6_10  and  C7_11 
REMARK    4  A    between atoms: C7_11  and  C8_12 
ROOT
HETATM    1  F1  UNL     1      20.486  39.292  17.205  1.00  0.00    -0.170 F 
HETATM    2  C1  UNL     1      21.547  39.495  18.097  1.00  0.00     0.391 C 
HETATM    3  F2  UNL     1      21.053  39.561  19.386  1.00  0.00    -0.170 F 
HETATM    4  O1  UNL     1      22.184  40.697  17.861  1.00  0.00    -0.311 OA
HETATM    5  C2  UNL     1      22.755  40.687  16.592  1.00  0.00     0.254 C 
HETATM    6  S1  UNL     1      23.581  39.033  16.655  1.00  0.00    -0.100 SA
HETATM    7  C3  UNL     1      22.506  38.393  17.922  1.00  0.00     0.077 C 
HETATM    8  C4  UNL     1      22.556  37.253  18.529  1.00  0.00    -0.004 C 
ENDROOT
BRANCH   8   9
HETATM    9  C5  UNL     1      23.577  36.205  18.269  1.00  0.00     0.028 C 
BRANCH   9  10
HETATM   10  C6  UNL     1      23.120  34.895  18.847  1.00  0.00     0.004 C 
BRANCH  10  11
HETATM   11  C7  UNL     1      24.116  33.834  18.529  1.00  0.00     0.005 C 
BRANCH  11  12
HETATM   12  C8  UNL     1      23.526  32.440  18.601  1.00  0.00    -0.014 C 
HETATM   13  C9  UNL     1      24.526  31.374  18.904  1.00  0.00     0.004 C 
HETATM   14  C10 UNL     1      23.641  30.184  19.214  1.00  0.00     0.000 C 
HETATM   15  C11 UNL     1      22.460  30.774  19.930  1.00  0.00     0.000 C 
HETATM   16  C12 UNL     1      22.486  32.275  19.655  1.00  0.00     0.004 C 
ENDBRANCH  11  12
ENDBRANCH  10  11
ENDBRANCH   9  10
ENDBRANCH   8   9
TORSDOF 4
ENDMDL
MODEL 5
REMARK VINA RESULT: -6.721452093      3.248      4.861
REMARK  4 active torsions:
REMARK  status: ('A' for Active; 'I' for Inactive)
REMARK    1  A    between atoms: C4_8  and  C5_9 
REMARK    2  A    between atoms: C5_9  and  C6_10 
REMARK    3  A    between atoms: C6_10  and  C7_11 
REMARK    4  A    between atoms: C7_11  and  C8_12 
ROOT
HETATM    1  F1  UNL     1      24.410  39.483  16.734  1.00  0.00    -0.170 F 
HETATM    2  C1  UNL     1      23.222  38.755  16.583  1.00  0.00     0.391 C 
HETATM    3  F2  UNL     1      23.218  38.143  15.344  1.00  0.00    -0.170 F 
HETATM    4  O1  UNL     1      22.115  39.579  16.615  1.00  0.00    -0.311 OA
HETATM    5  C2  UNL     1      22.023  40.196  17.859  1.00  0.00     0.254 C 
HETATM    6  S1  UNL     1      22.289  38.719  18.941  1.00  0.00    -0.100 SA
HETATM    7  C3  UNL     1      23.140  37.786  17.686  1.00  0.00     0.077 C 
HETATM    8  C4  UNL     1      23.574  36.568  17.735  1.00  0.00    -0.004 C 
ENDROOT
BRANCH   8   9
HETATM    9  C5  UNL     1      23.436  35.672  18.912  1.00  0.00     0.028 C 
BRANCH   9  10
HETATM   10  C6  UNL     1      22.955  34.319  18.468  1.00  0.00     0.004 C 
BRANCH  10  11
HETATM   11  C7  UNL     1      24.115  33.395  18.336  1.00  0.00     0.005 C 
BRANCH  11  12
HETATM   12  C8  UNL     1      23.953  32.134  19.161  1.00  0.00    -0.014 C 
HETATM   13  C9  UNL     1      22.538  31.821  19.519  1.00  0.00     0.004 C 
HETATM   14  C10 UNL     1      22.648  30.405  20.048  1.00  0.00     0.000 C 
HETATM   15  C11 UNL     1      23.698  29.765  19.184  1.00  0.00     0.000 C 
HETATM   16  C12 UNL     1      24.441  30.900  18.485  1.00  0.00     0.004 C 
ENDBRANCH  11  12
ENDBRANCH  10  11
ENDBRANCH   9  10
ENDBRANCH   8   9
TORSDOF 4
ENDMDL
