MODEL 1
REMARK VINA RESULT: -5.907999475      0.000      0.000
REMARK  5 active torsions:
REMARK  status: ('A' for Active; 'I' for Inactive)
REMARK    1  A    between atoms: C2_2  and  O1_4 
REMARK    2  A    between atoms: O1_4  and  C4_5 
REMARK    3  A    between atoms: C4_5  and  C5_6 
REMARK    4  A    between atoms: C4_5  and  S1_14 
REMARK    5  A    between atoms: C5_6  and  C6_7 
ROOT
HETATM    1  C5  UNL     1      23.274  31.693  19.865  1.00  0.00     0.050 C 
ENDROOT
BRANCH   1   2
HETATM    2  C4  UNL     1      22.639  30.345  19.740  1.00  0.00     0.217 C 
BRANCH   2   3
HETATM    3  O1  UNL     1      22.469  29.905  21.066  1.00  0.00    -0.369 OA
BRANCH   3   4
HETATM    4  C2  UNL     1      21.499  28.917  21.158  1.00  0.00     0.115 C 
HETATM    5  C1  UNL     1      22.238  27.634  21.474  1.00  0.00     0.039 C 
HETATM    6  C3  UNL     1      20.527  29.156  22.279  1.00  0.00     0.039 C 
ENDBRANCH   3   4
ENDBRANCH   2   3
BRANCH   2   7
HETATM    7  S1  UNL     1      23.750  29.237  18.839  1.00  0.00     0.073 SA
HETATM    8  F1  UNL     1      25.106  30.130  18.321  1.00  0.00    -0.162 F 
ENDBRANCH   2   7
ENDBRANCH   1   2
BRANCH   1   9
HETATM    9  C6  UNL     1      23.063  32.638  18.712  1.00  0.00    -0.011 C 
HETATM   10  C7  UNL     1      22.167  33.782  19.043  1.00  0.00     0.005 C 
HETATM   11  C8  UNL     1      22.869  35.010  19.530  1.00  0.00     0.004 C 
HETATM   12  C9  UNL     1      23.973  35.475  18.622  1.00  0.00    -0.019 C 
HETATM   13  C10 UNL     1      23.506  36.713  17.892  1.00  0.00     0.010 C 
HETATM   14  C11 UNL     1      24.344  34.395  17.606  1.00  0.00     0.004 C 
HETATM   15  C12 UNL     1      24.491  33.126  18.384  1.00  0.00     0.005 C 
ENDBRANCH   1   9
TORSDOF 5
ENDMDL
MODEL 2
REMARK VINA RESULT: -5.866841347      4.554      7.346
REMARK  5 active torsions:
REMARK  status: ('A' for Active; 'I' for Inactive)
REMARK    1  A    between atoms: C2_2  and  O1_4 
REMARK    2  A    between atoms: O1_4  and  C4_5 
REMARK    3  A    between atoms: C4_5  and  C5_6 
REMARK    4  A    between atoms: C4_5  and  S1_14 
REMARK    5  A    between atoms: C5_6  and  C6_7 
ROOT
HETATM    1  C5  UNL     1      23.481  36.403  17.472  1.00  0.00     0.050 C 
ENDROOT
BRANCH   1   2
HETATM    2  C4  UNL     1      23.340  37.815  17.946  1.00  0.00     0.217 C 
BRANCH   2   3
HETATM    3  O1  UNL     1      21.958  37.989  18.147  1.00  0.00    -0.369 OA
BRANCH   3   4
HETATM    4  C2  UNL     1      21.583  39.317  18.009  1.00  0.00     0.115 C 
HETATM    5  C1  UNL     1      20.095  39.304  17.727  1.00  0.00     0.039 C 
HETATM    6  C3  UNL     1      21.788  40.116  19.266  1.00  0.00     0.039 C 
ENDBRANCH   3   4
ENDBRANCH   2   3
BRANCH   2   7
HETATM    7  S1  UNL     1      23.944  38.943  16.667  1.00  0.00     0.073 SA
HETATM    8  F1  UNL     1      25.530  39.422  17.069  1.00  0.00    -0.162 F 
ENDBRANCH   2   7
ENDBRANCH   1   2
BRANCH   1   9
HETATM    9  C6  UNL     1      24.002  35.412  18.478  1.00  0.00    -0.011 C 
HETATM   10  C7  UNL     1      22.991  35.020  19.499  1.00  0.00     0.005 C 
HETATM   11  C8  UNL     1      22.194  33.800  19.159  1.00  0.00     0.004 C 
HETATM   12  C9  UNL     1      23.036  32.610  18.794  1.00  0.00    -0.019 C 
HETATM   13  C10 UNL     1      23.002  31.627  19.942  1.00  0.00     0.010 C 
HETATM   14  C11 UNL     1      24.483  33.021  18.521  1.00  0.00     0.004 C 
HETATM   15  C12 UNL     1      24.414  34.204  17.609  1.00  0.00     0.005 C 
ENDBRANCH   1   9
TORSDOF 5
ENDMDL
MODEL 3
REMARK VINA RESULT: -5.825790019      4.941      8.016
REMARK  5 active torsions:
REMARK  status: ('A' for Active; 'I' for Inactive)
REMARK    1  A    between atoms: C2_2  and  O1_4 
REMARK    2  A    between atoms: O1_4  and  C4_5 
REMARK    3  A    between atoms: C4_5  and  C5_6 
REMARK    4  A    between atoms: C4_5  and  S1_14 
REMARK    5  A    between atoms: C5_6  and  C6_7 
ROOT
HETATM    1  C5  UNL     1      23.642  36.607  18.171  1.00  0.00     0.050 C 
ENDROOT
BRANCH   1   2
HETATM    2  C4  UNL     1      23.149  37.736  17.323  1.00  0.00     0.217 C 
BRANCH   2   3
HETATM    3  O1  UNL     1      24.312  38.428  16.937  1.00  0.00    -0.369 OA
BRANCH   3   4
HETATM    4  C2  UNL     1      24.144  39.803  17.027  1.00  0.00     0.115 C 
HETATM    5  C1  UNL     1      25.536  40.386  17.146  1.00  0.00     0.039 C 
HETATM    6  C3  UNL     1      23.519  40.397  15.796  1.00  0.00     0.039 C 
ENDBRANCH   3   4
ENDBRANCH   2   3
BRANCH   2   7
HETATM    7  S1  UNL     1      22.071  38.804  18.309  1.00  0.00     0.073 SA
HETATM    8  F1  UNL     1      20.630  39.073  17.440  1.00  0.00    -0.162 F 
ENDBRANCH   2   7
ENDBRANCH   1   2
BRANCH   1   9
HETATM    9  C6  UNL     1      23.084  35.245  17.855  1.00  0.00    -0.011 C 
HETATM   10  C7  UNL     1      24.087  34.323  17.251  1.00  0.00     0.005 C 
HETATM   11  C8  UNL     1      24.821  33.463  18.232  1.00  0.00     0.004 C 
HETATM   12  C9  UNL     1      23.919  32.698  19.159  1.00  0.00    -0.019 C 
HETATM   13  C10 UNL     1      23.919  31.246  18.740  1.00  0.00     0.010 C 
HETATM   14  C11 UNL     1      22.491  33.240  19.112  1.00  0.00     0.004 C 
HETATM   15  C12 UNL     1      22.607  34.727  19.229  1.00  0.00     0.005 C 
ENDBRANCH   1   9
TORSDOF 5
ENDMDL
MODEL 4
REMARK VINA RESULT: -5.808970566      2.419      6.022
REMARK  5 active torsions:
REMARK  status: ('A' for Active; 'I' for Inactive)
REMARK    1  A    between atoms: C2_2  and  O1_4 
REMARK    2  A    between atoms: O1_4  and  C4_5 
REMARK    3  A    between atoms: C4_5  and  C5_6 
REMARK    4  A    between atoms: C4_5  and  S1_14 
REMARK    5  A    between atoms: C5_6  and  C6_7 
ROOT
HETATM    1  C5  UNL     1      22.650  32.634  19.144  1.00  0.00     0.050 C 
ENDROOT
BRANCH   1   2
HETATM    2  C4  UNL     1      23.528  33.808  18.852  1.00  0.00     0.217 C 
BRANCH   2   3
HETATM    3  O1  UNL     1      22.654  34.796  18.361  1.00  0.00    -0.369 OA
BRANCH   3   4
HETATM    4  C2  UNL     1      23.060  36.070  18.730  1.00  0.00     0.115 C 
HETATM    5  C1  UNL     1      24.274  35.881  19.616  1.00  0.00     0.039 C 
HETATM    6  C3  UNL     1      23.493  36.907  17.559  1.00  0.00     0.039 C 
ENDBRANCH   3   4
ENDBRANCH   2   3
BRANCH   2   7
HETATM    7  S1  UNL     1      24.743  33.353  17.590  1.00  0.00     0.073 SA
HETATM    8  F1  UNL     1      24.284  34.065  16.111  1.00  0.00    -0.162 F 
ENDBRANCH   2   7
ENDBRANCH   1   2
BRANCH   1   9
HETATM    9  C6  UNL     1      23.294  31.488  19.879  1.00  0.00    -0.011 C 
HETATM   10  C7  UNL     1      22.503  31.020  21.052  1.00  0.00     0.005 C 
HETATM   11  C8  UNL     1      21.550  29.904  20.762  1.00  0.00     0.004 C 
HETATM   12  C9  UNL     1      22.186  28.729  20.076  1.00  0.00    -0.019 C 
HETATM   13  C10 UNL     1      22.322  27.603  21.075  1.00  0.00     0.010 C 
HETATM   14  C11 UNL     1      23.567  29.090  19.528  1.00  0.00     0.004 C 
HETATM   15  C12 UNL     1      23.399  30.387  18.802  1.00  0.00     0.005 C 
ENDBRANCH   1   9
TORSDOF 5
ENDMDL
MODEL 5
REMARK VINA RESULT: -5.665305783      5.066      7.637
REMARK  5 active torsions:
REMARK  status: ('A' for Active; 'I' for Inactive)
REMARK    1  A    between atoms: C2_2  and  O1_4 
REMARK    2  A    between atoms: O1_4  and  C4_5 
REMARK    3  A    between atoms: C4_5  and  C5_6 
REMARK    4  A    between atoms: C4_5  and  S1_14 
REMARK    5  A    between atoms: C5_6  and  C6_7 
ROOT
HETATM    1  C5  UNL     1      23.409  37.343  17.024  1.00  0.00     0.050 C 
ENDROOT
BRANCH   1   2
HETATM    2  C4  UNL     1      23.020  38.641  17.658  1.00  0.00     0.217 C 
BRANCH   2   3
HETATM    3  O1  UNL     1      21.689  38.854  17.250  1.00  0.00    -0.369 OA
BRANCH   3   4
HETATM    4  C2  UNL     1      20.907  39.343  18.287  1.00  0.00     0.115 C 
HETATM    5  C1  UNL     1      20.447  40.718  17.849  1.00  0.00     0.039 C 
HETATM    6  C3  UNL     1      19.674  38.519  18.528  1.00  0.00     0.039 C 
ENDBRANCH   3   4
ENDBRANCH   2   3
BRANCH   2   7
HETATM    7  S1  UNL     1      24.093  39.960  17.039  1.00  0.00     0.073 SA
HETATM    8  F1  UNL     1      25.707  39.415  17.090  1.00  0.00    -0.162 F 
ENDBRANCH   2   7
ENDBRANCH   1   2
BRANCH   1   9
HETATM    9  C6  UNL     1      23.987  36.301  17.944  1.00  0.00    -0.011 C 
HETATM   10  C7  UNL     1      23.118  36.003  19.117  1.00  0.00     0.005 C 
HETATM   11  C8  UNL     1      22.164  34.867  18.921  1.00  0.00     0.004 C 
HETATM   12  C9  UNL     1      22.819  33.604  18.438  1.00  0.00    -0.019 C 
HETATM   13  C10 UNL     1      22.873  32.622  19.586  1.00  0.00     0.010 C 
HETATM   14  C11 UNL     1      24.236  33.874  17.934  1.00  0.00     0.004 C 
HETATM   15  C12 UNL     1      24.136  35.063  17.033  1.00  0.00     0.005 C 
ENDBRANCH   1   9
TORSDOF 5
ENDMDL
