MODEL 1
REMARK VINA RESULT: -6.390001448      0.000      0.000
REMARK  7 active torsions:
REMARK  status: ('A' for Active; 'I' for Inactive)
REMARK    1  A    between atoms: C4_4  and  C5_5 
REMARK    2  A    between atoms: C5_5  and  C6_6 
REMARK    3  A    between atoms: C6_6  and  C7_7 
REMARK    4  A    between atoms: C7_7  and  C8_8 
REMARK    5  A    between atoms: C8_8  and  C9_9 
REMARK    6  A    between atoms: C9_9  and  O1_10 
REMARK    7  A    between atoms: C9_9  and  S1_12 
ROOT
HETATM    1  C5  UNL     1      22.500  34.328  18.515  1.00  0.00     0.005 C 
ENDROOT
BRANCH   1   2
HETATM    2  C4  UNL     1      23.128  33.247  19.372  1.00  0.00    -0.014 C 
HETATM    3  C3  UNL     1      22.120  32.199  19.800  1.00  0.00     0.009 C 
HETATM    4  C2  UNL     1      23.050  30.988  19.956  1.00  0.00    -0.015 C 
HETATM    5  C1  UNL     1      22.273  29.709  20.106  1.00  0.00     0.010 C 
HETATM    6  C11 UNL     1      23.792  31.051  18.638  1.00  0.00    -0.015 C 
HETATM    7  C10 UNL     1      24.193  32.512  18.596  1.00  0.00     0.009 C 
HETATM    8  C12 UNL     1      24.998  30.141  18.624  1.00  0.00     0.010 C 
ENDBRANCH   1   2
BRANCH   1   9
HETATM    9  C6  UNL     1      23.544  35.174  17.849  1.00  0.00     0.000 C 
BRANCH   9  10
HETATM   10  C7  UNL     1      23.497  36.621  18.221  1.00  0.00     0.004 C 
BRANCH  10  11
HETATM   11  C8  UNL     1      23.820  37.506  17.064  1.00  0.00     0.045 C 
BRANCH  11  12
HETATM   12  C9  UNL     1      22.940  38.742  17.040  1.00  0.00     0.212 C 
BRANCH  12  13
HETATM   13  O1  UNL     1      22.112  38.833  18.144  1.00  0.00    -0.383 OA
ATOM     14  H1  UNL     1      21.212  39.030  17.914  1.00  0.00     0.211 HD
ENDBRANCH  12  13
BRANCH  12  15
HETATM   15  S1  UNL     1      24.023  40.197  17.030  1.00  0.00     0.073 SA
HETATM   16  F1  UNL     1      25.659  39.692  17.074  1.00  0.00    -0.162 F 
ENDBRANCH  12  15
ENDBRANCH  11  12
ENDBRANCH  10  11
ENDBRANCH   9  10
ENDBRANCH   1   9
TORSDOF 7
ENDMDL
MODEL 2
REMARK VINA RESULT: -6.377556990      2.796      4.465
REMARK  7 active torsions:
REMARK  status: ('A' for Active; 'I' for Inactive)
REMARK    1  A    between atoms: C4_4  and  C5_5 
REMARK    2  A    between atoms: C5_5  and  C6_6 
REMARK    3  A    between atoms: C6_6  and  C7_7 
REMARK    4  A    between atoms: C7_7  and  C8_8 
REMARK    5  A    between atoms: C8_8  and  C9_9 
REMARK    6  A    between atoms: C9_9  and  O1_10 
REMARK    7  A    between atoms: C9_9  and  S1_12 
ROOT
HETATM    1  C5  UNL     1      23.962  30.030  18.862  1.00  0.00     0.005 C 
ENDROOT
BRANCH   1   2
HETATM    2  C4  UNL     1      22.806  29.163  19.318  1.00  0.00    -0.014 C 
HETATM    3  C3  UNL     1      23.272  27.959  20.112  1.00  0.00     0.009 C 
HETATM    4  C2  UNL     1      22.038  27.733  20.996  1.00  0.00    -0.015 C 
HETATM    5  C1  UNL     1      22.322  26.757  22.104  1.00  0.00     0.010 C 
HETATM    6  C11 UNL     1      21.821  29.138  21.516  1.00  0.00    -0.015 C 
HETATM    7  C10 UNL     1      21.892  29.941  20.233  1.00  0.00     0.009 C 
HETATM    8  C12 UNL     1      20.481  29.289  22.195  1.00  0.00     0.010 C 
ENDBRANCH   1   2
BRANCH   1   9
HETATM    9  C6  UNL     1      23.972  31.349  19.576  1.00  0.00     0.000 C 
BRANCH   9  10
HETATM   10  C7  UNL     1      23.973  32.540  18.675  1.00  0.00     0.004 C 
BRANCH  10  11
HETATM   11  C8  UNL     1      22.889  33.504  19.022  1.00  0.00     0.045 C 
BRANCH  11  12
HETATM   12  C9  UNL     1      23.134  34.871  18.407  1.00  0.00     0.212 C 
BRANCH  12  13
HETATM   13  O1  UNL     1      23.582  35.800  19.328  1.00  0.00    -0.383 OA
ATOM     14  H1  UNL     1      22.884  36.152  19.866  1.00  0.00     0.211 HD
ENDBRANCH  12  13
BRANCH  12  15
HETATM   15  S1  UNL     1      24.407  34.687  17.128  1.00  0.00     0.073 SA
HETATM   16  F1  UNL     1      23.682  34.139  15.676  1.00  0.00    -0.162 F 
ENDBRANCH  12  15
ENDBRANCH  11  12
ENDBRANCH  10  11
ENDBRANCH   9  10
ENDBRANCH   1   9
TORSDOF 7
ENDMDL
MODEL 3
REMARK VINA RESULT: -6.365403668      2.434      4.241
REMARK  7 active torsions:
REMARK  status: ('A' for Active; 'I' for Inactive)
REMARK    1  A    between atoms: C4_4  and  C5_5 
REMARK    2  A    between atoms: C5_5  and  C6_6 
REMARK    3  A    between atoms: C6_6  and  C7_7 
REMARK    4  A    between atoms: C7_7  and  C8_8 
REMARK    5  A    between atoms: C8_8  and  C9_9 
REMARK    6  A    between atoms: C9_9  and  O1_10 
REMARK    7  A    between atoms: C9_9  and  S1_12 
ROOT
HETATM    1  C5  UNL     1      23.943  29.963  18.876  1.00  0.00     0.005 C 
ENDROOT
BRANCH   1   2
HETATM    2  C4  UNL     1      22.783  29.107  19.345  1.00  0.00    -0.014 C 
HETATM    3  C3  UNL     1      23.246  27.914  20.159  1.00  0.00     0.009 C 
HETATM    4  C2  UNL     1      22.010  27.705  21.045  1.00  0.00    -0.015 C 
HETATM    5  C1  UNL     1      22.290  26.746  22.169  1.00  0.00     0.010 C 
HETATM    6  C11 UNL     1      21.797  29.119  21.542  1.00  0.00    -0.015 C 
HETATM    7  C10 UNL     1      21.871  29.902  20.247  1.00  0.00     0.009 C 
HETATM    8  C12 UNL     1      20.457  29.285  22.219  1.00  0.00     0.010 C 
ENDBRANCH   1   2
BRANCH   1   9
HETATM    9  C6  UNL     1      23.886  31.337  19.477  1.00  0.00     0.000 C 
BRANCH   9  10
HETATM   10  C7  UNL     1      24.397  32.422  18.586  1.00  0.00     0.004 C 
BRANCH  10  11
HETATM   11  C8  UNL     1      23.555  33.651  18.662  1.00  0.00     0.045 C 
BRANCH  11  12
HETATM   12  C9  UNL     1      24.096  34.759  17.777  1.00  0.00     0.212 C 
BRANCH  12  13
HETATM   13  O1  UNL     1      23.775  34.585  16.443  1.00  0.00    -0.383 OA
ATOM     14  H1  UNL     1      24.503  34.769  15.861  1.00  0.00     0.211 HD
ENDBRANCH  12  13
BRANCH  12  15
HETATM   15  S1  UNL     1      23.365  36.323  18.331  1.00  0.00     0.073 SA
HETATM   16  F1  UNL     1      23.815  37.577  17.253  1.00  0.00    -0.162 F 
ENDBRANCH  12  15
ENDBRANCH  11  12
ENDBRANCH  10  11
ENDBRANCH   9  10
ENDBRANCH   1   9
TORSDOF 7
ENDMDL
MODEL 4
REMARK VINA RESULT: -6.347396929      0.583      1.654
REMARK  7 active torsions:
REMARK  status: ('A' for Active; 'I' for Inactive)
REMARK    1  A    between atoms: C4_4  and  C5_5 
REMARK    2  A    between atoms: C5_5  and  C6_6 
REMARK    3  A    between atoms: C6_6  and  C7_7 
REMARK    4  A    between atoms: C7_7  and  C8_8 
REMARK    5  A    between atoms: C8_8  and  C9_9 
REMARK    6  A    between atoms: C9_9  and  O1_10 
REMARK    7  A    between atoms: C9_9  and  S1_12 
ROOT
HETATM    1  C5  UNL     1      23.121  34.842  19.460  1.00  0.00     0.005 C 
ENDROOT
BRANCH   1   2
HETATM    2  C4  UNL     1      22.968  33.490  18.792  1.00  0.00    -0.014 C 
HETATM    3  C3  UNL     1      24.305  32.820  18.547  1.00  0.00     0.009 C 
HETATM    4  C2  UNL     1      23.873  31.347  18.590  1.00  0.00    -0.015 C 
HETATM    5  C1  UNL     1      25.058  30.424  18.656  1.00  0.00     0.010 C 
HETATM    6  C11 UNL     1      23.074  31.342  19.876  1.00  0.00    -0.015 C 
HETATM    7  C10 UNL     1      22.183  32.551  19.675  1.00  0.00     0.009 C 
HETATM    8  C12 UNL     1      22.268  30.075  20.036  1.00  0.00     0.010 C 
ENDBRANCH   1   2
BRANCH   1   9
HETATM    9  C6  UNL     1      23.906  35.791  18.603  1.00  0.00     0.000 C 
BRANCH   9  10
HETATM   10  C7  UNL     1      23.139  36.990  18.148  1.00  0.00     0.004 C 
BRANCH  10  11
HETATM   11  C8  UNL     1      23.812  37.685  17.012  1.00  0.00     0.045 C 
BRANCH  11  12
HETATM   12  C9  UNL     1      23.092  38.966  16.631  1.00  0.00     0.212 C 
BRANCH  12  13
HETATM   13  O1  UNL     1      21.919  39.153  17.340  1.00  0.00    -0.383 OA
ATOM     14  H1  UNL     1      21.873  38.618  18.124  1.00  0.00     0.211 HD
ENDBRANCH  12  13
BRANCH  12  15
HETATM   15  S1  UNL     1      24.197  40.356  16.997  1.00  0.00     0.073 SA
HETATM   16  F1  UNL     1      25.819  39.808  17.013  1.00  0.00    -0.162 F 
ENDBRANCH  12  15
ENDBRANCH  11  12
ENDBRANCH  10  11
ENDBRANCH   9  10
ENDBRANCH   1   9
TORSDOF 7
ENDMDL
MODEL 5
REMARK VINA RESULT: -6.267299536      1.519      1.519
REMARK  7 active torsions:
REMARK  status: ('A' for Active; 'I' for Inactive)
REMARK    1  A    between atoms: C4_4  and  C5_5 
REMARK    2  A    between atoms: C5_5  and  C6_6 
REMARK    3  A    between atoms: C6_6  and  C7_7 
REMARK    4  A    between atoms: C7_7  and  C8_8 
REMARK    5  A    between atoms: C8_8  and  C9_9 
REMARK    6  A    between atoms: C9_9  and  O1_10 
REMARK    7  A    between atoms: C9_9  and  S1_12 
ROOT
HETATM    1  C5  UNL     1      22.665  34.449  18.461  1.00  0.00     0.005 C 
ENDROOT
BRANCH   1   2
HETATM    2  C4  UNL     1      23.228  33.339  19.326  1.00  0.00    -0.014 C 
HETATM    3  C3  UNL     1      22.169  32.329  19.721  1.00  0.00     0.009 C 
HETATM    4  C2  UNL     1      23.047  31.081  19.892  1.00  0.00    -0.015 C 
HETATM    5  C1  UNL     1      22.217  29.834  20.014  1.00  0.00     0.010 C 
HETATM    6  C11 UNL     1      23.825  31.124  18.595  1.00  0.00    -0.015 C 
HETATM    7  C10 UNL     1      24.284  32.568  18.573  1.00  0.00     0.009 C 
HETATM    8  C12 UNL     1      24.995  30.167  18.605  1.00  0.00     0.010 C 
ENDBRANCH   1   2
BRANCH   1   9
HETATM    9  C6  UNL     1      23.709  35.480  18.145  1.00  0.00     0.000 C 
BRANCH   9  10
HETATM   10  C7  UNL     1      23.216  36.890  18.189  1.00  0.00     0.004 C 
BRANCH  10  11
HETATM   11  C8  UNL     1      23.753  37.704  17.059  1.00  0.00     0.045 C 
BRANCH  11  12
HETATM   12  C9  UNL     1      23.359  39.165  17.183  1.00  0.00     0.212 C 
BRANCH  12  13
HETATM   13  O1  UNL     1      23.201  39.784  15.956  1.00  0.00    -0.383 OA
ATOM     14  H1  UNL     1      23.694  40.593  15.886  1.00  0.00     0.211 HD
ENDBRANCH  12  13
BRANCH  12  15
HETATM   15  S1  UNL     1      21.774  39.243  18.059  1.00  0.00     0.073 SA
HETATM   16  F1  UNL     1      22.004  39.970  19.593  1.00  0.00    -0.162 F 
ENDBRANCH  12  15
ENDBRANCH  11  12
ENDBRANCH  10  11
ENDBRANCH   9  10
ENDBRANCH   1   9
TORSDOF 7
ENDMDL
