MODEL 1
REMARK VINA RESULT: -9.204766006      0.000      0.000
REMARK  11 active torsions:
REMARK  status: ('A' for Active; 'I' for Inactive)
REMARK    1  A    between atoms: C2_2  and  C3_3 
REMARK    2  A    between atoms: C4_4  and  C5_5 
REMARK    3  A    between atoms: C10_10  and  C11_11 
REMARK    4  A    between atoms: C11_11  and  C12_12 
REMARK    5  A    between atoms: C12_12  and  C13_13 
REMARK    6  A    between atoms: C13_13  and  C14_14 
REMARK    7  A    between atoms: C14_14  and  C15_15 
REMARK    8  A    between atoms: C15_15  and  C16_16 
REMARK    9  A    between atoms: C15_15  and  C19_19 
REMARK   10  A    between atoms: C16_16  and  C17_17 
REMARK   11  A    between atoms: C19_19  and  O2_21 
ROOT
HETATM    1  C11 UNL     1      11.504 -28.382  15.531  1.00  0.00     0.039 C 
ENDROOT
BRANCH   1   2
HETATM    2  C10 UNL     1      12.651 -28.538  16.435  1.00  0.00    -0.048 A 
HETATM    3  C5  UNL     1      12.392 -28.478  17.813  1.00  0.00    -0.030 A 
HETATM    4  C6  UNL     1      13.470 -28.635  18.658  1.00  0.00     0.012 A 
HETATM    5  C7  UNL     1      14.759 -28.844  18.185  1.00  0.00     0.001 A 
HETATM    6  C8  UNL     1      15.007 -28.903  16.840  1.00  0.00     0.001 A 
HETATM    7  C9  UNL     1      13.935 -28.747  15.978  1.00  0.00     0.008 A 
BRANCH   3   8
HETATM    8  C4  UNL     1      11.036 -28.293  18.268  1.00  0.00     0.008 C 
HETATM    9  C3  UNL     1      10.692 -28.479  19.529  1.00  0.00    -0.026 C 
BRANCH   9  10
HETATM   10  C2  UNL     1       9.277 -28.285  19.989  1.00  0.00     0.022 C 
HETATM   11  C1  UNL     1       9.314 -28.359  21.507  1.00  0.00     0.009 C 
ENDBRANCH   9  10
ENDBRANCH   3   8
ENDBRANCH   1   2
BRANCH   1  12
HETATM   12  C12 UNL     1      11.324 -26.964  15.093  1.00  0.00     0.005 C 
BRANCH  12  13
HETATM   13  C13 UNL     1      10.202 -26.680  14.159  1.00  0.00     0.001 C 
BRANCH  13  14
HETATM   14  C14 UNL     1       9.378 -25.485  14.659  1.00  0.00     0.014 C 
BRANCH  14  15
HETATM   15  C15 UNL     1       7.916 -25.736  14.605  1.00  0.00     0.085 C 
BRANCH  15  16
HETATM   16  C16 UNL     1       7.217 -24.642  13.787  1.00  0.00     0.014 C 
BRANCH  16  17
HETATM   17  C17 UNL     1       8.093 -23.434  13.610  1.00  0.00    -0.004 C 
HETATM   18  C18 UNL     1       7.406 -22.291  14.338  1.00  0.00     0.005 C 
ENDBRANCH  16  17
ENDBRANCH  15  16
BRANCH  15  19
HETATM   19  C19 UNL     1       7.379 -25.697  16.005  1.00  0.00     0.262 C 
HETATM   20  O1  UNL     1       8.005 -26.242  16.937  1.00  0.00    -0.265 OA
BRANCH  19  21
HETATM   21  O2  UNL     1       6.185 -25.062  16.302  1.00  0.00    -0.326 OA
HETATM   22  C20 UNL     1       5.947 -24.360  17.504  1.00  0.00     0.213 C 
ENDBRANCH  19  21
ENDBRANCH  15  19
ENDBRANCH  14  15
ENDBRANCH  13  14
ENDBRANCH  12  13
ENDBRANCH   1  12
TORSDOF 11
ENDMDL
MODEL 2
REMARK VINA RESULT: -8.940742113      0.861      3.167
REMARK  11 active torsions:
REMARK  status: ('A' for Active; 'I' for Inactive)
REMARK    1  A    between atoms: C2_2  and  C3_3 
REMARK    2  A    between atoms: C4_4  and  C5_5 
REMARK    3  A    between atoms: C10_10  and  C11_11 
REMARK    4  A    between atoms: C11_11  and  C12_12 
REMARK    5  A    between atoms: C12_12  and  C13_13 
REMARK    6  A    between atoms: C13_13  and  C14_14 
REMARK    7  A    between atoms: C14_14  and  C15_15 
REMARK    8  A    between atoms: C15_15  and  C16_16 
REMARK    9  A    between atoms: C15_15  and  C19_19 
REMARK   10  A    between atoms: C16_16  and  C17_17 
REMARK   11  A    between atoms: C19_19  and  O2_21 
ROOT
HETATM    1  C11 UNL     1      11.498 -28.323  15.440  1.00  0.00     0.039 C 
ENDROOT
BRANCH   1   2
HETATM    2  C10 UNL     1      11.104 -28.354  16.854  1.00  0.00    -0.048 A 
HETATM    3  C5  UNL     1      12.136 -28.368  17.805  1.00  0.00    -0.030 A 
HETATM    4  C6  UNL     1      11.761 -28.387  19.132  1.00  0.00     0.012 A 
HETATM    5  C7  UNL     1      10.430 -28.391  19.526  1.00  0.00     0.001 A 
HETATM    6  C8  UNL     1       9.426 -28.376  18.595  1.00  0.00     0.001 A 
HETATM    7  C9  UNL     1       9.786 -28.358  17.259  1.00  0.00     0.008 A 
BRANCH   3   8
HETATM    8  C4  UNL     1      13.507 -28.328  17.359  1.00  0.00     0.008 C 
HETATM    9  C3  UNL     1      14.427 -29.131  17.860  1.00  0.00    -0.026 C 
BRANCH   9  10
HETATM   10  C2  UNL     1      15.850 -29.077  17.388  1.00  0.00     0.022 C 
HETATM   11  C1  UNL     1      16.698 -29.565  18.553  1.00  0.00     0.009 C 
ENDBRANCH   9  10
ENDBRANCH   3   8
ENDBRANCH   1   2
BRANCH   1  12
HETATM   12  C12 UNL     1      11.260 -26.982  14.822  1.00  0.00     0.005 C 
BRANCH  12  13
HETATM   13  C13 UNL     1       9.961 -26.777  14.126  1.00  0.00     0.001 C 
BRANCH  13  14
HETATM   14  C14 UNL     1       9.265 -25.513  14.653  1.00  0.00     0.014 C 
BRANCH  14  15
HETATM   15  C15 UNL     1       7.788 -25.577  14.524  1.00  0.00     0.085 C 
BRANCH  15  16
HETATM   16  C16 UNL     1       7.281 -24.436  13.633  1.00  0.00     0.014 C 
BRANCH  16  17
HETATM   17  C17 UNL     1       8.226 -23.268  13.632  1.00  0.00    -0.004 C 
HETATM   18  C18 UNL     1       7.429 -22.067  14.114  1.00  0.00     0.005 C 
ENDBRANCH  16  17
ENDBRANCH  15  16
BRANCH  15  19
HETATM   19  C19 UNL     1       7.188 -25.416  15.889  1.00  0.00     0.262 C 
HETATM   20  O1  UNL     1       7.728 -25.944  16.883  1.00  0.00    -0.265 OA
BRANCH  19  21
HETATM   21  O2  UNL     1       6.029 -24.685  16.085  1.00  0.00    -0.326 OA
HETATM   22  C20 UNL     1       5.565 -24.275  17.354  1.00  0.00     0.213 C 
ENDBRANCH  19  21
ENDBRANCH  15  19
ENDBRANCH  14  15
ENDBRANCH  13  14
ENDBRANCH  12  13
ENDBRANCH   1  12
TORSDOF 11
ENDMDL
MODEL 3
REMARK VINA RESULT: -8.842445570      1.373      2.187
REMARK  11 active torsions:
REMARK  status: ('A' for Active; 'I' for Inactive)
REMARK    1  A    between atoms: C2_2  and  C3_3 
REMARK    2  A    between atoms: C4_4  and  C5_5 
REMARK    3  A    between atoms: C10_10  and  C11_11 
REMARK    4  A    between atoms: C11_11  and  C12_12 
REMARK    5  A    between atoms: C12_12  and  C13_13 
REMARK    6  A    between atoms: C13_13  and  C14_14 
REMARK    7  A    between atoms: C14_14  and  C15_15 
REMARK    8  A    between atoms: C15_15  and  C16_16 
REMARK    9  A    between atoms: C15_15  and  C19_19 
REMARK   10  A    between atoms: C16_16  and  C17_17 
REMARK   11  A    between atoms: C19_19  and  O2_21 
ROOT
HETATM    1  C11 UNL     1      11.379 -28.808  15.846  1.00  0.00     0.039 C 
ENDROOT
BRANCH   1   2
HETATM    2  C10 UNL     1      12.584 -28.627  16.667  1.00  0.00    -0.048 A 
HETATM    3  C5  UNL     1      12.396 -28.235  18.001  1.00  0.00    -0.030 A 
HETATM    4  C6  UNL     1      13.529 -28.077  18.770  1.00  0.00     0.012 A 
HETATM    5  C7  UNL     1      14.804 -28.293  18.265  1.00  0.00     0.001 A 
HETATM    6  C8  UNL     1      14.983 -28.678  16.963  1.00  0.00     0.001 A 
HETATM    7  C9  UNL     1      13.856 -28.840  16.178  1.00  0.00     0.008 A 
BRANCH   3   8
HETATM    8  C4  UNL     1      11.055 -28.052  18.500  1.00  0.00     0.008 C 
HETATM    9  C3  UNL     1      10.667 -28.553  19.658  1.00  0.00    -0.026 C 
BRANCH   9  10
HETATM   10  C2  UNL     1       9.268 -28.358  20.164  1.00  0.00     0.022 C 
HETATM   11  C1  UNL     1       9.365 -28.365  21.682  1.00  0.00     0.009 C 
ENDBRANCH   9  10
ENDBRANCH   3   8
ENDBRANCH   1   2
BRANCH   1  12
HETATM   12  C12 UNL     1      11.540 -28.222  14.480  1.00  0.00     0.005 C 
BRANCH  12  13
HETATM   13  C13 UNL     1      10.503 -27.254  14.031  1.00  0.00     0.001 C 
BRANCH  13  14
HETATM   14  C14 UNL     1      10.639 -25.930  14.797  1.00  0.00     0.014 C 
BRANCH  14  15
HETATM   15  C15 UNL     1       9.330 -25.381  15.230  1.00  0.00     0.085 C 
BRANCH  15  16
HETATM   16  C16 UNL     1       8.368 -26.520  15.592  1.00  0.00     0.014 C 
BRANCH  16  17
HETATM   17  C17 UNL     1       7.985 -26.485  17.045  1.00  0.00    -0.004 C 
HETATM   18  C18 UNL     1       6.968 -25.366  17.197  1.00  0.00     0.005 C 
ENDBRANCH  16  17
ENDBRANCH  15  16
BRANCH  15  19
HETATM   19  C19 UNL     1       8.742 -24.608  14.087  1.00  0.00     0.262 C 
HETATM   20  O1  UNL     1       9.405 -23.715  13.521  1.00  0.00    -0.265 OA
BRANCH  19  21
HETATM   21  O2  UNL     1       7.459 -24.860  13.631  1.00  0.00    -0.326 OA
HETATM   22  C20 UNL     1       6.390 -23.944  13.751  1.00  0.00     0.213 C 
ENDBRANCH  19  21
ENDBRANCH  15  19
ENDBRANCH  14  15
ENDBRANCH  13  14
ENDBRANCH  12  13
ENDBRANCH   1  12
TORSDOF 11
ENDMDL
MODEL 4
REMARK VINA RESULT: -8.784542240      1.531      3.810
REMARK  11 active torsions:
REMARK  status: ('A' for Active; 'I' for Inactive)
REMARK    1  A    between atoms: C2_2  and  C3_3 
REMARK    2  A    between atoms: C4_4  and  C5_5 
REMARK    3  A    between atoms: C10_10  and  C11_11 
REMARK    4  A    between atoms: C11_11  and  C12_12 
REMARK    5  A    between atoms: C12_12  and  C13_13 
REMARK    6  A    between atoms: C13_13  and  C14_14 
REMARK    7  A    between atoms: C14_14  and  C15_15 
REMARK    8  A    between atoms: C15_15  and  C16_16 
REMARK    9  A    between atoms: C15_15  and  C19_19 
REMARK   10  A    between atoms: C16_16  and  C17_17 
REMARK   11  A    between atoms: C19_19  and  O2_21 
ROOT
HETATM    1  C11 UNL     1      11.571 -28.291  15.143  1.00  0.00     0.039 C 
ENDROOT
BRANCH   1   2
HETATM    2  C10 UNL     1      11.106 -28.291  16.536  1.00  0.00    -0.048 A 
HETATM    3  C5  UNL     1      12.088 -28.297  17.538  1.00  0.00    -0.030 A 
HETATM    4  C6  UNL     1      11.647 -28.286  18.844  1.00  0.00     0.012 A 
HETATM    5  C7  UNL     1      10.297 -28.268  19.171  1.00  0.00     0.001 A 
HETATM    6  C8  UNL     1       9.341 -28.261  18.189  1.00  0.00     0.001 A 
HETATM    7  C9  UNL     1       9.769 -28.272  16.873  1.00  0.00     0.008 A 
BRANCH   3   8
HETATM    8  C4  UNL     1      13.480 -28.280  17.161  1.00  0.00     0.008 C 
HETATM    9  C3  UNL     1      14.405 -28.885  17.883  1.00  0.00    -0.026 C 
BRANCH   9  10
HETATM   10  C2  UNL     1      15.851 -28.857  17.481  1.00  0.00     0.022 C 
HETATM   11  C1  UNL     1      16.578 -29.763  18.463  1.00  0.00     0.009 C 
ENDBRANCH   9  10
ENDBRANCH   3   8
ENDBRANCH   1   2
BRANCH   1  12
HETATM   12  C12 UNL     1      10.837 -27.291  14.307  1.00  0.00     0.005 C 
BRANCH  12  13
HETATM   13  C13 UNL     1      10.653 -25.932  14.882  1.00  0.00     0.001 C 
BRANCH  13  14
HETATM   14  C14 UNL     1       9.344 -25.309  14.375  1.00  0.00     0.014 C 
BRANCH  14  15
HETATM   15  C15 UNL     1       8.559 -24.666  15.458  1.00  0.00     0.085 C 
BRANCH  15  16
HETATM   16  C16 UNL     1       7.450 -25.608  15.944  1.00  0.00     0.014 C 
BRANCH  16  17
HETATM   17  C17 UNL     1       7.165 -25.425  17.408  1.00  0.00    -0.004 C 
HETATM   18  C18 UNL     1       5.892 -24.601  17.501  1.00  0.00     0.005 C 
ENDBRANCH  16  17
ENDBRANCH  15  16
BRANCH  15  19
HETATM   19  C19 UNL     1       7.920 -23.426  14.906  1.00  0.00     0.262 C 
HETATM   20  O1  UNL     1       7.764 -22.420  15.628  1.00  0.00    -0.265 OA
BRANCH  19  21
HETATM   21  O2  UNL     1       7.490 -23.362  13.591  1.00  0.00    -0.326 OA
HETATM   22  C20 UNL     1       6.209 -23.777  13.163  1.00  0.00     0.213 C 
ENDBRANCH  19  21
ENDBRANCH  15  19
ENDBRANCH  14  15
ENDBRANCH  13  14
ENDBRANCH  12  13
ENDBRANCH   1  12
TORSDOF 11
ENDMDL
MODEL 5
REMARK VINA RESULT: -8.736566874      1.184      2.084
REMARK  11 active torsions:
REMARK  status: ('A' for Active; 'I' for Inactive)
REMARK    1  A    between atoms: C2_2  and  C3_3 
REMARK    2  A    between atoms: C4_4  and  C5_5 
REMARK    3  A    between atoms: C10_10  and  C11_11 
REMARK    4  A    between atoms: C11_11  and  C12_12 
REMARK    5  A    between atoms: C12_12  and  C13_13 
REMARK    6  A    between atoms: C13_13  and  C14_14 
REMARK    7  A    between atoms: C14_14  and  C15_15 
REMARK    8  A    between atoms: C15_15  and  C16_16 
REMARK    9  A    between atoms: C15_15  and  C19_19 
REMARK   10  A    between atoms: C16_16  and  C17_17 
REMARK   11  A    between atoms: C19_19  and  O2_21 
ROOT
HETATM    1  C11 UNL     1      11.245 -28.625  15.709  1.00  0.00     0.039 C 
ENDROOT
BRANCH   1   2
HETATM    2  C10 UNL     1      12.467 -28.535  16.519  1.00  0.00    -0.048 A 
HETATM    3  C5  UNL     1      12.309 -28.252  17.884  1.00  0.00    -0.030 A 
HETATM    4  C6  UNL     1      13.457 -28.179  18.643  1.00  0.00     0.012 A 
HETATM    5  C7  UNL     1      14.720 -28.376  18.099  1.00  0.00     0.001 A 
HETATM    6  C8  UNL     1      14.869 -28.654  16.766  1.00  0.00     0.001 A 
HETATM    7  C9  UNL     1      13.725 -28.730  15.991  1.00  0.00     0.008 A 
BRANCH   3   8
HETATM    8  C4  UNL     1      10.980 -28.087  18.421  1.00  0.00     0.008 C 
HETATM    9  C3  UNL     1      10.655 -28.525  19.624  1.00  0.00    -0.026 C 
BRANCH   9  10
HETATM   10  C2  UNL     1       9.268 -28.349  20.169  1.00  0.00     0.022 C 
HETATM   11  C1  UNL     1       9.405 -28.382  21.683  1.00  0.00     0.009 C 
ENDBRANCH   9  10
ENDBRANCH   3   8
ENDBRANCH   1   2
BRANCH   1  12
HETATM   12  C12 UNL     1      11.260 -27.661  14.565  1.00  0.00     0.005 C 
BRANCH  12  13
HETATM   13  C13 UNL     1      10.560 -26.364  14.763  1.00  0.00     0.001 C 
BRANCH  13  14
HETATM   14  C14 UNL     1       9.261 -26.572  15.557  1.00  0.00     0.014 C 
BRANCH  14  15
HETATM   15  C15 UNL     1       8.544 -25.301  15.825  1.00  0.00     0.085 C 
BRANCH  15  16
HETATM   16  C16 UNL     1       7.253 -25.572  16.607  1.00  0.00     0.014 C 
BRANCH  16  17
HETATM   17  C17 UNL     1       6.282 -24.430  16.493  1.00  0.00    -0.004 C 
HETATM   18  C18 UNL     1       5.726 -24.195  17.887  1.00  0.00     0.005 C 
ENDBRANCH  16  17
ENDBRANCH  15  16
BRANCH  15  19
HETATM   19  C19 UNL     1       8.181 -24.678  14.510  1.00  0.00     0.262 C 
HETATM   20  O1  UNL     1       7.477 -25.301  13.689  1.00  0.00    -0.265 OA
BRANCH  19  21
HETATM   21  O2  UNL     1       8.611 -23.406  14.171  1.00  0.00    -0.326 OA
HETATM   22  C20 UNL     1       7.742 -22.309  13.981  1.00  0.00     0.213 C 
ENDBRANCH  19  21
ENDBRANCH  15  19
ENDBRANCH  14  15
ENDBRANCH  13  14
ENDBRANCH  12  13
ENDBRANCH   1  12
TORSDOF 11
ENDMDL
