MODEL 1
REMARK VINA RESULT: -9.355676653      0.000      0.000
REMARK  12 active torsions:
REMARK  status: ('A' for Active; 'I' for Inactive)
REMARK    1  A    between atoms: C3_3  and  C5_5 
REMARK    2  A    between atoms: C5_5  and  C6_6 
REMARK    3  A    between atoms: C6_6  and  C7_7 
REMARK    4  A    between atoms: C10_10  and  C11_11 
REMARK    5  A    between atoms: C11_11  and  C12_12 
REMARK    6  A    between atoms: C12_12  and  C13_13 
REMARK    7  A    between atoms: C13_13  and  O1_14 
REMARK    8  A    between atoms: O1_14  and  C14_15 
REMARK    9  A    between atoms: C14_15  and  C15_16 
REMARK   10  A    between atoms: C15_16  and  O2_17 
REMARK   11  A    between atoms: C15_16  and  C16_19 
REMARK   12  A    between atoms: C16_19  and  C17_20 
ROOT
HETATM    1  C7  UNL     1      17.980 -33.604  19.901  1.00  0.00    -0.058 A 
HETATM    2  C8  UNL     1      18.587 -32.452  19.450  1.00  0.00     0.007 A 
HETATM    3  C9  UNL     1      17.900 -31.373  18.935  1.00  0.00     0.007 A 
HETATM    4  C10 UNL     1      16.519 -31.416  18.852  1.00  0.00    -0.058 A 
HETATM    5  C19 UNL     1      15.899 -32.552  19.296  1.00  0.00     0.007 A 
HETATM    6  C20 UNL     1      16.587 -33.626  19.809  1.00  0.00     0.007 A 
ENDROOT
BRANCH   4   7
HETATM    7  C11 UNL     1      15.744 -30.289  18.310  1.00  0.00     0.041 C 
BRANCH   7   8
HETATM    8  C12 UNL     1      15.674 -29.158  19.319  1.00  0.00     0.031 C 
BRANCH   8   9
HETATM    9  C13 UNL     1      14.436 -28.333  18.933  1.00  0.00     0.168 C 
BRANCH   9  10
HETATM   10  O1  UNL     1      13.470 -29.239  18.584  1.00  0.00    -0.389 OA
BRANCH  10  11
HETATM   11  C14 UNL     1      12.261 -28.723  18.198  1.00  0.00     0.199 C 
BRANCH  11  12
HETATM   12  C15 UNL     1      11.979 -29.081  16.777  1.00  0.00     0.142 C 
BRANCH  12  13
HETATM   13  O2  UNL     1      12.824 -30.084  16.299  1.00  0.00    -0.393 OA
ATOM     14  H2  UNL     1      12.609 -30.351  15.414  1.00  0.00     0.210 HD
ENDBRANCH  12  13
BRANCH  12  15
HETATM   15  C16 UNL     1      12.120 -27.857  15.900  1.00  0.00     0.033 C 
BRANCH  15  16
HETATM   16  C17 UNL     1      11.339 -27.999  14.619  1.00  0.00    -0.002 C 
HETATM   17  C18 UNL     1      10.565 -26.722  14.394  1.00  0.00     0.005 C 
ENDBRANCH  15  16
ENDBRANCH  12  15
ENDBRANCH  11  12
ENDBRANCH  10  11
ENDBRANCH   9  10
ENDBRANCH   8   9
ENDBRANCH   7   8
ENDBRANCH   4   7
BRANCH   1  18
HETATM   18  C6  UNL     1      18.717 -34.739  20.447  1.00  0.00     0.043 C 
BRANCH  18  19
HETATM   19  C5  UNL     1      19.800 -35.294  19.594  1.00  0.00     0.038 C 
BRANCH  19  20
HETATM   20  C3  UNL     1      19.510 -35.662  18.215  1.00  0.00    -0.088 C 
HETATM   21  C2  UNL     1      20.172 -35.032  17.226  1.00  0.00    -0.029 C 
HETATM   22  C1  UNL     1      21.135 -33.933  17.525  1.00  0.00     0.036 C 
HETATM   23  C4  UNL     1      18.571 -36.743  17.840  1.00  0.00     0.043 C 
ENDBRANCH  19  20
ENDBRANCH  18  19
ENDBRANCH   1  18
TORSDOF 12
ENDMDL
MODEL 2
REMARK VINA RESULT: -9.318948399      2.714     10.823
REMARK  12 active torsions:
REMARK  status: ('A' for Active; 'I' for Inactive)
REMARK    1  A    between atoms: C3_3  and  C5_5 
REMARK    2  A    between atoms: C5_5  and  C6_6 
REMARK    3  A    between atoms: C6_6  and  C7_7 
REMARK    4  A    between atoms: C10_10  and  C11_11 
REMARK    5  A    between atoms: C11_11  and  C12_12 
REMARK    6  A    between atoms: C12_12  and  C13_13 
REMARK    7  A    between atoms: C13_13  and  O1_14 
REMARK    8  A    between atoms: O1_14  and  C14_15 
REMARK    9  A    between atoms: C14_15  and  C15_16 
REMARK   10  A    between atoms: C15_16  and  O2_17 
REMARK   11  A    between atoms: C15_16  and  C16_19 
REMARK   12  A    between atoms: C16_19  and  C17_20 
ROOT
HETATM    1  C7  UNL     1       9.581 -27.287  16.328  1.00  0.00    -0.058 A 
HETATM    2  C8  UNL     1      10.106 -28.136  17.280  1.00  0.00     0.007 A 
HETATM    3  C9  UNL     1      11.346 -28.731  17.178  1.00  0.00     0.007 A 
HETATM    4  C10 UNL     1      12.135 -28.485  16.068  1.00  0.00    -0.058 A 
HETATM    5  C19 UNL     1      11.631 -27.645  15.112  1.00  0.00     0.007 A 
HETATM    6  C20 UNL     1      10.394 -27.053  15.217  1.00  0.00     0.007 A 
ENDROOT
BRANCH   4   7
HETATM    7  C11 UNL     1      13.464 -29.098  15.915  1.00  0.00     0.041 C 
BRANCH   7   8
HETATM    8  C12 UNL     1      14.385 -28.653  17.035  1.00  0.00     0.031 C 
BRANCH   8   9
HETATM    9  C13 UNL     1      15.285 -29.862  17.337  1.00  0.00     0.168 C 
BRANCH   9  10
HETATM   10  O1  UNL     1      15.003 -30.234  18.625  1.00  0.00    -0.389 OA
BRANCH  10  11
HETATM   11  C14 UNL     1      16.075 -30.398  19.461  1.00  0.00     0.199 C 
BRANCH  11  12
HETATM   12  C15 UNL     1      16.632 -31.776  19.318  1.00  0.00     0.142 C 
BRANCH  12  13
HETATM   13  O2  UNL     1      15.640 -32.758  19.324  1.00  0.00    -0.393 OA
ATOM     14  H2  UNL     1      15.583 -33.223  18.499  1.00  0.00     0.210 HD
ENDBRANCH  12  13
BRANCH  12  15
HETATM   15  C16 UNL     1      17.610 -32.055  20.437  1.00  0.00     0.033 C 
BRANCH  15  16
HETATM   16  C17 UNL     1      17.699 -33.528  20.743  1.00  0.00    -0.002 C 
HETATM   17  C18 UNL     1      19.112 -33.983  20.466  1.00  0.00     0.005 C 
ENDBRANCH  15  16
ENDBRANCH  12  15
ENDBRANCH  11  12
ENDBRANCH  10  11
ENDBRANCH   9  10
ENDBRANCH   8   9
ENDBRANCH   7   8
ENDBRANCH   4   7
BRANCH   1  18
HETATM   18  C6  UNL     1       8.270 -26.660  16.448  1.00  0.00     0.043 C 
BRANCH  18  19
HETATM   19  C5  UNL     1       8.083 -25.378  15.719  1.00  0.00     0.038 C 
BRANCH  19  20
HETATM   20  C3  UNL     1       6.786 -24.717  15.750  1.00  0.00    -0.088 C 
HETATM   21  C2  UNL     1       6.276 -24.238  14.600  1.00  0.00    -0.029 C 
HETATM   22  C1  UNL     1       7.048 -24.319  13.326  1.00  0.00     0.036 C 
HETATM   23  C4  UNL     1       5.959 -24.601  16.973  1.00  0.00     0.043 C 
ENDBRANCH  19  20
ENDBRANCH  18  19
ENDBRANCH   1  18
TORSDOF 12
ENDMDL
MODEL 3
REMARK VINA RESULT: -9.307752849      0.532      1.600
REMARK  12 active torsions:
REMARK  status: ('A' for Active; 'I' for Inactive)
REMARK    1  A    between atoms: C3_3  and  C5_5 
REMARK    2  A    between atoms: C5_5  and  C6_6 
REMARK    3  A    between atoms: C6_6  and  C7_7 
REMARK    4  A    between atoms: C10_10  and  C11_11 
REMARK    5  A    between atoms: C11_11  and  C12_12 
REMARK    6  A    between atoms: C12_12  and  C13_13 
REMARK    7  A    between atoms: C13_13  and  O1_14 
REMARK    8  A    between atoms: O1_14  and  C14_15 
REMARK    9  A    between atoms: C14_15  and  C15_16 
REMARK   10  A    between atoms: C15_16  and  O2_17 
REMARK   11  A    between atoms: C15_16  and  C16_19 
REMARK   12  A    between atoms: C16_19  and  C17_20 
ROOT
HETATM    1  C7  UNL     1      18.533 -33.454  19.890  1.00  0.00    -0.058 A 
HETATM    2  C8  UNL     1      17.204 -33.811  19.975  1.00  0.00     0.007 A 
HETATM    3  C9  UNL     1      16.160 -32.968  19.655  1.00  0.00     0.007 A 
HETATM    4  C10 UNL     1      16.427 -31.682  19.219  1.00  0.00    -0.058 A 
HETATM    5  C19 UNL     1      17.741 -31.310  19.127  1.00  0.00     0.007 A 
HETATM    6  C20 UNL     1      18.779 -32.153  19.447  1.00  0.00     0.007 A 
ENDROOT
BRANCH   4   7
HETATM    7  C11 UNL     1      15.346 -30.748  18.866  1.00  0.00     0.041 C 
BRANCH   7   8
HETATM    8  C12 UNL     1      15.668 -29.352  19.367  1.00  0.00     0.031 C 
BRANCH   8   9
HETATM    9  C13 UNL     1      14.502 -28.465  18.900  1.00  0.00     0.168 C 
BRANCH   9  10
HETATM   10  O1  UNL     1      13.471 -29.318  18.606  1.00  0.00    -0.389 OA
BRANCH  10  11
HETATM   11  C14 UNL     1      12.295 -28.739  18.208  1.00  0.00     0.199 C 
BRANCH  11  12
HETATM   12  C15 UNL     1      12.004 -29.092  16.786  1.00  0.00     0.142 C 
BRANCH  12  13
HETATM   13  O2  UNL     1      12.830 -30.109  16.307  1.00  0.00    -0.393 OA
ATOM     14  H2  UNL     1      12.395 -30.662  15.669  1.00  0.00     0.210 HD
ENDBRANCH  12  13
BRANCH  12  15
HETATM   15  C16 UNL     1      12.166 -27.870  15.909  1.00  0.00     0.033 C 
BRANCH  15  16
HETATM   16  C17 UNL     1      11.387 -28.001  14.626  1.00  0.00    -0.002 C 
HETATM   17  C18 UNL     1      10.596 -26.731  14.422  1.00  0.00     0.005 C 
ENDBRANCH  15  16
ENDBRANCH  12  15
ENDBRANCH  11  12
ENDBRANCH  10  11
ENDBRANCH   9  10
ENDBRANCH   8   9
ENDBRANCH   7   8
ENDBRANCH   4   7
BRANCH   1  18
HETATM   18  C6  UNL     1      19.629 -34.354  20.228  1.00  0.00     0.043 C 
BRANCH  18  19
HETATM   19  C5  UNL     1      19.816 -35.531  19.338  1.00  0.00     0.038 C 
BRANCH  19  20
HETATM   20  C3  UNL     1      20.167 -35.324  17.940  1.00  0.00    -0.088 C 
HETATM   21  C2  UNL     1      19.639 -36.145  17.013  1.00  0.00    -0.029 C 
HETATM   22  C1  UNL     1      18.764 -37.287  17.407  1.00  0.00     0.036 C 
HETATM   23  C4  UNL     1      21.025 -34.213  17.470  1.00  0.00     0.043 C 
ENDBRANCH  19  20
ENDBRANCH  18  19
ENDBRANCH   1  18
TORSDOF 12
ENDMDL
MODEL 4
REMARK VINA RESULT: -9.297815270      2.329     10.540
REMARK  12 active torsions:
REMARK  status: ('A' for Active; 'I' for Inactive)
REMARK    1  A    between atoms: C3_3  and  C5_5 
REMARK    2  A    between atoms: C5_5  and  C6_6 
REMARK    3  A    between atoms: C6_6  and  C7_7 
REMARK    4  A    between atoms: C10_10  and  C11_11 
REMARK    5  A    between atoms: C11_11  and  C12_12 
REMARK    6  A    between atoms: C12_12  and  C13_13 
REMARK    7  A    between atoms: C13_13  and  O1_14 
REMARK    8  A    between atoms: O1_14  and  C14_15 
REMARK    9  A    between atoms: C14_15  and  C15_16 
REMARK   10  A    between atoms: C15_16  and  O2_17 
REMARK   11  A    between atoms: C15_16  and  C16_19 
REMARK   12  A    between atoms: C16_19  and  C17_20 
ROOT
HETATM    1  C7  UNL     1       9.315 -27.099  15.786  1.00  0.00    -0.058 A 
HETATM    2  C8  UNL     1       9.530 -27.783  16.964  1.00  0.00     0.007 A 
HETATM    3  C9  UNL     1      10.672 -28.508  17.232  1.00  0.00     0.007 A 
HETATM    4  C10 UNL     1      11.680 -28.575  16.286  1.00  0.00    -0.058 A 
HETATM    5  C19 UNL     1      11.484 -27.902  15.111  1.00  0.00     0.007 A 
HETATM    6  C20 UNL     1      10.344 -27.179  14.846  1.00  0.00     0.007 A 
ENDROOT
BRANCH   4   7
HETATM    7  C11 UNL     1      12.915 -29.337  16.528  1.00  0.00     0.041 C 
BRANCH   7   8
HETATM    8  C12 UNL     1      14.092 -28.397  16.708  1.00  0.00     0.031 C 
BRANCH   8   9
HETATM    9  C13 UNL     1      14.202 -28.155  18.222  1.00  0.00     0.168 C 
BRANCH   9  10
HETATM   10  O1  UNL     1      14.152 -29.391  18.809  1.00  0.00    -0.389 OA
BRANCH  10  11
HETATM   11  C14 UNL     1      15.310 -29.841  19.385  1.00  0.00     0.199 C 
BRANCH  11  12
HETATM   12  C15 UNL     1      15.859 -30.991  18.607  1.00  0.00     0.142 C 
BRANCH  12  13
HETATM   13  O2  UNL     1      15.524 -32.224  19.165  1.00  0.00    -0.393 OA
ATOM     14  H2  UNL     1      16.285 -32.762  19.347  1.00  0.00     0.210 HD
ENDBRANCH  12  13
BRANCH  12  15
HETATM   15  C16 UNL     1      17.364 -30.881  18.519  1.00  0.00     0.033 C 
BRANCH  15  16
HETATM   16  C17 UNL     1      18.047 -31.995  19.269  1.00  0.00    -0.002 C 
HETATM   17  C18 UNL     1      19.210 -32.480  18.437  1.00  0.00     0.005 C 
ENDBRANCH  15  16
ENDBRANCH  12  15
ENDBRANCH  11  12
ENDBRANCH  10  11
ENDBRANCH   9  10
ENDBRANCH   8   9
ENDBRANCH   7   8
ENDBRANCH   4   7
BRANCH   1  18
HETATM   18  C6  UNL     1       8.105 -26.331  15.514  1.00  0.00     0.043 C 
BRANCH  18  19
HETATM   19  C5  UNL     1       7.943 -25.826  14.125  1.00  0.00     0.038 C 
BRANCH  19  20
HETATM   20  C3  UNL     1       7.574 -24.435  13.906  1.00  0.00    -0.088 C 
HETATM   21  C2  UNL     1       8.547 -23.542  13.648  1.00  0.00    -0.029 C 
HETATM   22  C1  UNL     1       9.983 -23.947  13.651  1.00  0.00     0.036 C 
HETATM   23  C4  UNL     1       6.173 -23.956  13.883  1.00  0.00     0.043 C 
ENDBRANCH  19  20
ENDBRANCH  18  19
ENDBRANCH   1  18
TORSDOF 12
ENDMDL
MODEL 5
REMARK VINA RESULT: -9.290446916      0.529      1.261
REMARK  12 active torsions:
REMARK  status: ('A' for Active; 'I' for Inactive)
REMARK    1  A    between atoms: C3_3  and  C5_5 
REMARK    2  A    between atoms: C5_5  and  C6_6 
REMARK    3  A    between atoms: C6_6  and  C7_7 
REMARK    4  A    between atoms: C10_10  and  C11_11 
REMARK    5  A    between atoms: C11_11  and  C12_12 
REMARK    6  A    between atoms: C12_12  and  C13_13 
REMARK    7  A    between atoms: C13_13  and  O1_14 
REMARK    8  A    between atoms: O1_14  and  C14_15 
REMARK    9  A    between atoms: C14_15  and  C15_16 
REMARK   10  A    between atoms: C15_16  and  O2_17 
REMARK   11  A    between atoms: C15_16  and  C16_19 
REMARK   12  A    between atoms: C16_19  and  C17_20 
ROOT
HETATM    1  C7  UNL     1      18.533 -33.427  19.878  1.00  0.00    -0.058 A 
HETATM    2  C8  UNL     1      18.770 -32.143  19.433  1.00  0.00     0.007 A 
HETATM    3  C9  UNL     1      17.774 -31.248  19.105  1.00  0.00     0.007 A 
HETATM    4  C10 UNL     1      16.448 -31.627  19.217  1.00  0.00    -0.058 A 
HETATM    5  C19 UNL     1      16.193 -32.897  19.658  1.00  0.00     0.007 A 
HETATM    6  C20 UNL     1      17.189 -33.788  19.984  1.00  0.00     0.007 A 
ENDROOT
BRANCH   4   7
HETATM    7  C11 UNL     1      15.352 -30.706  18.878  1.00  0.00     0.041 C 
BRANCH   7   8
HETATM    8  C12 UNL     1      15.675 -29.300  19.347  1.00  0.00     0.031 C 
BRANCH   8   9
HETATM    9  C13 UNL     1      14.473 -28.437  18.931  1.00  0.00     0.168 C 
BRANCH   9  10
HETATM   10  O1  UNL     1      13.478 -29.313  18.587  1.00  0.00    -0.389 OA
BRANCH  10  11
HETATM   11  C14 UNL     1      12.286 -28.760  18.200  1.00  0.00     0.199 C 
BRANCH  11  12
HETATM   12  C15 UNL     1      11.998 -29.103  16.776  1.00  0.00     0.142 C 
BRANCH  12  13
HETATM   13  O2  UNL     1      12.847 -30.094  16.281  1.00  0.00    -0.393 OA
ATOM     14  H2  UNL     1      12.582 -30.966  16.546  1.00  0.00     0.210 HD
ENDBRANCH  12  13
BRANCH  12  15
HETATM   15  C16 UNL     1      12.126 -27.867  15.913  1.00  0.00     0.033 C 
BRANCH  15  16
HETATM   16  C17 UNL     1      11.373 -28.015  14.617  1.00  0.00    -0.002 C 
HETATM   17  C18 UNL     1      10.578 -26.752  14.385  1.00  0.00     0.005 C 
ENDBRANCH  15  16
ENDBRANCH  12  15
ENDBRANCH  11  12
ENDBRANCH  10  11
ENDBRANCH   9  10
ENDBRANCH   8   9
ENDBRANCH   7   8
ENDBRANCH   4   7
BRANCH   1  18
HETATM   18  C6  UNL     1      19.595 -34.365  20.226  1.00  0.00     0.043 C 
BRANCH  18  19
HETATM   19  C5  UNL     1      19.745 -35.549  19.340  1.00  0.00     0.038 C 
BRANCH  19  20
HETATM   20  C3  UNL     1      20.126 -35.360  17.947  1.00  0.00    -0.088 C 
HETATM   21  C2  UNL     1      19.617 -36.191  17.019  1.00  0.00    -0.029 C 
HETATM   22  C1  UNL     1      18.733 -37.328  17.408  1.00  0.00     0.036 C 
HETATM   23  C4  UNL     1      20.995 -34.254  17.483  1.00  0.00     0.043 C 
ENDBRANCH  19  20
ENDBRANCH  18  19
ENDBRANCH   1  18
TORSDOF 12
ENDMDL
