MODEL 1
REMARK VINA RESULT: -7.502746999      0.000      0.000
REMARK  5 active torsions:
REMARK  status: ('A' for Active; 'I' for Inactive)
REMARK    1  A    between atoms: C6_8  and  N1_9 
REMARK       I    between atoms: N1_9  and  C7_11 
REMARK    2  A    between atoms: C7_11  and  C8_13 
REMARK    3  A    between atoms: C8_13  and  C9_14 
REMARK    4  A    between atoms: C9_14  and  C10_15 
REMARK    5  A    between atoms: C12_19  and  C13_20 
ROOT
HETATM    1  C1  UNL     1       6.668  17.495  60.287  1.00  0.00     0.062 C 
HETATM    2  C2  UNL     1       6.848  18.866  59.737  1.00  0.00     0.023 C 
HETATM    3 CL1  UNL     1       7.947  19.911  60.600  1.00  0.00    -0.088 Cl
HETATM    4  C3  UNL     1       6.201  19.214  58.673  1.00  0.00     0.045 A 
HETATM    5  C4  UNL     1       6.219  20.516  57.948  1.00  0.00     0.197 A 
HETATM    6  O1  UNL     1       6.869  21.540  58.225  1.00  0.00    -0.286 OA
HETATM    7  C5  UNL     1       5.306  20.391  56.801  1.00  0.00     0.055 A 
HETATM    8  C6  UNL     1       4.843  21.174  55.733  1.00  0.00     0.050 A 
HETATM    9  C11 UNL     1       3.927  20.581  54.853  1.00  0.00     0.045 A 
HETATM   10  C12 UNL     1       3.447  19.278  54.964  1.00  0.00     0.006 A 
HETATM   11  C17 UNL     1       3.938  18.537  56.045  1.00  0.00     0.055 A 
HETATM   12  N3  UNL     1       3.799  17.301  56.572  1.00  0.00    -0.364 N 
ATOM     13  H3  UNL     1       3.199  16.566  56.196  1.00  0.00     0.165 HD
HETATM   14  C18 UNL     1       4.591  17.184  57.695  1.00  0.00     0.101 A 
HETATM   15  C19 UNL     1       5.266  18.384  57.904  1.00  0.00     0.008 A 
HETATM   16  C20 UNL     1       4.818  19.139  56.872  1.00  0.00     0.021 A 
ENDROOT
BRANCH   8  17
HETATM   17  N1  UNL     1       5.335  22.471  55.643  1.00  0.00    -0.326 N 
HETATM   18  C7  UNL     1       5.915  23.147  54.550  1.00  0.00     0.222 C 
HETATM   19  O2  UNL     1       6.057  22.598  53.453  1.00  0.00    -0.273 OA
ATOM     20  H1  UNL     1       5.266  23.019  56.501  1.00  0.00     0.169 HD
BRANCH  18  21
HETATM   21  C8  UNL     1       6.375  24.579  54.727  1.00  0.00     0.112 C 
BRANCH  21  22
HETATM   22  C9  UNL     1       7.852  24.705  54.593  1.00  0.00     0.109 C 
BRANCH  22  23
HETATM   23  C10 UNL     1       8.624  24.330  55.789  1.00  0.00     0.231 C 
HETATM   24  N2  UNL     1       9.974  23.917  55.576  1.00  0.00    -0.062 NA
HETATM   25  O3  UNL     1       8.201  24.342  56.968  1.00  0.00    -0.277 OA
ENDBRANCH  22  23
ENDBRANCH  21  22
ENDBRANCH  18  21
ENDBRANCH   8  17
BRANCH  10  26
HETATM   26  C13 UNL     1       2.506  18.661  54.064  1.00  0.00     0.001 A 
HETATM   27  C14 UNL     1       2.751  18.252  52.769  1.00  0.00     0.039 A 
HETATM   28  C15 UNL     1       1.574  17.705  52.245  1.00  0.00     0.142 A 
HETATM   29  O4  UNL     1       0.687  17.788  53.181  1.00  0.00    -0.334 OA
HETATM   30  C16 UNL     1       1.179  18.339  54.265  1.00  0.00     0.153 A 
ENDBRANCH  10  26
TORSDOF 5
ENDMDL
MODEL 2
REMARK VINA RESULT: -7.272472876      1.319      2.034
REMARK  5 active torsions:
REMARK  status: ('A' for Active; 'I' for Inactive)
REMARK    1  A    between atoms: C6_8  and  N1_9 
REMARK       I    between atoms: N1_9  and  C7_11 
REMARK    2  A    between atoms: C7_11  and  C8_13 
REMARK    3  A    between atoms: C8_13  and  C9_14 
REMARK    4  A    between atoms: C9_14  and  C10_15 
REMARK    5  A    between atoms: C12_19  and  C13_20 
ROOT
HETATM    1  C1  UNL     1       6.704  17.690  60.301  1.00  0.00     0.062 C 
HETATM    2  C2  UNL     1       6.853  19.056  59.732  1.00  0.00     0.023 C 
HETATM    3 CL1  UNL     1       7.931  20.137  60.577  1.00  0.00    -0.088 Cl
HETATM    4  C3  UNL     1       6.197  19.376  58.664  1.00  0.00     0.045 A 
HETATM    5  C4  UNL     1       6.186  20.667  57.921  1.00  0.00     0.197 A 
HETATM    6  O1  UNL     1       6.815  21.709  58.182  1.00  0.00    -0.286 OA
HETATM    7  C5  UNL     1       5.274  20.507  56.777  1.00  0.00     0.055 A 
HETATM    8  C6  UNL     1       4.793  21.265  55.699  1.00  0.00     0.050 A 
HETATM    9  C11 UNL     1       3.888  20.640  54.829  1.00  0.00     0.045 A 
HETATM   10  C12 UNL     1       3.436  19.328  54.960  1.00  0.00     0.006 A 
HETATM   11  C17 UNL     1       3.944  18.613  56.050  1.00  0.00     0.055 A 
HETATM   12  N3  UNL     1       3.832  17.383  56.595  1.00  0.00    -0.364 N 
ATOM     13  H3  UNL     1       3.248  16.630  56.231  1.00  0.00     0.165 HD
HETATM   14  C18 UNL     1       4.629  17.298  57.718  1.00  0.00     0.101 A 
HETATM   15  C19 UNL     1       5.278  18.515  57.909  1.00  0.00     0.008 A 
HETATM   16  C20 UNL     1       4.812  19.246  56.867  1.00  0.00     0.021 A 
ENDROOT
BRANCH   8  17
HETATM   17  N1  UNL     1       5.257  22.571  55.591  1.00  0.00    -0.326 N 
HETATM   18  C7  UNL     1       5.900  23.217  54.516  1.00  0.00     0.222 C 
HETATM   19  O2  UNL     1       6.139  22.627  53.457  1.00  0.00    -0.273 OA
ATOM     20  H1  UNL     1       5.109  23.152  56.416  1.00  0.00     0.169 HD
BRANCH  18  21
HETATM   21  C8  UNL     1       6.308  24.668  54.663  1.00  0.00     0.112 C 
BRANCH  21  22
HETATM   22  C9  UNL     1       5.344  25.430  55.502  1.00  0.00     0.109 C 
BRANCH  22  23
HETATM   23  C10 UNL     1       4.303  26.157  54.757  1.00  0.00     0.231 C 
HETATM   24  N2  UNL     1       3.100  26.459  55.466  1.00  0.00    -0.062 NA
HETATM   25  O3  UNL     1       4.380  26.530  53.564  1.00  0.00    -0.277 OA
ENDBRANCH  22  23
ENDBRANCH  21  22
ENDBRANCH  18  21
ENDBRANCH   8  17
BRANCH  10  26
HETATM   26  C13 UNL     1       2.507  18.679  54.071  1.00  0.00     0.001 A 
HETATM   27  C14 UNL     1       2.748  18.286  52.770  1.00  0.00     0.039 A 
HETATM   28  C15 UNL     1       1.587  17.695  52.261  1.00  0.00     0.142 A 
HETATM   29  O4  UNL     1       0.711  17.738  53.210  1.00  0.00    -0.334 OA
HETATM   30  C16 UNL     1       1.197  18.303  54.290  1.00  0.00     0.153 A 
ENDBRANCH  10  26
TORSDOF 5
ENDMDL
MODEL 3
REMARK VINA RESULT: -7.208728763      3.473      7.302
REMARK  5 active torsions:
REMARK  status: ('A' for Active; 'I' for Inactive)
REMARK    1  A    between atoms: C6_8  and  N1_9 
REMARK       I    between atoms: N1_9  and  C7_11 
REMARK    2  A    between atoms: C7_11  and  C8_13 
REMARK    3  A    between atoms: C8_13  and  C9_14 
REMARK    4  A    between atoms: C9_14  and  C10_15 
REMARK    5  A    between atoms: C12_19  and  C13_20 
ROOT
HETATM    1  C1  UNL     1       7.704  20.288  60.412  1.00  0.00     0.062 C 
HETATM    2  C2  UNL     1       7.112  18.925  60.489  1.00  0.00     0.023 C 
HETATM    3 CL1  UNL     1       7.589  17.947  61.853  1.00  0.00    -0.088 Cl
HETATM    4  C3  UNL     1       6.292  18.535  59.569  1.00  0.00     0.045 A 
HETATM    5  C4  UNL     1       5.583  17.232  59.435  1.00  0.00     0.197 A 
HETATM    6  O1  UNL     1       5.639  16.246  60.193  1.00  0.00    -0.286 OA
HETATM    7  C5  UNL     1       4.769  17.299  58.211  1.00  0.00     0.055 A 
HETATM    8  C6  UNL     1       3.885  16.484  57.488  1.00  0.00     0.050 A 
HETATM    9  C11 UNL     1       3.331  17.021  56.317  1.00  0.00     0.045 A 
HETATM   10  C12 UNL     1       3.596  18.297  55.824  1.00  0.00     0.006 A 
HETATM   11  C17 UNL     1       4.484  19.071  56.580  1.00  0.00     0.055 A 
HETATM   12  N3  UNL     1       5.041  20.301  56.542  1.00  0.00    -0.364 N 
ATOM     13  H3  UNL     1       4.873  20.999  55.818  1.00  0.00     0.165 HD
HETATM   14  C18 UNL     1       5.871  20.469  57.631  1.00  0.00     0.101 A 
HETATM   15  C19 UNL     1       5.853  19.308  58.400  1.00  0.00     0.008 A 
HETATM   16  C20 UNL     1       4.998  18.523  57.701  1.00  0.00     0.021 A 
ENDROOT
BRANCH   8  17
HETATM   17  N1  UNL     1       3.637  15.215  57.999  1.00  0.00    -0.326 N 
HETATM   18  C7  UNL     1       2.433  14.643  58.458  1.00  0.00     0.222 C 
HETATM   19  O2  UNL     1       1.373  15.276  58.451  1.00  0.00    -0.273 OA
ATOM     20  H1  UNL     1       4.451  14.603  58.048  1.00  0.00     0.169 HD
BRANCH  18  21
HETATM   21  C8  UNL     1       2.441  13.219  58.972  1.00  0.00     0.112 C 
BRANCH  21  22
HETATM   22  C9  UNL     1       2.848  12.253  57.915  1.00  0.00     0.109 C 
BRANCH  22  23
HETATM   23  C10 UNL     1       1.922  11.128  57.703  1.00  0.00     0.231 C 
HETATM   24  N2  UNL     1       2.510   9.847  57.480  1.00  0.00    -0.062 NA
HETATM   25  O3  UNL     1       0.671  11.199  57.701  1.00  0.00    -0.277 OA
ENDBRANCH  22  23
ENDBRANCH  21  22
ENDBRANCH  18  21
ENDBRANCH   8  17
BRANCH  10  26
HETATM   26  C13 UNL     1       3.032  18.856  54.622  1.00  0.00     0.001 A 
HETATM   27  C14 UNL     1       1.837  18.500  54.030  1.00  0.00     0.039 A 
HETATM   28  C15 UNL     1       1.659  19.282  52.883  1.00  0.00     0.142 A 
HETATM   29  O4  UNL     1       2.692  20.054  52.805  1.00  0.00    -0.334 OA
HETATM   30  C16 UNL     1       3.526  19.846  53.797  1.00  0.00     0.153 A 
ENDBRANCH  10  26
TORSDOF 5
ENDMDL
MODEL 4
REMARK VINA RESULT: -7.153690555      1.586      2.022
REMARK  5 active torsions:
REMARK  status: ('A' for Active; 'I' for Inactive)
REMARK    1  A    between atoms: C6_8  and  N1_9 
REMARK       I    between atoms: N1_9  and  C7_11 
REMARK    2  A    between atoms: C7_11  and  C8_13 
REMARK    3  A    between atoms: C8_13  and  C9_14 
REMARK    4  A    between atoms: C9_14  and  C10_15 
REMARK    5  A    between atoms: C12_19  and  C13_20 
ROOT
HETATM    1  C1  UNL     1       5.517  15.790  60.791  1.00  0.00     0.062 C 
HETATM    2  C2  UNL     1       6.134  17.067  60.342  1.00  0.00     0.023 C 
HETATM    3 CL1  UNL     1       7.408  17.710  61.346  1.00  0.00    -0.088 Cl
HETATM    4  C3  UNL     1       5.713  17.629  59.256  1.00  0.00     0.045 A 
HETATM    5  C4  UNL     1       6.171  18.894  58.616  1.00  0.00     0.197 A 
HETATM    6  O1  UNL     1       7.063  19.671  59.002  1.00  0.00    -0.286 OA
HETATM    7  C5  UNL     1       5.366  19.086  57.399  1.00  0.00     0.055 A 
HETATM    8  C6  UNL     1       5.247  20.009  56.350  1.00  0.00     0.050 A 
HETATM    9  C11 UNL     1       4.280  19.745  55.369  1.00  0.00     0.045 A 
HETATM   10  C12 UNL     1       3.434  18.637  55.365  1.00  0.00     0.006 A 
HETATM   11  C17 UNL     1       3.592  17.745  56.431  1.00  0.00     0.055 A 
HETATM   12  N3  UNL     1       3.055  16.586  56.871  1.00  0.00    -0.364 N 
ATOM     13  H3  UNL     1       2.303  16.075  56.407  1.00  0.00     0.165 HD
HETATM   14  C18 UNL     1       3.676  16.199  58.040  1.00  0.00     0.101 A 
HETATM   15  C19 UNL     1       4.649  17.140  58.371  1.00  0.00     0.008 A 
HETATM   16  C20 UNL     1       4.532  18.031  57.357  1.00  0.00     0.021 A 
ENDROOT
BRANCH   8  17
HETATM   17  N1  UNL     1       6.100  21.107  56.376  1.00  0.00    -0.326 N 
HETATM   18  C7  UNL     1       5.915  22.384  56.943  1.00  0.00     0.222 C 
HETATM   19  O2  UNL     1       4.872  22.685  57.532  1.00  0.00    -0.273 OA
ATOM     20  H1  UNL     1       6.999  20.966  55.914  1.00  0.00     0.169 HD
BRANCH  18  21
HETATM   21  C8  UNL     1       7.022  23.411  56.826  1.00  0.00     0.112 C 
BRANCH  21  22
HETATM   22  C9  UNL     1       7.491  23.559  55.421  1.00  0.00     0.109 C 
BRANCH  22  23
HETATM   23  C10 UNL     1       6.425  23.701  54.416  1.00  0.00     0.231 C 
HETATM   24  N2  UNL     1       6.291  22.640  53.469  1.00  0.00    -0.062 NA
HETATM   25  O3  UNL     1       5.631  24.666  54.320  1.00  0.00    -0.277 OA
ENDBRANCH  22  23
ENDBRANCH  21  22
ENDBRANCH  18  21
ENDBRANCH   8  17
BRANCH  10  26
HETATM   26  C13 UNL     1       2.439  18.357  54.362  1.00  0.00     0.001 A 
HETATM   27  C14 UNL     1       2.665  18.098  53.025  1.00  0.00     0.039 A 
HETATM   28  C15 UNL     1       1.432  17.880  52.400  1.00  0.00     0.142 A 
HETATM   29  O4  UNL     1       0.532  18.004  53.318  1.00  0.00    -0.334 OA
HETATM   30  C16 UNL     1       1.066  18.283  54.484  1.00  0.00     0.153 A 
ENDBRANCH  10  26
TORSDOF 5
ENDMDL
MODEL 5
REMARK VINA RESULT: -7.077897967      1.254      1.441
REMARK  5 active torsions:
REMARK  status: ('A' for Active; 'I' for Inactive)
REMARK    1  A    between atoms: C6_8  and  N1_9 
REMARK       I    between atoms: N1_9  and  C7_11 
REMARK    2  A    between atoms: C7_11  and  C8_13 
REMARK    3  A    between atoms: C8_13  and  C9_14 
REMARK    4  A    between atoms: C9_14  and  C10_15 
REMARK    5  A    between atoms: C12_19  and  C13_20 
ROOT
HETATM    1  C1  UNL     1       6.699  17.555  60.258  1.00  0.00     0.062 C 
HETATM    2  C2  UNL     1       6.857  18.927  59.703  1.00  0.00     0.023 C 
HETATM    3 CL1  UNL     1       7.948  19.989  60.556  1.00  0.00    -0.088 Cl
HETATM    4  C3  UNL     1       6.200  19.263  58.642  1.00  0.00     0.045 A 
HETATM    5  C4  UNL     1       6.197  20.563  57.913  1.00  0.00     0.197 A 
HETATM    6  O1  UNL     1       6.836  21.596  58.183  1.00  0.00    -0.286 OA
HETATM    7  C5  UNL     1       5.279  20.423  56.771  1.00  0.00     0.055 A 
HETATM    8  C6  UNL     1       4.800  21.197  55.704  1.00  0.00     0.050 A 
HETATM    9  C11 UNL     1       3.886  20.590  54.831  1.00  0.00     0.045 A 
HETATM   10  C12 UNL     1       3.424  19.280  54.949  1.00  0.00     0.006 A 
HETATM   11  C17 UNL     1       3.930  18.549  56.029  1.00  0.00     0.055 A 
HETATM   12  N3  UNL     1       3.810  17.313  56.561  1.00  0.00    -0.364 N 
ATOM     13  H3  UNL     1       3.218  16.570  56.190  1.00  0.00     0.165 HD
HETATM   14  C18 UNL     1       4.610  17.209  57.680  1.00  0.00     0.101 A 
HETATM   15  C19 UNL     1       5.271  18.419  57.881  1.00  0.00     0.008 A 
HETATM   16  C20 UNL     1       4.807  19.165  56.849  1.00  0.00     0.021 A 
ENDROOT
BRANCH   8  17
HETATM   17  N1  UNL     1       5.275  22.500  55.608  1.00  0.00    -0.326 N 
HETATM   18  C7  UNL     1       5.886  23.164  54.525  1.00  0.00     0.222 C 
HETATM   19  O2  UNL     1       6.079  22.596  53.445  1.00  0.00    -0.273 OA
ATOM     20  H1  UNL     1       5.164  23.063  56.451  1.00  0.00     0.169 HD
BRANCH  18  21
HETATM   21  C8  UNL     1       6.316  24.606  54.690  1.00  0.00     0.112 C 
BRANCH  21  22
HETATM   22  C9  UNL     1       5.257  25.427  55.338  1.00  0.00     0.109 C 
BRANCH  22  23
HETATM   23  C10 UNL     1       5.551  25.856  56.716  1.00  0.00     0.231 C 
HETATM   24  N2  UNL     1       5.615  24.829  57.706  1.00  0.00    -0.062 NA
HETATM   25  O3  UNL     1       5.747  27.034  57.091  1.00  0.00    -0.277 OA
ENDBRANCH  22  23
ENDBRANCH  21  22
ENDBRANCH  18  21
ENDBRANCH   8  17
BRANCH  10  26
HETATM   26  C13 UNL     1       2.486  18.648  54.056  1.00  0.00     0.001 A 
HETATM   27  C14 UNL     1       2.737  18.213  52.771  1.00  0.00     0.039 A 
HETATM   28  C15 UNL     1       1.561  17.659  52.252  1.00  0.00     0.142 A 
HETATM   29  O4  UNL     1       0.669  17.764  53.180  1.00  0.00    -0.334 OA
HETATM   30  C16 UNL     1       1.156  18.335  54.256  1.00  0.00     0.153 A 
ENDBRANCH  10  26
TORSDOF 5
ENDMDL
