MODEL 1
REMARK VINA RESULT: -6.700750423      0.000      0.000
REMARK  5 active torsions:
REMARK  status: ('A' for Active; 'I' for Inactive)
REMARK       I    between atoms: N1_2  and  C2_4 
REMARK    1  A    between atoms: C2_4  and  O2_6 
REMARK    2  A    between atoms: O2_6  and  C3_7 
REMARK    3  A    between atoms: C8_12  and  N2_13 
REMARK       I    between atoms: N2_13  and  C9_15 
REMARK    4  A    between atoms: C9_15  and  C10_17 
REMARK    5  A    between atoms: C14_23  and  O4_24 
ROOT
HETATM    1  C3  UNL     1       5.778  20.898  54.599  1.00  0.00     0.083 A 
HETATM    2  C4  UNL     1       6.175  20.338  55.816  1.00  0.00     0.038 A 
HETATM    3  C5  UNL     1       5.339  19.506  56.527  1.00  0.00     0.016 A 
HETATM    4  C6  UNL     1       4.086  19.194  56.066  1.00  0.00    -0.007 A 
HETATM    5  C7  UNL     1       3.226  18.348  56.780  1.00  0.00     0.049 A 
HETATM    6  C8  UNL     1       1.992  18.072  56.278  1.00  0.00     0.104 A 
HETATM    7  C19 UNL     1       1.608  18.643  55.051  1.00  0.00     0.272 A 
HETATM    8  O5  UNL     1       0.476  18.413  54.552  1.00  0.00    -0.266 OA
HETATM    9  N4  UNL     1       2.445  19.460  54.368  1.00  0.00    -0.321 N 
ATOM     10  H4  UNL     1       2.152  19.867  53.481  1.00  0.00     0.169 HD
HETATM   11  C20 UNL     1       3.663  19.730  54.868  1.00  0.00     0.048 A 
HETATM   12  C21 UNL     1       4.501  20.556  54.172  1.00  0.00     0.067 A 
ENDROOT
BRANCH   6  13
HETATM   13  N2  UNL     1       1.016  17.225  56.902  1.00  0.00    -0.318 N 
HETATM   14  C9  UNL     1       0.151  17.533  57.932  1.00  0.00     0.260 C 
HETATM   15  O3  UNL     1       0.208  18.714  58.408  1.00  0.00    -0.267 OA
ATOM     16  H2  UNL     1       0.953  16.274  56.538  1.00  0.00     0.169 HD
BRANCH  14  17
HETATM   17  C10 UNL     1      -0.820  16.660  58.541  1.00  0.00     0.083 A 
HETATM   18  C11 UNL     1      -0.792  16.459  59.937  1.00  0.00     0.030 A 
HETATM   19  C12 UNL     1      -1.672  15.655  60.576  1.00  0.00    -0.034 A 
HETATM   20  C13 UNL     1      -2.642  14.995  59.870  1.00  0.00     0.017 A 
HETATM   21  C18 UNL     1      -1.828  15.303  62.035  1.00  0.00     0.041 C 
HETATM   22  N3  UNL     1      -2.668  15.186  58.550  1.00  0.00    -0.339 N 
HETATM   23  C16 UNL     1      -3.498  14.158  60.791  1.00  0.00     0.058 C 
HETATM   24  C14 UNL     1      -1.798  15.990  57.867  1.00  0.00     0.158 A 
ATOM     25  H3  UNL     1      -3.386  14.699  58.014  1.00  0.00     0.168 HD
HETATM   26  C17 UNL     1      -2.568  14.007  61.980  1.00  0.00     0.011 C 
BRANCH  24  27
HETATM   27  O4  UNL     1      -1.960  16.085  56.479  1.00  0.00    -0.340 OA
HETATM   28  C15 UNL     1      -3.123  15.580  55.894  1.00  0.00     0.211 C 
ENDBRANCH  24  27
ENDBRANCH  14  17
ENDBRANCH   6  13
BRANCH   1  29
HETATM   29  O2  UNL     1       6.600  21.738  53.867  1.00  0.00    -0.262 OA
BRANCH  29  30
HETATM   30  C2  UNL     1       6.607  23.121  54.028  1.00  0.00     0.365 C 
HETATM   31  N1  UNL     1       5.646  23.805  54.807  1.00  0.00    -0.341 N 
HETATM   32  C1  UNL     1       5.729  25.244  54.918  1.00  0.00     0.151 C 
ATOM     33  H1  UNL     1       4.905  23.292  55.283  1.00  0.00     0.164 HD
HETATM   34  O1  UNL     1       7.507  23.766  53.453  1.00  0.00    -0.238 OA
ENDBRANCH  29  30
ENDBRANCH   1  29
TORSDOF 5
ENDMDL
MODEL 2
REMARK VINA RESULT: -6.619730497      1.418      2.002
REMARK  5 active torsions:
REMARK  status: ('A' for Active; 'I' for Inactive)
REMARK       I    between atoms: N1_2  and  C2_4 
REMARK    1  A    between atoms: C2_4  and  O2_6 
REMARK    2  A    between atoms: O2_6  and  C3_7 
REMARK    3  A    between atoms: C8_12  and  N2_13 
REMARK       I    between atoms: N2_13  and  C9_15 
REMARK    4  A    between atoms: C9_15  and  C10_17 
REMARK    5  A    between atoms: C14_23  and  O4_24 
ROOT
HETATM    1  C3  UNL     1       5.937  21.438  54.263  1.00  0.00     0.083 A 
HETATM    2  C4  UNL     1       6.426  20.960  55.481  1.00  0.00     0.038 A 
HETATM    3  C5  UNL     1       5.728  20.027  56.216  1.00  0.00     0.016 A 
HETATM    4  C6  UNL     1       4.526  19.532  55.777  1.00  0.00    -0.007 A 
HETATM    5  C7  UNL     1       3.807  18.582  56.516  1.00  0.00     0.049 A 
HETATM    6  C8  UNL     1       2.619  18.124  56.035  1.00  0.00     0.104 A 
HETATM    7  C19 UNL     1       2.142  18.615  54.806  1.00  0.00     0.272 A 
HETATM    8  O5  UNL     1       1.048  18.217  54.327  1.00  0.00    -0.266 OA
HETATM    9  N4  UNL     1       2.844  19.533  54.101  1.00  0.00    -0.321 N 
ATOM     10  H4  UNL     1       2.484  19.880  53.212  1.00  0.00     0.169 HD
HETATM   11  C20 UNL     1       4.016  19.983  54.579  1.00  0.00     0.048 A 
HETATM   12  C21 UNL     1       4.718  20.909  53.859  1.00  0.00     0.067 A 
ENDROOT
BRANCH   6  13
HETATM   13  N2  UNL     1       1.782  17.156  56.685  1.00  0.00    -0.318 N 
HETATM   14  C9  UNL     1       0.789  17.373  57.617  1.00  0.00     0.260 C 
HETATM   15  O3  UNL     1       0.566  18.580  57.962  1.00  0.00    -0.267 OA
ATOM     16  H2  UNL     1       1.943  16.183  56.425  1.00  0.00     0.169 HD
BRANCH  14  17
HETATM   17  C10 UNL     1      -0.037  16.379  58.254  1.00  0.00     0.083 A 
HETATM   18  C11 UNL     1      -1.434  16.416  58.067  1.00  0.00     0.030 A 
HETATM   19  C12 UNL     1      -2.270  15.515  58.633  1.00  0.00    -0.034 A 
HETATM   20  C13 UNL     1      -1.773  14.515  59.426  1.00  0.00     0.017 A 
HETATM   21  C18 UNL     1      -3.770  15.363  58.567  1.00  0.00     0.041 C 
HETATM   22  N3  UNL     1      -0.451  14.482  59.601  1.00  0.00    -0.339 N 
HETATM   23  C16 UNL     1      -2.889  13.641  59.947  1.00  0.00     0.058 C 
HETATM   24  C14 UNL     1       0.427  15.371  59.047  1.00  0.00     0.158 A 
ATOM     25  H3  UNL     1      -0.069  13.741  60.191  1.00  0.00     0.168 HD
HETATM   26  C17 UNL     1      -4.073  14.577  59.800  1.00  0.00     0.011 C 
BRANCH  24  27
HETATM   27  O4  UNL     1       1.788  15.198  59.330  1.00  0.00    -0.340 OA
HETATM   28  C15 UNL     1       2.491  14.178  58.685  1.00  0.00     0.211 C 
ENDBRANCH  24  27
ENDBRANCH  14  17
ENDBRANCH   6  13
BRANCH   1  29
HETATM   29  O2  UNL     1       6.622  22.376  53.507  1.00  0.00    -0.262 OA
BRANCH  29  30
HETATM   30  C2  UNL     1       6.844  23.681  53.939  1.00  0.00     0.365 C 
HETATM   31  N1  UNL     1       5.859  24.443  54.609  1.00  0.00    -0.341 N 
HETATM   32  C1  UNL     1       6.176  25.792  55.022  1.00  0.00     0.151 C 
ATOM     33  H1  UNL     1       4.939  24.047  54.799  1.00  0.00     0.164 HD
HETATM   34  O1  UNL     1       7.964  24.181  53.716  1.00  0.00    -0.238 OA
ENDBRANCH  29  30
ENDBRANCH   1  29
TORSDOF 5
ENDMDL
MODEL 3
REMARK VINA RESULT: -6.425079700      2.767      3.011
REMARK  5 active torsions:
REMARK  status: ('A' for Active; 'I' for Inactive)
REMARK       I    between atoms: N1_2  and  C2_4 
REMARK    1  A    between atoms: C2_4  and  O2_6 
REMARK    2  A    between atoms: O2_6  and  C3_7 
REMARK    3  A    between atoms: C8_12  and  N2_13 
REMARK       I    between atoms: N2_13  and  C9_15 
REMARK    4  A    between atoms: C9_15  and  C10_17 
REMARK    5  A    between atoms: C14_23  and  O4_24 
ROOT
HETATM    1  C3  UNL     1       5.927  21.583  54.212  1.00  0.00     0.083 A 
HETATM    2  C4  UNL     1       6.561  21.121  55.368  1.00  0.00     0.038 A 
HETATM    3  C5  UNL     1       6.019  20.105  56.124  1.00  0.00     0.016 A 
HETATM    4  C6  UNL     1       4.836  19.507  55.768  1.00  0.00    -0.007 A 
HETATM    5  C7  UNL     1       4.275  18.472  56.529  1.00  0.00     0.049 A 
HETATM    6  C8  UNL     1       3.099  17.914  56.131  1.00  0.00     0.104 A 
HETATM    7  C19 UNL     1       2.475  18.391  54.965  1.00  0.00     0.272 A 
HETATM    8  O5  UNL     1       1.387  17.902  54.563  1.00  0.00    -0.266 OA
HETATM    9  N4  UNL     1       3.024  19.391  54.237  1.00  0.00    -0.321 N 
ATOM     10  H4  UNL     1       2.559  19.727  53.394  1.00  0.00     0.169 HD
HETATM   11  C20 UNL     1       4.185  19.940  54.632  1.00  0.00     0.048 A 
HETATM   12  C21 UNL     1       4.733  20.950  53.891  1.00  0.00     0.067 A 
ENDROOT
BRANCH   6  13
HETATM   13  N2  UNL     1       2.416  16.851  56.813  1.00  0.00    -0.318 N 
HETATM   14  C9  UNL     1       2.907  16.009  57.789  1.00  0.00     0.260 C 
HETATM   15  O3  UNL     1       4.119  16.175  58.148  1.00  0.00    -0.267 OA
ATOM     16  H2  UNL     1       1.445  16.699  56.541  1.00  0.00     0.169 HD
BRANCH  14  17
HETATM   17  C10 UNL     1       2.197  14.948  58.457  1.00  0.00     0.083 A 
HETATM   18  C11 UNL     1       2.755  13.653  58.485  1.00  0.00     0.030 A 
HETATM   19  C12 UNL     1       2.145  12.610  59.093  1.00  0.00    -0.034 A 
HETATM   20  C13 UNL     1       0.938  12.782  59.717  1.00  0.00     0.017 A 
HETATM   21  C18 UNL     1       2.553  11.164  59.248  1.00  0.00     0.041 C 
HETATM   22  N3  UNL     1       0.413  14.009  59.690  1.00  0.00    -0.339 N 
HETATM   23  C16 UNL     1       0.455  11.483  60.316  1.00  0.00     0.058 C 
HETATM   24  C14 UNL     1       0.996  15.088  59.088  1.00  0.00     0.158 A 
ATOM     25  H3  UNL     1      -0.486  14.150  60.151  1.00  0.00     0.168 HD
HETATM   26  C17 UNL     1       1.249  10.483  59.499  1.00  0.00     0.011 C 
BRANCH  24  27
HETATM   27  O4  UNL     1       0.314  16.310  59.150  1.00  0.00    -0.340 OA
HETATM   28  C15 UNL     1      -0.848  16.478  58.392  1.00  0.00     0.211 C 
ENDBRANCH  24  27
ENDBRANCH  14  17
ENDBRANCH   6  13
BRANCH   1  29
HETATM   29  O2  UNL     1       6.452  22.603  53.437  1.00  0.00    -0.262 OA
BRANCH  29  30
HETATM   30  C2  UNL     1       6.797  23.849  53.956  1.00  0.00     0.365 C 
HETATM   31  N1  UNL     1       5.869  24.685  54.618  1.00  0.00    -0.341 N 
HETATM   32  C1  UNL     1       6.314  25.963  55.126  1.00  0.00     0.151 C 
ATOM     33  H1  UNL     1       4.900  24.390  54.737  1.00  0.00     0.164 HD
HETATM   34  O1  UNL     1       7.978  24.225  53.821  1.00  0.00    -0.238 OA
ENDBRANCH  29  30
ENDBRANCH   1  29
TORSDOF 5
ENDMDL
MODEL 4
REMARK VINA RESULT: -6.383257151      2.088      2.319
REMARK  5 active torsions:
REMARK  status: ('A' for Active; 'I' for Inactive)
REMARK       I    between atoms: N1_2  and  C2_4 
REMARK    1  A    between atoms: C2_4  and  O2_6 
REMARK    2  A    between atoms: O2_6  and  C3_7 
REMARK    3  A    between atoms: C8_12  and  N2_13 
REMARK       I    between atoms: N2_13  and  C9_15 
REMARK    4  A    between atoms: C9_15  and  C10_17 
REMARK    5  A    between atoms: C14_23  and  O4_24 
ROOT
HETATM    1  C3  UNL     1       5.676  21.349  54.272  1.00  0.00     0.083 A 
HETATM    2  C4  UNL     1       6.450  20.852  55.323  1.00  0.00     0.038 A 
HETATM    3  C5  UNL     1       6.000  19.819  56.116  1.00  0.00     0.016 A 
HETATM    4  C6  UNL     1       4.776  19.240  55.903  1.00  0.00    -0.007 A 
HETATM    5  C7  UNL     1       4.307  18.188  56.703  1.00  0.00     0.049 A 
HETATM    6  C8  UNL     1       3.083  17.650  56.449  1.00  0.00     0.104 A 
HETATM    7  C19 UNL     1       2.317  18.163  55.387  1.00  0.00     0.272 A 
HETATM    8  O5  UNL     1       1.181  17.692  55.118  1.00  0.00    -0.266 OA
HETATM    9  N4  UNL     1       2.778  19.179  54.619  1.00  0.00    -0.321 N 
ATOM     10  H4  UNL     1       2.210  19.540  53.853  1.00  0.00     0.169 HD
HETATM   11  C20 UNL     1       3.987  19.707  54.874  1.00  0.00     0.048 A 
HETATM   12  C21 UNL     1       4.443  20.733  54.093  1.00  0.00     0.067 A 
ENDROOT
BRANCH   6  13
HETATM   13  N2  UNL     1       2.484  16.574  57.186  1.00  0.00    -0.318 N 
HETATM   14  C9  UNL     1       1.797  16.636  58.381  1.00  0.00     0.260 C 
HETATM   15  O3  UNL     1       1.664  17.783  58.919  1.00  0.00    -0.267 OA
ATOM     16  H2  UNL     1       2.579  15.646  56.775  1.00  0.00     0.169 HD
BRANCH  14  17
HETATM   17  C10 UNL     1       1.206  15.536  59.099  1.00  0.00     0.083 A 
HETATM   18  C11 UNL     1       0.208  15.796  60.062  1.00  0.00     0.030 A 
HETATM   19  C12 UNL     1      -0.391  14.814  60.774  1.00  0.00    -0.034 A 
HETATM   20  C13 UNL     1      -0.040  13.505  60.577  1.00  0.00     0.017 A 
HETATM   21  C18 UNL     1      -1.467  14.860  61.833  1.00  0.00     0.041 C 
HETATM   22  N3  UNL     1       0.903  13.262  59.666  1.00  0.00    -0.339 N 
HETATM   23  C16 UNL     1      -0.835  12.596  61.483  1.00  0.00     0.058 C 
HETATM   24  C14 UNL     1       1.532  14.224  58.926  1.00  0.00     0.158 A 
ATOM     25  H3  UNL     1       1.174  12.290  59.511  1.00  0.00     0.168 HD
HETATM   26  C17 UNL     1      -1.261  13.573  62.562  1.00  0.00     0.011 C 
BRANCH  24  27
HETATM   27  O4  UNL     1       2.503  13.803  58.008  1.00  0.00    -0.340 OA
HETATM   28  C15 UNL     1       2.864  12.454  57.973  1.00  0.00     0.211 C 
ENDBRANCH  24  27
ENDBRANCH  14  17
ENDBRANCH   6  13
BRANCH   1  29
HETATM   29  O2  UNL     1       6.106  22.386  53.462  1.00  0.00    -0.262 OA
BRANCH  29  30
HETATM   30  C2  UNL     1       6.571  23.599  53.965  1.00  0.00     0.365 C 
HETATM   31  N1  UNL     1       5.766  24.464  54.740  1.00  0.00    -0.341 N 
HETATM   32  C1  UNL     1       6.331  25.704  55.222  1.00  0.00     0.151 C 
ATOM     33  H1  UNL     1       4.800  24.217  54.957  1.00  0.00     0.164 HD
HETATM   34  O1  UNL     1       7.750  23.917  53.710  1.00  0.00    -0.238 OA
ENDBRANCH  29  30
ENDBRANCH   1  29
TORSDOF 5
ENDMDL
MODEL 5
REMARK VINA RESULT: -6.380441577      6.098      8.736
REMARK  5 active torsions:
REMARK  status: ('A' for Active; 'I' for Inactive)
REMARK       I    between atoms: N1_2  and  C2_4 
REMARK    1  A    between atoms: C2_4  and  O2_6 
REMARK    2  A    between atoms: O2_6  and  C3_7 
REMARK    3  A    between atoms: C8_12  and  N2_13 
REMARK       I    between atoms: N2_13  and  C9_15 
REMARK    4  A    between atoms: C9_15  and  C10_17 
REMARK    5  A    between atoms: C14_23  and  O4_24 
ROOT
HETATM    1  C3  UNL     1       4.366  20.038  54.658  1.00  0.00     0.083 A 
HETATM    2  C4  UNL     1       5.646  20.576  54.813  1.00  0.00     0.038 A 
HETATM    3  C5  UNL     1       6.446  20.223  55.878  1.00  0.00     0.016 A 
HETATM    4  C6  UNL     1       6.016  19.329  56.825  1.00  0.00    -0.007 A 
HETATM    5  C7  UNL     1       6.821  18.962  57.913  1.00  0.00     0.049 A 
HETATM    6  C8  UNL     1       6.345  18.071  58.824  1.00  0.00     0.104 A 
HETATM    7  C19 UNL     1       5.055  17.538  58.652  1.00  0.00     0.272 A 
HETATM    8  O5  UNL     1       4.578  16.711  59.473  1.00  0.00    -0.266 OA
HETATM    9  N4  UNL     1       4.284  17.899  57.599  1.00  0.00    -0.321 N 
ATOM     10  H4  UNL     1       3.351  17.505  57.488  1.00  0.00     0.169 HD
HETATM   11  C20 UNL     1       4.758  18.779  56.701  1.00  0.00     0.048 A 
HETATM   12  C21 UNL     1       3.973  19.137  55.640  1.00  0.00     0.067 A 
ENDROOT
BRANCH   6  13
HETATM   13  N2  UNL     1       7.060  17.609  59.980  1.00  0.00    -0.318 N 
HETATM   14  C9  UNL     1       7.601  18.358  61.005  1.00  0.00     0.260 C 
HETATM   15  O3  UNL     1       7.463  19.623  60.940  1.00  0.00    -0.267 OA
ATOM     16  H2  UNL     1       7.184  16.600  60.053  1.00  0.00     0.169 HD
BRANCH  14  17
HETATM   17  C10 UNL     1       8.316  17.866  62.155  1.00  0.00     0.083 A 
HETATM   18  C11 UNL     1       9.375  18.629  62.691  1.00  0.00     0.030 A 
HETATM   19  C12 UNL     1      10.089  18.230  63.768  1.00  0.00    -0.034 A 
HETATM   20  C13 UNL     1       9.799  17.044  64.388  1.00  0.00     0.017 A 
HETATM   21  C18 UNL     1      11.239  18.877  64.500  1.00  0.00     0.041 C 
HETATM   22  N3  UNL     1       8.797  16.324  63.881  1.00  0.00    -0.339 N 
HETATM   23  C16 UNL     1      10.727  16.811  65.556  1.00  0.00     0.058 C 
HETATM   24  C14 UNL     1       8.051  16.691  62.795  1.00  0.00     0.158 A 
ATOM     25  H3  UNL     1       8.572  15.438  64.334  1.00  0.00     0.168 HD
HETATM   26  C17 UNL     1      11.885  17.716  65.183  1.00  0.00     0.011 C 
BRANCH  24  27
HETATM   27  O4  UNL     1       7.032  15.822  62.387  1.00  0.00    -0.340 OA
HETATM   28  C15 UNL     1       7.372  14.555  61.908  1.00  0.00     0.211 C 
ENDBRANCH  24  27
ENDBRANCH  14  17
ENDBRANCH   6  13
BRANCH   1  29
HETATM   29  O2  UNL     1       3.545  20.377  53.597  1.00  0.00    -0.262 OA
BRANCH  29  30
HETATM   30  C2  UNL     1       2.552  19.532  53.106  1.00  0.00     0.365 C 
HETATM   31  N1  UNL     1       2.838  18.282  52.511  1.00  0.00    -0.341 N 
HETATM   32  C1  UNL     1       1.744  17.469  52.028  1.00  0.00     0.151 C 
ATOM     33  H1  UNL     1       3.801  17.958  52.424  1.00  0.00     0.164 HD
HETATM   34  O1  UNL     1       1.369  19.912  53.204  1.00  0.00    -0.238 OA
ENDBRANCH  29  30
ENDBRANCH   1  29
TORSDOF 5
ENDMDL
