MODEL 1
REMARK VINA RESULT: -6.408398978      0.000      0.000
REMARK  6 active torsions:
REMARK  status: ('A' for Active; 'I' for Inactive)
REMARK    1  A    between atoms: O1_2  and  C2_3 
REMARK    2  A    between atoms: C4_5  and  O2_6 
REMARK    3  A    between atoms: O2_6  and  C5_7 
REMARK    4  A    between atoms: C5_7  and  C6_8 
REMARK    5  A    between atoms: C10_13  and  N1_14 
REMARK       I    between atoms: N1_14  and  C11_15 
REMARK       I    between atoms: C11_15  and  N2_17 
REMARK    6  A    between atoms: N2_17  and  C12_19 
ROOT
HETATM    1  N1  UNL     1       4.173  17.965  57.368  1.00  0.00    -0.349 NA
HETATM    2  C11 UNL     1       5.005  18.929  56.974  1.00  0.00     0.412 C 
HETATM    3  O4  UNL     1       6.270  18.869  56.877  1.00  0.00    -0.229 OA
HETATM    4  N2  UNL     1       4.492  20.241  56.600  1.00  0.00    -0.129 N 
ATOM      5  H2  UNL     1       3.486  20.410  56.651  1.00  0.00     0.190 HD
ENDROOT
BRANCH   1   6
HETATM    6  C10 UNL     1       3.316  16.968  57.775  1.00  0.00     0.149 A 
HETATM    7  C4  UNL     1       1.907  17.350  57.699  1.00  0.00     0.112 A 
HETATM    8  C3  UNL     1       0.976  16.457  58.140  1.00  0.00     0.080 A 
HETATM    9  C2  UNL     1       1.315  15.232  58.642  1.00  0.00     0.109 A 
HETATM   10  C21 UNL     1       2.629  14.850  58.722  1.00  0.00     0.152 A 
HETATM   11  C20 UNL     1       3.611  15.732  58.283  1.00  0.00     0.093 A 
HETATM   12  F1  UNL     1       3.028  13.662  59.210  1.00  0.00    -0.203 F 
BRANCH   7  13
HETATM   13  O2  UNL     1       1.703  18.571  57.190  1.00  0.00    -0.341 OA
BRANCH  13  14
HETATM   14  C5  UNL     1       1.017  19.068  56.150  1.00  0.00     0.240 C 
BRANCH  14  15
HETATM   15  C6  UNL     1       1.715  19.041  54.829  1.00  0.00     0.076 A 
HETATM   16  C7  UNL     1       1.668  18.117  53.821  1.00  0.00     0.037 A 
HETATM   17  C8  UNL     1       2.507  18.553  52.799  1.00  0.00     0.027 A 
HETATM   18  C9  UNL     1       3.021  19.738  53.263  1.00  0.00     0.142 A 
HETATM   19  O3  UNL     1       2.542  19.984  54.433  1.00  0.00    -0.325 OA
ENDBRANCH  14  15
ENDBRANCH  13  14
ENDBRANCH   7  13
BRANCH   9  20
HETATM   20  O1  UNL     1       0.348  14.366  59.075  1.00  0.00    -0.353 OA
HETATM   21  C1  UNL     1      -0.951  14.683  59.469  1.00  0.00     0.210 C 
ENDBRANCH   9  20
ENDBRANCH   1   6
BRANCH   4  22
HETATM   22  C12 UNL     1       5.343  21.296  56.166  1.00  0.00     0.690 A 
HETATM   23  N3  UNL     1       5.531  21.602  54.873  1.00  0.00    -0.155 N 
HETATM   24  C13 UNL     1       6.343  22.578  54.446  1.00  0.00     0.272 A 
ATOM     25  H3  UNL     1       5.027  21.058  54.173  1.00  0.00     0.187 HD
HETATM   26  O5  UNL     1       6.528  22.873  53.245  1.00  0.00    -0.267 OA
HETATM   27  C14 UNL     1       7.017  23.302  55.421  1.00  0.00     0.060 A 
HETATM   28  C15 UNL     1       7.885  24.337  55.086  1.00  0.00     0.019 A 
HETATM   29  C19 UNL     1       6.853  23.022  56.759  1.00  0.00     0.065 A 
HETATM   30  C16 UNL     1       8.552  25.049  56.066  1.00  0.00     0.001 A 
HETATM   31  C17 UNL     1       8.389  24.767  57.407  1.00  0.00     0.002 A 
HETATM   32  C18 UNL     1       7.531  23.745  57.750  1.00  0.00     0.031 A 
HETATM   33  N4  UNL     1       6.021  22.030  57.080  1.00  0.00    -0.190 N 
ATOM     34  H4  UNL     1       5.888  21.813  58.068  1.00  0.00     0.184 HD
ENDBRANCH   4  22
TORSDOF 6
ENDMDL
MODEL 2
REMARK VINA RESULT: -6.308163809      4.397      7.456
REMARK  6 active torsions:
REMARK  status: ('A' for Active; 'I' for Inactive)
REMARK    1  A    between atoms: O1_2  and  C2_3 
REMARK    2  A    between atoms: C4_5  and  O2_6 
REMARK    3  A    between atoms: O2_6  and  C5_7 
REMARK    4  A    between atoms: C5_7  and  C6_8 
REMARK    5  A    between atoms: C10_13  and  N1_14 
REMARK       I    between atoms: N1_14  and  C11_15 
REMARK       I    between atoms: C11_15  and  N2_17 
REMARK    6  A    between atoms: N2_17  and  C12_19 
ROOT
HETATM    1  N1  UNL     1       7.219  20.687  59.702  1.00  0.00    -0.349 NA
HETATM    2  C11 UNL     1       6.466  20.807  58.609  1.00  0.00     0.412 C 
HETATM    3  O4  UNL     1       5.782  21.813  58.246  1.00  0.00    -0.229 OA
HETATM    4  N2  UNL     1       6.350  19.701  57.666  1.00  0.00    -0.129 N 
ATOM      5  H2  UNL     1       6.849  18.832  57.862  1.00  0.00     0.190 HD
ENDROOT
BRANCH   1   6
HETATM    6  C10 UNL     1       7.997  20.565  60.832  1.00  0.00     0.149 A 
HETATM    7  C4  UNL     1       8.085  19.193  61.328  1.00  0.00     0.112 A 
HETATM    8  C3  UNL     1       8.779  18.972  62.480  1.00  0.00     0.080 A 
HETATM    9  C2  UNL     1       9.388  19.979  63.175  1.00  0.00     0.109 A 
HETATM   10  C21 UNL     1       9.320  21.274  62.729  1.00  0.00     0.152 A 
HETATM   11  C20 UNL     1       8.621  21.543  61.558  1.00  0.00     0.093 A 
HETATM   12  F1  UNL     1       9.892  22.310  63.369  1.00  0.00    -0.203 F 
BRANCH   7  13
HETATM   13  O2  UNL     1       7.451  18.298  60.562  1.00  0.00    -0.341 OA
BRANCH  13  14
HETATM   14  C5  UNL     1       7.072  17.019  60.704  1.00  0.00     0.240 C 
BRANCH  14  15
HETATM   15  C6  UNL     1       5.719  16.672  60.174  1.00  0.00     0.076 A 
HETATM   16  C7  UNL     1       4.791  15.777  60.632  1.00  0.00     0.037 A 
HETATM   17  C8  UNL     1       3.691  15.825  59.779  1.00  0.00     0.027 A 
HETATM   18  C9  UNL     1       4.030  16.765  58.839  1.00  0.00     0.142 A 
HETATM   19  O3  UNL     1       5.203  17.228  59.099  1.00  0.00    -0.325 OA
ENDBRANCH  14  15
ENDBRANCH  13  14
ENDBRANCH   7  13
BRANCH   9  20
HETATM   20  O1  UNL     1      10.074  19.713  64.329  1.00  0.00    -0.353 OA
HETATM   21  C1  UNL     1      11.436  19.447  64.455  1.00  0.00     0.210 C 
ENDBRANCH   9  20
ENDBRANCH   1   6
BRANCH   4  22
HETATM   22  C12 UNL     1       5.564  19.788  56.483  1.00  0.00     0.690 A 
HETATM   23  N3  UNL     1       5.797  20.685  55.513  1.00  0.00    -0.155 N 
HETATM   24  C13 UNL     1       5.057  20.794  54.402  1.00  0.00     0.272 A 
ATOM     25  H3  UNL     1       6.586  21.322  55.628  1.00  0.00     0.187 HD
HETATM   26  O5  UNL     1       5.263  21.625  53.490  1.00  0.00    -0.267 OA
HETATM   27  C14 UNL     1       3.990  19.914  54.272  1.00  0.00     0.060 A 
HETATM   28  C15 UNL     1       3.157  19.943  53.158  1.00  0.00     0.019 A 
HETATM   29  C19 UNL     1       3.714  18.979  55.244  1.00  0.00     0.065 A 
HETATM   30  C16 UNL     1       2.096  19.063  53.042  1.00  0.00     0.001 A 
HETATM   31  C17 UNL     1       1.820  18.127  54.016  1.00  0.00     0.002 A 
HETATM   32  C18 UNL     1       2.639  18.088  55.123  1.00  0.00     0.031 A 
HETATM   33  N4  UNL     1       4.513  18.951  56.312  1.00  0.00    -0.190 N 
ATOM     34  H4  UNL     1       4.322  18.262  57.039  1.00  0.00     0.184 HD
ENDBRANCH   4  22
TORSDOF 6
ENDMDL
MODEL 3
REMARK VINA RESULT: -6.135317846      2.835      4.987
REMARK  6 active torsions:
REMARK  status: ('A' for Active; 'I' for Inactive)
REMARK    1  A    between atoms: O1_2  and  C2_3 
REMARK    2  A    between atoms: C4_5  and  O2_6 
REMARK    3  A    between atoms: O2_6  and  C5_7 
REMARK    4  A    between atoms: C5_7  and  C6_8 
REMARK    5  A    between atoms: C10_13  and  N1_14 
REMARK       I    between atoms: N1_14  and  C11_15 
REMARK       I    between atoms: C11_15  and  N2_17 
REMARK    6  A    between atoms: N2_17  and  C12_19 
ROOT
HETATM    1  N1  UNL     1       1.894  14.978  58.452  1.00  0.00    -0.349 NA
HETATM    2  C11 UNL     1       2.488  15.826  57.613  1.00  0.00     0.412 C 
HETATM    3  O4  UNL     1       3.600  15.677  57.019  1.00  0.00    -0.229 OA
HETATM    4  N2  UNL     1       1.863  17.103  57.288  1.00  0.00    -0.129 N 
ATOM      5  H2  UNL     1       0.968  17.337  57.719  1.00  0.00     0.190 HD
ENDROOT
BRANCH   1   6
HETATM    6  C10 UNL     1       1.282  14.100  59.319  1.00  0.00     0.149 A 
HETATM    7  C4  UNL     1      -0.156  14.328  59.454  1.00  0.00     0.112 A 
HETATM    8  C3  UNL     1      -0.846  13.554  60.337  1.00  0.00     0.080 A 
HETATM    9  C2  UNL     1      -0.246  12.583  61.089  1.00  0.00     0.109 A 
HETATM   10  C21 UNL     1       1.100  12.349  60.978  1.00  0.00     0.152 A 
HETATM   11  C20 UNL     1       1.843  13.117  60.088  1.00  0.00     0.093 A 
HETATM   12  F1  UNL     1       1.751  11.413  61.692  1.00  0.00    -0.203 F 
BRANCH   7  13
HETATM   13  O2  UNL     1      -0.626  15.303  58.667  1.00  0.00    -0.341 OA
BRANCH  13  14
HETATM   14  C5  UNL     1      -1.749  16.035  58.623  1.00  0.00     0.240 C 
BRANCH  14  15
HETATM   15  C6  UNL     1      -2.632  15.813  57.440  1.00  0.00     0.076 A 
HETATM   16  C7  UNL     1      -3.956  15.474  57.373  1.00  0.00     0.037 A 
HETATM   17  C8  UNL     1      -4.310  15.382  56.029  1.00  0.00     0.027 A 
HETATM   18  C9  UNL     1      -3.153  15.677  55.352  1.00  0.00     0.142 A 
HETATM   19  O3  UNL     1      -2.212  15.919  56.197  1.00  0.00    -0.325 OA
ENDBRANCH  14  15
ENDBRANCH  13  14
ENDBRANCH   7  13
BRANCH   9  20
HETATM   20  O1  UNL     1      -0.978  11.828  61.965  1.00  0.00    -0.353 OA
HETATM   21  C1  UNL     1      -1.565  10.588  61.720  1.00  0.00     0.210 C 
ENDBRANCH   9  20
ENDBRANCH   1   6
BRANCH   4  22
HETATM   22  C12 UNL     1       2.458  18.034  56.392  1.00  0.00     0.690 A 
HETATM   23  N3  UNL     1       1.836  18.499  55.297  1.00  0.00    -0.155 N 
HETATM   24  C13 UNL     1       2.387  19.361  54.433  1.00  0.00     0.272 A 
ATOM     25  H3  UNL     1       0.886  18.176  55.112  1.00  0.00     0.187 HD
HETATM   26  O5  UNL     1       1.820  19.802  53.410  1.00  0.00    -0.267 OA
HETATM   27  C14 UNL     1       3.682  19.783  54.710  1.00  0.00     0.060 A 
HETATM   28  C15 UNL     1       4.347  20.677  53.877  1.00  0.00     0.019 A 
HETATM   29  C19 UNL     1       4.357  19.331  55.822  1.00  0.00     0.065 A 
HETATM   30  C16 UNL     1       5.637  21.088  54.163  1.00  0.00     0.001 A 
HETATM   31  C17 UNL     1       6.314  20.634  55.275  1.00  0.00     0.002 A 
HETATM   32  C18 UNL     1       5.663  19.750  56.108  1.00  0.00     0.031 A 
HETATM   33  N4  UNL     1       3.719  18.475  56.621  1.00  0.00    -0.190 N 
ATOM     34  H4  UNL     1       4.206  18.133  57.449  1.00  0.00     0.184 HD
ENDBRANCH   4  22
TORSDOF 6
ENDMDL
MODEL 4
REMARK VINA RESULT: -6.100908573      3.531      5.997
REMARK  6 active torsions:
REMARK  status: ('A' for Active; 'I' for Inactive)
REMARK    1  A    between atoms: O1_2  and  C2_3 
REMARK    2  A    between atoms: C4_5  and  O2_6 
REMARK    3  A    between atoms: O2_6  and  C5_7 
REMARK    4  A    between atoms: C5_7  and  C6_8 
REMARK    5  A    between atoms: C10_13  and  N1_14 
REMARK       I    between atoms: N1_14  and  C11_15 
REMARK       I    between atoms: C11_15  and  N2_17 
REMARK    6  A    between atoms: N2_17  and  C12_19 
ROOT
HETATM    1  N1  UNL     1       2.270  14.722  58.250  1.00  0.00    -0.349 NA
HETATM    2  C11 UNL     1       2.805  15.641  57.446  1.00  0.00     0.412 C 
HETATM    3  O4  UNL     1       3.918  15.584  56.838  1.00  0.00    -0.229 OA
HETATM    4  N2  UNL     1       2.105  16.893  57.184  1.00  0.00    -0.129 N 
ATOM      5  H2  UNL     1       1.202  17.054  57.632  1.00  0.00     0.190 HD
ENDROOT
BRANCH   1   6
HETATM    6  C10 UNL     1       1.719  13.772  59.080  1.00  0.00     0.149 A 
HETATM    7  C4  UNL     1       1.965  12.402  58.635  1.00  0.00     0.112 A 
HETATM    8  C3  UNL     1       1.408  11.386  59.351  1.00  0.00     0.080 A 
HETATM    9  C2  UNL     1       0.637  11.604  60.459  1.00  0.00     0.109 A 
HETATM   10  C21 UNL     1       0.394  12.880  60.897  1.00  0.00     0.152 A 
HETATM   11  C20 UNL     1       0.944  13.947  60.194  1.00  0.00     0.093 A 
HETATM   12  F1  UNL     1      -0.359  13.163  61.976  1.00  0.00    -0.203 F 
BRANCH   7  13
HETATM   13  O2  UNL     1       2.732  12.317  57.541  1.00  0.00    -0.341 OA
BRANCH  13  14
HETATM   14  C5  UNL     1       2.980  11.373  56.621  1.00  0.00     0.240 C 
BRANCH  14  15
HETATM   15  C6  UNL     1       4.284  10.655  56.753  1.00  0.00     0.076 A 
HETATM   16  C7  UNL     1       5.286  10.464  55.841  1.00  0.00     0.037 A 
HETATM   17  C8  UNL     1       6.291   9.721  56.456  1.00  0.00     0.027 A 
HETATM   18  C9  UNL     1       5.823   9.505  57.728  1.00  0.00     0.142 A 
HETATM   19  O3  UNL     1       4.667  10.057  57.860  1.00  0.00    -0.325 OA
ENDBRANCH  14  15
ENDBRANCH  13  14
ENDBRANCH   7  13
BRANCH   9  20
HETATM   20  O1  UNL     1       0.096  10.554  61.149  1.00  0.00    -0.353 OA
HETATM   21  C1  UNL     1      -1.076   9.864  60.847  1.00  0.00     0.210 C 
ENDBRANCH   9  20
ENDBRANCH   1   6
BRANCH   4  22
HETATM   22  C12 UNL     1       2.635  17.896  56.327  1.00  0.00     0.690 A 
HETATM   23  N3  UNL     1       1.964  18.395  55.278  1.00  0.00    -0.155 N 
HETATM   24  C13 UNL     1       2.454  19.327  54.450  1.00  0.00     0.272 A 
ATOM     25  H3  UNL     1       1.022  18.044  55.100  1.00  0.00     0.187 HD
HETATM   26  O5  UNL     1       1.840  19.800  53.469  1.00  0.00    -0.267 OA
HETATM   27  C14 UNL     1       3.739  19.786  54.715  1.00  0.00     0.060 A 
HETATM   28  C15 UNL     1       4.343  20.751  53.917  1.00  0.00     0.019 A 
HETATM   29  C19 UNL     1       4.463  19.301  55.780  1.00  0.00     0.065 A 
HETATM   30  C16 UNL     1       5.623  21.199  54.191  1.00  0.00     0.001 A 
HETATM   31  C17 UNL     1       6.350  20.712  55.257  1.00  0.00     0.002 A 
HETATM   32  C18 UNL     1       5.760  19.756  56.055  1.00  0.00     0.031 A 
HETATM   33  N4  UNL     1       3.884  18.375  56.546  1.00  0.00    -0.190 N 
ATOM     34  H4  UNL     1       4.408  18.008  57.340  1.00  0.00     0.184 HD
ENDBRANCH   4  22
TORSDOF 6
ENDMDL
MODEL 5
REMARK VINA RESULT: -6.035832287      3.012      5.228
REMARK  6 active torsions:
REMARK  status: ('A' for Active; 'I' for Inactive)
REMARK    1  A    between atoms: O1_2  and  C2_3 
REMARK    2  A    between atoms: C4_5  and  O2_6 
REMARK    3  A    between atoms: O2_6  and  C5_7 
REMARK    4  A    between atoms: C5_7  and  C6_8 
REMARK    5  A    between atoms: C10_13  and  N1_14 
REMARK       I    between atoms: N1_14  and  C11_15 
REMARK       I    between atoms: C11_15  and  N2_17 
REMARK    6  A    between atoms: N2_17  and  C12_19 
ROOT
HETATM    1  N1  UNL     1      -0.609  16.901  57.218  1.00  0.00    -0.349 NA
HETATM    2  C11 UNL     1       0.427  17.698  56.955  1.00  0.00     0.412 C 
HETATM    3  O4  UNL     1       0.900  18.621  57.687  1.00  0.00    -0.229 OA
HETATM    4  N2  UNL     1       1.156  17.570  55.698  1.00  0.00    -0.129 N 
ATOM      5  H2  UNL     1       0.855  16.866  55.024  1.00  0.00     0.190 HD
ENDROOT
BRANCH   1   6
HETATM    6  C10 UNL     1      -1.680  16.079  57.493  1.00  0.00     0.149 A 
HETATM    7  C4  UNL     1      -1.554  15.373  58.767  1.00  0.00     0.112 A 
HETATM    8  C3  UNL     1      -2.530  14.484  59.104  1.00  0.00     0.080 A 
HETATM    9  C2  UNL     1      -3.608  14.237  58.301  1.00  0.00     0.109 A 
HETATM   10  C21 UNL     1      -3.749  14.888  57.103  1.00  0.00     0.152 A 
HETATM   11  C20 UNL     1      -2.774  15.804  56.720  1.00  0.00     0.093 A 
HETATM   12  F1  UNL     1      -4.782  14.686  56.266  1.00  0.00    -0.203 F 
BRANCH   7  13
HETATM   13  O2  UNL     1      -0.459  15.700  59.462  1.00  0.00    -0.341 OA
BRANCH  13  14
HETATM   14  C5  UNL     1       0.614  15.036  59.918  1.00  0.00     0.240 C 
BRANCH  14  15
HETATM   15  C6  UNL     1       1.910  15.335  59.236  1.00  0.00     0.076 A 
HETATM   16  C7  UNL     1       2.982  16.073  59.656  1.00  0.00     0.037 A 
HETATM   17  C8  UNL     1       3.942  16.049  58.647  1.00  0.00     0.027 A 
HETATM   18  C9  UNL     1       3.377  15.282  57.659  1.00  0.00     0.142 A 
HETATM   19  O3  UNL     1       2.210  14.890  58.035  1.00  0.00    -0.325 OA
ENDBRANCH  14  15
ENDBRANCH  13  14
ENDBRANCH   7  13
BRANCH   9  20
HETATM   20  O1  UNL     1      -4.566  13.335  58.679  1.00  0.00    -0.353 OA
HETATM   21  C1  UNL     1      -4.688  12.012  58.259  1.00  0.00     0.210 C 
ENDBRANCH   9  20
ENDBRANCH   1   6
BRANCH   4  22
HETATM   22  C12 UNL     1       2.271  18.394  55.380  1.00  0.00     0.690 A 
HETATM   23  N3  UNL     1       2.371  19.083  54.233  1.00  0.00    -0.155 N 
HETATM   24  C13 UNL     1       3.421  19.848  53.908  1.00  0.00     0.272 A 
ATOM     25  H3  UNL     1       1.600  19.020  53.567  1.00  0.00     0.187 HD
HETATM   26  O5  UNL     1       3.527  20.494  52.843  1.00  0.00    -0.267 OA
HETATM   27  C14 UNL     1       4.456  19.914  54.833  1.00  0.00     0.060 A 
HETATM   28  C15 UNL     1       5.594  20.679  54.594  1.00  0.00     0.019 A 
HETATM   29  C19 UNL     1       4.395  19.223  56.022  1.00  0.00     0.065 A 
HETATM   30  C16 UNL     1       6.618  20.735  55.522  1.00  0.00     0.001 A 
HETATM   31  C17 UNL     1       6.558  20.042  56.713  1.00  0.00     0.002 A 
HETATM   32  C18 UNL     1       5.435  19.282  56.960  1.00  0.00     0.031 A 
HETATM   33  N4  UNL     1       3.305  18.490  56.251  1.00  0.00    -0.190 N 
ATOM     34  H4  UNL     1       3.245  17.975  57.129  1.00  0.00     0.184 HD
ENDBRANCH   4  22
TORSDOF 6
ENDMDL
