MODEL 1
REMARK VINA RESULT: -6.769973616      0.000      0.000
REMARK  5 active torsions:
REMARK  status: ('A' for Active; 'I' for Inactive)
REMARK    1  A    between atoms: C1_2  and  N1_3 
REMARK    2  A    between atoms: N1_3  and  C2_5 
REMARK    3  A    between atoms: C7_10  and  O2_11 
REMARK    4  A    between atoms: O2_11  and  C8_12 
REMARK    5  A    between atoms: C12_16  and  C13_17 
ROOT
HETATM    1  C8  UNL     1       2.617  17.986  55.216  1.00  0.00     0.098 A 
HETATM    2  C9  UNL     1       2.042  18.097  53.952  1.00  0.00     0.039 A 
HETATM    3  C10 UNL     1       2.485  19.117  53.148  1.00  0.00     0.004 A 
HETATM    4  C11 UNL     1       3.455  19.998  53.564  1.00  0.00     0.014 A 
HETATM    5  C12 UNL     1       4.045  19.919  54.806  1.00  0.00     0.001 A 
HETATM    6  C21 UNL     1       3.593  18.882  55.621  1.00  0.00     0.079 A 
HETATM    7 CL1  UNL     1       4.290  18.765  57.224  1.00  0.00    -0.080 Cl
ENDROOT
BRANCH   5   8
HETATM    8  C13 UNL     1       5.034  20.880  55.268  1.00  0.00     0.005 A 
HETATM    9  C14 UNL     1       6.359  20.626  54.897  1.00  0.00     0.015 A 
HETATM   10  C15 UNL     1       7.386  21.431  55.309  1.00  0.00     0.003 A 
HETATM   11  C16 UNL     1       7.131  22.511  56.101  1.00  0.00     0.032 A 
HETATM   12  C17 UNL     1       5.823  22.790  56.486  1.00  0.00     0.063 A 
HETATM   13  N2  UNL     1       5.607  23.874  57.263  1.00  0.00    -0.317 N 
HETATM   14  C20 UNL     1       4.794  21.963  56.059  1.00  0.00     0.073 A 
HETATM   15  C18 UNL     1       4.349  24.148  57.624  1.00  0.00     0.314 A 
ATOM     16  H2  UNL     1       6.381  24.466  57.565  1.00  0.00     0.169 HD
HETATM   17  O3  UNL     1       4.114  25.155  58.350  1.00  0.00    -0.262 OA
HETATM   18  C19 UNL     1       3.328  23.326  57.196  1.00  0.00     0.314 A 
HETATM   19  O4  UNL     1       2.158  23.631  57.566  1.00  0.00    -0.262 OA
HETATM   20  N3  UNL     1       3.542  22.244  56.422  1.00  0.00    -0.316 N 
ATOM     21  H3  UNL     1       2.765  21.655  56.122  1.00  0.00     0.169 HD
ENDBRANCH   5   8
BRANCH   1  22
HETATM   22  O2  UNL     1       2.157  16.956  56.006  1.00  0.00    -0.307 OA
BRANCH  22  23
HETATM   23  C7  UNL     1       1.528  17.149  57.212  1.00  0.00     0.102 A 
HETATM   24  C2  UNL     1       1.889  16.280  58.260  1.00  0.00     0.068 A 
HETATM   25  C3  UNL     1       1.249  16.487  59.447  1.00  0.00     0.032 A 
HETATM   26  C4  UNL     1       0.294  17.498  59.617  1.00  0.00     0.002 A 
HETATM   27  C5  UNL     1      -0.039  18.331  58.582  1.00  0.00     0.003 A 
HETATM   28  C6  UNL     1       0.593  18.143  57.372  1.00  0.00     0.039 A 
BRANCH  24  29
HETATM   29  N1  UNL     1       2.853  15.293  58.024  1.00  0.00    -0.332 N 
ATOM     30  H1  UNL     1       3.712  15.588  57.558  1.00  0.00     0.168 HD
BRANCH  29  31
HETATM   31  C1  UNL     1       2.751  13.947  58.365  1.00  0.00     0.353 C 
HETATM   32  O1  UNL     1       2.722  12.942  57.630  1.00  0.00    -0.283 OA
ENDBRANCH  29  31
ENDBRANCH  24  29
ENDBRANCH  22  23
ENDBRANCH   1  22
TORSDOF 5
ENDMDL
MODEL 2
REMARK VINA RESULT: -6.698024155      4.630      6.839
REMARK  5 active torsions:
REMARK  status: ('A' for Active; 'I' for Inactive)
REMARK    1  A    between atoms: C1_2  and  N1_3 
REMARK    2  A    between atoms: N1_3  and  C2_5 
REMARK    3  A    between atoms: C7_10  and  O2_11 
REMARK    4  A    between atoms: O2_11  and  C8_12 
REMARK    5  A    between atoms: C12_16  and  C13_17 
ROOT
HETATM    1  C8  UNL     1       6.346  19.600  59.743  1.00  0.00     0.098 A 
HETATM    2  C9  UNL     1       6.940  18.349  59.882  1.00  0.00     0.039 A 
HETATM    3  C10 UNL     1       6.962  17.537  58.775  1.00  0.00     0.004 A 
HETATM    4  C11 UNL     1       6.422  17.935  57.575  1.00  0.00     0.014 A 
HETATM    5  C12 UNL     1       5.826  19.165  57.401  1.00  0.00     0.001 A 
HETATM    6  C21 UNL     1       5.805  19.986  58.527  1.00  0.00     0.079 A 
HETATM    7 CL1  UNL     1       5.025  21.546  58.362  1.00  0.00    -0.080 Cl
ENDROOT
BRANCH   5   8
HETATM    8  C13 UNL     1       5.209  19.568  56.148  1.00  0.00     0.005 A 
HETATM    9  C14 UNL     1       5.962  20.425  55.338  1.00  0.00     0.015 A 
HETATM   10  C15 UNL     1       5.471  20.911  54.157  1.00  0.00     0.003 A 
HETATM   11  C16 UNL     1       4.220  20.563  53.742  1.00  0.00     0.032 A 
HETATM   12  C17 UNL     1       3.447  19.711  54.526  1.00  0.00     0.063 A 
HETATM   13  N2  UNL     1       2.215  19.380  54.079  1.00  0.00    -0.317 N 
HETATM   14  C20 UNL     1       3.960  19.227  55.721  1.00  0.00     0.073 A 
HETATM   15  C18 UNL     1       1.477  18.553  54.827  1.00  0.00     0.314 A 
ATOM     16  H2  UNL     1       1.860  19.749  53.198  1.00  0.00     0.169 HD
HETATM   17  O3  UNL     1       0.321  18.224  54.437  1.00  0.00    -0.262 OA
HETATM   18  C19 UNL     1       1.990  18.072  56.012  1.00  0.00     0.314 A 
HETATM   19  O4  UNL     1       1.250  17.294  56.681  1.00  0.00    -0.262 OA
HETATM   20  N3  UNL     1       3.218  18.402  56.460  1.00  0.00    -0.316 N 
ATOM     21  H3  UNL     1       3.570  18.030  57.342  1.00  0.00     0.169 HD
ENDBRANCH   5   8
BRANCH   1  22
HETATM   22  O2  UNL     1       6.334  20.398  60.866  1.00  0.00    -0.307 OA
BRANCH  22  23
HETATM   23  C7  UNL     1       7.398  21.173  61.256  1.00  0.00     0.102 A 
HETATM   24  C2  UNL     1       8.080  20.771  62.421  1.00  0.00     0.068 A 
HETATM   25  C3  UNL     1       9.131  21.558  62.792  1.00  0.00     0.032 A 
HETATM   26  C4  UNL     1       9.511  22.693  62.064  1.00  0.00     0.002 A 
HETATM   27  C5  UNL     1       8.832  23.063  60.933  1.00  0.00     0.003 A 
HETATM   28  C6  UNL     1       7.766  22.284  60.537  1.00  0.00     0.039 A 
BRANCH  24  29
HETATM   29  N1  UNL     1       7.651  19.625  63.100  1.00  0.00    -0.332 N 
ATOM     30  H1  UNL     1       6.704  19.641  63.481  1.00  0.00     0.168 HD
BRANCH  29  31
HETATM   31  C1  UNL     1       8.393  18.466  63.304  1.00  0.00     0.353 C 
HETATM   32  O1  UNL     1       9.259  17.939  62.580  1.00  0.00    -0.283 OA
ENDBRANCH  29  31
ENDBRANCH  24  29
ENDBRANCH  22  23
ENDBRANCH   1  22
TORSDOF 5
ENDMDL
MODEL 3
REMARK VINA RESULT: -6.645736106      4.091      7.212
REMARK  5 active torsions:
REMARK  status: ('A' for Active; 'I' for Inactive)
REMARK    1  A    between atoms: C1_2  and  N1_3 
REMARK    2  A    between atoms: N1_3  and  C2_5 
REMARK    3  A    between atoms: C7_10  and  O2_11 
REMARK    4  A    between atoms: O2_11  and  C8_12 
REMARK    5  A    between atoms: C12_16  and  C13_17 
ROOT
HETATM    1  C8  UNL     1       6.436  19.700  59.677  1.00  0.00     0.098 A 
HETATM    2  C9  UNL     1       6.961  18.423  59.860  1.00  0.00     0.039 A 
HETATM    3  C10 UNL     1       6.920  17.566  58.788  1.00  0.00     0.004 A 
HETATM    4  C11 UNL     1       6.384  17.946  57.579  1.00  0.00     0.014 A 
HETATM    5  C12 UNL     1       5.857  19.199  57.362  1.00  0.00     0.001 A 
HETATM    6  C21 UNL     1       5.900  20.066  58.452  1.00  0.00     0.079 A 
HETATM    7 CL1  UNL     1       5.206  21.660  58.232  1.00  0.00    -0.080 Cl
ENDROOT
BRANCH   5   8
HETATM    8  C13 UNL     1       5.244  19.585  56.101  1.00  0.00     0.005 A 
HETATM    9  C14 UNL     1       6.004  20.424  55.278  1.00  0.00     0.015 A 
HETATM   10  C15 UNL     1       5.518  20.893  54.089  1.00  0.00     0.003 A 
HETATM   11  C16 UNL     1       4.265  20.546  53.678  1.00  0.00     0.032 A 
HETATM   12  C17 UNL     1       3.486  19.712  54.474  1.00  0.00     0.063 A 
HETATM   13  N2  UNL     1       2.253  19.380  54.030  1.00  0.00    -0.317 N 
HETATM   14  C20 UNL     1       3.994  19.244  55.677  1.00  0.00     0.073 A 
HETATM   15  C18 UNL     1       1.509  18.570  54.789  1.00  0.00     0.314 A 
ATOM     16  H2  UNL     1       1.901  19.737  53.142  1.00  0.00     0.169 HD
HETATM   17  O3  UNL     1       0.351  18.241  54.403  1.00  0.00    -0.262 OA
HETATM   18  C19 UNL     1       2.017  18.106  55.984  1.00  0.00     0.314 A 
HETATM   19  O4  UNL     1       1.272  17.343  56.663  1.00  0.00    -0.262 OA
HETATM   20  N3  UNL     1       3.246  18.436  56.428  1.00  0.00    -0.316 N 
ATOM     21  H3  UNL     1       3.594  18.076  57.317  1.00  0.00     0.169 HD
ENDBRANCH   5   8
BRANCH   1  22
HETATM   22  O2  UNL     1       6.487  20.542  60.765  1.00  0.00    -0.307 OA
BRANCH  22  23
HETATM   23  C7  UNL     1       7.653  20.888  61.402  1.00  0.00     0.102 A 
HETATM   24  C2  UNL     1       8.088  22.218  61.247  1.00  0.00     0.068 A 
HETATM   25  C3  UNL     1       9.250  22.539  61.885  1.00  0.00     0.032 A 
HETATM   26  C4  UNL     1       9.968  21.608  62.647  1.00  0.00     0.002 A 
HETATM   27  C5  UNL     1       9.524  20.320  62.783  1.00  0.00     0.003 A 
HETATM   28  C6  UNL     1       8.352  19.971  62.149  1.00  0.00     0.039 A 
BRANCH  24  29
HETATM   29  N1  UNL     1       7.322  23.099  60.475  1.00  0.00    -0.332 N 
ATOM     30  H1  UNL     1       6.325  23.151  60.686  1.00  0.00     0.168 HD
BRANCH  29  31
HETATM   31  C1  UNL     1       7.791  23.910  59.446  1.00  0.00     0.353 C 
HETATM   32  O1  UNL     1       8.133  23.606  58.287  1.00  0.00    -0.283 OA
ENDBRANCH  29  31
ENDBRANCH  24  29
ENDBRANCH  22  23
ENDBRANCH   1  22
TORSDOF 5
ENDMDL
MODEL 4
REMARK VINA RESULT: -6.596296038      2.729      4.676
REMARK  5 active torsions:
REMARK  status: ('A' for Active; 'I' for Inactive)
REMARK    1  A    between atoms: C1_2  and  N1_3 
REMARK    2  A    between atoms: N1_3  and  C2_5 
REMARK    3  A    between atoms: C7_10  and  O2_11 
REMARK    4  A    between atoms: O2_11  and  C8_12 
REMARK    5  A    between atoms: C12_16  and  C13_17 
ROOT
HETATM    1  C8  UNL     1       1.825  16.962  58.646  1.00  0.00     0.098 A 
HETATM    2  C9  UNL     1       2.559  15.784  58.766  1.00  0.00     0.039 A 
HETATM    3  C10 UNL     1       3.491  15.523  57.793  1.00  0.00     0.004 A 
HETATM    4  C11 UNL     1       3.699  16.383  56.740  1.00  0.00     0.014 A 
HETATM    5  C12 UNL     1       2.992  17.556  56.589  1.00  0.00     0.001 A 
HETATM    6  C21 UNL     1       2.046  17.818  57.579  1.00  0.00     0.079 A 
HETATM    7 CL1  UNL     1       1.098  19.281  57.408  1.00  0.00    -0.080 Cl
ENDROOT
BRANCH   5   8
HETATM    8  C13 UNL     1       3.174  18.441  55.450  1.00  0.00     0.005 A 
HETATM    9  C14 UNL     1       2.313  18.236  54.367  1.00  0.00     0.015 A 
HETATM   10  C15 UNL     1       2.415  18.974  53.219  1.00  0.00     0.003 A 
HETATM   11  C16 UNL     1       3.374  19.936  53.110  1.00  0.00     0.032 A 
HETATM   12  C17 UNL     1       4.246  20.164  54.171  1.00  0.00     0.063 A 
HETATM   13  N2  UNL     1       5.178  21.132  54.031  1.00  0.00    -0.317 N 
HETATM   14  C20 UNL     1       4.128  19.407  55.328  1.00  0.00     0.073 A 
HETATM   15  C18 UNL     1       6.008  21.359  55.054  1.00  0.00     0.314 A 
ATOM     16  H2  UNL     1       5.246  21.675  53.170  1.00  0.00     0.169 HD
HETATM   17  O3  UNL     1       6.891  22.257  54.954  1.00  0.00    -0.262 OA
HETATM   18  C19 UNL     1       5.887  20.606  56.202  1.00  0.00     0.314 A 
HETATM   19  O4  UNL     1       6.697  20.861  57.140  1.00  0.00    -0.262 OA
HETATM   20  N3  UNL     1       4.959  19.639  56.344  1.00  0.00    -0.316 N 
ATOM     21  H3  UNL     1       4.894  19.099  57.207  1.00  0.00     0.169 HD
ENDBRANCH   5   8
BRANCH   1  22
HETATM   22  O2  UNL     1       0.895  17.204  59.632  1.00  0.00    -0.307 OA
BRANCH  22  23
HETATM   23  C7  UNL     1      -0.447  16.946  59.489  1.00  0.00     0.102 A 
HETATM   24  C2  UNL     1      -1.334  17.934  59.957  1.00  0.00     0.068 A 
HETATM   25  C3  UNL     1      -2.661  17.656  59.807  1.00  0.00     0.032 A 
HETATM   26  C4  UNL     1      -3.116  16.465  59.225  1.00  0.00     0.002 A 
HETATM   27  C5  UNL     1      -2.232  15.520  58.777  1.00  0.00     0.003 A 
HETATM   28  C6  UNL     1      -0.886  15.777  58.916  1.00  0.00     0.039 A 
BRANCH  24  29
HETATM   29  N1  UNL     1      -0.814  19.102  60.525  1.00  0.00    -0.332 N 
ATOM     30  H1  UNL     1      -0.128  18.987  61.272  1.00  0.00     0.168 HD
BRANCH  29  31
HETATM   31  C1  UNL     1      -1.144  20.407  60.168  1.00  0.00     0.353 C 
HETATM   32  O1  UNL     1      -0.415  21.322  59.741  1.00  0.00    -0.283 OA
ENDBRANCH  29  31
ENDBRANCH  24  29
ENDBRANCH  22  23
ENDBRANCH   1  22
TORSDOF 5
ENDMDL
MODEL 5
REMARK VINA RESULT: -6.578290220      4.504      5.949
REMARK  5 active torsions:
REMARK  status: ('A' for Active; 'I' for Inactive)
REMARK    1  A    between atoms: C1_2  and  N1_3 
REMARK    2  A    between atoms: N1_3  and  C2_5 
REMARK    3  A    between atoms: C7_10  and  O2_11 
REMARK    4  A    between atoms: O2_11  and  C8_12 
REMARK    5  A    between atoms: C12_16  and  C13_17 
ROOT
HETATM    1  C8  UNL     1       5.512  18.096  59.724  1.00  0.00     0.098 A 
HETATM    2  C9  UNL     1       4.549  18.640  60.569  1.00  0.00     0.039 A 
HETATM    3  C10 UNL     1       3.709  19.588  60.039  1.00  0.00     0.004 A 
HETATM    4  C11 UNL     1       3.807  19.988  58.727  1.00  0.00     0.014 A 
HETATM    5  C12 UNL     1       4.747  19.473  57.862  1.00  0.00     0.001 A 
HETATM    6  C21 UNL     1       5.598  18.511  58.404  1.00  0.00     0.079 A 
HETATM    7 CL1  UNL     1       6.833  17.854  57.350  1.00  0.00    -0.080 Cl
ENDROOT
BRANCH   5   8
HETATM    8  C13 UNL     1       4.885  19.932  56.490  1.00  0.00     0.005 A 
HETATM    9  C14 UNL     1       5.974  20.770  56.228  1.00  0.00     0.015 A 
HETATM   10  C15 UNL     1       6.185  21.305  54.986  1.00  0.00     0.003 A 
HETATM   11  C16 UNL     1       5.325  21.025  53.967  1.00  0.00     0.032 A 
HETATM   12  C17 UNL     1       4.232  20.194  54.196  1.00  0.00     0.063 A 
HETATM   13  N2  UNL     1       3.405  19.930  53.160  1.00  0.00    -0.317 N 
HETATM   14  C20 UNL     1       4.033  19.659  55.461  1.00  0.00     0.073 A 
HETATM   15  C18 UNL     1       2.362  19.123  53.378  1.00  0.00     0.314 A 
ATOM     16  H2  UNL     1       3.572  20.336  52.239  1.00  0.00     0.169 HD
HETATM   17  O3  UNL     1       1.570  18.857  52.430  1.00  0.00    -0.262 OA
HETATM   18  C19 UNL     1       2.168  18.593  54.635  1.00  0.00     0.314 A 
HETATM   19  O4  UNL     1       1.167  17.835  54.787  1.00  0.00    -0.262 OA
HETATM   20  N3  UNL     1       2.991  18.854  55.670  1.00  0.00    -0.316 N 
ATOM     21  H3  UNL     1       2.821  18.447  56.590  1.00  0.00     0.169 HD
ENDBRANCH   5   8
BRANCH   1  22
HETATM   22  O2  UNL     1       6.344  17.149  60.277  1.00  0.00    -0.307 OA
BRANCH  22  23
HETATM   23  C7  UNL     1       7.396  17.455  61.105  1.00  0.00     0.102 A 
HETATM   24  C2  UNL     1       8.062  16.371  61.709  1.00  0.00     0.068 A 
HETATM   25  C3  UNL     1       9.101  16.698  62.530  1.00  0.00     0.032 A 
HETATM   26  C4  UNL     1       9.484  18.026  62.761  1.00  0.00     0.002 A 
HETATM   27  C5  UNL     1       8.820  19.063  62.161  1.00  0.00     0.003 A 
HETATM   28  C6  UNL     1       7.767  18.759  61.326  1.00  0.00     0.039 A 
BRANCH  24  29
HETATM   29  N1  UNL     1       7.631  15.068  61.433  1.00  0.00    -0.332 N 
ATOM     30  H1  UNL     1       8.011  14.623  60.597  1.00  0.00     0.168 HD
BRANCH  29  31
HETATM   31  C1  UNL     1       6.733  14.322  62.192  1.00  0.00     0.353 C 
HETATM   32  O1  UNL     1       5.502  14.187  62.060  1.00  0.00    -0.283 OA
ENDBRANCH  29  31
ENDBRANCH  24  29
ENDBRANCH  22  23
ENDBRANCH   1  22
TORSDOF 5
ENDMDL
