MODEL 1
REMARK VINA RESULT: -6.876658081      0.000      0.000
REMARK  5 active torsions:
REMARK  status: ('A' for Active; 'I' for Inactive)
REMARK    1  A    between atoms: C6_9  and  N2_10 
REMARK       I    between atoms: N2_10  and  C7_12 
REMARK    2  A    between atoms: C7_12  and  C8_14 
REMARK    3  A    between atoms: C10_16  and  C11_17 
REMARK    4  A    between atoms: C15_21  and  O3_22 
REMARK    5  A    between atoms: C16_24  and  O4_25 
ROOT
HETATM    1  C8  UNL     1     -35.747 -20.988  15.025  1.00  0.00     0.101 A 
HETATM    2  C9  UNL     1     -35.462 -19.655  15.147  1.00  0.00     0.049 A 
HETATM    3  C10 UNL     1     -34.094 -19.502  15.188  1.00  0.00    -0.006 A 
HETATM    4  C21 UNL     1     -33.549 -20.760  15.089  1.00  0.00     0.101 A 
HETATM    5  N3  UNL     1     -34.571 -21.618  14.993  1.00  0.00    -0.361 N 
ATOM      6  H3  UNL     1     -34.465 -22.629  14.906  1.00  0.00     0.165 HD
ENDROOT
BRANCH   3   7
HETATM    7  C11 UNL     1     -33.346 -18.238  15.314  1.00  0.00    -0.002 A 
HETATM    8  C12 UNL     1     -33.509 -17.460  16.442  1.00  0.00     0.026 A 
HETATM    9  C13 UNL     1     -32.828 -16.264  16.606  1.00  0.00    -0.022 A 
HETATM   10  C14 UNL     1     -33.031 -15.531  17.753  1.00  0.00     0.051 A 
HETATM   11  C18 UNL     1     -31.962 -15.834  15.620  1.00  0.00    -0.021 A 
HETATM   12  C15 UNL     1     -32.358 -14.324  17.942  1.00  0.00     0.099 A 
HETATM   13  C16 UNL     1     -31.490 -13.885  16.963  1.00  0.00     0.099 A 
HETATM   14  C17 UNL     1     -31.298 -14.642  15.809  1.00  0.00     0.051 A 
HETATM   15  C19 UNL     1     -31.795 -16.607  14.490  1.00  0.00     0.037 A 
HETATM   16  C20 UNL     1     -32.481 -17.802  14.333  1.00  0.00     0.046 A 
HETATM   17 CL1  UNL     1     -32.256 -18.780  12.883  1.00  0.00    -0.083 Cl
BRANCH  12  18
HETATM   18  O3  UNL     1     -32.611 -13.653  19.106  1.00  0.00    -0.358 OA
ATOM     19  H3  UNL     1     -31.937 -13.057  19.411  1.00  0.00     0.217 HD
ENDBRANCH  12  18
BRANCH  13  20
HETATM   20  O4  UNL     1     -30.792 -12.697  17.088  1.00  0.00    -0.358 OA
ATOM     21  H4  UNL     1     -30.698 -12.094  16.361  1.00  0.00     0.217 HD
ENDBRANCH  13  20
ENDBRANCH   3   7
BRANCH   1  22
HETATM   22  C7  UNL     1     -37.081 -21.598  14.944  1.00  0.00     0.272 C 
HETATM   23  N2  UNL     1     -38.214 -20.751  14.849  1.00  0.00    -0.320 N 
ATOM     24  H2  UNL     1     -38.064 -19.742  14.842  1.00  0.00     0.169 HD
HETATM   25  O2  UNL     1     -37.230 -22.850  14.959  1.00  0.00    -0.266 OA
BRANCH  23  26
HETATM   26  C6  UNL     1     -39.547 -21.232  14.762  1.00  0.00     0.066 A 
HETATM   27  C3  UNL     1     -40.196 -21.780  13.578  1.00  0.00     0.056 A 
HETATM   28  C2  UNL     1     -39.683 -21.934  12.383  1.00  0.00    -0.012 C 
HETATM   29  C4  UNL     1     -41.569 -22.138  13.957  1.00  0.00     0.257 A 
HETATM   30  C1  UNL     1     -40.491 -22.509  11.274  1.00  0.00     0.037 C 
HETATM   31  O1  UNL     1     -42.437 -22.640  13.212  1.00  0.00    -0.267 OA
HETATM   32  N1  UNL     1     -41.669 -21.790  15.328  1.00  0.00    -0.331 N 
HETATM   33  C5  UNL     1     -40.406 -21.243  15.762  1.00  0.00     0.122 A 
ATOM     34  H1  UNL     1     -42.498 -21.907  15.912  1.00  0.00     0.168 HD
ENDBRANCH  23  26
ENDBRANCH   1  22
TORSDOF 5
ENDMDL
MODEL 2
REMARK VINA RESULT: -6.750063114      5.658      7.789
REMARK  5 active torsions:
REMARK  status: ('A' for Active; 'I' for Inactive)
REMARK    1  A    between atoms: C6_9  and  N2_10 
REMARK       I    between atoms: N2_10  and  C7_12 
REMARK    2  A    between atoms: C7_12  and  C8_14 
REMARK    3  A    between atoms: C10_16  and  C11_17 
REMARK    4  A    between atoms: C15_21  and  O3_22 
REMARK    5  A    between atoms: C16_24  and  O4_25 
ROOT
HETATM    1  C8  UNL     1     -35.651 -16.068  18.755  1.00  0.00     0.101 A 
HETATM    2  C9  UNL     1     -34.460 -16.541  18.276  1.00  0.00     0.049 A 
HETATM    3  C10 UNL     1     -34.368 -16.224  16.940  1.00  0.00    -0.006 A 
HETATM    4  C21 UNL     1     -35.520 -15.550  16.610  1.00  0.00     0.101 A 
HETATM    5  N3  UNL     1     -36.258 -15.478  17.724  1.00  0.00    -0.361 N 
ATOM      6  H3  UNL     1     -37.172 -15.028  17.777  1.00  0.00     0.165 HD
ENDROOT
BRANCH   3   7
HETATM    7  C11 UNL     1     -33.255 -16.540  16.027  1.00  0.00    -0.002 A 
HETATM    8  C12 UNL     1     -33.284 -17.711  15.297  1.00  0.00     0.026 A 
HETATM    9  C13 UNL     1     -32.261 -18.051  14.426  1.00  0.00    -0.022 A 
HETATM   10  C14 UNL     1     -32.347 -19.232  13.725  1.00  0.00     0.051 A 
HETATM   11  C18 UNL     1     -31.181 -17.202  14.280  1.00  0.00    -0.021 A 
HETATM   12  C15 UNL     1     -31.330 -19.598  12.842  1.00  0.00     0.099 A 
HETATM   13  C16 UNL     1     -30.247 -18.757  12.688  1.00  0.00     0.099 A 
HETATM   14  C17 UNL     1     -30.179 -17.566  13.408  1.00  0.00     0.051 A 
HETATM   15  C19 UNL     1     -31.146 -16.031  15.007  1.00  0.00     0.037 A 
HETATM   16  C20 UNL     1     -32.173 -15.698  15.877  1.00  0.00     0.046 A 
HETATM   17 CL1  UNL     1     -32.114 -14.196  16.799  1.00  0.00    -0.083 Cl
BRANCH  12  18
HETATM   18  O3  UNL     1     -31.485 -20.784  12.181  1.00  0.00    -0.358 OA
ATOM     19  H3  UNL     1     -32.237 -20.858  11.605  1.00  0.00     0.217 HD
ENDBRANCH  12  18
BRANCH  13  20
HETATM   20  O4  UNL     1     -29.205 -19.061  11.829  1.00  0.00    -0.358 OA
ATOM     21  H4  UNL     1     -29.034 -18.546  11.050  1.00  0.00     0.217 HD
ENDBRANCH  13  20
ENDBRANCH   3   7
BRANCH   1  22
HETATM   22  C7  UNL     1     -36.156 -16.186  20.130  1.00  0.00     0.272 C 
HETATM   23  N2  UNL     1     -36.507 -17.470  20.620  1.00  0.00    -0.320 N 
ATOM     24  H2  UNL     1     -36.399 -18.271  19.997  1.00  0.00     0.169 HD
HETATM   25  O2  UNL     1     -36.281 -15.174  20.870  1.00  0.00    -0.266 OA
BRANCH  23  26
HETATM   26  C6  UNL     1     -37.001 -17.701  21.930  1.00  0.00     0.066 A 
HETATM   27  C3  UNL     1     -36.299 -18.374  23.015  1.00  0.00     0.056 A 
HETATM   28  C2  UNL     1     -35.094 -18.888  22.992  1.00  0.00    -0.012 C 
HETATM   29  C4  UNL     1     -37.198 -18.387  24.177  1.00  0.00     0.257 A 
HETATM   30  C1  UNL     1     -34.525 -19.551  24.197  1.00  0.00     0.037 C 
HETATM   31  O1  UNL     1     -36.951 -18.876  25.299  1.00  0.00    -0.267 OA
HETATM   32  N1  UNL     1     -38.374 -17.732  23.733  1.00  0.00    -0.331 N 
HETATM   33  C5  UNL     1     -38.194 -17.337  22.356  1.00  0.00     0.122 A 
ATOM     34  H1  UNL     1     -39.210 -17.567  24.294  1.00  0.00     0.168 HD
ENDBRANCH  23  26
ENDBRANCH   1  22
TORSDOF 5
ENDMDL
MODEL 3
REMARK VINA RESULT: -6.705190588      6.008      9.400
REMARK  5 active torsions:
REMARK  status: ('A' for Active; 'I' for Inactive)
REMARK    1  A    between atoms: C6_9  and  N2_10 
REMARK       I    between atoms: N2_10  and  C7_12 
REMARK    2  A    between atoms: C7_12  and  C8_14 
REMARK    3  A    between atoms: C10_16  and  C11_17 
REMARK    4  A    between atoms: C15_21  and  O3_22 
REMARK    5  A    between atoms: C16_24  and  O4_25 
ROOT
HETATM    1  C8  UNL     1     -29.667 -20.572  12.223  1.00  0.00     0.101 A 
HETATM    2  C9  UNL     1     -30.694 -19.692  12.431  1.00  0.00     0.049 A 
HETATM    3  C10 UNL     1     -31.224 -19.925  13.680  1.00  0.00    -0.006 A 
HETATM    4  C21 UNL     1     -30.508 -20.960  14.230  1.00  0.00     0.101 A 
HETATM    5  N3  UNL     1     -29.587 -21.317  13.327  1.00  0.00    -0.361 N 
ATOM      6  H3  UNL     1     -28.908 -22.065  13.465  1.00  0.00     0.165 HD
ENDROOT
BRANCH   3   7
HETATM    7  C11 UNL     1     -32.345 -19.210  14.315  1.00  0.00    -0.002 A 
HETATM    8  C12 UNL     1     -32.111 -18.012  14.960  1.00  0.00     0.026 A 
HETATM    9  C13 UNL     1     -33.133 -17.303  15.572  1.00  0.00    -0.022 A 
HETATM   10  C14 UNL     1     -32.838 -16.114  16.199  1.00  0.00     0.051 A 
HETATM   11  C18 UNL     1     -34.421 -17.801  15.539  1.00  0.00    -0.021 A 
HETATM   12  C15 UNL     1     -33.849 -15.381  16.823  1.00  0.00     0.099 A 
HETATM   13  C16 UNL     1     -35.139 -15.870  16.796  1.00  0.00     0.099 A 
HETATM   14  C17 UNL     1     -35.417 -17.075  16.156  1.00  0.00     0.051 A 
HETATM   15  C19 UNL     1     -34.661 -18.997  14.897  1.00  0.00     0.037 A 
HETATM   16  C20 UNL     1     -33.634 -19.701  14.288  1.00  0.00     0.046 A 
HETATM   17 CL1  UNL     1     -33.957 -21.229  13.469  1.00  0.00    -0.083 Cl
BRANCH  12  18
HETATM   18  O3  UNL     1     -33.479 -14.211  17.424  1.00  0.00    -0.358 OA
ATOM     19  H3  UNL     1     -33.981 -13.436  17.198  1.00  0.00     0.217 HD
ENDBRANCH  12  18
BRANCH  13  20
HETATM   20  O4  UNL     1     -36.187 -15.192  17.395  1.00  0.00    -0.358 OA
ATOM     21  H4  UNL     1     -37.061 -15.197  17.025  1.00  0.00     0.217 HD
ENDBRANCH  13  20
ENDBRANCH   3   7
BRANCH   1  22
HETATM   22  C7  UNL     1     -28.825 -20.674  11.024  1.00  0.00     0.272 C 
HETATM   23  N2  UNL     1     -27.608 -19.945  10.980  1.00  0.00    -0.320 N 
ATOM     24  H2  UNL     1     -27.361 -19.371  11.786  1.00  0.00     0.169 HD
HETATM   25  O2  UNL     1     -29.165 -21.390  10.044  1.00  0.00    -0.266 OA
BRANCH  23  26
HETATM   26  C6  UNL     1     -26.717 -19.972   9.875  1.00  0.00     0.066 A 
HETATM   27  C3  UNL     1     -26.816 -19.169   8.663  1.00  0.00     0.056 A 
HETATM   28  C2  UNL     1     -27.730 -18.281   8.363  1.00  0.00    -0.012 C 
HETATM   29  C4  UNL     1     -25.684 -19.538   7.801  1.00  0.00     0.257 A 
HETATM   30  C1  UNL     1     -27.685 -17.548   7.068  1.00  0.00     0.037 C 
HETATM   31  O1  UNL     1     -25.426 -19.064   6.675  1.00  0.00    -0.267 OA
HETATM   32  N1  UNL     1     -24.980 -20.528   8.532  1.00  0.00    -0.331 N 
HETATM   33  C5  UNL     1     -25.657 -20.750   9.786  1.00  0.00     0.122 A 
ATOM     34  H1  UNL     1     -24.133 -21.005   8.221  1.00  0.00     0.168 HD
ENDBRANCH  23  26
ENDBRANCH   1  22
TORSDOF 5
ENDMDL
MODEL 4
REMARK VINA RESULT: -6.646504034      2.392      2.876
REMARK  5 active torsions:
REMARK  status: ('A' for Active; 'I' for Inactive)
REMARK    1  A    between atoms: C6_9  and  N2_10 
REMARK       I    between atoms: N2_10  and  C7_12 
REMARK    2  A    between atoms: C7_12  and  C8_14 
REMARK    3  A    between atoms: C10_16  and  C11_17 
REMARK    4  A    between atoms: C15_21  and  O3_22 
REMARK    5  A    between atoms: C16_24  and  O4_25 
ROOT
HETATM    1  C8  UNL     1     -38.603 -19.780  16.966  1.00  0.00     0.101 A 
HETATM    2  C9  UNL     1     -37.758 -18.894  16.355  1.00  0.00     0.049 A 
HETATM    3  C10 UNL     1     -36.526 -18.973  16.963  1.00  0.00    -0.006 A 
HETATM    4  C21 UNL     1     -36.630 -19.920  17.953  1.00  0.00     0.101 A 
HETATM    5  N3  UNL     1     -37.887 -20.378  17.920  1.00  0.00    -0.361 N 
ATOM      6  H3  UNL     1     -38.253 -21.095  18.547  1.00  0.00     0.165 HD
ENDROOT
BRANCH   3   7
HETATM    7  C11 UNL     1     -35.319 -18.197  16.627  1.00  0.00    -0.002 A 
HETATM    8  C12 UNL     1     -34.972 -17.108  17.401  1.00  0.00     0.026 A 
HETATM    9  C13 UNL     1     -33.846 -16.347  17.124  1.00  0.00    -0.022 A 
HETATM   10  C14 UNL     1     -33.551 -15.273  17.932  1.00  0.00     0.051 A 
HETATM   11  C18 UNL     1     -33.047 -16.682  16.048  1.00  0.00    -0.021 A 
HETATM   12  C15 UNL     1     -32.424 -14.491  17.675  1.00  0.00     0.099 A 
HETATM   13  C16 UNL     1     -31.619 -14.817  16.603  1.00  0.00     0.099 A 
HETATM   14  C17 UNL     1     -31.935 -15.908  15.797  1.00  0.00     0.051 A 
HETATM   15  C19 UNL     1     -33.389 -17.769  15.271  1.00  0.00     0.037 A 
HETATM   16  C20 UNL     1     -34.516 -18.524  15.554  1.00  0.00     0.046 A 
HETATM   17 CL1  UNL     1     -34.940 -19.911  14.551  1.00  0.00    -0.083 Cl
BRANCH  12  18
HETATM   18  O3  UNL     1     -32.197 -13.442  18.520  1.00  0.00    -0.358 OA
ATOM     19  H3  UNL     1     -32.290 -12.570  18.155  1.00  0.00     0.217 HD
ENDBRANCH  12  18
BRANCH  13  20
HETATM   20  O4  UNL     1     -30.487 -14.083  16.293  1.00  0.00    -0.358 OA
ATOM     21  H4  UNL     1     -30.217 -13.937  15.394  1.00  0.00     0.217 HD
ENDBRANCH  13  20
ENDBRANCH   3   7
BRANCH   1  22
HETATM   22  C7  UNL     1     -40.013 -20.023  16.634  1.00  0.00     0.272 C 
HETATM   23  N2  UNL     1     -40.702 -19.070  15.840  1.00  0.00    -0.320 N 
ATOM     24  H2  UNL     1     -40.192 -18.244  15.528  1.00  0.00     0.169 HD
HETATM   25  O2  UNL     1     -40.613 -21.054  17.041  1.00  0.00    -0.266 OA
BRANCH  23  26
HETATM   26  C6  UNL     1     -42.062 -19.205  15.457  1.00  0.00     0.066 A 
HETATM   27  C3  UNL     1     -42.570 -19.943  14.308  1.00  0.00     0.056 A 
HETATM   28  C2  UNL     1     -41.881 -20.616  13.421  1.00  0.00    -0.012 C 
HETATM   29  C4  UNL     1     -44.032 -19.799  14.306  1.00  0.00     0.257 A 
HETATM   30  C1  UNL     1     -42.561 -21.314  12.296  1.00  0.00     0.037 C 
HETATM   31  O1  UNL     1     -44.824 -20.291  13.476  1.00  0.00    -0.267 OA
HETATM   32  N1  UNL     1     -44.318 -18.992  15.437  1.00  0.00    -0.331 N 
HETATM   33  C5  UNL     1     -43.078 -18.662  16.098  1.00  0.00     0.122 A 
ATOM     34  H1  UNL     1     -45.247 -18.695  15.735  1.00  0.00     0.168 HD
ENDBRANCH  23  26
ENDBRANCH   1  22
TORSDOF 5
ENDMDL
MODEL 5
REMARK VINA RESULT: -6.636667791      5.048      7.460
REMARK  5 active torsions:
REMARK  status: ('A' for Active; 'I' for Inactive)
REMARK    1  A    between atoms: C6_9  and  N2_10 
REMARK       I    between atoms: N2_10  and  C7_12 
REMARK    2  A    between atoms: C7_12  and  C8_14 
REMARK    3  A    between atoms: C10_16  and  C11_17 
REMARK    4  A    between atoms: C15_21  and  O3_22 
REMARK    5  A    between atoms: C16_24  and  O4_25 
ROOT
HETATM    1  C8  UNL     1     -35.334 -16.599  16.467  1.00  0.00     0.101 A 
HETATM    2  C9  UNL     1     -34.006 -16.837  16.238  1.00  0.00     0.049 A 
HETATM    3  C10 UNL     1     -33.871 -17.395  14.987  1.00  0.00    -0.006 A 
HETATM    4  C21 UNL     1     -35.134 -17.495  14.456  1.00  0.00     0.101 A 
HETATM    5  N3  UNL     1     -35.979 -17.008  15.372  1.00  0.00    -0.361 N 
ATOM      6  H3  UNL     1     -36.990 -16.955  15.250  1.00  0.00     0.165 HD
ENDROOT
BRANCH   3   7
HETATM    7  C11 UNL     1     -32.617 -17.811  14.332  1.00  0.00    -0.002 A 
HETATM    8  C12 UNL     1     -32.564 -19.020  13.667  1.00  0.00     0.026 A 
HETATM    9  C13 UNL     1     -31.409 -19.453  13.036  1.00  0.00    -0.022 A 
HETATM   10  C14 UNL     1     -31.417 -20.668  12.389  1.00  0.00     0.051 A 
HETATM   11  C18 UNL     1     -30.278 -18.661  13.069  1.00  0.00    -0.021 A 
HETATM   12  C15 UNL     1     -30.267 -21.127  11.747  1.00  0.00     0.099 A 
HETATM   13  C16 UNL     1     -29.132 -20.344  11.773  1.00  0.00     0.099 A 
HETATM   14  C17 UNL     1     -29.144 -19.117  12.434  1.00  0.00     0.051 A 
HETATM   15  C19 UNL     1     -30.324 -17.453  13.732  1.00  0.00     0.037 A 
HETATM   16  C20 UNL     1     -31.484 -17.026  14.361  1.00  0.00     0.046 A 
HETATM   17 CL1  UNL     1     -31.528 -15.478  15.204  1.00  0.00    -0.083 Cl
BRANCH  12  18
HETATM   18  O3  UNL     1     -30.352 -22.342  11.126  1.00  0.00    -0.358 OA
ATOM     19  H3  UNL     1     -31.026 -22.437  10.462  1.00  0.00     0.217 HD
ENDBRANCH  12  18
BRANCH  13  20
HETATM   20  O4  UNL     1     -27.958 -20.741  11.156  1.00  0.00    -0.358 OA
ATOM     21  H4  UNL     1     -27.676 -20.365  10.330  1.00  0.00     0.217 HD
ENDBRANCH  13  20
ENDBRANCH   3   7
BRANCH   1  22
HETATM   22  C7  UNL     1     -35.927 -16.011  17.676  1.00  0.00     0.272 C 
HETATM   23  N2  UNL     1     -37.143 -16.549  18.171  1.00  0.00    -0.320 N 
ATOM     24  H2  UNL     1     -37.567 -17.328  17.666  1.00  0.00     0.169 HD
HETATM   25  O2  UNL     1     -35.377 -15.047  18.271  1.00  0.00    -0.266 OA
BRANCH  23  26
HETATM   26  C6  UNL     1     -37.801 -16.062  19.330  1.00  0.00     0.066 A 
HETATM   27  C3  UNL     1     -37.542 -16.464  20.707  1.00  0.00     0.056 A 
HETATM   28  C2  UNL     1     -36.665 -17.338  21.135  1.00  0.00    -0.012 C 
HETATM   29  C4  UNL     1     -38.462 -15.705  21.565  1.00  0.00     0.257 A 
HETATM   30  C1  UNL     1     -36.533 -17.637  22.586  1.00  0.00     0.037 C 
HETATM   31  O1  UNL     1     -38.542 -15.774  22.809  1.00  0.00    -0.267 OA
HETATM   32  N1  UNL     1     -39.214 -14.902  20.670  1.00  0.00    -0.331 N 
HETATM   33  C5  UNL     1     -38.765 -15.164  19.323  1.00  0.00     0.122 A 
ATOM     34  H1  UNL     1     -39.950 -14.247  20.934  1.00  0.00     0.168 HD
ENDBRANCH  23  26
ENDBRANCH   1  22
TORSDOF 5
ENDMDL
