MODEL 1
REMARK VINA RESULT: -6.898726018      0.000      0.000
REMARK  5 active torsions:
REMARK  status: ('A' for Active; 'I' for Inactive)
REMARK    1  A    between atoms: C1_2  and  N1_3 
REMARK    2  A    between atoms: N1_3  and  C2_5 
REMARK    3  A    between atoms: C7_10  and  O2_11 
REMARK    4  A    between atoms: O2_11  and  C8_12 
REMARK    5  A    between atoms: C12_16  and  C13_17 
ROOT
HETATM    1  C8  UNL     1     -35.615 -19.773  17.761  1.00  0.00     0.098 A 
HETATM    2  C9  UNL     1     -36.939 -19.466  17.454  1.00  0.00     0.039 A 
HETATM    3  C10 UNL     1     -37.157 -18.580  16.428  1.00  0.00     0.004 A 
HETATM    4  C11 UNL     1     -36.117 -18.015  15.727  1.00  0.00     0.014 A 
HETATM    5  C12 UNL     1     -34.797 -18.295  16.003  1.00  0.00     0.001 A 
HETATM    6  C21 UNL     1     -34.580 -19.195  17.046  1.00  0.00     0.079 A 
HETATM    7 CL1  UNL     1     -32.914 -19.552  17.456  1.00  0.00    -0.080 Cl
ENDROOT
BRANCH   5   8
HETATM    8  C13 UNL     1     -33.696 -17.660  15.297  1.00  0.00     0.005 A 
HETATM    9  C14 UNL     1     -33.365 -18.206  14.053  1.00  0.00     0.015 A 
HETATM   10  C15 UNL     1     -32.319 -17.726  13.314  1.00  0.00     0.003 A 
HETATM   11  C16 UNL     1     -31.568 -16.691  13.786  1.00  0.00     0.032 A 
HETATM   12  C17 UNL     1     -31.872 -16.126  15.021  1.00  0.00     0.063 A 
HETATM   13  N2  UNL     1     -31.113 -15.095  15.453  1.00  0.00    -0.317 N 
HETATM   14  C20 UNL     1     -32.938 -16.625  15.757  1.00  0.00     0.073 A 
HETATM   15  C18 UNL     1     -31.412 -14.545  16.634  1.00  0.00     0.314 A 
ATOM     16  H2  UNL     1     -30.334 -14.747  14.894  1.00  0.00     0.169 HD
HETATM   17  O3  UNL     1     -30.721 -13.580  17.066  1.00  0.00    -0.262 OA
HETATM   18  C19 UNL     1     -32.472 -15.042  17.362  1.00  0.00     0.314 A 
HETATM   19  O4  UNL     1     -32.712 -14.486  18.473  1.00  0.00    -0.262 OA
HETATM   20  N3  UNL     1     -33.230 -16.070  16.934  1.00  0.00    -0.316 N 
ATOM     21  H3  UNL     1     -34.009 -16.416  17.496  1.00  0.00     0.169 HD
ENDBRANCH   5   8
BRANCH   1  22
HETATM   22  O2  UNL     1     -35.420 -20.663  18.794  1.00  0.00    -0.307 OA
BRANCH  22  23
HETATM   23  C7  UNL     1     -34.962 -20.294  20.036  1.00  0.00     0.102 A 
HETATM   24  C2  UNL     1     -33.908 -21.057  20.573  1.00  0.00     0.068 A 
HETATM   25  C3  UNL     1     -33.471 -20.675  21.808  1.00  0.00     0.032 A 
HETATM   26  C4  UNL     1     -34.034 -19.594  22.501  1.00  0.00     0.002 A 
HETATM   27  C5  UNL     1     -35.059 -18.868  21.956  1.00  0.00     0.003 A 
HETATM   28  C6  UNL     1     -35.517 -19.233  20.709  1.00  0.00     0.039 A 
BRANCH  24  29
HETATM   29  N1  UNL     1     -33.389 -22.121  19.828  1.00  0.00    -0.332 N 
ATOM     30  H1  UNL     1     -34.060 -22.705  19.328  1.00  0.00     0.168 HD
BRANCH  29  31
HETATM   31  C1  UNL     1     -32.044 -22.458  19.704  1.00  0.00     0.353 C 
HETATM   32  O1  UNL     1     -31.072 -21.746  19.388  1.00  0.00    -0.283 OA
ENDBRANCH  29  31
ENDBRANCH  24  29
ENDBRANCH  22  23
ENDBRANCH   1  22
TORSDOF 5
ENDMDL
MODEL 2
REMARK VINA RESULT: -6.769681847      4.147      6.510
REMARK  5 active torsions:
REMARK  status: ('A' for Active; 'I' for Inactive)
REMARK    1  A    between atoms: C1_2  and  N1_3 
REMARK    2  A    between atoms: N1_3  and  C2_5 
REMARK    3  A    between atoms: C7_10  and  O2_11 
REMARK    4  A    between atoms: O2_11  and  C8_12 
REMARK    5  A    between atoms: C12_16  and  C13_17 
ROOT
HETATM    1  C8  UNL     1     -31.457 -20.064  14.440  1.00  0.00     0.098 A 
HETATM    2  C9  UNL     1     -30.362 -20.657  15.064  1.00  0.00     0.039 A 
HETATM    3  C10 UNL     1     -30.156 -20.362  16.388  1.00  0.00     0.004 A 
HETATM    4  C11 UNL     1     -30.993 -19.517  17.080  1.00  0.00     0.014 A 
HETATM    5  C12 UNL     1     -32.085 -18.913  16.496  1.00  0.00     0.001 A 
HETATM    6  C21 UNL     1     -32.290 -19.215  15.151  1.00  0.00     0.079 A 
HETATM    7 CL1  UNL     1     -33.646 -18.440  14.358  1.00  0.00    -0.080 Cl
ENDROOT
BRANCH   5   8
HETATM    8  C13 UNL     1     -32.941 -17.980  17.211  1.00  0.00     0.005 A 
HETATM    9  C14 UNL     1     -34.018 -18.540  17.906  1.00  0.00     0.015 A 
HETATM   10  C15 UNL     1     -34.921 -17.762  18.578  1.00  0.00     0.003 A 
HETATM   11  C16 UNL     1     -34.784 -16.406  18.582  1.00  0.00     0.032 A 
HETATM   12  C17 UNL     1     -33.722 -15.819  17.900  1.00  0.00     0.063 A 
HETATM   13  N2  UNL     1     -33.612 -14.473  17.934  1.00  0.00    -0.317 N 
HETATM   14  C20 UNL     1     -32.815 -16.623  17.224  1.00  0.00     0.073 A 
HETATM   15  C18 UNL     1     -32.586 -13.909  17.288  1.00  0.00     0.314 A 
ATOM     16  H2  UNL     1     -34.292 -13.903  18.437  1.00  0.00     0.169 HD
HETATM   17  O3  UNL     1     -32.455 -12.652  17.300  1.00  0.00    -0.262 OA
HETATM   18  C19 UNL     1     -31.686 -14.711  16.619  1.00  0.00     0.314 A 
HETATM   19  O4  UNL     1     -30.733 -14.127  16.025  1.00  0.00    -0.262 OA
HETATM   20  N3  UNL     1     -31.794 -16.053  16.583  1.00  0.00    -0.316 N 
ATOM     21  H3  UNL     1     -31.111 -16.620  16.079  1.00  0.00     0.169 HD
ENDBRANCH   5   8
BRANCH   1  22
HETATM   22  O2  UNL     1     -31.643 -20.373  13.111  1.00  0.00    -0.307 OA
BRANCH  22  23
HETATM   23  C7  UNL     1     -32.236 -21.533  12.678  1.00  0.00     0.102 A 
HETATM   24  C2  UNL     1     -31.535 -22.279  11.711  1.00  0.00     0.068 A 
HETATM   25  C3  UNL     1     -32.145 -23.426  11.293  1.00  0.00     0.032 A 
HETATM   26  C4  UNL     1     -33.388 -23.839  11.792  1.00  0.00     0.002 A 
HETATM   27  C5  UNL     1     -34.049 -23.096  12.733  1.00  0.00     0.003 A 
HETATM   28  C6  UNL     1     -33.454 -21.933  13.172  1.00  0.00     0.039 A 
BRANCH  24  29
HETATM   29  N1  UNL     1     -30.297 -21.812  11.258  1.00  0.00    -0.332 N 
ATOM     30  H1  UNL     1     -29.502 -21.925  11.887  1.00  0.00     0.168 HD
BRANCH  29  31
HETATM   31  C1  UNL     1     -30.047 -21.208  10.028  1.00  0.00     0.353 C 
HETATM   32  O1  UNL     1     -30.777 -20.465   9.345  1.00  0.00    -0.283 OA
ENDBRANCH  29  31
ENDBRANCH  24  29
ENDBRANCH  22  23
ENDBRANCH   1  22
TORSDOF 5
ENDMDL
MODEL 3
REMARK VINA RESULT: -6.740404573      3.574      6.929
REMARK  5 active torsions:
REMARK  status: ('A' for Active; 'I' for Inactive)
REMARK    1  A    between atoms: C1_2  and  N1_3 
REMARK    2  A    between atoms: N1_3  and  C2_5 
REMARK    3  A    between atoms: C7_10  and  O2_11 
REMARK    4  A    between atoms: O2_11  and  C8_12 
REMARK    5  A    between atoms: C12_16  and  C13_17 
ROOT
HETATM    1  C8  UNL     1     -34.446 -17.946  16.629  1.00  0.00     0.098 A 
HETATM    2  C9  UNL     1     -34.820 -18.099  15.296  1.00  0.00     0.039 A 
HETATM    3  C10 UNL     1     -36.136 -18.396  15.042  1.00  0.00     0.004 A 
HETATM    4  C11 UNL     1     -37.054 -18.538  16.057  1.00  0.00     0.014 A 
HETATM    5  C12 UNL     1     -36.721 -18.395  17.385  1.00  0.00     0.001 A 
HETATM    6  C21 UNL     1     -35.384 -18.093  17.639  1.00  0.00     0.079 A 
HETATM    7 CL1  UNL     1     -34.906 -17.937  19.317  1.00  0.00    -0.080 Cl
ENDROOT
BRANCH   5   8
HETATM    8  C13 UNL     1     -37.678 -18.595  18.461  1.00  0.00     0.005 A 
HETATM    9  C14 UNL     1     -37.847 -19.913  18.898  1.00  0.00     0.015 A 
HETATM   10  C15 UNL     1     -38.752 -20.236  19.871  1.00  0.00     0.003 A 
HETATM   11  C16 UNL     1     -39.518 -19.263  20.441  1.00  0.00     0.032 A 
HETATM   12  C17 UNL     1     -39.373 -17.941  20.027  1.00  0.00     0.063 A 
HETATM   13  N2  UNL     1     -40.142 -17.002  20.621  1.00  0.00    -0.317 N 
HETATM   14  C20 UNL     1     -38.449 -17.632  19.039  1.00  0.00     0.073 A 
HETATM   15  C18 UNL     1     -39.995 -15.732  20.231  1.00  0.00     0.314 A 
ATOM     16  H2  UNL     1     -40.815 -17.255  21.344  1.00  0.00     0.169 HD
HETATM   17  O3  UNL     1     -40.699 -14.829  20.767  1.00  0.00    -0.262 OA
HETATM   18  C19 UNL     1     -39.075 -15.427  19.251  1.00  0.00     0.314 A 
HETATM   19  O4  UNL     1     -38.976 -14.210  18.920  1.00  0.00    -0.262 OA
HETATM   20  N3  UNL     1     -38.308 -16.362  18.657  1.00  0.00    -0.316 N 
ATOM     21  H3  UNL     1     -37.636 -16.105  17.934  1.00  0.00     0.169 HD
ENDBRANCH   5   8
BRANCH   1  22
HETATM   22  O2  UNL     1     -33.121 -17.649  16.860  1.00  0.00    -0.307 OA
BRANCH  22  23
HETATM   23  C7  UNL     1     -32.588 -16.393  16.708  1.00  0.00     0.102 A 
HETATM   24  C2  UNL     1     -31.688 -16.213  15.640  1.00  0.00     0.068 A 
HETATM   25  C3  UNL     1     -31.168 -14.958  15.510  1.00  0.00     0.032 A 
HETATM   26  C4  UNL     1     -31.505 -13.913  16.381  1.00  0.00     0.002 A 
HETATM   27  C5  UNL     1     -32.384 -14.114  17.413  1.00  0.00     0.003 A 
HETATM   28  C6  UNL     1     -32.923 -15.373  17.565  1.00  0.00     0.039 A 
BRANCH  24  29
HETATM   29  N1  UNL     1     -31.397 -17.297  14.805  1.00  0.00    -0.332 N 
ATOM     30  H1  UNL     1     -31.646 -18.225  15.149  1.00  0.00     0.168 HD
BRANCH  29  31
HETATM   31  C1  UNL     1     -30.801 -17.229  13.549  1.00  0.00     0.353 C 
HETATM   32  O1  UNL     1     -29.593 -17.202  13.244  1.00  0.00    -0.283 OA
ENDBRANCH  29  31
ENDBRANCH  24  29
ENDBRANCH  22  23
ENDBRANCH   1  22
TORSDOF 5
ENDMDL
MODEL 4
REMARK VINA RESULT: -6.702480660      4.310      7.512
REMARK  5 active torsions:
REMARK  status: ('A' for Active; 'I' for Inactive)
REMARK    1  A    between atoms: C1_2  and  N1_3 
REMARK    2  A    between atoms: N1_3  and  C2_5 
REMARK    3  A    between atoms: C7_10  and  O2_11 
REMARK    4  A    between atoms: O2_11  and  C8_12 
REMARK    5  A    between atoms: C12_16  and  C13_17 
ROOT
HETATM    1  C8  UNL     1     -30.434 -19.363  13.469  1.00  0.00     0.098 A 
HETATM    2  C9  UNL     1     -29.634 -20.095  14.342  1.00  0.00     0.039 A 
HETATM    3  C10 UNL     1     -29.947 -20.039  15.678  1.00  0.00     0.004 A 
HETATM    4  C11 UNL     1     -31.004 -19.293  16.143  1.00  0.00     0.014 A 
HETATM    5  C12 UNL     1     -31.815 -18.556  15.309  1.00  0.00     0.001 A 
HETATM    6  C21 UNL     1     -31.495 -18.615  13.954  1.00  0.00     0.079 A 
HETATM    7 CL1  UNL     1     -32.479 -17.664  12.859  1.00  0.00    -0.080 Cl
ENDROOT
BRANCH   5   8
HETATM    8  C13 UNL     1     -32.902 -17.726  15.804  1.00  0.00     0.005 A 
HETATM    9  C14 UNL     1     -34.176 -18.303  15.785  1.00  0.00     0.015 A 
HETATM   10  C15 UNL     1     -35.285 -17.606  16.182  1.00  0.00     0.003 A 
HETATM   11  C16 UNL     1     -35.165 -16.317  16.607  1.00  0.00     0.032 A 
HETATM   12  C17 UNL     1     -33.911 -15.715  16.637  1.00  0.00     0.063 A 
HETATM   13  N2  UNL     1     -33.829 -14.439  17.074  1.00  0.00    -0.317 N 
HETATM   14  C20 UNL     1     -32.796 -16.436  16.232  1.00  0.00     0.073 A 
HETATM   15  C18 UNL     1     -32.622 -13.864  17.113  1.00  0.00     0.314 A 
ATOM     16  H2  UNL     1     -34.663 -13.929  17.365  1.00  0.00     0.169 HD
HETATM   17  O3  UNL     1     -32.512 -12.672  17.516  1.00  0.00    -0.262 OA
HETATM   18  C19 UNL     1     -31.517 -14.584  16.712  1.00  0.00     0.314 A 
HETATM   19  O4  UNL     1     -30.400 -13.993  16.769  1.00  0.00    -0.262 OA
HETATM   20  N3  UNL     1     -31.597 -15.856  16.275  1.00  0.00    -0.316 N 
ATOM     21  H3  UNL     1     -30.760 -16.363  15.985  1.00  0.00     0.169 HD
ENDBRANCH   5   8
BRANCH   1  22
HETATM   22  O2  UNL     1     -30.102 -19.433  12.134  1.00  0.00    -0.307 OA
BRANCH  22  23
HETATM   23  C7  UNL     1     -30.101 -20.601  11.413  1.00  0.00     0.102 A 
HETATM   24  C2  UNL     1     -29.060 -20.768  10.479  1.00  0.00     0.068 A 
HETATM   25  C3  UNL     1     -29.081 -21.935   9.773  1.00  0.00     0.032 A 
HETATM   26  C4  UNL     1     -30.072 -22.908   9.961  1.00  0.00     0.002 A 
HETATM   27  C5  UNL     1     -31.073 -22.722  10.876  1.00  0.00     0.003 A 
HETATM   28  C6  UNL     1     -31.074 -21.552  11.604  1.00  0.00     0.039 A 
BRANCH  24  29
HETATM   29  N1  UNL     1     -28.100 -19.759  10.343  1.00  0.00    -0.332 N 
ATOM     30  H1  UNL     1     -27.585 -19.495  11.184  1.00  0.00     0.168 HD
BRANCH  29  31
HETATM   31  C1  UNL     1     -27.781 -19.082   9.169  1.00  0.00     0.353 C 
HETATM   32  O1  UNL     1     -28.530 -18.512   8.353  1.00  0.00    -0.283 OA
ENDBRANCH  29  31
ENDBRANCH  24  29
ENDBRANCH  22  23
ENDBRANCH   1  22
TORSDOF 5
ENDMDL
MODEL 5
REMARK VINA RESULT: -6.685764432      2.750      3.928
REMARK  5 active torsions:
REMARK  status: ('A' for Active; 'I' for Inactive)
REMARK    1  A    between atoms: C1_2  and  N1_3 
REMARK    2  A    between atoms: N1_3  and  C2_5 
REMARK    3  A    between atoms: C7_10  and  O2_11 
REMARK    4  A    between atoms: O2_11  and  C8_12 
REMARK    5  A    between atoms: C12_16  and  C13_17 
ROOT
HETATM    1  C8  UNL     1     -36.092 -19.219  17.181  1.00  0.00     0.098 A 
HETATM    2  C9  UNL     1     -35.592 -20.164  18.072  1.00  0.00     0.039 A 
HETATM    3  C10 UNL     1     -34.230 -20.221  18.231  1.00  0.00     0.004 A 
HETATM    4  C11 UNL     1     -33.386 -19.382  17.540  1.00  0.00     0.014 A 
HETATM    5  C12 UNL     1     -33.844 -18.437  16.650  1.00  0.00     0.001 A 
HETATM    6  C21 UNL     1     -35.228 -18.382  16.492  1.00  0.00     0.079 A 
HETATM    7 CL1  UNL     1     -35.854 -17.218  15.343  1.00  0.00    -0.080 Cl
ENDROOT
BRANCH   5   8
HETATM    8  C13 UNL     1     -32.951 -17.585  15.882  1.00  0.00     0.005 A 
HETATM    9  C14 UNL     1     -32.490 -18.110  14.670  1.00  0.00     0.015 A 
HETATM   10  C15 UNL     1     -31.609 -17.423  13.880  1.00  0.00     0.003 A 
HETATM   11  C16 UNL     1     -31.158 -16.196  14.266  1.00  0.00     0.032 A 
HETATM   12  C17 UNL     1     -31.598 -15.647  15.467  1.00  0.00     0.063 A 
HETATM   13  N2  UNL     1     -31.138 -14.425  15.814  1.00  0.00    -0.317 N 
HETATM   14  C20 UNL     1     -32.493 -16.357  16.256  1.00  0.00     0.073 A 
HETATM   15  C18 UNL     1     -31.570 -13.893  16.961  1.00  0.00     0.314 A 
ATOM     16  H2  UNL     1     -30.480 -13.924  15.217  1.00  0.00     0.169 HD
HETATM   17  O3  UNL     1     -31.158 -12.751  17.314  1.00  0.00    -0.262 OA
HETATM   18  C19 UNL     1     -32.460 -14.599  17.742  1.00  0.00     0.314 A 
HETATM   19  O4  UNL     1     -32.836 -14.050  18.818  1.00  0.00    -0.262 OA
HETATM   20  N3  UNL     1     -32.920 -15.818  17.399  1.00  0.00    -0.316 N 
ATOM     21  H3  UNL     1     -33.578 -16.317  17.998  1.00  0.00     0.169 HD
ENDBRANCH   5   8
BRANCH   1  22
HETATM   22  O2  UNL     1     -37.461 -19.180  17.037  1.00  0.00    -0.307 OA
BRANCH  22  23
HETATM   23  C7  UNL     1     -38.332 -19.095  18.095  1.00  0.00     0.102 A 
HETATM   24  C2  UNL     1     -38.546 -17.813  18.637  1.00  0.00     0.068 A 
HETATM   25  C3  UNL     1     -39.412 -17.753  19.689  1.00  0.00     0.032 A 
HETATM   26  C4  UNL     1     -40.051 -18.891  20.201  1.00  0.00     0.002 A 
HETATM   27  C5  UNL     1     -39.826 -20.127  19.656  1.00  0.00     0.003 A 
HETATM   28  C6  UNL     1     -38.956 -20.214  18.591  1.00  0.00     0.039 A 
BRANCH  24  29
HETATM   29  N1  UNL     1     -37.880 -16.717  18.077  1.00  0.00    -0.332 N 
ATOM     30  H1  UNL     1     -38.126 -16.468  17.118  1.00  0.00     0.168 HD
BRANCH  29  31
HETATM   31  C1  UNL     1     -36.913 -15.936  18.704  1.00  0.00     0.353 C 
HETATM   32  O1  UNL     1     -36.041 -15.199  18.205  1.00  0.00    -0.283 OA
ENDBRANCH  29  31
ENDBRANCH  24  29
ENDBRANCH  22  23
ENDBRANCH   1  22
TORSDOF 5
ENDMDL
