MODEL 1
REMARK VINA RESULT: -7.188329006      0.000      0.000
REMARK  5 active torsions:
REMARK  status: ('A' for Active; 'I' for Inactive)
REMARK    1  A    between atoms: C3_4  and  N2_5 
REMARK       I    between atoms: N2_5  and  C4_7 
REMARK    2  A    between atoms: C4_7  and  C5_9 
REMARK    3  A    between atoms: C5_9  and  O2_10 
REMARK    4  A    between atoms: O2_10  and  C6_11 
REMARK    5  A    between atoms: C6_11  and  C7_12 
ROOT
HETATM    1  N2  UNL     1     -33.393 -16.066  16.331  1.00  0.00    -0.325 N 
ATOM      2  H2  UNL     1     -33.587 -16.382  15.381  1.00  0.00     0.169 HD
HETATM    3  C4  UNL     1     -32.177 -15.397  16.547  1.00  0.00     0.245 C 
HETATM    4  O1  UNL     1     -31.822 -14.959  17.638  1.00  0.00    -0.271 OA
ENDROOT
BRANCH   3   5
HETATM    5  C5  UNL     1     -31.276 -15.221  15.347  1.00  0.00     0.270 C 
BRANCH   5   6
HETATM    6  O2  UNL     1     -31.537 -16.000  14.298  1.00  0.00    -0.379 OA
BRANCH   6   7
HETATM    7  C6  UNL     1     -30.882 -17.130  14.007  1.00  0.00     0.201 C 
BRANCH   7   8
HETATM    8  C7  UNL     1     -31.522 -18.438  14.342  1.00  0.00     0.157 C 
HETATM    9  C8  UNL     1     -31.623 -19.402  13.187  1.00  0.00     0.076 C 
HETATM   10  C9  UNL     1     -32.865 -20.205  13.519  1.00  0.00    -0.021 A 
HETATM   11  C10 UNL     1     -33.310 -21.464  13.183  1.00  0.00     0.035 A 
HETATM   12  C14 UNL     1     -33.611 -19.376  14.327  1.00  0.00     0.077 A 
HETATM   13  C11 UNL     1     -34.517 -21.953  13.634  1.00  0.00     0.059 A 
HETATM   14 CL1  UNL     1     -35.108 -23.549  13.224  1.00  0.00    -0.082 Cl
HETATM   15  C12 UNL     1     -35.286 -21.135  14.451  1.00  0.00     0.070 A 
HETATM   16  N3  UNL     1     -36.536 -21.596  14.940  1.00  0.00    -0.101 NA
HETATM   17  C13 UNL     1     -34.816 -19.872  14.776  1.00  0.00     0.065 A 
HETATM   18  O3  UNL     1     -32.941 -18.164  14.517  1.00  0.00    -0.343 OA
ENDBRANCH   7   8
ENDBRANCH   6   7
ENDBRANCH   5   6
ENDBRANCH   3   5
BRANCH   1  19
HETATM   19  C3  UNL     1     -34.371 -16.338  17.312  1.00  0.00     0.043 A 
HETATM   20  C2  UNL     1     -35.495 -15.594  17.549  1.00  0.00     0.056 A 
HETATM   21  C1  UNL     1     -36.420 -15.876  18.568  1.00  0.00     0.049 A 
HETATM   22  N1  UNL     1     -37.545 -15.032  18.712  1.00  0.00    -0.102 NA
HETATM   23  C17 UNL     1     -36.191 -16.949  19.373  1.00  0.00     0.042 A 
HETATM   24  C16 UNL     1     -35.071 -17.720  19.166  1.00  0.00     0.020 A 
HETATM   25  C15 UNL     1     -34.167 -17.440  18.163  1.00  0.00    -0.017 A 
HETATM   26  C18 UNL     1     -34.801 -18.876  20.040  1.00  0.00     0.160 C 
HETATM   27  C21 UNL     1     -33.025 -18.367  18.043  1.00  0.00     0.042 C 
HETATM   28  C20 UNL     1     -33.438 -19.827  18.213  1.00  0.00     0.012 C 
HETATM   29  C19 UNL     1     -34.064 -20.066  19.557  1.00  0.00     0.084 C 
HETATM   30  O4  UNL     1     -35.204 -18.853  21.217  1.00  0.00    -0.292 OA
ENDBRANCH   1  19
TORSDOF 5
ENDMDL
MODEL 2
REMARK VINA RESULT: -7.174044593      2.773      6.117
REMARK  5 active torsions:
REMARK  status: ('A' for Active; 'I' for Inactive)
REMARK    1  A    between atoms: C3_4  and  N2_5 
REMARK       I    between atoms: N2_5  and  C4_7 
REMARK    2  A    between atoms: C4_7  and  C5_9 
REMARK    3  A    between atoms: C5_9  and  O2_10 
REMARK    4  A    between atoms: O2_10  and  C6_11 
REMARK    5  A    between atoms: C6_11  and  C7_12 
ROOT
HETATM    1  N2  UNL     1     -35.576 -15.922  17.078  1.00  0.00    -0.325 N 
ATOM      2  H2  UNL     1     -36.296 -16.212  16.417  1.00  0.00     0.169 HD
HETATM    3  C4  UNL     1     -35.997 -15.587  18.376  1.00  0.00     0.245 C 
HETATM    4  O1  UNL     1     -35.235 -15.228  19.270  1.00  0.00    -0.271 OA
ENDROOT
BRANCH   3   5
HETATM    5  C5  UNL     1     -37.478 -15.684  18.656  1.00  0.00     0.270 C 
BRANCH   5   6
HETATM    6  O2  UNL     1     -37.880 -16.769  19.317  1.00  0.00    -0.379 OA
BRANCH   6   7
HETATM    7  C6  UNL     1     -37.916 -18.003  18.802  1.00  0.00     0.201 C 
BRANCH   7   8
HETATM    8  C7  UNL     1     -36.851 -18.976  19.191  1.00  0.00     0.157 C 
HETATM    9  C8  UNL     1     -36.127 -18.637  20.469  1.00  0.00     0.076 C 
HETATM   10  C9  UNL     1     -34.748 -19.227  20.248  1.00  0.00    -0.021 A 
HETATM   11  C10 UNL     1     -33.749 -19.666  21.087  1.00  0.00     0.035 A 
HETATM   12  C14 UNL     1     -34.601 -19.266  18.879  1.00  0.00     0.077 A 
HETATM   13  C11 UNL     1     -32.558 -20.164  20.602  1.00  0.00     0.059 A 
HETATM   14 CL1  UNL     1     -31.271 -20.731  21.643  1.00  0.00    -0.082 Cl
HETATM   15  C12 UNL     1     -32.388 -20.214  19.225  1.00  0.00     0.070 A 
HETATM   16  N3  UNL     1     -31.179 -20.719  18.678  1.00  0.00    -0.101 NA
HETATM   17  C13 UNL     1     -33.409 -19.766  18.401  1.00  0.00     0.065 A 
HETATM   18  O3  UNL     1     -35.751 -18.768  18.261  1.00  0.00    -0.343 OA
ENDBRANCH   7   8
ENDBRANCH   6   7
ENDBRANCH   5   6
ENDBRANCH   3   5
BRANCH   1  19
HETATM   19  C3  UNL     1     -34.246 -15.894  16.609  1.00  0.00     0.043 A 
HETATM   20  C2  UNL     1     -33.261 -15.049  17.046  1.00  0.00     0.056 A 
HETATM   21  C1  UNL     1     -31.960 -15.025  16.518  1.00  0.00     0.049 A 
HETATM   22  N1  UNL     1     -31.030 -14.104  17.054  1.00  0.00    -0.102 NA
HETATM   23  C17 UNL     1     -31.652 -15.888  15.512  1.00  0.00     0.042 A 
HETATM   24  C16 UNL     1     -32.615 -16.752  15.046  1.00  0.00     0.020 A 
HETATM   25  C15 UNL     1     -33.890 -16.773  15.569  1.00  0.00    -0.017 A 
HETATM   26  C18 UNL     1     -32.300 -17.681  13.946  1.00  0.00     0.160 C 
HETATM   27  C21 UNL     1     -34.812 -17.769  14.988  1.00  0.00     0.042 C 
HETATM   28  C20 UNL     1     -34.139 -19.119  14.753  1.00  0.00     0.012 C 
HETATM   29  C19 UNL     1     -32.972 -18.994  13.816  1.00  0.00     0.084 C 
HETATM   30  O4  UNL     1     -31.445 -17.355  13.103  1.00  0.00    -0.292 OA
ENDBRANCH   1  19
TORSDOF 5
ENDMDL
MODEL 3
REMARK VINA RESULT: -7.019025495      5.523      9.192
REMARK  5 active torsions:
REMARK  status: ('A' for Active; 'I' for Inactive)
REMARK    1  A    between atoms: C3_4  and  N2_5 
REMARK       I    between atoms: N2_5  and  C4_7 
REMARK    2  A    between atoms: C4_7  and  C5_9 
REMARK    3  A    between atoms: C5_9  and  O2_10 
REMARK    4  A    between atoms: O2_10  and  C6_11 
REMARK    5  A    between atoms: C6_11  and  C7_12 
ROOT
HETATM    1  N2  UNL     1     -36.163 -15.631  17.528  1.00  0.00    -0.325 N 
ATOM      2  H2  UNL     1     -36.833 -15.171  16.912  1.00  0.00     0.169 HD
HETATM    3  C4  UNL     1     -36.656 -16.148  18.737  1.00  0.00     0.245 C 
HETATM    4  O1  UNL     1     -35.961 -16.729  19.567  1.00  0.00    -0.271 OA
ENDROOT
BRANCH   3   5
HETATM    5  C5  UNL     1     -38.132 -15.964  19.003  1.00  0.00     0.270 C 
BRANCH   5   6
HETATM    6  O2  UNL     1     -38.547 -14.709  19.169  1.00  0.00    -0.379 OA
BRANCH   6   7
HETATM    7  C6  UNL     1     -39.381 -14.305  20.134  1.00  0.00     0.201 C 
BRANCH   7   8
HETATM    8  C7  UNL     1     -40.444 -13.311  19.796  1.00  0.00     0.157 C 
HETATM    9  C8  UNL     1     -41.575 -13.859  18.963  1.00  0.00     0.076 C 
HETATM   10  C9  UNL     1     -42.032 -12.650  18.170  1.00  0.00    -0.021 A 
HETATM   11  C10 UNL     1     -43.218 -12.293  17.568  1.00  0.00     0.035 A 
HETATM   12  C14 UNL     1     -40.929 -11.827  18.121  1.00  0.00     0.077 A 
HETATM   13  C11 UNL     1     -43.358 -11.101  16.888  1.00  0.00     0.059 A 
HETATM   14 CL1  UNL     1     -44.852 -10.621  16.113  1.00  0.00    -0.082 Cl
HETATM   15  C12 UNL     1     -42.259 -10.256  16.825  1.00  0.00     0.070 A 
HETATM   16  N3  UNL     1     -42.356  -9.018  16.136  1.00  0.00    -0.101 NA
HETATM   17  C13 UNL     1     -41.076 -10.638  17.440  1.00  0.00     0.065 A 
HETATM   18  O3  UNL     1     -39.863 -12.416  18.806  1.00  0.00    -0.343 OA
ENDBRANCH   7   8
ENDBRANCH   6   7
ENDBRANCH   5   6
ENDBRANCH   3   5
BRANCH   1  19
HETATM   19  C3  UNL     1     -34.822 -15.690  17.091  1.00  0.00     0.043 A 
HETATM   20  C2  UNL     1     -33.787 -14.941  17.581  1.00  0.00     0.056 A 
HETATM   21  C1  UNL     1     -32.475 -15.000  17.084  1.00  0.00     0.049 A 
HETATM   22  N1  UNL     1     -31.491 -14.173  17.675  1.00  0.00    -0.102 NA
HETATM   23  C17 UNL     1     -32.208 -15.849  16.055  1.00  0.00     0.042 A 
HETATM   24  C16 UNL     1     -33.223 -16.619  15.537  1.00  0.00     0.020 A 
HETATM   25  C15 UNL     1     -34.510 -16.558  16.028  1.00  0.00    -0.017 A 
HETATM   26  C18 UNL     1     -32.953 -17.532  14.411  1.00  0.00     0.160 C 
HETATM   27  C21 UNL     1     -35.490 -17.458  15.391  1.00  0.00     0.042 C 
HETATM   28  C20 UNL     1     -34.918 -18.848  15.123  1.00  0.00     0.012 C 
HETATM   29  C19 UNL     1     -33.721 -18.782  14.217  1.00  0.00     0.084 C 
HETATM   30  O4  UNL     1     -32.054 -17.244  13.600  1.00  0.00    -0.292 OA
ENDBRANCH   1  19
TORSDOF 5
ENDMDL
MODEL 4
REMARK VINA RESULT: -6.846698329      4.949      8.956
REMARK  5 active torsions:
REMARK  status: ('A' for Active; 'I' for Inactive)
REMARK    1  A    between atoms: C3_4  and  N2_5 
REMARK       I    between atoms: N2_5  and  C4_7 
REMARK    2  A    between atoms: C4_7  and  C5_9 
REMARK    3  A    between atoms: C5_9  and  O2_10 
REMARK    4  A    between atoms: O2_10  and  C6_11 
REMARK    5  A    between atoms: C6_11  and  C7_12 
ROOT
HETATM    1  N2  UNL     1     -35.491 -15.521  17.151  1.00  0.00    -0.325 N 
ATOM      2  H2  UNL     1     -36.167 -14.987  16.605  1.00  0.00     0.169 HD
HETATM    3  C4  UNL     1     -35.947 -16.096  18.349  1.00  0.00     0.245 C 
HETATM    4  O1  UNL     1     -35.241 -16.767  19.097  1.00  0.00    -0.271 OA
ENDROOT
BRANCH   3   5
HETATM    5  C5  UNL     1     -37.394 -15.858  18.709  1.00  0.00     0.270 C 
BRANCH   5   6
HETATM    6  O2  UNL     1     -37.634 -15.506  19.972  1.00  0.00    -0.379 OA
BRANCH   6   7
HETATM    7  C6  UNL     1     -38.749 -15.810  20.647  1.00  0.00     0.201 C 
BRANCH   7   8
HETATM    8  C7  UNL     1     -39.917 -14.882  20.560  1.00  0.00     0.157 C 
HETATM    9  C8  UNL     1     -40.798 -15.093  19.354  1.00  0.00     0.076 C 
HETATM   10  C9  UNL     1     -41.353 -13.707  19.090  1.00  0.00    -0.021 A 
HETATM   11  C10 UNL     1     -42.486 -13.231  18.469  1.00  0.00     0.035 A 
HETATM   12  C14 UNL     1     -40.424 -12.849  19.636  1.00  0.00     0.077 A 
HETATM   13  C11 UNL     1     -42.745 -11.881  18.362  1.00  0.00     0.059 A 
HETATM   14 CL1  UNL     1     -44.176 -11.248  17.579  1.00  0.00    -0.082 Cl
HETATM   15  C12 UNL     1     -41.822 -10.998  18.906  1.00  0.00     0.070 A 
HETATM   16  N3  UNL     1     -42.046  -9.599  18.820  1.00  0.00    -0.101 NA
HETATM   17  C13 UNL     1     -40.689 -11.501  19.527  1.00  0.00     0.065 A 
HETATM   18  O3  UNL     1     -39.376 -13.579  20.204  1.00  0.00    -0.343 OA
ENDBRANCH   7   8
ENDBRANCH   6   7
ENDBRANCH   5   6
ENDBRANCH   3   5
BRANCH   1  19
HETATM   19  C3  UNL     1     -34.180 -15.618  16.636  1.00  0.00     0.043 A 
HETATM   20  C2  UNL     1     -33.119 -14.831  16.995  1.00  0.00     0.056 A 
HETATM   21  C1  UNL     1     -31.841 -14.931  16.423  1.00  0.00     0.049 A 
HETATM   22  N1  UNL     1     -30.826 -14.059  16.880  1.00  0.00    -0.102 NA
HETATM   23  C17 UNL     1     -31.636 -15.863  15.452  1.00  0.00     0.042 A 
HETATM   24  C16 UNL     1     -32.679 -16.672  15.065  1.00  0.00     0.020 A 
HETATM   25  C15 UNL     1     -33.932 -16.571  15.630  1.00  0.00    -0.017 A 
HETATM   26  C18 UNL     1     -32.476 -17.675  14.003  1.00  0.00     0.160 C 
HETATM   27  C21 UNL     1     -34.946 -17.520  15.133  1.00  0.00     0.042 C 
HETATM   28  C20 UNL     1     -34.385 -18.927  14.945  1.00  0.00     0.012 C 
HETATM   29  C19 UNL     1     -33.249 -18.937  13.963  1.00  0.00     0.084 C 
HETATM   30  O4  UNL     1     -31.631 -17.456  13.115  1.00  0.00    -0.292 OA
ENDBRANCH   1  19
TORSDOF 5
ENDMDL
MODEL 5
REMARK VINA RESULT: -6.793807142      3.203      6.789
REMARK  5 active torsions:
REMARK  status: ('A' for Active; 'I' for Inactive)
REMARK    1  A    between atoms: C3_4  and  N2_5 
REMARK       I    between atoms: N2_5  and  C4_7 
REMARK    2  A    between atoms: C4_7  and  C5_9 
REMARK    3  A    between atoms: C5_9  and  O2_10 
REMARK    4  A    between atoms: O2_10  and  C6_11 
REMARK    5  A    between atoms: C6_11  and  C7_12 
ROOT
HETATM    1  N2  UNL     1     -34.271 -19.011  14.351  1.00  0.00    -0.325 N 
ATOM      2  H2  UNL     1     -35.077 -18.725  13.796  1.00  0.00     0.169 HD
HETATM    3  C4  UNL     1     -34.313 -20.291  14.928  1.00  0.00     0.245 C 
HETATM    4  O1  UNL     1     -33.409 -20.763  15.614  1.00  0.00    -0.271 OA
ENDROOT
BRANCH   3   5
HETATM    5  C5  UNL     1     -35.555 -21.112  14.671  1.00  0.00     0.270 C 
BRANCH   5   6
HETATM    6  O2  UNL     1     -36.595 -20.867  15.467  1.00  0.00    -0.379 OA
BRANCH   6   7
HETATM    7  C6  UNL     1     -36.690 -21.268  16.740  1.00  0.00     0.201 C 
BRANCH   7   8
HETATM    8  C7  UNL     1     -37.270 -20.329  17.748  1.00  0.00     0.157 C 
HETATM    9  C8  UNL     1     -38.193 -19.284  17.175  1.00  0.00     0.076 C 
HETATM   10  C9  UNL     1     -38.022 -18.117  18.128  1.00  0.00    -0.021 A 
HETATM   11  C10 UNL     1     -38.811 -17.045  18.480  1.00  0.00     0.035 A 
HETATM   12  C14 UNL     1     -36.773 -18.297  18.679  1.00  0.00     0.077 A 
HETATM   13  C11 UNL     1     -38.391 -16.104  19.396  1.00  0.00     0.059 A 
HETATM   14 CL1  UNL     1     -39.372 -14.732  19.864  1.00  0.00    -0.082 Cl
HETATM   15  C12 UNL     1     -37.135 -16.265  19.966  1.00  0.00     0.070 A 
HETATM   16  N3  UNL     1     -36.661 -15.321  20.914  1.00  0.00    -0.101 NA
HETATM   17  C13 UNL     1     -36.360 -17.353  19.594  1.00  0.00     0.065 A 
HETATM   18  O3  UNL     1     -36.183 -19.453  18.159  1.00  0.00    -0.343 OA
ENDBRANCH   7   8
ENDBRANCH   6   7
ENDBRANCH   5   6
ENDBRANCH   3   5
BRANCH   1  19
HETATM   19  C3  UNL     1     -33.212 -18.087  14.471  1.00  0.00     0.043 A 
HETATM   20  C2  UNL     1     -32.075 -18.067  13.709  1.00  0.00     0.056 A 
HETATM   21  C1  UNL     1     -31.024 -17.155  13.893  1.00  0.00     0.049 A 
HETATM   22  N1  UNL     1     -29.900 -17.237  13.039  1.00  0.00    -0.102 NA
HETATM   23  C17 UNL     1     -31.133 -16.233  14.888  1.00  0.00     0.042 A 
HETATM   24  C16 UNL     1     -32.260 -16.221  15.675  1.00  0.00     0.020 A 
HETATM   25  C15 UNL     1     -33.290 -17.117  15.490  1.00  0.00    -0.017 A 
HETATM   26  C18 UNL     1     -32.385 -15.237  16.767  1.00  0.00     0.160 C 
HETATM   27  C21 UNL     1     -34.448 -16.972  16.393  1.00  0.00     0.042 C 
HETATM   28  C20 UNL     1     -34.835 -15.512  16.614  1.00  0.00     0.012 C 
HETATM   29  C19 UNL     1     -33.701 -14.730  17.214  1.00  0.00     0.084 C 
HETATM   30  O4  UNL     1     -31.355 -14.822  17.329  1.00  0.00    -0.292 OA
ENDBRANCH   1  19
TORSDOF 5
ENDMDL
