MODEL 1
REMARK VINA RESULT: -6.796762995      0.000      0.000
REMARK  6 active torsions:
REMARK  status: ('A' for Active; 'I' for Inactive)
REMARK    1  A    between atoms: O1_2  and  C2_3 
REMARK    2  A    between atoms: C4_5  and  O2_6 
REMARK    3  A    between atoms: O2_6  and  C5_7 
REMARK    4  A    between atoms: C5_7  and  C6_8 
REMARK    5  A    between atoms: C10_13  and  N1_14 
REMARK       I    between atoms: N1_14  and  C11_15 
REMARK       I    between atoms: C11_15  and  N2_17 
REMARK    6  A    between atoms: N2_17  and  C12_19 
ROOT
HETATM    1  N1  UNL     1     -31.283 -17.134  14.690  1.00  0.00    -0.349 NA
HETATM    2  C11 UNL     1     -30.311 -17.673  13.954  1.00  0.00     0.412 C 
HETATM    3  O4  UNL     1     -29.549 -17.084  13.127  1.00  0.00    -0.229 OA
HETATM    4  N2  UNL     1     -30.025 -19.100  14.038  1.00  0.00    -0.129 N 
ATOM      5  H2  UNL     1     -30.585 -19.679  14.664  1.00  0.00     0.190 HD
ENDROOT
BRANCH   1   6
HETATM    6  C10 UNL     1     -32.286 -16.575  15.450  1.00  0.00     0.149 A 
HETATM    7  C4  UNL     1     -33.548 -17.308  15.371  1.00  0.00     0.112 A 
HETATM    8  C3  UNL     1     -34.625 -16.803  16.036  1.00  0.00     0.080 A 
HETATM    9  C2  UNL     1     -34.562 -15.649  16.766  1.00  0.00     0.109 A 
HETATM   10  C21 UNL     1     -33.390 -14.946  16.857  1.00  0.00     0.152 A 
HETATM   11  C20 UNL     1     -32.266 -15.426  16.192  1.00  0.00     0.093 A 
HETATM   12  F1  UNL     1     -33.263 -13.802  17.554  1.00  0.00    -0.203 F 
BRANCH   7  13
HETATM   13  O2  UNL     1     -33.483 -18.420  14.628  1.00  0.00    -0.341 OA
BRANCH  13  14
HETATM   14  C5  UNL     1     -34.201 -19.550  14.539  1.00  0.00     0.240 C 
BRANCH  14  15
HETATM   15  C6  UNL     1     -33.604 -20.643  13.713  1.00  0.00     0.076 A 
HETATM   16  C7  UNL     1     -34.080 -21.891  13.417  1.00  0.00     0.037 A 
HETATM   17  C8  UNL     1     -33.140 -22.530  12.612  1.00  0.00     0.027 A 
HETATM   18  C9  UNL     1     -32.133 -21.609  12.469  1.00  0.00     0.142 A 
HETATM   19  O3  UNL     1     -32.436 -20.537  13.116  1.00  0.00    -0.325 OA
ENDBRANCH  14  15
ENDBRANCH  13  14
ENDBRANCH   7  13
BRANCH   9  20
HETATM   20  O1  UNL     1     -35.669 -15.177  17.418  1.00  0.00    -0.353 OA
HETATM   21  C1  UNL     1     -36.505 -15.886  18.278  1.00  0.00     0.210 C 
ENDBRANCH   9  20
ENDBRANCH   1   6
BRANCH   4  22
HETATM   22  C12 UNL     1     -28.992 -19.715  13.276  1.00  0.00     0.690 A 
HETATM   23  N3  UNL     1     -28.038 -20.484  13.821  1.00  0.00    -0.155 N 
HETATM   24  C13 UNL     1     -27.048 -21.055  13.122  1.00  0.00     0.272 A 
ATOM     25  H3  UNL     1     -28.067 -20.644  14.828  1.00  0.00     0.187 HD
HETATM   26  O5  UNL     1     -26.152 -21.773  13.617  1.00  0.00    -0.267 OA
HETATM   27  C14 UNL     1     -27.032 -20.820  11.753  1.00  0.00     0.060 A 
HETATM   28  C15 UNL     1     -26.047 -21.365  10.935  1.00  0.00     0.019 A 
HETATM   29  C19 UNL     1     -27.992 -20.037  11.153  1.00  0.00     0.065 A 
HETATM   30  C16 UNL     1     -26.042 -21.122   9.573  1.00  0.00     0.001 A 
HETATM   31  C17 UNL     1     -27.002 -20.336   8.972  1.00  0.00     0.002 A 
HETATM   32  C18 UNL     1     -27.983 -19.793   9.773  1.00  0.00     0.031 A 
HETATM   33  N4  UNL     1     -28.936 -19.515  11.937  1.00  0.00    -0.190 N 
ATOM     34  H4  UNL     1     -29.655 -18.934  11.506  1.00  0.00     0.184 HD
ENDBRANCH   4  22
TORSDOF 6
ENDMDL
MODEL 2
REMARK VINA RESULT: -6.794989785      1.015      1.787
REMARK  6 active torsions:
REMARK  status: ('A' for Active; 'I' for Inactive)
REMARK    1  A    between atoms: O1_2  and  C2_3 
REMARK    2  A    between atoms: C4_5  and  O2_6 
REMARK    3  A    between atoms: O2_6  and  C5_7 
REMARK    4  A    between atoms: C5_7  and  C6_8 
REMARK    5  A    between atoms: C10_13  and  N1_14 
REMARK       I    between atoms: N1_14  and  C11_15 
REMARK       I    between atoms: C11_15  and  N2_17 
REMARK    6  A    between atoms: N2_17  and  C12_19 
ROOT
HETATM    1  N1  UNL     1     -31.236 -17.189  14.555  1.00  0.00    -0.349 NA
HETATM    2  C11 UNL     1     -30.294 -17.741  13.792  1.00  0.00     0.412 C 
HETATM    3  O4  UNL     1     -29.627 -17.189  12.863  1.00  0.00    -0.229 OA
HETATM    4  N2  UNL     1     -29.927 -19.142  13.968  1.00  0.00    -0.129 N 
ATOM      5  H2  UNL     1     -30.408 -19.691  14.681  1.00  0.00     0.190 HD
ENDROOT
BRANCH   1   6
HETATM    6  C10 UNL     1     -32.209 -16.616  15.344  1.00  0.00     0.149 A 
HETATM    7  C4  UNL     1     -33.486 -17.326  15.295  1.00  0.00     0.112 A 
HETATM    8  C3  UNL     1     -34.536 -16.805  15.990  1.00  0.00     0.080 A 
HETATM    9  C2  UNL     1     -34.434 -15.656  16.722  1.00  0.00     0.109 A 
HETATM   10  C21 UNL     1     -33.246 -14.973  16.785  1.00  0.00     0.152 A 
HETATM   11  C20 UNL     1     -32.149 -15.470  16.089  1.00  0.00     0.093 A 
HETATM   12  F1  UNL     1     -33.081 -13.834  17.483  1.00  0.00    -0.203 F 
BRANCH   7  13
HETATM   13  O2  UNL     1     -33.460 -18.436  14.547  1.00  0.00    -0.341 OA
BRANCH  13  14
HETATM   14  C5  UNL     1     -34.172 -19.572  14.502  1.00  0.00     0.240 C 
BRANCH  14  15
HETATM   15  C6  UNL     1     -33.589 -20.679  13.684  1.00  0.00     0.076 A 
HETATM   16  C7  UNL     1     -34.069 -21.933  13.421  1.00  0.00     0.037 A 
HETATM   17  C8  UNL     1     -33.145 -22.585  12.608  1.00  0.00     0.027 A 
HETATM   18  C9  UNL     1     -32.143 -21.665  12.427  1.00  0.00     0.142 A 
HETATM   19  O3  UNL     1     -32.434 -20.583  13.061  1.00  0.00    -0.325 OA
ENDBRANCH  14  15
ENDBRANCH  13  14
ENDBRANCH   7  13
BRANCH   9  20
HETATM   20  O1  UNL     1     -35.514 -15.167  17.405  1.00  0.00    -0.353 OA
HETATM   21  C1  UNL     1     -36.350 -15.869  18.271  1.00  0.00     0.210 C 
ENDBRANCH   9  20
ENDBRANCH   1   6
BRANCH   4  22
HETATM   22  C12 UNL     1     -28.921 -19.769  13.180  1.00  0.00     0.690 A 
HETATM   23  N3  UNL     1     -28.982 -19.850  11.842  1.00  0.00    -0.155 N 
HETATM   24  C13 UNL     1     -28.054 -20.452  11.087  1.00  0.00     0.272 A 
ATOM     25  H3  UNL     1     -29.782 -19.427  11.372  1.00  0.00     0.187 HD
HETATM   26  O5  UNL     1     -28.098 -20.535   9.840  1.00  0.00    -0.267 OA
HETATM   27  C14 UNL     1     -26.976 -21.020  11.754  1.00  0.00     0.060 A 
HETATM   28  C15 UNL     1     -25.958 -21.670  11.064  1.00  0.00     0.019 A 
HETATM   29  C19 UNL     1     -26.874 -20.960  13.125  1.00  0.00     0.065 A 
HETATM   30  C16 UNL     1     -24.890 -22.233  11.741  1.00  0.00     0.001 A 
HETATM   31  C17 UNL     1     -24.789 -22.174  13.115  1.00  0.00     0.002 A 
HETATM   32  C18 UNL     1     -25.791 -21.531  13.807  1.00  0.00     0.031 A 
HETATM   33  N4  UNL     1     -27.850 -20.336  13.786  1.00  0.00    -0.190 N 
ATOM     34  H4  UNL     1     -27.787 -20.282  14.803  1.00  0.00     0.184 HD
ENDBRANCH   4  22
TORSDOF 6
ENDMDL
MODEL 3
REMARK VINA RESULT: -6.774693843      3.412     10.016
REMARK  6 active torsions:
REMARK  status: ('A' for Active; 'I' for Inactive)
REMARK    1  A    between atoms: O1_2  and  C2_3 
REMARK    2  A    between atoms: C4_5  and  O2_6 
REMARK    3  A    between atoms: O2_6  and  C5_7 
REMARK    4  A    between atoms: C5_7  and  C6_8 
REMARK    5  A    between atoms: C10_13  and  N1_14 
REMARK       I    between atoms: N1_14  and  C11_15 
REMARK       I    between atoms: C11_15  and  N2_17 
REMARK    6  A    between atoms: N2_17  and  C12_19 
ROOT
HETATM    1  N1  UNL     1     -34.010 -19.307  15.567  1.00  0.00    -0.349 NA
HETATM    2  C11 UNL     1     -34.794 -18.924  16.575  1.00  0.00     0.412 C 
HETATM    3  O4  UNL     1     -35.520 -19.659  17.313  1.00  0.00    -0.229 OA
HETATM    4  N2  UNL     1     -34.897 -17.516  16.937  1.00  0.00    -0.129 N 
ATOM      5  H2  UNL     1     -34.364 -16.829  16.402  1.00  0.00     0.190 HD
ENDROOT
BRANCH   1   6
HETATM    6  C10 UNL     1     -33.201 -19.704  14.526  1.00  0.00     0.149 A 
HETATM    7  C4  UNL     1     -32.250 -18.676  14.108  1.00  0.00     0.112 A 
HETATM    8  C3  UNL     1     -31.444 -18.945  13.042  1.00  0.00     0.080 A 
HETATM    9  C2  UNL     1     -31.496 -20.129  12.362  1.00  0.00     0.109 A 
HETATM   10  C21 UNL     1     -32.378 -21.109  12.737  1.00  0.00     0.152 A 
HETATM   11  C20 UNL     1     -33.219 -20.876  13.820  1.00  0.00     0.093 A 
HETATM   12  F1  UNL     1     -32.482 -22.294  12.107  1.00  0.00    -0.203 F 
BRANCH   7  13
HETATM   13  O2  UNL     1     -32.294 -17.564  14.850  1.00  0.00    -0.341 OA
BRANCH  13  14
HETATM   14  C5  UNL     1     -31.791 -16.325  14.742  1.00  0.00     0.240 C 
BRANCH  14  15
HETATM   15  C6  UNL     1     -31.957 -15.442  15.936  1.00  0.00     0.076 A 
HETATM   16  C7  UNL     1     -31.404 -14.224  16.221  1.00  0.00     0.037 A 
HETATM   17  C8  UNL     1     -31.875 -13.819  17.468  1.00  0.00     0.027 A 
HETATM   18  C9  UNL     1     -32.702 -14.839  17.866  1.00  0.00     0.142 A 
HETATM   19  O3  UNL     1     -32.723 -15.753  16.960  1.00  0.00    -0.325 OA
ENDBRANCH  14  15
ENDBRANCH  13  14
ENDBRANCH   7  13
BRANCH   9  20
HETATM   20  O1  UNL     1     -30.669 -20.357  11.296  1.00  0.00    -0.353 OA
HETATM   21  C1  UNL     1     -29.368 -20.855  11.332  1.00  0.00     0.210 C 
ENDBRANCH   9  20
ENDBRANCH   1   6
BRANCH   4  22
HETATM   22  C12 UNL     1     -35.715 -17.064  18.011  1.00  0.00     0.690 A 
HETATM   23  N3  UNL     1     -36.616 -16.079  17.882  1.00  0.00    -0.155 N 
HETATM   24  C13 UNL     1     -37.381 -15.629  18.885  1.00  0.00     0.272 A 
ATOM     25  H3  UNL     1     -36.725 -15.646  16.965  1.00  0.00     0.187 HD
HETATM   26  O5  UNL     1     -38.224 -14.712  18.780  1.00  0.00    -0.267 OA
HETATM   27  C14 UNL     1     -37.210 -16.237  20.123  1.00  0.00     0.060 A 
HETATM   28  C15 UNL     1     -37.953 -15.845  21.232  1.00  0.00     0.019 A 
HETATM   29  C19 UNL     1     -36.297 -17.251  20.300  1.00  0.00     0.065 A 
HETATM   30  C16 UNL     1     -37.773 -16.457  22.460  1.00  0.00     0.001 A 
HETATM   31  C17 UNL     1     -36.856 -17.472  22.637  1.00  0.00     0.002 A 
HETATM   32  C18 UNL     1     -36.116 -17.869  21.544  1.00  0.00     0.031 A 
HETATM   33  N4  UNL     1     -35.584 -17.627  19.236  1.00  0.00    -0.190 N 
ATOM     34  H4  UNL     1     -34.905 -18.379  19.352  1.00  0.00     0.184 HD
ENDBRANCH   4  22
TORSDOF 6
ENDMDL
MODEL 4
REMARK VINA RESULT: -6.679276342      2.818      5.786
REMARK  6 active torsions:
REMARK  status: ('A' for Active; 'I' for Inactive)
REMARK    1  A    between atoms: O1_2  and  C2_3 
REMARK    2  A    between atoms: C4_5  and  O2_6 
REMARK    3  A    between atoms: O2_6  and  C5_7 
REMARK    4  A    between atoms: C5_7  and  C6_8 
REMARK    5  A    between atoms: C10_13  and  N1_14 
REMARK       I    between atoms: N1_14  and  C11_15 
REMARK       I    between atoms: C11_15  and  N2_17 
REMARK    6  A    between atoms: N2_17  and  C12_19 
ROOT
HETATM    1  N1  UNL     1     -33.110 -18.118  15.838  1.00  0.00    -0.349 NA
HETATM    2  C11 UNL     1     -33.424 -19.353  15.447  1.00  0.00     0.412 C 
HETATM    3  O4  UNL     1     -33.862 -20.305  16.164  1.00  0.00    -0.229 OA
HETATM    4  N2  UNL     1     -33.270 -19.748  14.051  1.00  0.00    -0.129 N 
ATOM      5  H2  UNL     1     -32.912 -19.065  13.383  1.00  0.00     0.190 HD
ENDROOT
BRANCH   1   6
HETATM    6  C10 UNL     1     -32.787 -16.843  16.244  1.00  0.00     0.149 A 
HETATM    7  C4  UNL     1     -31.870 -16.160  15.333  1.00  0.00     0.112 A 
HETATM    8  C3  UNL     1     -31.436 -14.915  15.675  1.00  0.00     0.080 A 
HETATM    9  C2  UNL     1     -31.826 -14.292  16.827  1.00  0.00     0.109 A 
HETATM   10  C21 UNL     1     -32.686 -14.911  17.697  1.00  0.00     0.152 A 
HETATM   11  C20 UNL     1     -33.153 -16.184  17.386  1.00  0.00     0.093 A 
HETATM   12  F1  UNL     1     -33.104 -14.355  18.849  1.00  0.00    -0.203 F 
BRANCH   7  13
HETATM   13  O2  UNL     1     -31.563 -16.871  14.241  1.00  0.00    -0.341 OA
BRANCH  13  14
HETATM   14  C5  UNL     1     -30.436 -17.145  13.567  1.00  0.00     0.240 C 
BRANCH  14  15
HETATM   15  C6  UNL     1     -29.922 -18.542  13.689  1.00  0.00     0.076 A 
HETATM   16  C7  UNL     1     -29.121 -19.268  12.851  1.00  0.00     0.037 A 
HETATM   17  C8  UNL     1     -28.934 -20.527  13.417  1.00  0.00     0.027 A 
HETATM   18  C9  UNL     1     -29.649 -20.483  14.587  1.00  0.00     0.142 A 
HETATM   19  O3  UNL     1     -30.202 -19.326  14.709  1.00  0.00    -0.325 OA
ENDBRANCH  14  15
ENDBRANCH  13  14
ENDBRANCH   7  13
BRANCH   9  20
HETATM   20  O1  UNL     1     -31.365 -13.041  17.133  1.00  0.00    -0.353 OA
HETATM   21  C1  UNL     1     -31.939 -11.822  16.776  1.00  0.00     0.210 C 
ENDBRANCH   9  20
ENDBRANCH   1   6
BRANCH   4  22
HETATM   22  C12 UNL     1     -33.600 -21.053  13.589  1.00  0.00     0.690 A 
HETATM   23  N3  UNL     1     -32.754 -21.816  12.881  1.00  0.00    -0.155 N 
HETATM   24  C13 UNL     1     -33.055 -23.038  12.422  1.00  0.00     0.272 A 
ATOM     25  H3  UNL     1     -31.826 -21.443  12.679  1.00  0.00     0.187 HD
HETATM   26  O5  UNL     1     -32.277 -23.760  11.761  1.00  0.00    -0.267 OA
HETATM   27  C14 UNL     1     -34.325 -23.520  12.711  1.00  0.00     0.060 A 
HETATM   28  C15 UNL     1     -34.740 -24.776  12.281  1.00  0.00     0.019 A 
HETATM   29  C19 UNL     1     -35.225 -22.770  13.435  1.00  0.00     0.065 A 
HETATM   30  C16 UNL     1     -36.008 -25.244  12.575  1.00  0.00     0.001 A 
HETATM   31  C17 UNL     1     -36.910 -24.492  13.298  1.00  0.00     0.002 A 
HETATM   32  C18 UNL     1     -36.509 -23.246  13.730  1.00  0.00     0.031 A 
HETATM   33  N4  UNL     1     -34.828 -21.565  13.848  1.00  0.00    -0.190 N 
ATOM     34  H4  UNL     1     -35.483 -20.999  14.387  1.00  0.00     0.184 HD
ENDBRANCH   4  22
TORSDOF 6
ENDMDL
MODEL 5
REMARK VINA RESULT: -6.613977411      3.790     10.763
REMARK  6 active torsions:
REMARK  status: ('A' for Active; 'I' for Inactive)
REMARK    1  A    between atoms: O1_2  and  C2_3 
REMARK    2  A    between atoms: C4_5  and  O2_6 
REMARK    3  A    between atoms: O2_6  and  C5_7 
REMARK    4  A    between atoms: C5_7  and  C6_8 
REMARK    5  A    between atoms: C10_13  and  N1_14 
REMARK       I    between atoms: N1_14  and  C11_15 
REMARK       I    between atoms: C11_15  and  N2_17 
REMARK    6  A    between atoms: N2_17  and  C12_19 
ROOT
HETATM    1  N1  UNL     1     -34.770 -17.983  16.084  1.00  0.00    -0.349 NA
HETATM    2  C11 UNL     1     -35.759 -17.654  16.915  1.00  0.00     0.412 C 
HETATM    3  O4  UNL     1     -36.915 -18.172  16.985  1.00  0.00    -0.229 OA
HETATM    4  N2  UNL     1     -35.583 -16.579  17.884  1.00  0.00    -0.129 N 
ATOM      5  H2  UNL     1     -34.692 -16.081  17.911  1.00  0.00     0.190 HD
ENDROOT
BRANCH   1   6
HETATM    6  C10 UNL     1     -33.749 -18.325  15.225  1.00  0.00     0.149 A 
HETATM    7  C4  UNL     1     -32.685 -17.324  15.163  1.00  0.00     0.112 A 
HETATM    8  C3  UNL     1     -31.658 -17.535  14.294  1.00  0.00     0.080 A 
HETATM    9  C2  UNL     1     -31.590 -18.638  13.490  1.00  0.00     0.109 A 
HETATM   10  C21 UNL     1     -32.574 -19.591  13.531  1.00  0.00     0.152 A 
HETATM   11  C20 UNL     1     -33.642 -19.414  14.404  1.00  0.00     0.093 A 
HETATM   12  F1  UNL     1     -32.570 -20.696  12.763  1.00  0.00    -0.203 F 
BRANCH   7  13
HETATM   13  O2  UNL     1     -32.864 -16.292  15.996  1.00  0.00    -0.341 OA
BRANCH  13  14
HETATM   14  C5  UNL     1     -32.215 -15.807  17.066  1.00  0.00     0.240 C 
BRANCH  14  15
HETATM   15  C6  UNL     1     -32.089 -14.320  17.138  1.00  0.00     0.076 A 
HETATM   16  C7  UNL     1     -31.851 -13.402  16.152  1.00  0.00     0.037 A 
HETATM   17  C8  UNL     1     -31.820 -12.139  16.738  1.00  0.00     0.027 A 
HETATM   18  C9  UNL     1     -32.045 -12.377  18.071  1.00  0.00     0.142 A 
HETATM   19  O3  UNL     1     -32.195 -13.642  18.261  1.00  0.00    -0.325 OA
ENDBRANCH  14  15
ENDBRANCH  13  14
ENDBRANCH   7  13
BRANCH   9  20
HETATM   20  O1  UNL     1     -30.539 -18.810  12.630  1.00  0.00    -0.353 OA
HETATM   21  C1  UNL     1     -29.195 -18.957  12.964  1.00  0.00     0.210 C 
ENDBRANCH   9  20
ENDBRANCH   1   6
BRANCH   4  22
HETATM   22  C12 UNL     1     -36.608 -16.201  18.795  1.00  0.00     0.690 A 
HETATM   23  N3  UNL     1     -37.771 -15.658  18.405  1.00  0.00    -0.155 N 
HETATM   24  C13 UNL     1     -38.740 -15.279  19.249  1.00  0.00     0.272 A 
ATOM     25  H3  UNL     1     -37.928 -15.525  17.406  1.00  0.00     0.187 HD
HETATM   26  O5  UNL     1     -39.828 -14.771  18.899  1.00  0.00    -0.267 OA
HETATM   27  C14 UNL     1     -38.500 -15.471  20.604  1.00  0.00     0.060 A 
HETATM   28  C15 UNL     1     -39.440 -15.111  21.565  1.00  0.00     0.019 A 
HETATM   29  C19 UNL     1     -37.321 -16.025  21.048  1.00  0.00     0.065 A 
HETATM   30  C16 UNL     1     -39.188 -15.306  22.911  1.00  0.00     0.001 A 
HETATM   31  C17 UNL     1     -38.005 -15.859  23.356  1.00  0.00     0.002 A 
HETATM   32  C18 UNL     1     -37.068 -16.220  22.412  1.00  0.00     0.031 A 
HETATM   33  N4  UNL     1     -36.420 -16.370  20.126  1.00  0.00    -0.190 N 
ATOM     34  H4  UNL     1     -35.542 -16.783  20.440  1.00  0.00     0.184 HD
ENDBRANCH   4  22
TORSDOF 6
ENDMDL
