MODEL 1
REMARK VINA RESULT: -6.819583669      0.000      0.000
REMARK  7 active torsions:
REMARK  status: ('A' for Active; 'I' for Inactive)
REMARK    1  A    between atoms: C3_3  and  C4_4 
REMARK    2  A    between atoms: C4_4  and  C5_6 
REMARK    3  A    between atoms: C5_6  and  C6_7 
REMARK    4  A    between atoms: C11_12  and  O2_13 
REMARK    5  A    between atoms: C13_17  and  N2_18 
REMARK    6  A    between atoms: N2_18  and  C14_20 
REMARK    7  A    between atoms: C16_22  and  O3_23 
ROOT
HETATM    1  C1  UNL     1     -36.123 -17.884  15.466  1.00  0.00     0.069 C 
HETATM    2  C2  UNL     1     -35.071 -17.052  16.088  1.00  0.00     0.027 A 
HETATM    3  C3  UNL     1     -35.222 -16.365  17.270  1.00  0.00     0.068 A 
HETATM    4  C11 UNL     1     -34.021 -15.735  17.481  1.00  0.00     0.114 A 
HETATM    5  C12 UNL     1     -33.189 -16.076  16.398  1.00  0.00     0.139 A 
HETATM    6  N1  UNL     1     -33.825 -16.868  15.566  1.00  0.00    -0.320 N 
HETATM    7  C13 UNL     1     -33.211 -17.413  14.365  1.00  0.00     0.207 C 
HETATM    8  C20 UNL     1     -32.157 -16.466  13.872  1.00  0.00     0.170 C 
HETATM    9  N3  UNL     1     -31.225 -16.124  14.929  1.00  0.00    -0.352 N 
ATOM     10  H3  UNL     1     -30.215 -16.220  14.819  1.00  0.00     0.162 HD
HETATM   11  C21 UNL     1     -31.822 -15.645  16.135  1.00  0.00     0.271 C 
HETATM   12  O4  UNL     1     -31.235 -14.903  16.929  1.00  0.00    -0.266 OA
ENDROOT
BRANCH   7  13
HETATM   13  N2  UNL     1     -32.607 -18.703  14.711  1.00  0.00    -0.367 N 
ATOM     14  H2  UNL     1     -32.000 -18.725  15.530  1.00  0.00     0.161 HD
BRANCH  13  15
HETATM   15  C14 UNL     1     -32.785 -19.903  14.023  1.00  0.00     0.033 A 
HETATM   16  C15 UNL     1     -31.821 -20.435  13.196  1.00  0.00     0.065 A 
HETATM   17  C16 UNL     1     -32.042 -21.644  12.553  1.00  0.00     0.069 A 
HETATM   18  C17 UNL     1     -33.227 -22.311  12.744  1.00  0.00     0.060 A 
HETATM   19  C18 UNL     1     -34.210 -21.807  13.563  1.00  0.00     0.038 A 
HETATM   20 CL1  UNL     1     -35.706 -22.682  13.784  1.00  0.00    -0.084 Cl
HETATM   21  C19 UNL     1     -33.972 -20.608  14.192  1.00  0.00     0.053 A 
BRANCH  17  22
HETATM   22  O3  UNL     1     -31.047 -22.159  11.722  1.00  0.00    -0.361 OA
ATOM     23  H3  UNL     1     -31.232 -22.270  10.797  1.00  0.00     0.217 HD
ENDBRANCH  17  22
ENDBRANCH  13  15
ENDBRANCH   7  13
BRANCH   3  24
HETATM   24  C4  UNL     1     -36.368 -16.298  18.145  1.00  0.00     0.168 C 
HETATM   25  O1  UNL     1     -36.867 -15.137  18.339  1.00  0.00    -0.292 OA
BRANCH  24  26
HETATM   26  C5  UNL     1     -37.019 -17.420  18.835  1.00  0.00     0.122 C 
BRANCH  26  27
HETATM   27  C6  UNL     1     -36.094 -18.104  19.818  1.00  0.00    -0.055 A 
HETATM   28  C7  UNL     1     -36.271 -18.062  21.119  1.00  0.00    -0.015 A 
HETATM   29  C8  UNL     1     -35.182 -18.836  21.761  1.00  0.00     0.054 A 
HETATM   30  C9  UNL     1     -34.382 -19.307  20.632  1.00  0.00    -0.022 A 
HETATM   31  C10 UNL     1     -34.923 -18.877  19.522  1.00  0.00     0.003 A 
ENDBRANCH  26  27
ENDBRANCH  24  26
ENDBRANCH   3  24
BRANCH   4  32
HETATM   32  O2  UNL     1     -33.664 -14.923  18.532  1.00  0.00    -0.357 OA
ATOM     33  H2  UNL     1     -33.755 -13.980  18.600  1.00  0.00     0.217 HD
ENDBRANCH   4  32
TORSDOF 7
ENDMDL
MODEL 2
REMARK VINA RESULT: -6.711570547      1.364      1.626
REMARK  7 active torsions:
REMARK  status: ('A' for Active; 'I' for Inactive)
REMARK    1  A    between atoms: C3_3  and  C4_4 
REMARK    2  A    between atoms: C4_4  and  C5_6 
REMARK    3  A    between atoms: C5_6  and  C6_7 
REMARK    4  A    between atoms: C11_12  and  O2_13 
REMARK    5  A    between atoms: C13_17  and  N2_18 
REMARK    6  A    between atoms: N2_18  and  C14_20 
REMARK    7  A    between atoms: C16_22  and  O3_23 
ROOT
HETATM    1  C1  UNL     1     -36.167 -18.023  15.491  1.00  0.00     0.069 C 
HETATM    2  C2  UNL     1     -35.083 -17.170  16.022  1.00  0.00     0.027 A 
HETATM    3  C3  UNL     1     -35.170 -16.439  17.185  1.00  0.00     0.068 A 
HETATM    4  C11 UNL     1     -33.959 -15.804  17.306  1.00  0.00     0.114 A 
HETATM    5  C12 UNL     1     -33.188 -16.187  16.192  1.00  0.00     0.139 A 
HETATM    6  N1  UNL     1     -33.869 -17.008  15.427  1.00  0.00    -0.320 N 
HETATM    7  C13 UNL     1     -33.320 -17.599  14.216  1.00  0.00     0.207 C 
HETATM    8  C20 UNL     1     -32.296 -16.672  13.631  1.00  0.00     0.170 C 
HETATM    9  N3  UNL     1     -31.307 -16.293  14.621  1.00  0.00    -0.352 N 
ATOM     10  H3  UNL     1     -30.305 -16.395  14.461  1.00  0.00     0.162 HD
HETATM   11  C21 UNL     1     -31.837 -15.768  15.839  1.00  0.00     0.271 C 
HETATM   12  O4  UNL     1     -31.208 -14.998  16.572  1.00  0.00    -0.266 OA
ENDROOT
BRANCH   7  13
HETATM   13  N2  UNL     1     -32.698 -18.876  14.576  1.00  0.00    -0.367 N 
ATOM     14  H2  UNL     1     -32.029 -18.864  15.345  1.00  0.00     0.161 HD
BRANCH  13  15
HETATM   15  C14 UNL     1     -32.936 -20.106  13.964  1.00  0.00     0.033 A 
HETATM   16  C15 UNL     1     -34.090 -20.828  14.171  1.00  0.00     0.065 A 
HETATM   17  C16 UNL     1     -34.285 -22.036  13.520  1.00  0.00     0.069 A 
HETATM   18  C17 UNL     1     -33.322 -22.513  12.665  1.00  0.00     0.060 A 
HETATM   19  C18 UNL     1     -32.158 -21.818  12.436  1.00  0.00     0.038 A 
HETATM   20 CL1  UNL     1     -30.953 -22.453  11.342  1.00  0.00    -0.084 Cl
HETATM   21  C19 UNL     1     -31.983 -20.621  13.091  1.00  0.00     0.053 A 
BRANCH  17  22
HETATM   22  O3  UNL     1     -35.465 -22.745  13.748  1.00  0.00    -0.361 OA
ATOM     23  H3  UNL     1     -36.297 -22.296  13.655  1.00  0.00     0.217 HD
ENDBRANCH  17  22
ENDBRANCH  13  15
ENDBRANCH   7  13
BRANCH   3  24
HETATM   24  C4  UNL     1     -36.266 -16.337  18.118  1.00  0.00     0.168 C 
HETATM   25  O1  UNL     1     -36.708 -15.160  18.349  1.00  0.00    -0.292 OA
BRANCH  24  26
HETATM   26  C5  UNL     1     -36.926 -17.441  18.829  1.00  0.00     0.122 C 
BRANCH  26  27
HETATM   27  C6  UNL     1     -36.003 -18.123  19.815  1.00  0.00    -0.055 A 
HETATM   28  C7  UNL     1     -36.216 -18.129  21.111  1.00  0.00    -0.015 A 
HETATM   29  C8  UNL     1     -35.116 -18.883  21.758  1.00  0.00     0.054 A 
HETATM   30  C9  UNL     1     -34.269 -19.288  20.638  1.00  0.00    -0.022 A 
HETATM   31  C10 UNL     1     -34.796 -18.841  19.528  1.00  0.00     0.003 A 
ENDBRANCH  26  27
ENDBRANCH  24  26
ENDBRANCH   3  24
BRANCH   4  32
HETATM   32  O2  UNL     1     -33.545 -14.954  18.305  1.00  0.00    -0.357 OA
ATOM     33  H2  UNL     1     -33.884 -14.092  18.517  1.00  0.00     0.217 HD
ENDBRANCH   4  32
TORSDOF 7
ENDMDL
MODEL 3
REMARK VINA RESULT: -6.665908235      1.929      2.237
REMARK  7 active torsions:
REMARK  status: ('A' for Active; 'I' for Inactive)
REMARK    1  A    between atoms: C3_3  and  C4_4 
REMARK    2  A    between atoms: C4_4  and  C5_6 
REMARK    3  A    between atoms: C5_6  and  C6_7 
REMARK    4  A    between atoms: C11_12  and  O2_13 
REMARK    5  A    between atoms: C13_17  and  N2_18 
REMARK    6  A    between atoms: N2_18  and  C14_20 
REMARK    7  A    between atoms: C16_22  and  O3_23 
ROOT
HETATM    1  C1  UNL     1     -35.821 -17.997  15.579  1.00  0.00     0.069 C 
HETATM    2  C2  UNL     1     -34.861 -17.054  16.190  1.00  0.00     0.027 A 
HETATM    3  C3  UNL     1     -35.103 -16.335  17.338  1.00  0.00     0.068 A 
HETATM    4  C11 UNL     1     -33.965 -15.597  17.552  1.00  0.00     0.114 A 
HETATM    5  C12 UNL     1     -33.077 -15.910  16.505  1.00  0.00     0.139 A 
HETATM    6  N1  UNL     1     -33.621 -16.787  15.692  1.00  0.00    -0.320 N 
HETATM    7  C13 UNL     1     -32.929 -17.326  14.532  1.00  0.00     0.207 C 
HETATM    8  C20 UNL     1     -31.945 -16.313  14.025  1.00  0.00     0.170 C 
HETATM    9  N3  UNL     1     -31.075 -15.851  15.089  1.00  0.00    -0.352 N 
ATOM     10  H3  UNL     1     -30.058 -15.864  15.009  1.00  0.00     0.162 HD
HETATM   11  C21 UNL     1     -31.745 -15.375  16.257  1.00  0.00     0.271 C 
HETATM   12  O4  UNL     1     -31.245 -14.554  17.034  1.00  0.00    -0.266 OA
ENDROOT
BRANCH   7  13
HETATM   13  N2  UNL     1     -32.229 -18.544  14.947  1.00  0.00    -0.367 N 
ATOM     14  H2  UNL     1     -32.403 -18.877  15.896  1.00  0.00     0.161 HD
BRANCH  13  15
HETATM   15  C14 UNL     1     -31.347 -19.291  14.167  1.00  0.00     0.033 A 
HETATM   16  C15 UNL     1     -31.721 -19.881  12.980  1.00  0.00     0.065 A 
HETATM   17  C16 UNL     1     -30.797 -20.594  12.233  1.00  0.00     0.069 A 
HETATM   18  C17 UNL     1     -29.503 -20.712  12.680  1.00  0.00     0.060 A 
HETATM   19  C18 UNL     1     -29.097 -20.137  13.861  1.00  0.00     0.038 A 
HETATM   20 CL1  UNL     1     -27.444 -20.307  14.401  1.00  0.00    -0.084 Cl
HETATM   21  C19 UNL     1     -30.028 -19.433  14.588  1.00  0.00     0.053 A 
BRANCH  17  22
HETATM   22  O3  UNL     1     -31.204 -21.179  11.034  1.00  0.00    -0.361 OA
ATOM     23  H3  UNL     1     -31.147 -20.673  10.232  1.00  0.00     0.217 HD
ENDBRANCH  17  22
ENDBRANCH  13  15
ENDBRANCH   7  13
BRANCH   3  24
HETATM   24  C4  UNL     1     -36.275 -16.330  18.180  1.00  0.00     0.168 C 
HETATM   25  O1  UNL     1     -36.815 -15.191  18.396  1.00  0.00    -0.292 OA
BRANCH  24  26
HETATM   26  C5  UNL     1     -36.911 -17.493  18.815  1.00  0.00     0.122 C 
BRANCH  26  27
HETATM   27  C6  UNL     1     -36.011 -18.152  19.838  1.00  0.00    -0.055 A 
HETATM   28  C7  UNL     1     -36.255 -18.127  21.129  1.00  0.00    -0.015 A 
HETATM   29  C8  UNL     1     -35.172 -18.866  21.820  1.00  0.00     0.054 A 
HETATM   30  C9  UNL     1     -34.299 -19.298  20.730  1.00  0.00    -0.022 A 
HETATM   31  C10 UNL     1     -34.799 -18.878  19.597  1.00  0.00     0.003 A 
ENDBRANCH  26  27
ENDBRANCH  24  26
ENDBRANCH   3  24
BRANCH   4  32
HETATM   32  O2  UNL     1     -33.708 -14.715  18.575  1.00  0.00    -0.357 OA
ATOM     33  H2  UNL     1     -34.006 -14.761  19.476  1.00  0.00     0.217 HD
ENDBRANCH   4  32
TORSDOF 7
ENDMDL
MODEL 4
REMARK VINA RESULT: -6.624929289      1.679      1.949
REMARK  7 active torsions:
REMARK  status: ('A' for Active; 'I' for Inactive)
REMARK    1  A    between atoms: C3_3  and  C4_4 
REMARK    2  A    between atoms: C4_4  and  C5_6 
REMARK    3  A    between atoms: C5_6  and  C6_7 
REMARK    4  A    between atoms: C11_12  and  O2_13 
REMARK    5  A    between atoms: C13_17  and  N2_18 
REMARK    6  A    between atoms: N2_18  and  C14_20 
REMARK    7  A    between atoms: C16_22  and  O3_23 
ROOT
HETATM    1  C1  UNL     1     -35.964 -17.886  16.022  1.00  0.00     0.069 C 
HETATM    2  C2  UNL     1     -34.874 -16.949  16.364  1.00  0.00     0.027 A 
HETATM    3  C3  UNL     1     -34.908 -16.071  17.422  1.00  0.00     0.068 A 
HETATM    4  C11 UNL     1     -33.711 -15.402  17.379  1.00  0.00     0.114 A 
HETATM    5  C12 UNL     1     -32.999 -15.915  16.278  1.00  0.00     0.139 A 
HETATM    6  N1  UNL     1     -33.703 -16.845  15.674  1.00  0.00    -0.320 N 
HETATM    7  C13 UNL     1     -33.215 -17.582  14.519  1.00  0.00     0.207 C 
HETATM    8  C20 UNL     1     -32.255 -16.722  13.751  1.00  0.00     0.170 C 
HETATM    9  N3  UNL     1     -31.217 -16.195  14.616  1.00  0.00    -0.352 N 
ATOM     10  H3  UNL     1     -30.225 -16.297  14.405  1.00  0.00     0.162 HD
HETATM   11  C21 UNL     1     -31.686 -15.521  15.785  1.00  0.00     0.271 C 
HETATM   12  O4  UNL     1     -31.035 -14.648  16.367  1.00  0.00    -0.266 OA
ENDROOT
BRANCH   7  13
HETATM   13  N2  UNL     1     -32.536 -18.787  15.003  1.00  0.00    -0.367 N 
ATOM     14  H2  UNL     1     -31.538 -18.708  15.200  1.00  0.00     0.161 HD
BRANCH  13  15
HETATM   15  C14 UNL     1     -33.127 -20.031  15.221  1.00  0.00     0.033 A 
HETATM   16  C15 UNL     1     -33.922 -20.650  14.282  1.00  0.00     0.065 A 
HETATM   17  C16 UNL     1     -34.467 -21.898  14.542  1.00  0.00     0.069 A 
HETATM   18  C17 UNL     1     -34.212 -22.517  15.742  1.00  0.00     0.060 A 
HETATM   19  C18 UNL     1     -33.424 -21.926  16.701  1.00  0.00     0.038 A 
HETATM   20 CL1  UNL     1     -33.120 -22.742  18.215  1.00  0.00    -0.084 Cl
HETATM   21  C19 UNL     1     -32.892 -20.688  16.424  1.00  0.00     0.053 A 
BRANCH  17  22
HETATM   22  O3  UNL     1     -35.268 -22.501  13.572  1.00  0.00    -0.361 OA
ATOM     23  H3  UNL     1     -35.132 -22.277  12.658  1.00  0.00     0.217 HD
ENDBRANCH  17  22
ENDBRANCH  13  15
ENDBRANCH   7  13
BRANCH   3  24
HETATM   24  C4  UNL     1     -35.947 -15.866  18.403  1.00  0.00     0.168 C 
HETATM   25  O1  UNL     1     -36.882 -15.056  18.080  1.00  0.00    -0.292 OA
BRANCH  24  26
HETATM   26  C5  UNL     1     -36.043 -16.489  19.731  1.00  0.00     0.122 C 
BRANCH  26  27
HETATM   27  C6  UNL     1     -35.784 -17.979  19.687  1.00  0.00    -0.055 A 
HETATM   28  C7  UNL     1     -36.729 -18.866  19.471  1.00  0.00    -0.015 A 
HETATM   29  C8  UNL     1     -36.114 -20.215  19.498  1.00  0.00     0.054 A 
HETATM   30  C9  UNL     1     -34.702 -19.945  19.759  1.00  0.00    -0.022 A 
HETATM   31  C10 UNL     1     -34.531 -18.653  19.864  1.00  0.00     0.003 A 
ENDBRANCH  26  27
ENDBRANCH  24  26
ENDBRANCH   3  24
BRANCH   4  32
HETATM   32  O2  UNL     1     -33.260 -14.417  18.227  1.00  0.00    -0.357 OA
ATOM     33  H2  UNL     1     -33.683 -13.596  18.448  1.00  0.00     0.217 HD
ENDBRANCH   4  32
TORSDOF 7
ENDMDL
MODEL 5
REMARK VINA RESULT: -6.599132776      1.582      1.833
REMARK  7 active torsions:
REMARK  status: ('A' for Active; 'I' for Inactive)
REMARK    1  A    between atoms: C3_3  and  C4_4 
REMARK    2  A    between atoms: C4_4  and  C5_6 
REMARK    3  A    between atoms: C5_6  and  C6_7 
REMARK    4  A    between atoms: C11_12  and  O2_13 
REMARK    5  A    between atoms: C13_17  and  N2_18 
REMARK    6  A    between atoms: N2_18  and  C14_20 
REMARK    7  A    between atoms: C16_22  and  O3_23 
ROOT
HETATM    1  C1  UNL     1     -36.011 -18.139  15.634  1.00  0.00     0.069 C 
HETATM    2  C2  UNL     1     -34.991 -17.191  16.129  1.00  0.00     0.027 A 
HETATM    3  C3  UNL     1     -35.147 -16.393  17.239  1.00  0.00     0.068 A 
HETATM    4  C11 UNL     1     -33.978 -15.681  17.343  1.00  0.00     0.114 A 
HETATM    5  C12 UNL     1     -33.159 -16.089  16.273  1.00  0.00     0.139 A 
HETATM    6  N1  UNL     1     -33.774 -16.997  15.549  1.00  0.00    -0.320 N 
HETATM    7  C13 UNL     1     -33.163 -17.632  14.391  1.00  0.00     0.207 C 
HETATM    8  C20 UNL     1     -32.180 -16.687  13.767  1.00  0.00     0.170 C 
HETATM    9  N3  UNL     1     -31.238 -16.187  14.751  1.00  0.00    -0.352 N 
ATOM     10  H3  UNL     1     -30.228 -16.240  14.617  1.00  0.00     0.162 HD
HETATM   11  C21 UNL     1     -31.827 -15.616  15.920  1.00  0.00     0.271 C 
HETATM   12  O4  UNL     1     -31.261 -14.764  16.613  1.00  0.00    -0.266 OA
ENDROOT
BRANCH   7  13
HETATM   13  N2  UNL     1     -32.478 -18.844  14.847  1.00  0.00    -0.367 N 
ATOM     14  H2  UNL     1     -31.460 -18.808  14.902  1.00  0.00     0.161 HD
BRANCH  13  15
HETATM   15  C14 UNL     1     -33.088 -20.044  15.213  1.00  0.00     0.033 A 
HETATM   16  C15 UNL     1     -33.111 -20.500  16.512  1.00  0.00     0.065 A 
HETATM   17  C16 UNL     1     -33.752 -21.689  16.824  1.00  0.00     0.069 A 
HETATM   18  C17 UNL     1     -34.364 -22.414  15.831  1.00  0.00     0.060 A 
HETATM   19  C18 UNL     1     -34.359 -21.988  14.524  1.00  0.00     0.038 A 
HETATM   20 CL1  UNL     1     -35.148 -22.935  13.286  1.00  0.00    -0.084 Cl
HETATM   21  C19 UNL     1     -33.719 -20.805  14.235  1.00  0.00     0.053 A 
BRANCH  17  22
HETATM   22  O3  UNL     1     -33.760 -22.125  18.149  1.00  0.00    -0.361 OA
ATOM     23  H3  UNL     1     -33.228 -22.874  18.391  1.00  0.00     0.217 HD
ENDBRANCH  17  22
ENDBRANCH  13  15
ENDBRANCH   7  13
BRANCH   3  24
HETATM   24  C4  UNL     1     -36.270 -16.295  18.140  1.00  0.00     0.168 C 
HETATM   25  O1  UNL     1     -36.744 -15.123  18.333  1.00  0.00    -0.292 OA
BRANCH  24  26
HETATM   26  C5  UNL     1     -36.924 -17.398  18.860  1.00  0.00     0.122 C 
BRANCH  26  27
HETATM   27  C6  UNL     1     -35.975 -18.116  19.795  1.00  0.00    -0.055 A 
HETATM   28  C7  UNL     1     -36.100 -18.090  21.102  1.00  0.00    -0.015 A 
HETATM   29  C8  UNL     1     -35.003 -18.896  21.689  1.00  0.00     0.054 A 
HETATM   30  C9  UNL     1     -34.258 -19.365  20.523  1.00  0.00    -0.022 A 
HETATM   31  C10 UNL     1     -34.833 -18.907  19.442  1.00  0.00     0.003 A 
ENDBRANCH  26  27
ENDBRANCH  24  26
ENDBRANCH   3  24
BRANCH   4  32
HETATM   32  O2  UNL     1     -33.638 -14.745  18.291  1.00  0.00    -0.357 OA
ATOM     33  H2  UNL     1     -34.100 -14.530  19.093  1.00  0.00     0.217 HD
ENDBRANCH   4  32
TORSDOF 7
ENDMDL
