MODEL 1
REMARK VINA RESULT: -7.658021439      0.000      0.000
REMARK  3 active torsions:
REMARK  status: ('A' for Active; 'I' for Inactive)
REMARK    1  A    between atoms: N1_4  and  C4_5 
REMARK    2  A    between atoms: C9_16  and  C10_17 
REMARK    3  A    between atoms: C10_17  and  O2_19 
ROOT
HETATM    1  C1  UNL     1       2.354  17.126   2.983  1.00  0.00     0.041 C 
HETATM    2  C2  UNL     1       2.495  18.274   2.042  1.00  0.00     0.136 C 
HETATM    3  C3  UNL     1       1.924  17.943   0.684  1.00  0.00     0.156 C 
HETATM    4  N1  UNL     1       2.458  18.825  -0.327  1.00  0.00    -0.360 N 
HETATM    5  C8  UNL     1       3.164  20.018   0.075  1.00  0.00     0.167 C 
HETATM    6  C9  UNL     1       3.737  20.008   1.434  1.00  0.00     0.242 C 
HETATM    7  O3  UNL     1       3.821  18.691   1.926  1.00  0.00    -0.368 OA
ENDROOT
BRANCH   4   8
HETATM    8  C4  UNL     1       2.328  18.587  -1.720  1.00  0.00     0.132 A 
HETATM    9  N2  UNL     1       2.566  17.364  -2.277  1.00  0.00    -0.337 N 
HETATM   10  C5  UNL     1       2.437  17.160  -3.600  1.00  0.00     0.183 A 
ATOM     11  H2  UNL     1       2.847  16.588  -1.677  1.00  0.00     0.168 HD
HETATM   12  N3  UNL     1       2.073  18.120  -4.458  1.00  0.00    -0.339 N 
HETATM   13  C6  UNL     1       1.824  19.345  -3.987  1.00  0.00     0.145 A 
ATOM     14  H3  UNL     1       1.987  17.920  -5.455  1.00  0.00     0.167 HD
HETATM   15  N4  UNL     1       1.432  20.426  -4.818  1.00  0.00    -0.081 NA
HETATM   16  C7  UNL     1       1.953  19.563  -2.627  1.00  0.00     0.131 A 
HETATM   17  N5  UNL     1       1.688  20.857  -2.144  1.00  0.00    -0.095 NA
ENDBRANCH   4   8
BRANCH   6  18
HETATM   18  C10 UNL     1       5.090  20.595   1.412  1.00  0.00     0.324 C 
HETATM   19  O1  UNL     1       6.093  19.851   1.407  1.00  0.00    -0.259 OA
BRANCH  18  20
HETATM   20  O2  UNL     1       5.253  21.963   1.397  1.00  0.00    -0.114 OA
HETATM   21  F1  UNL     1       4.273  22.815   1.751  1.00  0.00    -0.039 F 
ENDBRANCH  18  20
ENDBRANCH   6  18
TORSDOF 3
ENDMDL
MODEL 2
REMARK VINA RESULT: -7.282459836      0.647      1.734
REMARK  3 active torsions:
REMARK  status: ('A' for Active; 'I' for Inactive)
REMARK    1  A    between atoms: N1_4  and  C4_5 
REMARK    2  A    between atoms: C9_16  and  C10_17 
REMARK    3  A    between atoms: C10_17  and  O2_19 
ROOT
HETATM    1  C1  UNL     1       2.270  17.137   2.645  1.00  0.00     0.041 C 
HETATM    2  C2  UNL     1       2.436  18.397   1.864  1.00  0.00     0.136 C 
HETATM    3  C3  UNL     1       1.792  18.286   0.503  1.00  0.00     0.156 C 
HETATM    4  N1  UNL     1       2.333  19.272  -0.403  1.00  0.00    -0.360 N 
HETATM    5  C8  UNL     1       3.121  20.361   0.123  1.00  0.00     0.167 C 
HETATM    6  C9  UNL     1       3.748  20.133   1.439  1.00  0.00     0.242 C 
HETATM    7  O3  UNL     1       3.778  18.758   1.742  1.00  0.00    -0.368 OA
ENDROOT
BRANCH   4   8
HETATM    8  C4  UNL     1       2.132  19.237  -1.808  1.00  0.00     0.132 A 
HETATM    9  N2  UNL     1       1.726  20.332  -2.515  1.00  0.00    -0.337 N 
HETATM   10  C5  UNL     1       1.541  20.277  -3.846  1.00  0.00     0.183 A 
ATOM     11  H2  UNL     1       1.560  21.211  -2.023  1.00  0.00     0.168 HD
HETATM   12  N3  UNL     1       1.737  19.168  -4.568  1.00  0.00    -0.339 N 
HETATM   13  C6  UNL     1       2.135  18.054  -3.945  1.00  0.00     0.145 A 
ATOM     14  H3  UNL     1       1.586  19.172  -5.576  1.00  0.00     0.167 HD
HETATM   15  N4  UNL     1       2.368  16.832  -4.625  1.00  0.00    -0.081 NA
HETATM   16  C7  UNL     1       2.327  18.102  -2.576  1.00  0.00     0.131 A 
HETATM   17  N5  UNL     1       2.746  16.924  -1.933  1.00  0.00    -0.095 NA
ENDBRANCH   4   8
BRANCH   6  18
HETATM   18  C10 UNL     1       5.130  20.649   1.431  1.00  0.00     0.324 C 
HETATM   19  O1  UNL     1       6.093  19.853   1.424  1.00  0.00    -0.259 OA
BRANCH  18  20
HETATM   20  O2  UNL     1       5.365  22.007   1.432  1.00  0.00    -0.114 OA
HETATM   21  F1  UNL     1       4.428  22.905   1.789  1.00  0.00    -0.039 F 
ENDBRANCH  18  20
ENDBRANCH   6  18
TORSDOF 3
ENDMDL
MODEL 3
REMARK VINA RESULT: -6.953867970      1.931      3.475
REMARK  3 active torsions:
REMARK  status: ('A' for Active; 'I' for Inactive)
REMARK    1  A    between atoms: N1_4  and  C4_5 
REMARK    2  A    between atoms: C9_16  and  C10_17 
REMARK    3  A    between atoms: C10_17  and  O2_19 
ROOT
HETATM    1  C1  UNL     1       4.501  21.659   1.926  1.00  0.00     0.041 C 
HETATM    2  C2  UNL     1       4.105  20.363   1.302  1.00  0.00     0.136 C 
HETATM    3  C3  UNL     1       3.926  20.506  -0.190  1.00  0.00     0.156 C 
HETATM    4  N1  UNL     1       3.116  19.432  -0.716  1.00  0.00    -0.360 N 
HETATM    5  C8  UNL     1       2.855  18.274   0.106  1.00  0.00     0.167 C 
HETATM    6  C9  UNL     1       2.984  18.468   1.563  1.00  0.00     0.242 C 
HETATM    7  O3  UNL     1       2.951  19.838   1.885  1.00  0.00    -0.368 OA
ENDROOT
BRANCH   4   8
HETATM    8  C4  UNL     1       2.549  19.445  -2.017  1.00  0.00     0.132 A 
HETATM    9  N2  UNL     1       2.092  20.590  -2.602  1.00  0.00    -0.337 N 
HETATM   10  C5  UNL     1       1.557  20.580  -3.837  1.00  0.00     0.183 A 
ATOM     11  H2  UNL     1       2.157  21.472  -2.093  1.00  0.00     0.168 HD
HETATM   12  N3  UNL     1       1.434  19.470  -4.573  1.00  0.00    -0.339 N 
HETATM   13  C6  UNL     1       1.859  18.309  -4.066  1.00  0.00     0.145 A 
ATOM     14  H3  UNL     1       1.023  19.509  -5.506  1.00  0.00     0.167 HD
HETATM   15  N4  UNL     1       1.770  17.082  -4.771  1.00  0.00    -0.081 NA
HETATM   16  C7  UNL     1       2.410  18.310  -2.798  1.00  0.00     0.131 A 
HETATM   17  N5  UNL     1       2.853  17.082  -2.276  1.00  0.00    -0.095 NA
ENDBRANCH   4   8
BRANCH   6  18
HETATM   18  C10 UNL     1       1.874  17.788   2.258  1.00  0.00     0.324 C 
HETATM   19  O1  UNL     1       1.299  16.820   1.718  1.00  0.00    -0.259 OA
BRANCH  18  20
HETATM   20  O2  UNL     1       1.469  18.218   3.503  1.00  0.00    -0.114 OA
HETATM   21  F1  UNL     1       2.220  18.052   4.608  1.00  0.00    -0.039 F 
ENDBRANCH  18  20
ENDBRANCH   6  18
TORSDOF 3
ENDMDL
MODEL 4
REMARK VINA RESULT: -6.805808172      3.787      5.868
REMARK  3 active torsions:
REMARK  status: ('A' for Active; 'I' for Inactive)
REMARK    1  A    between atoms: N1_4  and  C4_5 
REMARK    2  A    between atoms: C9_16  and  C10_17 
REMARK    3  A    between atoms: C10_17  and  O2_19 
ROOT
HETATM    1  C1  UNL     1       0.407  15.968  -0.157  1.00  0.00     0.041 C 
HETATM    2  C2  UNL     1       1.466  16.879  -0.678  1.00  0.00     0.136 C 
HETATM    3  C3  UNL     1       2.209  17.557   0.447  1.00  0.00     0.156 C 
HETATM    4  N1  UNL     1       2.880  18.746  -0.022  1.00  0.00    -0.360 N 
HETATM    5  C8  UNL     1       3.023  18.965  -1.442  1.00  0.00     0.167 C 
HETATM    6  C9  UNL     1       2.058  18.262  -2.308  1.00  0.00     0.242 C 
HETATM    7  O3  UNL     1       0.947  17.827  -1.561  1.00  0.00    -0.368 OA
ENDROOT
BRANCH   4   8
HETATM    8  C4  UNL     1       3.421  19.732   0.844  1.00  0.00     0.132 A 
HETATM    9  N2  UNL     1       3.569  21.035   0.464  1.00  0.00    -0.337 N 
HETATM   10  C5  UNL     1       4.084  21.954   1.300  1.00  0.00     0.183 A 
ATOM     11  H2  UNL     1       3.283  21.317  -0.474  1.00  0.00     0.168 HD
HETATM   12  N3  UNL     1       4.483  21.670   2.545  1.00  0.00    -0.339 N 
HETATM   13  C6  UNL     1       4.370  20.414   2.989  1.00  0.00     0.145 A 
ATOM     14  H3  UNL     1       4.868  22.399   3.146  1.00  0.00     0.167 HD
HETATM   15  N4  UNL     1       4.766  20.018   4.292  1.00  0.00    -0.081 NA
HETATM   16  C7  UNL     1       3.841  19.463   2.135  1.00  0.00     0.131 A 
HETATM   17  N5  UNL     1       3.727  18.146   2.614  1.00  0.00    -0.095 NA
ENDBRANCH   4   8
BRANCH   6  18
HETATM   18  C10 UNL     1       1.590  19.166  -3.375  1.00  0.00     0.324 C 
HETATM   19  O1  UNL     1       1.562  20.400  -3.180  1.00  0.00    -0.259 OA
BRANCH  18  20
HETATM   20  O2  UNL     1       1.184  18.656  -4.589  1.00  0.00    -0.114 OA
HETATM   21  F1  UNL     1       1.552  17.437  -5.024  1.00  0.00    -0.039 F 
ENDBRANCH  18  20
ENDBRANCH   6  18
TORSDOF 3
ENDMDL
MODEL 5
REMARK VINA RESULT: -6.777131271      2.216      3.699
REMARK  3 active torsions:
REMARK  status: ('A' for Active; 'I' for Inactive)
REMARK    1  A    between atoms: N1_4  and  C4_5 
REMARK    2  A    between atoms: C9_16  and  C10_17 
REMARK    3  A    between atoms: C10_17  and  O2_19 
ROOT
HETATM    1  C1  UNL     1       4.466  21.604   1.947  1.00  0.00     0.041 C 
HETATM    2  C2  UNL     1       4.065  20.316   1.313  1.00  0.00     0.136 C 
HETATM    3  C3  UNL     1       3.898  20.468  -0.180  1.00  0.00     0.156 C 
HETATM    4  N1  UNL     1       3.084  19.403  -0.718  1.00  0.00    -0.360 N 
HETATM    5  C8  UNL     1       2.809  18.242   0.095  1.00  0.00     0.167 C 
HETATM    6  C9  UNL     1       2.929  18.427   1.554  1.00  0.00     0.242 C 
HETATM    7  O3  UNL     1       2.903  19.795   1.884  1.00  0.00    -0.368 OA
ENDROOT
BRANCH   4   8
HETATM    8  C4  UNL     1       2.527  19.428  -2.023  1.00  0.00     0.132 A 
HETATM    9  N2  UNL     1       2.065  20.577  -2.597  1.00  0.00    -0.337 N 
HETATM   10  C5  UNL     1       1.540  20.578  -3.836  1.00  0.00     0.183 A 
ATOM     11  H2  UNL     1       2.119  21.453  -2.077  1.00  0.00     0.168 HD
HETATM   12  N3  UNL     1       1.432  19.477  -4.587  1.00  0.00    -0.339 N 
HETATM   13  C6  UNL     1       1.862  18.313  -4.091  1.00  0.00     0.145 A 
ATOM     14  H3  UNL     1       1.027  19.524  -5.522  1.00  0.00     0.167 HD
HETATM   15  N4  UNL     1       1.789  17.094  -4.812  1.00  0.00    -0.081 NA
HETATM   16  C7  UNL     1       2.404  18.302  -2.819  1.00  0.00     0.131 A 
HETATM   17  N5  UNL     1       2.853  17.071  -2.309  1.00  0.00    -0.095 NA
ENDBRANCH   4   8
BRANCH   6  18
HETATM   18  C10 UNL     1       1.809  17.751   2.237  1.00  0.00     0.324 C 
HETATM   19  O1  UNL     1       1.256  18.296   3.217  1.00  0.00    -0.259 OA
BRANCH  18  20
HETATM   20  O2  UNL     1       1.369  16.521   1.800  1.00  0.00    -0.114 OA
HETATM   21  F1  UNL     1       0.407  16.383   0.868  1.00  0.00    -0.039 F 
ENDBRANCH  18  20
ENDBRANCH   6  18
TORSDOF 3
ENDMDL
