MODEL 1
REMARK VINA RESULT: -2.542101377      0.000      0.000
REMARK  7 active torsions:
REMARK  status: ('A' for Active; 'I' for Inactive)
REMARK    1  A    between atoms: C2_2  and  C20_20 
REMARK    2  A    between atoms: C3_3  and  C4_4 
REMARK    3  A    between atoms: C4_4  and  C10_10 
REMARK    4  A    between atoms: C20_20  and  C21_21 
REMARK    5  A    between atoms: C20_20  and  N2_26 
REMARK    6  A    between atoms: C21_21  and  C22_22 
REMARK    7  A    between atoms: C22_22  and  O1_24 
REMARK       I    between atoms: N2_26  and  C23_28 
ROOT
HETATM    1  C1  UNL     1       0.882  17.297  -1.195  1.00  0.00     0.050 C 
HETATM    2  C2  UNL     1       2.184  17.629  -1.702  1.00  0.00    -0.034 C 
HETATM    3  C3  UNL     1       3.044  18.388  -0.997  1.00  0.00     0.022 C 
ENDROOT
BRANCH   3   4
HETATM    4  C4  UNL     1       3.035  19.040   0.239  1.00  0.00    -0.018 C 
HETATM    5  C5  UNL     1       3.090  20.407   0.216  1.00  0.00    -0.047 C 
HETATM    6  C6  UNL     1       3.094  21.302   1.358  1.00  0.00     0.004 C 
HETATM    7  C9  UNL     1       3.161  21.275  -0.958  1.00  0.00     0.043 C 
HETATM    8  C7  UNL     1       3.550  22.486   1.005  1.00  0.00    -0.026 C 
HETATM    9  C8  UNL     1       3.904  22.509  -0.423  1.00  0.00     0.032 C 
BRANCH   4  10
HETATM   10  C10 UNL     1       2.797  18.467   1.541  1.00  0.00    -0.018 A 
HETATM   11  C11 UNL     1       1.830  17.579   1.846  1.00  0.00     0.013 A 
HETATM   12  C12 UNL     1       1.604  17.052   3.128  1.00  0.00     0.008 A 
HETATM   13  C13 UNL     1       2.451  17.495   4.138  1.00  0.00    -0.055 A 
HETATM   14  C14 UNL     1       2.256  16.959   5.529  1.00  0.00     0.049 C 
HETATM   15  C15 UNL     1       3.449  18.411   3.826  1.00  0.00    -0.045 A 
HETATM   16  C16 UNL     1       3.659  18.919   2.570  1.00  0.00    -0.040 A 
HETATM   17  C19 UNL     1       4.479  19.021   4.729  1.00  0.00     0.040 C 
HETATM   18  C17 UNL     1       4.811  19.879   2.595  1.00  0.00     0.040 C 
HETATM   19  C18 UNL     1       4.718  20.353   4.062  1.00  0.00     0.009 C 
ENDBRANCH   4  10
ENDBRANCH   3   4
BRANCH   2  20
HETATM   20  C20 UNL     1       2.748  17.254  -3.019  1.00  0.00     0.044 C 
BRANCH  20  21
HETATM   21  C21 UNL     1       3.197  16.980  -4.086  1.00  0.00     0.082 C 
BRANCH  21  22
HETATM   22  C22 UNL     1       3.096  17.137  -5.502  1.00  0.00     0.151 C 
HETATM   23  N1  UNL     1       1.981  17.061  -6.331  1.00  0.00    -0.075 NA
BRANCH  22  24
HETATM   24  O1  UNL     1       4.203  17.394  -6.177  1.00  0.00    -0.348 OA
ATOM     25  H1  UNL     1       4.214  18.160  -6.739  1.00  0.00     0.219 HD
ENDBRANCH  22  24
ENDBRANCH  21  22
ENDBRANCH  20  21
BRANCH  20  26
HETATM   26  N2  UNL     1       2.851  18.959  -3.478  1.00  0.00    -0.330 N 
HETATM   27  C23 UNL     1       1.627  19.344  -3.867  1.00  0.00     0.186 C 
HETATM   28  N3  UNL     1       1.443  20.714  -4.347  1.00  0.00    -0.064 NA
HETATM   29  N4  UNL     1       0.541  18.628  -3.907  1.00  0.00    -0.373 N 
ATOM     30  H42 UNL     1       0.670  17.673  -3.572  1.00  0.00     0.158 HD
ATOM     31  H41 UNL     1      -0.391  18.921  -4.202  1.00  0.00     0.158 HD
ATOM     32  H2  UNL     1       3.688  19.542  -3.451  1.00  0.00     0.168 HD
ENDBRANCH  20  26
ENDBRANCH   2  20
TORSDOF 7
ENDMDL
MODEL 2
REMARK VINA RESULT: -0.835597109      4.362      7.765
REMARK  7 active torsions:
REMARK  status: ('A' for Active; 'I' for Inactive)
REMARK    1  A    between atoms: C2_2  and  C20_20 
REMARK    2  A    between atoms: C3_3  and  C4_4 
REMARK    3  A    between atoms: C4_4  and  C10_10 
REMARK    4  A    between atoms: C20_20  and  C21_21 
REMARK    5  A    between atoms: C20_20  and  N2_26 
REMARK    6  A    between atoms: C21_21  and  C22_22 
REMARK    7  A    between atoms: C22_22  and  O1_24 
REMARK       I    between atoms: N2_26  and  C23_28 
ROOT
HETATM    1  C1  UNL     1       5.153  19.812   0.989  1.00  0.00     0.050 C 
HETATM    2  C2  UNL     1       4.181  19.622   2.030  1.00  0.00    -0.034 C 
HETATM    3  C3  UNL     1       2.954  19.133   1.770  1.00  0.00     0.022 C 
ENDROOT
BRANCH   3   4
HETATM    4  C4  UNL     1       2.256  18.711   0.635  1.00  0.00    -0.018 C 
HETATM    5  C5  UNL     1       1.474  17.596   0.770  1.00  0.00    -0.047 C 
HETATM    6  C6  UNL     1       0.661  16.968  -0.253  1.00  0.00     0.004 C 
HETATM    7  C9  UNL     1       1.283  16.783   1.971  1.00  0.00     0.043 C 
HETATM    8  C7  UNL     1       0.373  15.730   0.092  1.00  0.00    -0.026 C 
HETATM    9  C8  UNL     1       0.969  15.395   1.395  1.00  0.00     0.032 C 
BRANCH   4  10
HETATM   10  C10 UNL     1       2.111  19.401  -0.623  1.00  0.00    -0.018 A 
HETATM   11  C11 UNL     1       1.672  20.664  -0.783  1.00  0.00     0.013 A 
HETATM   12  C12 UNL     1       1.518  21.307  -2.021  1.00  0.00     0.008 A 
HETATM   13  C13 UNL     1       1.848  20.565  -3.149  1.00  0.00    -0.055 A 
HETATM   14  C14 UNL     1       1.705  21.206  -4.502  1.00  0.00     0.049 C 
HETATM   15  C15 UNL     1       2.301  19.261  -2.988  1.00  0.00    -0.045 A 
HETATM   16  C16 UNL     1       2.446  18.643  -1.773  1.00  0.00    -0.040 A 
HETATM   17  C19 UNL     1       2.722  18.277  -4.038  1.00  0.00     0.040 C 
HETATM   18  C17 UNL     1       2.950  17.245  -1.968  1.00  0.00     0.040 C 
HETATM   19  C18 UNL     1       2.385  16.962  -3.377  1.00  0.00     0.009 C 
ENDBRANCH   4  10
ENDBRANCH   3   4
BRANCH   2  20
HETATM   20  C20 UNL     1       4.338  19.952   3.465  1.00  0.00     0.044 C 
BRANCH  20  21
HETATM   21  C21 UNL     1       4.455  20.191   4.625  1.00  0.00     0.082 C 
BRANCH  21  22
HETATM   22  C22 UNL     1       3.840  20.700   5.808  1.00  0.00     0.151 C 
HETATM   23  N1  UNL     1       3.748  20.138   7.079  1.00  0.00    -0.075 NA
BRANCH  22  24
HETATM   24  O1  UNL     1       3.251  21.881   5.742  1.00  0.00    -0.348 OA
ATOM     25  H1  UNL     1       2.758  22.176   6.499  1.00  0.00     0.219 HD
ENDBRANCH  22  24
ENDBRANCH  21  22
ENDBRANCH  20  21
BRANCH  20  26
HETATM   26  N2  UNL     1       4.070  18.259   3.900  1.00  0.00    -0.330 N 
HETATM   27  C23 UNL     1       2.819  18.161   4.374  1.00  0.00     0.186 C 
HETATM   28  N3  UNL     1       2.351  16.860   4.854  1.00  0.00    -0.064 NA
HETATM   29  N4  UNL     1       1.937  19.110   4.500  1.00  0.00    -0.373 N 
ATOM     30  H42 UNL     1       2.263  20.017   4.165  1.00  0.00     0.158 HD
ATOM     31  H41 UNL     1       0.985  19.035   4.860  1.00  0.00     0.158 HD
ATOM     32  H2  UNL     1       4.742  17.498   3.806  1.00  0.00     0.168 HD
ENDBRANCH  20  26
ENDBRANCH   2  20
TORSDOF 7
ENDMDL
MODEL 3
REMARK VINA RESULT: -0.391589042      3.750      7.370
REMARK  7 active torsions:
REMARK  status: ('A' for Active; 'I' for Inactive)
REMARK    1  A    between atoms: C2_2  and  C20_20 
REMARK    2  A    between atoms: C3_3  and  C4_4 
REMARK    3  A    between atoms: C4_4  and  C10_10 
REMARK    4  A    between atoms: C20_20  and  C21_21 
REMARK    5  A    between atoms: C20_20  and  N2_26 
REMARK    6  A    between atoms: C21_21  and  C22_22 
REMARK    7  A    between atoms: C22_22  and  O1_24 
REMARK       I    between atoms: N2_26  and  C23_28 
ROOT
HETATM    1  C1  UNL     1       4.546  17.471   1.402  1.00  0.00     0.050 C 
HETATM    2  C2  UNL     1       4.120  18.765   0.945  1.00  0.00    -0.034 C 
HETATM    3  C3  UNL     1       3.178  18.903  -0.007  1.00  0.00     0.022 C 
ENDROOT
BRANCH   3   4
HETATM    4  C4  UNL     1       2.401  18.044  -0.790  1.00  0.00    -0.018 C 
HETATM    5  C5  UNL     1       1.472  17.284  -0.135  1.00  0.00    -0.047 C 
HETATM    6  C6  UNL     1       0.554  16.326  -0.721  1.00  0.00     0.004 C 
HETATM    7  C9  UNL     1       1.193  17.259   1.301  1.00  0.00     0.043 C 
HETATM    8  C7  UNL     1       0.100  15.506   0.204  1.00  0.00    -0.026 C 
HETATM    9  C8  UNL     1       0.672  15.831   1.520  1.00  0.00     0.032 C 
BRANCH   4  10
HETATM   10  C10 UNL     1       2.327  17.981  -2.229  1.00  0.00    -0.018 A 
HETATM   11  C11 UNL     1       2.672  16.924  -2.990  1.00  0.00     0.013 A 
HETATM   12  C12 UNL     1       2.613  16.895  -4.392  1.00  0.00     0.008 A 
HETATM   13  C13 UNL     1       2.163  18.053  -5.017  1.00  0.00    -0.055 A 
HETATM   14  C14 UNL     1       2.076  18.075  -6.518  1.00  0.00     0.049 C 
HETATM   15  C15 UNL     1       1.807  19.145  -4.235  1.00  0.00    -0.045 A 
HETATM   16  C16 UNL     1       1.870  19.162  -2.866  1.00  0.00    -0.040 A 
HETATM   17  C19 UNL     1       1.290  20.484  -4.671  1.00  0.00     0.040 C 
HETATM   18  C17 UNL     1       1.416  20.494  -2.350  1.00  0.00     0.040 C 
HETATM   19  C18 UNL     1       1.788  21.378  -3.561  1.00  0.00     0.009 C 
ENDBRANCH   4  10
ENDBRANCH   3   4
BRANCH   2  20
HETATM   20  C20 UNL     1       4.641  20.080   1.384  1.00  0.00     0.044 C 
BRANCH  20  21
HETATM   21  C21 UNL     1       5.037  21.139   1.753  1.00  0.00     0.082 C 
BRANCH  21  22
HETATM   22  C22 UNL     1       5.029  22.553   1.556  1.00  0.00     0.151 C 
HETATM   23  N1  UNL     1       6.082  23.422   1.281  1.00  0.00    -0.075 NA
BRANCH  22  24
HETATM   24  O1  UNL     1       3.870  23.184   1.636  1.00  0.00    -0.348 OA
ATOM     25  H1  UNL     1       3.447  23.231   2.486  1.00  0.00     0.219 HD
ENDBRANCH  22  24
ENDBRANCH  21  22
ENDBRANCH  20  21
BRANCH  20  26
HETATM   26  N2  UNL     1       3.395  20.173   2.635  1.00  0.00    -0.330 N 
HETATM   27  C23 UNL     1       3.967  19.825   3.797  1.00  0.00     0.186 C 
HETATM   28  N3  UNL     1       3.136  19.772   5.001  1.00  0.00    -0.064 NA
HETATM   29  N4  UNL     1       5.206  19.482   4.005  1.00  0.00    -0.373 N 
ATOM     30  H42 UNL     1       5.786  19.519   3.166  1.00  0.00     0.158 HD
ATOM     31  H41 UNL     1       5.641  19.218   4.889  1.00  0.00     0.158 HD
ATOM     32  H2  UNL     1       2.421  20.443   2.498  1.00  0.00     0.168 HD
ENDBRANCH  20  26
ENDBRANCH   2  20
TORSDOF 7
ENDMDL
MODEL 4
REMARK VINA RESULT: -0.274692739      3.937      7.515
REMARK  7 active torsions:
REMARK  status: ('A' for Active; 'I' for Inactive)
REMARK    1  A    between atoms: C2_2  and  C20_20 
REMARK    2  A    between atoms: C3_3  and  C4_4 
REMARK    3  A    between atoms: C4_4  and  C10_10 
REMARK    4  A    between atoms: C20_20  and  C21_21 
REMARK    5  A    between atoms: C20_20  and  N2_26 
REMARK    6  A    between atoms: C21_21  and  C22_22 
REMARK    7  A    between atoms: C22_22  and  O1_24 
REMARK       I    between atoms: N2_26  and  C23_28 
ROOT
HETATM    1  C1  UNL     1       5.142  18.928   0.876  1.00  0.00     0.050 C 
HETATM    2  C2  UNL     1       4.048  19.358   1.702  1.00  0.00    -0.034 C 
HETATM    3  C3  UNL     1       2.768  19.198   1.319  1.00  0.00     0.022 C 
ENDROOT
BRANCH   3   4
HETATM    4  C4  UNL     1       2.106  18.677   0.203  1.00  0.00    -0.018 C 
HETATM    5  C5  UNL     1       1.352  17.553   0.401  1.00  0.00    -0.047 C 
HETATM    6  C6  UNL     1       0.579  16.832  -0.592  1.00  0.00     0.004 C 
HETATM    7  C9  UNL     1       1.157  16.821   1.652  1.00  0.00     0.043 C 
HETATM    8  C7  UNL     1       0.317  15.613  -0.166  1.00  0.00    -0.026 C 
HETATM    9  C8  UNL     1       0.894  15.387   1.169  1.00  0.00     0.032 C 
BRANCH   4  10
HETATM   10  C10 UNL     1       1.969  19.273  -1.103  1.00  0.00    -0.018 A 
HETATM   11  C11 UNL     1       1.453  20.490  -1.364  1.00  0.00     0.013 A 
HETATM   12  C12 UNL     1       1.310  21.040  -2.648  1.00  0.00     0.008 A 
HETATM   13  C13 UNL     1       1.739  20.252  -3.710  1.00  0.00    -0.055 A 
HETATM   14  C14 UNL     1       1.612  20.794  -5.107  1.00  0.00     0.049 C 
HETATM   15  C15 UNL     1       2.272  18.996  -3.444  1.00  0.00    -0.045 A 
HETATM   16  C16 UNL     1       2.405  18.470  -2.186  1.00  0.00    -0.040 A 
HETATM   17  C19 UNL     1       2.805  17.979  -4.409  1.00  0.00     0.040 C 
HETATM   18  C17 UNL     1       3.012  17.101  -2.267  1.00  0.00     0.040 C 
HETATM   19  C18 UNL     1       2.529  16.689  -3.675  1.00  0.00     0.009 C 
ENDBRANCH   4  10
ENDBRANCH   3   4
BRANCH   2  20
HETATM   20  C20 UNL     1       4.139  20.045   3.011  1.00  0.00     0.044 C 
BRANCH  20  21
HETATM   21  C21 UNL     1       4.234  20.612   4.052  1.00  0.00     0.082 C 
BRANCH  21  22
HETATM   22  C22 UNL     1       3.874  20.643   5.434  1.00  0.00     0.151 C 
HETATM   23  N1  UNL     1       3.916  19.632   6.390  1.00  0.00    -0.075 NA
BRANCH  22  24
HETATM   24  O1  UNL     1       3.426  21.783   5.932  1.00  0.00    -0.348 OA
ATOM     25  H1  UNL     1       3.669  22.006   6.823  1.00  0.00     0.219 HD
ENDBRANCH  22  24
ENDBRANCH  21  22
ENDBRANCH  20  21
BRANCH  20  26
HETATM   26  N2  UNL     1       5.287  21.209   2.337  1.00  0.00    -0.330 N 
HETATM   27  C23 UNL     1       4.589  22.074   1.588  1.00  0.00     0.186 C 
HETATM   28  N3  UNL     1       5.312  23.125   0.871  1.00  0.00    -0.064 NA
HETATM   29  N4  UNL     1       3.303  22.090   1.378  1.00  0.00    -0.373 N 
ATOM     30  H42 UNL     1       2.799  21.358   1.879  1.00  0.00     0.158 HD
ATOM     31  H41 UNL     1       2.772  22.749   0.809  1.00  0.00     0.158 HD
ATOM     32  H2  UNL     1       6.296  21.220   2.491  1.00  0.00     0.168 HD
ENDBRANCH  20  26
ENDBRANCH   2  20
TORSDOF 7
ENDMDL
MODEL 5
REMARK VINA RESULT: -0.205319025      0.886      1.065
REMARK  7 active torsions:
REMARK  status: ('A' for Active; 'I' for Inactive)
REMARK    1  A    between atoms: C2_2  and  C20_20 
REMARK    2  A    between atoms: C3_3  and  C4_4 
REMARK    3  A    between atoms: C4_4  and  C10_10 
REMARK    4  A    between atoms: C20_20  and  C21_21 
REMARK    5  A    between atoms: C20_20  and  N2_26 
REMARK    6  A    between atoms: C21_21  and  C22_22 
REMARK    7  A    between atoms: C22_22  and  O1_24 
REMARK       I    between atoms: N2_26  and  C23_28 
ROOT
HETATM    1  C1  UNL     1       2.397  16.560  -0.887  1.00  0.00     0.050 C 
HETATM    2  C2  UNL     1       2.831  17.699  -1.648  1.00  0.00    -0.034 C 
HETATM    3  C3  UNL     1       3.144  18.866  -1.056  1.00  0.00     0.022 C 
ENDROOT
BRANCH   3   4
HETATM    4  C4  UNL     1       3.164  19.361   0.251  1.00  0.00    -0.018 C 
HETATM    5  C5  UNL     1       3.337  20.710   0.397  1.00  0.00    -0.047 C 
HETATM    6  C6  UNL     1       3.393  21.456   1.640  1.00  0.00     0.004 C 
HETATM    7  C9  UNL     1       3.510  21.705  -0.661  1.00  0.00     0.043 C 
HETATM    8  C7  UNL     1       3.957  22.630   1.441  1.00  0.00    -0.026 C 
HETATM    9  C8  UNL     1       4.344  22.794   0.030  1.00  0.00     0.032 C 
BRANCH   4  10
HETATM   10  C10 UNL     1       2.847  18.658   1.470  1.00  0.00    -0.018 A 
HETATM   11  C11 UNL     1       1.817  17.807   1.643  1.00  0.00     0.013 A 
HETATM   12  C12 UNL     1       1.516  17.151   2.847  1.00  0.00     0.008 A 
HETATM   13  C13 UNL     1       2.355  17.415   3.924  1.00  0.00    -0.055 A 
HETATM   14  C14 UNL     1       2.081  16.736   5.237  1.00  0.00     0.049 C 
HETATM   15  C15 UNL     1       3.418  18.293   3.747  1.00  0.00    -0.045 A 
HETATM   16  C16 UNL     1       3.702  18.929   2.567  1.00  0.00    -0.040 A 
HETATM   17  C19 UNL     1       4.455  18.724   4.742  1.00  0.00     0.040 C 
HETATM   18  C17 UNL     1       4.910  19.800   2.734  1.00  0.00     0.040 C 
HETATM   19  C18 UNL     1       4.800  20.106   4.244  1.00  0.00     0.009 C 
ENDBRANCH   4  10
ENDBRANCH   3   4
BRANCH   2  20
HETATM   20  C20 UNL     1       2.956  17.788  -3.121  1.00  0.00     0.044 C 
BRANCH  20  21
HETATM   21  C21 UNL     1       3.031  17.847  -4.307  1.00  0.00     0.082 C 
BRANCH  21  22
HETATM   22  C22 UNL     1       3.031  17.131  -5.542  1.00  0.00     0.151 C 
HETATM   23  N1  UNL     1       2.044  17.036  -6.518  1.00  0.00    -0.075 NA
BRANCH  22  24
HETATM   24  O1  UNL     1       4.109  16.433  -5.854  1.00  0.00    -0.348 OA
ATOM     25  H1  UNL     1       3.996  15.518  -6.085  1.00  0.00     0.219 HD
ENDBRANCH  22  24
ENDBRANCH  21  22
ENDBRANCH  20  21
BRANCH  20  26
HETATM   26  N2  UNL     1       1.262  17.318  -3.309  1.00  0.00    -0.330 N 
HETATM   27  C23 UNL     1       0.515  18.409  -3.082  1.00  0.00     0.186 C 
HETATM   28  N3  UNL     1      -0.942  18.284  -3.128  1.00  0.00    -0.064 NA
HETATM   29  N4  UNL     1       0.926  19.608  -2.783  1.00  0.00    -0.373 N 
ATOM     30  H42 UNL     1       1.942  19.695  -2.751  1.00  0.00     0.158 HD
ATOM     31  H41 UNL     1       0.358  20.438  -2.610  1.00  0.00     0.158 HD
ATOM     32  H2  UNL     1       0.916  16.388  -3.547  1.00  0.00     0.168 HD
ENDBRANCH  20  26
ENDBRANCH   2  20
TORSDOF 7
ENDMDL
