MODEL 1
REMARK VINA RESULT: -8.370345254      0.000      0.000
REMARK  4 active torsions:
REMARK  status: ('A' for Active; 'I' for Inactive)
REMARK    1  A    between atoms: N1_1  and  C1_5 
REMARK    2  A    between atoms: C3_7  and  C4_8 
REMARK       I    between atoms: C4_8  and  N2_10 
REMARK    3  A    between atoms: N2_10  and  C5_12 
REMARK    4  A    between atoms: C10_24  and  O3_25 
ROOT
HETATM    1  C1  UNL     1       4.082  20.363   2.369  1.00  0.00     0.272 C 
HETATM    2  C2  UNL     1       3.230  19.257   1.846  1.00  0.00     0.020 A 
HETATM    3  C3  UNL     1       2.631  18.576   0.913  1.00  0.00     0.056 A 
HETATM    4  C8  UNL     1       1.943  17.443   1.508  1.00  0.00     0.103 A 
HETATM    5  N5  UNL     1       2.128  17.466   2.771  1.00  0.00    -0.369 N 
ATOM      6  H5  UNL     1       1.756  16.770   3.416  1.00  0.00     0.161 HD
HETATM    7  C9  UNL     1       2.898  18.555   3.158  1.00  0.00     0.257 A 
HETATM    8  O2  UNL     1       4.172  18.425   3.641  1.00  0.00    -0.331 OA
HETATM    9  C10 UNL     1       4.574  19.782   3.674  1.00  0.00     0.294 C 
ENDROOT
BRANCH   3  10
HETATM   10  C4  UNL     1       2.707  18.938  -0.510  1.00  0.00     0.258 C 
HETATM   11  O1  UNL     1       3.483  19.834  -0.916  1.00  0.00    -0.267 OA
HETATM   12  N2  UNL     1       1.897  18.274  -1.455  1.00  0.00    -0.320 N 
ATOM     13  H2  UNL     1       1.268  17.546  -1.116  1.00  0.00     0.169 HD
BRANCH  12  14
HETATM   14  C5  UNL     1       1.900  18.550  -2.840  1.00  0.00     0.069 A 
HETATM   15  C6  UNL     1       2.341  17.640  -3.807  1.00  0.00     0.138 A 
HETATM   16  N3  UNL     1       2.217  18.199  -5.010  1.00  0.00    -0.310 N 
HETATM   17  N4  UNL     1       1.724  19.412  -4.888  1.00  0.00    -0.310 N 
ATOM     18  H3  UNL     1       2.466  17.753  -5.893  1.00  0.00     0.186 HD
HETATM   19  C7  UNL     1       1.525  19.644  -3.572  1.00  0.00     0.138 A 
ATOM     20  H4  UNL     1       1.527  20.061  -5.649  1.00  0.00     0.186 HD
ENDBRANCH  12  14
ENDBRANCH   3  10
BRANCH   1  21
HETATM   21  N1  UNL     1       5.270  20.582   1.559  1.00  0.00    -0.066 N 
ATOM     22  H13 UNL     1       5.245  20.015   0.711  1.00  0.00     0.275 HD
ATOM     23  H12 UNL     1       5.260  21.510   1.136  1.00  0.00     0.275 HD
ATOM     24  H11 UNL     1       6.133  20.425   2.079  1.00  0.00     0.275 HD
ENDBRANCH   1  21
BRANCH   9  25
HETATM   25  O3  UNL     1       3.946  20.434   4.742  1.00  0.00    -0.369 OA
ATOM     26  H3  UNL     1       4.600  20.712   5.372  1.00  0.00     0.212 HD
ENDBRANCH   9  25
TORSDOF 4
ENDMDL
MODEL 2
REMARK VINA RESULT: -8.109314382      3.093      7.202
REMARK  4 active torsions:
REMARK  status: ('A' for Active; 'I' for Inactive)
REMARK    1  A    between atoms: N1_1  and  C1_5 
REMARK    2  A    between atoms: C3_7  and  C4_8 
REMARK       I    between atoms: C4_8  and  N2_10 
REMARK    3  A    between atoms: N2_10  and  C5_12 
REMARK    4  A    between atoms: C10_24  and  O3_25 
ROOT
HETATM    1  C1  UNL     1       4.085  20.586   1.064  1.00  0.00     0.272 C 
HETATM    2  C2  UNL     1       3.543  19.512   1.946  1.00  0.00     0.020 A 
HETATM    3  C3  UNL     1       3.337  18.922   3.088  1.00  0.00     0.056 A 
HETATM    4  C8  UNL     1       2.526  17.735   2.877  1.00  0.00     0.103 A 
HETATM    5  N5  UNL     1       2.271  17.626   1.630  1.00  0.00    -0.369 N 
ATOM      6  H5  UNL     1       1.709  16.879   1.225  1.00  0.00     0.161 HD
HETATM    7  C9  UNL     1       2.854  18.649   0.895  1.00  0.00     0.257 A 
HETATM    8  O2  UNL     1       2.121  19.630   0.283  1.00  0.00    -0.331 OA
HETATM    9  C10 UNL     1       3.154  20.508  -0.124  1.00  0.00     0.294 C 
ENDROOT
BRANCH   3  10
HETATM   10  C4  UNL     1       3.849  19.450   4.360  1.00  0.00     0.258 C 
HETATM   11  O1  UNL     1       5.049  19.309   4.691  1.00  0.00    -0.267 OA
HETATM   12  N2  UNL     1       2.987  20.134   5.242  1.00  0.00    -0.320 N 
ATOM     13  H2  UNL     1       2.011  20.245   4.965  1.00  0.00     0.169 HD
BRANCH  12  14
HETATM   14  C5  UNL     1       3.384  20.677   6.484  1.00  0.00     0.069 A 
HETATM   15  C6  UNL     1       3.275  22.034   6.802  1.00  0.00     0.138 A 
HETATM   16  N3  UNL     1       3.733  22.223   8.040  1.00  0.00    -0.310 N 
HETATM   17  N4  UNL     1       4.132  21.076   8.545  1.00  0.00    -0.310 N 
ATOM     18  H3  UNL     1       3.768  23.120   8.522  1.00  0.00     0.186 HD
HETATM   19  C7  UNL     1       3.928  20.122   7.611  1.00  0.00     0.138 A 
ATOM     20  H4  UNL     1       4.524  20.933   9.475  1.00  0.00     0.186 HD
ENDBRANCH  12  14
ENDBRANCH   3  10
BRANCH   1  21
HETATM   21  N1  UNL     1       3.902  21.914   1.626  1.00  0.00    -0.066 N 
ATOM     22  H13 UNL     1       3.073  21.950   2.219  1.00  0.00     0.275 HD
ATOM     23  H12 UNL     1       4.614  22.117   2.328  1.00  0.00     0.275 HD
ATOM     24  H11 UNL     1       3.874  22.641   0.912  1.00  0.00     0.275 HD
ENDBRANCH   1  21
BRANCH   9  25
HETATM   25  O3  UNL     1       3.837  19.959  -1.216  1.00  0.00    -0.369 OA
ATOM     26  H3  UNL     1       3.860  20.591  -1.925  1.00  0.00     0.212 HD
ENDBRANCH   9  25
TORSDOF 4
ENDMDL
MODEL 3
REMARK VINA RESULT: -7.975778632      1.322      2.450
REMARK  4 active torsions:
REMARK  status: ('A' for Active; 'I' for Inactive)
REMARK    1  A    between atoms: N1_1  and  C1_5 
REMARK    2  A    between atoms: C3_7  and  C4_8 
REMARK       I    between atoms: C4_8  and  N2_10 
REMARK    3  A    between atoms: N2_10  and  C5_12 
REMARK    4  A    between atoms: C10_24  and  O3_25 
ROOT
HETATM    1  C1  UNL     1       3.765  17.982   3.136  1.00  0.00     0.272 C 
HETATM    2  C2  UNL     1       3.795  19.039   2.085  1.00  0.00     0.020 A 
HETATM    3  C3  UNL     1       3.577  19.521   0.895  1.00  0.00     0.056 A 
HETATM    4  C8  UNL     1       4.008  20.908   0.850  1.00  0.00     0.103 A 
HETATM    5  N5  UNL     1       4.480  21.230   1.992  1.00  0.00    -0.369 N 
ATOM      6  H5  UNL     1       4.840  22.156   2.221  1.00  0.00     0.161 HD
HETATM    7  C9  UNL     1       4.444  20.166   2.883  1.00  0.00     0.257 A 
HETATM    8  O2  UNL     1       3.614  20.141   3.970  1.00  0.00    -0.331 OA
HETATM    9  C10 UNL     1       3.795  18.805   4.403  1.00  0.00     0.294 C 
ENDROOT
BRANCH   3  10
HETATM   10  C4  UNL     1       2.957  18.733  -0.180  1.00  0.00     0.258 C 
HETATM   11  O1  UNL     1       2.609  17.544  -0.002  1.00  0.00    -0.267 OA
HETATM   12  N2  UNL     1       2.740  19.312  -1.448  1.00  0.00    -0.320 N 
ATOM     13  H2  UNL     1       3.027  20.282  -1.585  1.00  0.00     0.169 HD
BRANCH  12  14
HETATM   14  C5  UNL     1       2.153  18.638  -2.541  1.00  0.00     0.069 A 
HETATM   15  C6  UNL     1       0.785  18.685  -2.830  1.00  0.00     0.138 A 
HETATM   16  N3  UNL     1       0.551  17.950  -3.917  1.00  0.00    -0.310 N 
HETATM   17  N4  UNL     1       1.678  17.430  -4.352  1.00  0.00    -0.310 N 
ATOM     18  H3  UNL     1      -0.363  17.811  -4.346  1.00  0.00     0.186 HD
HETATM   19  C7  UNL     1       2.666  17.838  -3.526  1.00  0.00     0.138 A 
ATOM     20  H4  UNL     1       1.787  16.827  -5.167  1.00  0.00     0.186 HD
ENDBRANCH  12  14
ENDBRANCH   3  10
BRANCH   1  21
HETATM   21  N1  UNL     1       2.503  17.259   3.162  1.00  0.00    -0.066 N 
ATOM     22  H13 UNL     1       1.714  17.895   3.051  1.00  0.00     0.275 HD
ATOM     23  H12 UNL     1       2.384  16.699   2.318  1.00  0.00     0.275 HD
ATOM     24  H11 UNL     1       2.398  16.687   4.000  1.00  0.00     0.275 HD
ENDBRANCH   1  21
BRANCH   9  25
HETATM   25  O3  UNL     1       5.048  18.673   5.014  1.00  0.00    -0.369 OA
ATOM     26  H3  UNL     1       5.395  17.806   4.839  1.00  0.00     0.212 HD
ENDBRANCH   9  25
TORSDOF 4
ENDMDL
MODEL 4
REMARK VINA RESULT: -7.536520524      2.707      7.208
REMARK  4 active torsions:
REMARK  status: ('A' for Active; 'I' for Inactive)
REMARK    1  A    between atoms: N1_1  and  C1_5 
REMARK    2  A    between atoms: C3_7  and  C4_8 
REMARK       I    between atoms: C4_8  and  N2_10 
REMARK    3  A    between atoms: N2_10  and  C5_12 
REMARK    4  A    between atoms: C10_24  and  O3_25 
ROOT
HETATM    1  C1  UNL     1       2.380  19.153   0.240  1.00  0.00     0.272 C 
HETATM    2  C2  UNL     1       3.257  20.211   0.818  1.00  0.00     0.020 A 
HETATM    3  C3  UNL     1       3.947  20.779   1.764  1.00  0.00     0.056 A 
HETATM    4  C8  UNL     1       4.585  21.976   1.245  1.00  0.00     0.103 A 
HETATM    5  N5  UNL     1       4.265  22.113   0.016  1.00  0.00    -0.369 N 
ATOM      6  H5  UNL     1       4.594  22.873  -0.579  1.00  0.00     0.161 HD
HETATM    7  C9  UNL     1       3.416  21.101  -0.411  1.00  0.00     0.257 A 
HETATM    8  O2  UNL     1       3.802  20.139  -1.303  1.00  0.00    -0.331 OA
HETATM    9  C10 UNL     1       2.693  19.262  -1.234  1.00  0.00     0.294 C 
ENDROOT
BRANCH   3  10
HETATM   10  C4  UNL     1       4.045  20.221   3.121  1.00  0.00     0.258 C 
HETATM   11  O1  UNL     1       4.393  19.034   3.315  1.00  0.00    -0.267 OA
HETATM   12  N2  UNL     1       3.746  21.025   4.241  1.00  0.00    -0.320 N 
ATOM     13  H2  UNL     1       3.464  21.990   4.074  1.00  0.00     0.169 HD
BRANCH  12  14
HETATM   14  C5  UNL     1       3.812  20.580   5.580  1.00  0.00     0.069 A 
HETATM   15  C6  UNL     1       3.705  21.434   6.682  1.00  0.00     0.138 A 
HETATM   16  N3  UNL     1       3.806  20.711   7.797  1.00  0.00    -0.310 N 
HETATM   17  N4  UNL     1       3.973  19.444   7.490  1.00  0.00    -0.310 N 
ATOM     18  H3  UNL     1       3.762  21.085   8.745  1.00  0.00     0.186 HD
HETATM   19  C7  UNL     1       3.979  19.344   6.143  1.00  0.00     0.138 A 
ATOM     20  H4  UNL     1       4.077  18.674   8.151  1.00  0.00     0.186 HD
ENDBRANCH  12  14
ENDBRANCH   3  10
BRANCH   1  21
HETATM   21  N1  UNL     1       2.789  17.814   0.636  1.00  0.00    -0.066 N 
ATOM     22  H13 UNL     1       2.644  17.148  -0.123  1.00  0.00     0.275 HD
ATOM     23  H12 UNL     1       3.803  17.750   0.719  1.00  0.00     0.275 HD
ATOM     24  H11 UNL     1       2.330  17.502   1.491  1.00  0.00     0.275 HD
ENDBRANCH   1  21
BRANCH   9  25
HETATM   25  O3  UNL     1       1.601  19.829  -1.902  1.00  0.00    -0.369 OA
ATOM     26  H3  UNL     1       1.738  20.764  -1.995  1.00  0.00     0.212 HD
ENDBRANCH   9  25
TORSDOF 4
ENDMDL
MODEL 5
REMARK VINA RESULT: -7.445507505      0.969      1.281
REMARK  4 active torsions:
REMARK  status: ('A' for Active; 'I' for Inactive)
REMARK    1  A    between atoms: N1_1  and  C1_5 
REMARK    2  A    between atoms: C3_7  and  C4_8 
REMARK       I    between atoms: C4_8  and  N2_10 
REMARK    3  A    between atoms: N2_10  and  C5_12 
REMARK    4  A    between atoms: C10_24  and  O3_25 
ROOT
HETATM    1  C1  UNL     1       3.960  20.088   1.695  1.00  0.00     0.272 C 
HETATM    2  C2  UNL     1       3.051  18.908   1.620  1.00  0.00     0.020 A 
HETATM    3  C3  UNL     1       2.370  17.986   1.002  1.00  0.00     0.056 A 
HETATM    4  C8  UNL     1       1.712  17.136   1.979  1.00  0.00     0.103 A 
HETATM    5  N5  UNL     1       1.994  17.561   3.151  1.00  0.00    -0.369 N 
ATOM      6  H5  UNL     1       1.660  17.127   4.011  1.00  0.00     0.161 HD
HETATM    7  C9  UNL     1       2.810  18.683   3.109  1.00  0.00     0.257 A 
HETATM    8  O2  UNL     1       4.114  18.665   3.520  1.00  0.00    -0.331 OA
HETATM    9  C10 UNL     1       4.541  19.941   3.082  1.00  0.00     0.294 C 
ENDROOT
BRANCH   3  10
HETATM   10  C4  UNL     1       2.344  17.864  -0.463  1.00  0.00     0.258 C 
HETATM   11  O1  UNL     1       2.636  16.789  -1.034  1.00  0.00    -0.267 OA
HETATM   12  N2  UNL     1       1.983  18.971  -1.259  1.00  0.00    -0.320 N 
ATOM     13  H2  UNL     1       1.746  19.843  -0.785  1.00  0.00     0.169 HD
BRANCH  12  14
HETATM   14  C5  UNL     1       1.927  18.952  -2.670  1.00  0.00     0.069 A 
HETATM   15  C6  UNL     1       1.686  20.089  -3.447  1.00  0.00     0.138 A 
HETATM   16  N3  UNL     1       1.696  19.740  -4.733  1.00  0.00    -0.310 N 
HETATM   17  N4  UNL     1       1.929  18.451  -4.841  1.00  0.00    -0.310 N 
ATOM     18  H3  UNL     1       1.546  20.377  -5.516  1.00  0.00     0.186 HD
HETATM   19  C7  UNL     1       2.072  17.952  -3.594  1.00  0.00     0.138 A 
ATOM     20  H4  UNL     1       1.991  17.921  -5.711  1.00  0.00     0.186 HD
ENDBRANCH  12  14
ENDBRANCH   3  10
BRANCH   1  21
HETATM   21  N1  UNL     1       5.086  19.983   0.780  1.00  0.00    -0.066 N 
ATOM     22  H13 UNL     1       5.785  20.698   0.975  1.00  0.00     0.275 HD
ATOM     23  H12 UNL     1       5.642  19.151   0.976  1.00  0.00     0.275 HD
ATOM     24  H11 UNL     1       4.797  20.009  -0.198  1.00  0.00     0.275 HD
ENDBRANCH   1  21
BRANCH   9  25
HETATM   25  O3  UNL     1       4.008  20.930   3.918  1.00  0.00    -0.369 OA
ATOM     26  H3  UNL     1       4.713  21.458   4.274  1.00  0.00     0.212 HD
ENDBRANCH   9  25
TORSDOF 4
ENDMDL
