MODEL 1
REMARK VINA RESULT: -6.147505612      0.000      0.000
REMARK  0 active torsions:
REMARK  status: ('A' for Active; 'I' for Inactive)
ROOT
HETATM    1  N1  UNL     1      15.583  -6.478  -2.315  1.00  0.00    -0.080 NA
HETATM    2  C1  UNL     1      16.654  -6.739  -1.439  1.00  0.00     0.144 A 
HETATM    3  N2  UNL     1      16.493  -7.182  -0.178  1.00  0.00    -0.287 N 
ATOM      4  H2  UNL     1      15.546  -7.339   0.168  1.00  0.00     0.188 HD
HETATM    5  N3  UNL     1      17.515  -7.422   0.633  1.00  0.00    -0.308 N 
ATOM      6  H3  UNL     1      17.318  -7.757   1.575  1.00  0.00     0.186 HD
HETATM    7  C2  UNL     1      18.798  -7.244   0.273  1.00  0.00     0.139 A 
HETATM    8  C3  UNL     1      19.042  -6.789  -1.009  1.00  0.00     0.080 A 
HETATM    9  N4  UNL     1      20.183  -6.511  -1.673  1.00  0.00    -0.299 N 
ATOM     10  H4  UNL     1      21.131  -6.599  -1.307  1.00  0.00     0.187 HD
HETATM   11  N5  UNL     1      19.846  -6.106  -2.884  1.00  0.00    -0.310 N 
ATOM     12  H5  UNL     1      20.508  -5.828  -3.608  1.00  0.00     0.186 HD
HETATM   13  C4  UNL     1      18.508  -6.110  -3.029  1.00  0.00     0.124 A 
HETATM   14  C5  UNL     1      17.964  -6.542  -1.850  1.00  0.00     0.053 A 
ENDROOT
TORSDOF 0
ENDMDL
MODEL 2
REMARK VINA RESULT: -5.999892817      1.290      2.635
REMARK  0 active torsions:
REMARK  status: ('A' for Active; 'I' for Inactive)
ROOT
HETATM    1  N1  UNL     1      15.983  -7.450  -1.027  1.00  0.00    -0.080 NA
HETATM    2  C1  UNL     1      17.079  -7.055  -1.819  1.00  0.00     0.144 A 
HETATM    3  N2  UNL     1      17.071  -7.079  -3.165  1.00  0.00    -0.287 N 
ATOM      4  H2  UNL     1      16.230  -7.401  -3.644  1.00  0.00     0.188 HD
HETATM    5  N3  UNL     1      18.113  -6.702  -3.893  1.00  0.00    -0.308 N 
ATOM      6  H3  UNL     1      18.036  -6.746  -4.909  1.00  0.00     0.186 HD
HETATM    7  C2  UNL     1      19.267  -6.265  -3.358  1.00  0.00     0.139 A 
HETATM    8  C3  UNL     1      19.350  -6.214  -1.980  1.00  0.00     0.080 A 
HETATM    9  N4  UNL     1      20.337  -5.834  -1.142  1.00  0.00    -0.299 N 
ATOM     10  H4  UNL     1      21.260  -5.496  -1.412  1.00  0.00     0.187 HD
HETATM   11  N5  UNL     1      19.887  -5.982   0.090  1.00  0.00    -0.310 N 
ATOM     12  H5  UNL     1      20.420  -5.769   0.933  1.00  0.00     0.186 HD
HETATM   13  C4  UNL     1      18.625  -6.451   0.080  1.00  0.00     0.124 A 
HETATM   14  C5  UNL     1      18.252  -6.610  -1.226  1.00  0.00     0.053 A 
ENDROOT
TORSDOF 0
ENDMDL
MODEL 3
REMARK VINA RESULT: -5.950638091      1.144      2.827
REMARK  0 active torsions:
REMARK  status: ('A' for Active; 'I' for Inactive)
ROOT
HETATM    1  N1  UNL     1      15.823  -6.403  -2.368  1.00  0.00    -0.080 NA
HETATM    2  C1  UNL     1      17.198  -6.362  -2.068  1.00  0.00     0.144 A 
HETATM    3  N2  UNL     1      18.131  -5.894  -2.917  1.00  0.00    -0.287 N 
ATOM      4  H2  UNL     1      17.833  -5.548  -3.830  1.00  0.00     0.188 HD
HETATM    5  N3  UNL     1      19.423  -5.863  -2.616  1.00  0.00    -0.308 N 
ATOM      6  H3  UNL     1      20.073  -5.494  -3.309  1.00  0.00     0.186 HD
HETATM    7  C2  UNL     1      19.916  -6.297  -1.443  1.00  0.00     0.139 A 
HETATM    8  C3  UNL     1      19.016  -6.793  -0.519  1.00  0.00     0.080 A 
HETATM    9  N4  UNL     1      19.173  -7.296   0.723  1.00  0.00    -0.299 N 
ATOM     10  H4  UNL     1      20.055  -7.401   1.225  1.00  0.00     0.187 HD
HETATM   11  N5  UNL     1      17.975  -7.627   1.169  1.00  0.00    -0.310 N 
ATOM     12  H5  UNL     1      17.788  -8.033   2.086  1.00  0.00     0.186 HD
HETATM   13  C4  UNL     1      17.034  -7.353   0.246  1.00  0.00     0.124 A 
HETATM   14  C5  UNL     1      17.665  -6.820  -0.844  1.00  0.00     0.053 A 
ENDROOT
TORSDOF 0
ENDMDL
MODEL 4
REMARK VINA RESULT: -5.950009334      1.864      2.353
REMARK  0 active torsions:
REMARK  status: ('A' for Active; 'I' for Inactive)
ROOT
HETATM    1  N1  UNL     1      17.590  -5.833  -1.348  1.00  0.00    -0.080 NA
HETATM    2  C1  UNL     1      18.074  -6.601  -0.271  1.00  0.00     0.144 A 
HETATM    3  N2  UNL     1      17.276  -7.250   0.597  1.00  0.00    -0.287 N 
ATOM      4  H2  UNL     1      16.265  -7.187   0.474  1.00  0.00     0.188 HD
HETATM    5  N3  UNL     1      17.751  -7.968   1.606  1.00  0.00    -0.308 N 
ATOM      6  H3  UNL     1      17.087  -8.435   2.224  1.00  0.00     0.186 HD
HETATM    7  C2  UNL     1      19.065  -8.112   1.854  1.00  0.00     0.139 A 
HETATM    8  C3  UNL     1      19.946  -7.472   1.004  1.00  0.00     0.080 A 
HETATM    9  N4  UNL     1      21.294  -7.410   0.970  1.00  0.00    -0.299 N 
ATOM     10  H4  UNL     1      21.935  -7.863   1.621  1.00  0.00     0.187 HD
HETATM   11  N5  UNL     1      21.628  -6.655  -0.060  1.00  0.00    -0.310 N 
ATOM     12  H5  UNL     1      22.586  -6.434  -0.331  1.00  0.00     0.186 HD
HETATM   13  C4  UNL     1      20.529  -6.219  -0.704  1.00  0.00     0.124 A 
HETATM   14  C5  UNL     1      19.438  -6.722  -0.050  1.00  0.00     0.053 A 
ENDROOT
TORSDOF 0
ENDMDL
MODEL 5
REMARK VINA RESULT: -5.945306538      1.773      3.304
REMARK  0 active torsions:
REMARK  status: ('A' for Active; 'I' for Inactive)
ROOT
HETATM    1  N1  UNL     1      18.241  -8.608   2.323  1.00  0.00    -0.080 NA
HETATM    2  C1  UNL     1      18.424  -7.778   1.200  1.00  0.00     0.144 A 
HETATM    3  N2  UNL     1      17.410  -7.310   0.448  1.00  0.00    -0.287 N 
ATOM      4  H2  UNL     1      16.455  -7.566   0.700  1.00  0.00     0.188 HD
HETATM    5  N3  UNL     1      17.602  -6.530  -0.607  1.00  0.00    -0.308 N 
ATOM      6  H3  UNL     1      16.786  -6.211  -1.130  1.00  0.00     0.186 HD
HETATM    7  C2  UNL     1      18.820  -6.139  -1.022  1.00  0.00     0.139 A 
HETATM    8  C3  UNL     1      19.911  -6.582  -0.300  1.00  0.00     0.080 A 
HETATM    9  N4  UNL     1      21.238  -6.381  -0.441  1.00  0.00    -0.299 N 
ATOM     10  H4  UNL     1      21.690  -5.823  -1.165  1.00  0.00     0.187 HD
HETATM   11  N5  UNL     1      21.842  -7.039   0.531  1.00  0.00    -0.310 N 
ATOM     12  H5  UNL     1      22.852  -7.067   0.673  1.00  0.00     0.186 HD
HETATM   13  C4  UNL     1      20.942  -7.670   1.308  1.00  0.00     0.124 A 
HETATM   14  C5  UNL     1      19.698  -7.398   0.805  1.00  0.00     0.053 A 
ENDROOT
TORSDOF 0
ENDMDL
