MODEL 1
REMARK VINA RESULT: -6.127806932      0.000      0.000
REMARK  0 active torsions:
REMARK  status: ('A' for Active; 'I' for Inactive)
ROOT
HETATM    1  N1  UNL     1      15.746  -6.374  -2.354  1.00  0.00    -0.063 NA
HETATM    2  C1  UNL     1      16.988  -6.585  -1.696  1.00  0.00     0.195 A 
HETATM    3  N2  UNL     1      17.190  -6.995  -0.421  1.00  0.00    -0.313 N 
ATOM      4  H2  UNL     1      16.442  -7.208   0.238  1.00  0.00     0.170 HD
HETATM    5  C2  UNL     1      18.494  -7.085  -0.135  1.00  0.00     0.152 A 
HETATM    6  N3  UNL     1      19.255  -7.426   0.926  1.00  0.00    -0.348 N 
ATOM      7  H3  UNL     1      18.804  -7.706   1.797  1.00  0.00     0.167 HD
HETATM    8  C3  UNL     1      20.610  -7.402   0.854  1.00  0.00     0.107 A 
HETATM    9  C4  UNL     1      21.274  -7.033  -0.288  1.00  0.00     0.107 A 
HETATM   10  N4  UNL     1      20.535  -6.690  -1.357  1.00  0.00    -0.348 N 
ATOM     11  H4  UNL     1      21.014  -6.413  -2.213  1.00  0.00     0.167 HD
HETATM   12  C5  UNL     1      19.187  -6.695  -1.346  1.00  0.00     0.152 A 
HETATM   13  N5  UNL     1      18.224  -6.410  -2.235  1.00  0.00    -0.313 N 
ATOM     14  H5  UNL     1      18.397  -6.101  -3.192  1.00  0.00     0.170 HD
ENDROOT
TORSDOF 0
ENDMDL
MODEL 2
REMARK VINA RESULT: -6.125379989      0.063      1.794
REMARK  0 active torsions:
REMARK  status: ('A' for Active; 'I' for Inactive)
ROOT
HETATM    1  N1  UNL     1      15.700  -6.386  -2.305  1.00  0.00    -0.063 NA
HETATM    2  C1  UNL     1      16.976  -6.571  -1.706  1.00  0.00     0.195 A 
HETATM    3  N2  UNL     1      18.191  -6.398  -2.278  1.00  0.00    -0.313 N 
ATOM      4  H2  UNL     1      18.334  -6.103  -3.244  1.00  0.00     0.170 HD
HETATM    5  C2  UNL     1      19.181  -6.662  -1.418  1.00  0.00     0.152 A 
HETATM    6  N3  UNL     1      20.530  -6.661  -1.428  1.00  0.00    -0.348 N 
ATOM      7  H3  UNL     1      21.025  -6.402  -2.282  1.00  0.00     0.167 HD
HETATM    8  C3  UNL     1      21.240  -6.999  -0.322  1.00  0.00     0.107 A 
HETATM    9  C4  UNL     1      20.633  -7.357   0.855  1.00  0.00     0.107 A 
HETATM   10  N4  UNL     1      19.289  -7.365   0.887  1.00  0.00    -0.348 N 
ATOM     11  H4  UNL     1      18.823  -7.629   1.754  1.00  0.00     0.167 HD
HETATM   12  C5  UNL     1      18.531  -7.038  -0.179  1.00  0.00     0.152 A 
HETATM   13  N5  UNL     1      17.215  -6.961  -0.426  1.00  0.00    -0.313 N 
ATOM     14  H5  UNL     1      16.487  -7.170   0.258  1.00  0.00     0.170 HD
ENDROOT
TORSDOF 0
ENDMDL
MODEL 3
REMARK VINA RESULT: -6.080155147      1.300      3.734
REMARK  0 active torsions:
REMARK  status: ('A' for Active; 'I' for Inactive)
ROOT
HETATM    1  N1  UNL     1      21.689  -7.466   1.267  1.00  0.00    -0.063 NA
HETATM    2  C1  UNL     1      20.705  -7.099   0.309  1.00  0.00     0.195 A 
HETATM    3  N2  UNL     1      19.435  -6.694   0.542  1.00  0.00    -0.313 N 
ATOM      4  H2  UNL     1      19.022  -6.603   1.470  1.00  0.00     0.170 HD
HETATM    5  C2  UNL     1      18.787  -6.428  -0.599  1.00  0.00     0.152 A 
HETATM    6  N3  UNL     1      17.559  -6.009  -0.968  1.00  0.00    -0.348 N 
ATOM      7  H3  UNL     1      16.860  -5.815  -0.251  1.00  0.00     0.167 HD
HETATM    8  C3  UNL     1      17.238  -5.842  -2.275  1.00  0.00     0.107 A 
HETATM    9  C4  UNL     1      18.134  -6.087  -3.284  1.00  0.00     0.107 A 
HETATM   10  N4  UNL     1      19.364  -6.506  -2.939  1.00  0.00    -0.348 N 
ATOM     11  H4  UNL     1      20.041  -6.693  -3.678  1.00  0.00     0.167 HD
HETATM   12  C5  UNL     1      19.740  -6.689  -1.658  1.00  0.00     0.152 A 
HETATM   13  N5  UNL     1      20.863  -7.086  -1.041  1.00  0.00    -0.313 N 
ATOM     14  H5  UNL     1      21.724  -7.346  -1.523  1.00  0.00     0.170 HD
ENDROOT
TORSDOF 0
ENDMDL
MODEL 4
REMARK VINA RESULT: -6.078336872      1.303      4.096
REMARK  0 active torsions:
REMARK  status: ('A' for Active; 'I' for Inactive)
ROOT
HETATM    1  N1  UNL     1      21.668  -7.463   1.286  1.00  0.00    -0.063 NA
HETATM    2  C1  UNL     1      20.720  -7.104   0.290  1.00  0.00     0.195 A 
HETATM    3  N2  UNL     1      20.895  -7.095  -1.053  1.00  0.00    -0.313 N 
ATOM      4  H2  UNL     1      21.762  -7.357  -1.520  1.00  0.00     0.170 HD
HETATM    5  C2  UNL     1      19.786  -6.700  -1.690  1.00  0.00     0.152 A 
HETATM    6  N3  UNL     1      19.391  -6.508  -2.965  1.00  0.00    -0.348 N 
ATOM      7  H3  UNL     1      20.047  -6.685  -3.725  1.00  0.00     0.167 HD
HETATM    8  C3  UNL     1      18.135  -6.082  -3.254  1.00  0.00     0.107 A 
HETATM    9  C4  UNL     1      17.208  -5.826  -2.276  1.00  0.00     0.107 A 
HETATM   10  N4  UNL     1      17.581  -6.011  -0.998  1.00  0.00    -0.348 N 
ATOM     11  H4  UNL     1      16.904  -5.824  -0.259  1.00  0.00     0.167 HD
HETATM   12  C5  UNL     1      18.813  -6.433  -0.650  1.00  0.00     0.152 A 
HETATM   13  N5  UNL     1      19.442  -6.695   0.506  1.00  0.00    -0.313 N 
ATOM     14  H5  UNL     1      19.015  -6.599   1.428  1.00  0.00     0.170 HD
ENDROOT
TORSDOF 0
ENDMDL
MODEL 5
REMARK VINA RESULT: -5.699973483      1.867      2.916
REMARK  0 active torsions:
REMARK  status: ('A' for Active; 'I' for Inactive)
ROOT
HETATM    1  N1  UNL     1      15.973  -6.636  -2.227  1.00  0.00    -0.063 NA
HETATM    2  C1  UNL     1      16.620  -7.036  -1.027  1.00  0.00     0.195 A 
HETATM    3  N2  UNL     1      17.939  -7.279  -0.840  1.00  0.00    -0.313 N 
ATOM      4  H2  UNL     1      18.646  -7.199  -1.570  1.00  0.00     0.170 HD
HETATM    5  C2  UNL     1      18.199  -7.637   0.423  1.00  0.00     0.152 A 
HETATM    6  N3  UNL     1      19.279  -7.982   1.154  1.00  0.00    -0.348 N 
ATOM      7  H3  UNL     1      20.197  -8.007   0.710  1.00  0.00     0.167 HD
HETATM    8  C3  UNL     1      19.165  -8.297   2.469  1.00  0.00     0.107 A 
HETATM    9  C4  UNL     1      17.959  -8.282   3.121  1.00  0.00     0.107 A 
HETATM   10  N4  UNL     1      16.869  -7.941   2.412  1.00  0.00    -0.348 N 
ATOM     11  H4  UNL     1      15.965  -7.926   2.883  1.00  0.00     0.167 HD
HETATM   12  C5  UNL     1      16.920  -7.618   1.104  1.00  0.00     0.152 A 
HETATM   13  N5  UNL     1      16.024  -7.251   0.176  1.00  0.00    -0.313 N 
ATOM     14  H5  UNL     1      15.024  -7.147   0.350  1.00  0.00     0.170 HD
ENDROOT
TORSDOF 0
ENDMDL
