MODEL 1
REMARK VINA RESULT: -2.669976237      0.000      0.000
REMARK  7 active torsions:
REMARK  status: ('A' for Active; 'I' for Inactive)
REMARK    1  A    between atoms: O1_2  and  C2_3 
REMARK    2  A    between atoms: C2_3  and  C3_5 
REMARK    3  A    between atoms: C3_5  and  C4_6 
REMARK    4  A    between atoms: C6_9  and  C7_10 
REMARK    5  A    between atoms: C9_13  and  S2_14 
REMARK    6  A    between atoms: S2_14  and  C10_15 
REMARK    7  A    between atoms: C10_15  and  C11_16 
REMARK       I    between atoms: C11_16  and  N1_18 
ROOT
HETATM    1  C11 UNL     1      17.092  -7.496   1.477  1.00  0.00     0.230 C 
HETATM    2  O3  UNL     1      17.979  -7.936   0.681  1.00  0.00    -0.272 OA
HETATM    3  N1  UNL     1      17.144  -7.807   2.869  1.00  0.00    -0.330 N 
HETATM    4  C12 UNL     1      18.227  -8.640   3.380  1.00  0.00     0.153 C 
HETATM    5  C13 UNL     1      18.280  -8.386   4.872  1.00  0.00     0.187 C 
HETATM    6  O4  UNL     1      17.075  -8.815   5.392  1.00  0.00    -0.387 OA
HETATM    7  C14 UNL     1      16.001  -8.052   5.038  1.00  0.00     0.208 C 
HETATM    8  C15 UNL     1      16.148  -7.306   3.745  1.00  0.00     0.218 C 
HETATM    9  C16 UNL     1      16.481  -5.909   4.081  1.00  0.00     0.087 C 
HETATM   10  N2  UNL     1      16.743  -4.807   4.348  1.00  0.00    -0.195 NA
ENDROOT
BRANCH   1  11
HETATM   11  C10 UNL     1      15.986  -6.650   0.966  1.00  0.00     0.181 C 
BRANCH  11  12
HETATM   12  S2  UNL     1      16.606  -5.665  -0.411  1.00  0.00    -0.130 SA
BRANCH  12  13
HETATM   13  C9  UNL     1      16.048  -6.290  -1.954  1.00  0.00     0.076 C 
HETATM   14  C8  UNL     1      16.773  -6.682  -2.959  1.00  0.00     0.057 C 
HETATM   15  C5  UNL     1      18.260  -6.641  -2.901  1.00  0.00     0.026 C 
HETATM   16  N3  UNL     1      16.177  -7.144  -4.207  1.00  0.00    -0.325 N 
HETATM   17  S1  UNL     1      18.994  -5.968  -4.400  1.00  0.00    -0.113 SA
HETATM   18  C6  UNL     1      18.882  -7.062  -1.863  1.00  0.00     0.009 C 
HETATM   19  C4  UNL     1      18.072  -6.666  -5.785  1.00  0.00     0.154 C 
HETATM   20  C17 UNL     1      16.996  -7.528  -5.291  1.00  0.00     0.236 C 
HETATM   21  O5  UNL     1      16.774  -8.666  -5.846  1.00  0.00    -0.272 OA
ATOM     22  H3  UNL     1      15.162  -7.191  -4.296  1.00  0.00     0.169 HD
BRANCH  19  23
HETATM   23  C3  UNL     1      18.981  -7.378  -6.763  1.00  0.00     0.136 C 
BRANCH  23  24
HETATM   24  C2  UNL     1      19.461  -6.379  -7.748  1.00  0.00     0.260 C 
HETATM   25  O2  UNL     1      19.376  -5.153  -7.497  1.00  0.00    -0.265 OA
BRANCH  24  26
HETATM   26  O1  UNL     1      20.016  -6.740  -8.968  1.00  0.00    -0.326 OA
HETATM   27  C1  UNL     1      20.845  -7.876  -9.043  1.00  0.00     0.213 C 
ENDBRANCH  24  26
ENDBRANCH  23  24
ENDBRANCH  19  23
BRANCH  18  28
HETATM   28  C7  UNL     1      20.339  -7.067  -1.707  1.00  0.00     0.143 C 
HETATM   29 CL1  UNL     1      21.154  -8.377  -2.522  1.00  0.00    -0.126 Cl
ENDBRANCH  18  28
ENDBRANCH  12  13
ENDBRANCH  11  12
ENDBRANCH   1  11
TORSDOF 7
ENDMDL
MODEL 2
REMARK VINA RESULT: -1.049932711      1.989      9.183
REMARK  7 active torsions:
REMARK  status: ('A' for Active; 'I' for Inactive)
REMARK    1  A    between atoms: O1_2  and  C2_3 
REMARK    2  A    between atoms: C2_3  and  C3_5 
REMARK    3  A    between atoms: C3_5  and  C4_6 
REMARK    4  A    between atoms: C6_9  and  C7_10 
REMARK    5  A    between atoms: C9_13  and  S2_14 
REMARK    6  A    between atoms: S2_14  and  C10_15 
REMARK    7  A    between atoms: C10_15  and  C11_16 
REMARK       I    between atoms: C11_16  and  N1_18 
ROOT
HETATM    1  C11 UNL     1      16.524  -6.461  -5.980  1.00  0.00     0.230 C 
HETATM    2  O3  UNL     1      15.492  -6.836  -6.620  1.00  0.00    -0.272 OA
HETATM    3  N1  UNL     1      17.821  -6.557  -6.568  1.00  0.00    -0.330 N 
HETATM    4  C12 UNL     1      17.961  -7.094  -7.917  1.00  0.00     0.153 C 
HETATM    5  C13 UNL     1      19.314  -6.627  -8.413  1.00  0.00     0.187 C 
HETATM    6  O4  UNL     1      20.259  -7.195  -7.584  1.00  0.00    -0.387 OA
HETATM    7  C14 UNL     1      20.267  -6.702  -6.312  1.00  0.00     0.208 C 
HETATM    8  C15 UNL     1      18.962  -6.133  -5.842  1.00  0.00     0.218 C 
HETATM    9  C16 UNL     1      19.062  -4.665  -5.946  1.00  0.00     0.087 C 
HETATM   10  N2  UNL     1      19.144  -3.507  -6.030  1.00  0.00    -0.195 NA
ENDROOT
BRANCH   1  11
HETATM   11  C10 UNL     1      16.392  -5.916  -4.606  1.00  0.00     0.181 C 
BRANCH  11  12
HETATM   12  S2  UNL     1      16.754  -7.233  -3.429  1.00  0.00    -0.130 SA
BRANCH  12  13
HETATM   13  C9  UNL     1      16.165  -6.840  -1.822  1.00  0.00     0.076 C 
HETATM   14  C8  UNL     1      16.795  -6.971  -0.693  1.00  0.00     0.057 C 
HETATM   15  C5  UNL     1      18.185  -7.502  -0.641  1.00  0.00     0.026 C 
HETATM   16  N3  UNL     1      16.170  -6.643   0.583  1.00  0.00    -0.325 N 
HETATM   17  S1  UNL     1      18.413  -8.721   0.663  1.00  0.00    -0.113 SA
HETATM   18  C6  UNL     1      19.071  -7.084  -1.467  1.00  0.00     0.009 C 
HETATM   19  C4  UNL     1      17.532  -8.101   2.109  1.00  0.00     0.154 C 
HETATM   20  C17 UNL     1      16.872  -6.832   1.793  1.00  0.00     0.236 C 
HETATM   21  O5  UNL     1      16.922  -5.853   2.625  1.00  0.00    -0.272 OA
ATOM     22  H3  UNL     1      15.218  -6.275   0.601  1.00  0.00     0.169 HD
BRANCH  19  23
HETATM   23  C3  UNL     1      18.437  -7.997   3.317  1.00  0.00     0.136 C 
BRANCH  23  24
HETATM   24  C2  UNL     1      17.665  -8.431   4.505  1.00  0.00     0.260 C 
HETATM   25  O2  UNL     1      18.210  -9.132   5.392  1.00  0.00    -0.265 OA
BRANCH  24  26
HETATM   26  O1  UNL     1      16.331  -8.095   4.694  1.00  0.00    -0.326 OA
HETATM   27  C1  UNL     1      16.006  -6.916   5.392  1.00  0.00     0.213 C 
ENDBRANCH  24  26
ENDBRANCH  23  24
ENDBRANCH  19  23
BRANCH  18  28
HETATM   28  C7  UNL     1      20.464  -7.541  -1.499  1.00  0.00     0.143 C 
HETATM   29 CL1  UNL     1      21.326  -7.145  -2.964  1.00  0.00    -0.126 Cl
ENDBRANCH  18  28
ENDBRANCH  12  13
ENDBRANCH  11  12
ENDBRANCH   1  11
TORSDOF 7
ENDMDL
MODEL 3
REMARK VINA RESULT: -0.631302718      1.024      1.034
REMARK  7 active torsions:
REMARK  status: ('A' for Active; 'I' for Inactive)
REMARK    1  A    between atoms: O1_2  and  C2_3 
REMARK    2  A    between atoms: C2_3  and  C3_5 
REMARK    3  A    between atoms: C3_5  and  C4_6 
REMARK    4  A    between atoms: C6_9  and  C7_10 
REMARK    5  A    between atoms: C9_13  and  S2_14 
REMARK    6  A    between atoms: S2_14  and  C10_15 
REMARK    7  A    between atoms: C10_15  and  C11_16 
REMARK       I    between atoms: C11_16  and  N1_18 
ROOT
HETATM    1  C11 UNL     1      17.415  -7.821   1.386  1.00  0.00     0.230 C 
HETATM    2  O3  UNL     1      18.376  -8.327   0.725  1.00  0.00    -0.272 OA
HETATM    3  N1  UNL     1      17.333  -7.992   2.801  1.00  0.00    -0.330 N 
HETATM    4  C12 UNL     1      18.364  -8.758   3.492  1.00  0.00     0.153 C 
HETATM    5  C13 UNL     1      18.272  -8.359   4.950  1.00  0.00     0.187 C 
HETATM    6  O4  UNL     1      17.023  -8.748   5.392  1.00  0.00    -0.387 OA
HETATM    7  C14 UNL     1      15.987  -8.036   4.863  1.00  0.00     0.208 C 
HETATM    8  C15 UNL     1      16.256  -7.420   3.523  1.00  0.00     0.218 C 
HETATM    9  C16 UNL     1      16.552  -5.993   3.749  1.00  0.00     0.087 C 
HETATM   10  N2  UNL     1      16.785  -4.866   3.930  1.00  0.00    -0.195 NA
ENDROOT
BRANCH   1  11
HETATM   11  C10 UNL     1      16.361  -7.042   0.690  1.00  0.00     0.181 C 
BRANCH  11  12
HETATM   12  S2  UNL     1      17.155  -5.776  -0.319  1.00  0.00    -0.130 SA
BRANCH  12  13
HETATM   13  C9  UNL     1      16.378  -5.619  -1.886  1.00  0.00     0.076 C 
HETATM   14  C8  UNL     1      16.842  -5.988  -3.042  1.00  0.00     0.057 C 
HETATM   15  C5  UNL     1      18.178  -6.633  -3.168  1.00  0.00     0.026 C 
HETATM   16  N3  UNL     1      16.105  -5.759  -4.279  1.00  0.00    -0.325 N 
HETATM   17  S1  UNL     1      19.147  -5.962  -4.527  1.00  0.00    -0.113 SA
HETATM   18  C6  UNL     1      18.529  -7.563  -2.359  1.00  0.00     0.009 C 
HETATM   19  C4  UNL     1      18.012  -5.749  -5.914  1.00  0.00     0.154 C 
HETATM   20  C17 UNL     1      16.657  -6.141  -5.521  1.00  0.00     0.236 C 
HETATM   21  O5  UNL     1      15.935  -6.850  -6.314  1.00  0.00    -0.272 OA
ATOM     22  H3  UNL     1      15.184  -5.321  -4.247  1.00  0.00     0.169 HD
BRANCH  19  23
HETATM   23  C3  UNL     1      18.491  -6.479  -7.149  1.00  0.00     0.136 C 
BRANCH  23  24
HETATM   24  C2  UNL     1      19.805  -7.090  -6.837  1.00  0.00     0.260 C 
HETATM   25  O2  UNL     1      20.254  -7.059  -5.665  1.00  0.00    -0.265 OA
BRANCH  24  26
HETATM   26  O1  UNL     1      20.588  -7.713  -7.799  1.00  0.00    -0.326 OA
HETATM   27  C1  UNL     1      20.504  -7.290  -9.140  1.00  0.00     0.213 C 
ENDBRANCH  24  26
ENDBRANCH  23  24
ENDBRANCH  19  23
BRANCH  18  28
HETATM   28  C7  UNL     1      19.817  -8.261  -2.398  1.00  0.00     0.143 C 
HETATM   29 CL1  UNL     1      21.185  -7.292  -1.915  1.00  0.00    -0.126 Cl
ENDBRANCH  18  28
ENDBRANCH  12  13
ENDBRANCH  11  12
ENDBRANCH   1  11
TORSDOF 7
ENDMDL
MODEL 4
REMARK VINA RESULT: 0.421505976      1.593      2.124
REMARK  7 active torsions:
REMARK  status: ('A' for Active; 'I' for Inactive)
REMARK    1  A    between atoms: O1_2  and  C2_3 
REMARK    2  A    between atoms: C2_3  and  C3_5 
REMARK    3  A    between atoms: C3_5  and  C4_6 
REMARK    4  A    between atoms: C6_9  and  C7_10 
REMARK    5  A    between atoms: C9_13  and  S2_14 
REMARK    6  A    between atoms: S2_14  and  C10_15 
REMARK    7  A    between atoms: C10_15  and  C11_16 
REMARK       I    between atoms: C11_16  and  N1_18 
ROOT
HETATM    1  C11 UNL     1      16.855  -8.043   1.932  1.00  0.00     0.230 C 
HETATM    2  O3  UNL     1      15.964  -8.484   1.140  1.00  0.00    -0.272 OA
HETATM    3  N1  UNL     1      16.497  -7.506   3.205  1.00  0.00    -0.330 N 
HETATM    4  C12 UNL     1      15.093  -7.464   3.598  1.00  0.00     0.153 C 
HETATM    5  C13 UNL     1      15.086  -7.314   5.105  1.00  0.00     0.187 C 
HETATM    6  O4  UNL     1      15.689  -6.105   5.388  1.00  0.00    -0.387 OA
HETATM    7  C14 UNL     1      17.027  -6.065   5.131  1.00  0.00     0.208 C 
HETATM    8  C15 UNL     1      17.503  -7.021   4.078  1.00  0.00     0.218 C 
HETATM    9  C16 UNL     1      18.112  -8.170   4.773  1.00  0.00     0.087 C 
HETATM   10  N2  UNL     1      18.593  -9.076   5.325  1.00  0.00    -0.195 NA
ENDROOT
BRANCH   1  11
HETATM   11  C10 UNL     1      18.285  -8.081   1.540  1.00  0.00     0.181 C 
BRANCH  11  12
HETATM   12  S2  UNL     1      18.666  -6.584   0.610  1.00  0.00    -0.130 SA
BRANCH  12  13
HETATM   13  C9  UNL     1      17.409  -6.213  -0.558  1.00  0.00     0.076 C 
HETATM   14  C8  UNL     1      17.448  -6.385  -1.846  1.00  0.00     0.057 C 
HETATM   15  C5  UNL     1      18.648  -6.962  -2.513  1.00  0.00     0.026 C 
HETATM   16  N3  UNL     1      16.342  -5.994  -2.711  1.00  0.00    -0.325 N 
HETATM   17  S1  UNL     1      19.116  -6.060  -3.998  1.00  0.00    -0.113 SA
HETATM   18  C6  UNL     1      19.231  -7.993  -2.023  1.00  0.00     0.009 C 
HETATM   19  C4  UNL     1      17.585  -5.672  -4.870  1.00  0.00     0.154 C 
HETATM   20  C17 UNL     1      16.433  -6.163  -4.110  1.00  0.00     0.236 C 
HETATM   21  O5  UNL     1      15.471  -6.765  -4.713  1.00  0.00    -0.272 OA
ATOM     22  H3  UNL     1      15.496  -5.595  -2.303  1.00  0.00     0.169 HD
BRANCH  19  23
HETATM   23  C3  UNL     1      17.603  -6.190  -6.292  1.00  0.00     0.136 C 
BRANCH  23  24
HETATM   24  C2  UNL     1      18.966  -5.983  -6.835  1.00  0.00     0.260 C 
HETATM   25  O2  UNL     1      19.436  -4.824  -6.938  1.00  0.00    -0.265 OA
BRANCH  24  26
HETATM   26  O1  UNL     1      19.774  -7.033  -7.250  1.00  0.00    -0.326 OA
HETATM   27  C1  UNL     1      20.146  -7.127  -8.605  1.00  0.00     0.213 C 
ENDBRANCH  24  26
ENDBRANCH  23  24
ENDBRANCH  19  23
BRANCH  18  28
HETATM   28  C7  UNL     1      20.414  -8.636  -2.602  1.00  0.00     0.143 C 
HETATM   29 CL1  UNL     1      21.757  -7.559  -2.895  1.00  0.00    -0.126 Cl
ENDBRANCH  18  28
ENDBRANCH  12  13
ENDBRANCH  11  12
ENDBRANCH   1  11
TORSDOF 7
ENDMDL
MODEL 5
REMARK VINA RESULT: 0.571365488      1.903      2.550
REMARK  7 active torsions:
REMARK  status: ('A' for Active; 'I' for Inactive)
REMARK    1  A    between atoms: O1_2  and  C2_3 
REMARK    2  A    between atoms: C2_3  and  C3_5 
REMARK    3  A    between atoms: C3_5  and  C4_6 
REMARK    4  A    between atoms: C6_9  and  C7_10 
REMARK    5  A    between atoms: C9_13  and  S2_14 
REMARK    6  A    between atoms: S2_14  and  C10_15 
REMARK    7  A    between atoms: C10_15  and  C11_16 
REMARK       I    between atoms: C11_16  and  N1_18 
ROOT
HETATM    1  C11 UNL     1      15.934  -6.512  -0.458  1.00  0.00     0.230 C 
HETATM    2  O3  UNL     1      14.814  -6.757  -1.007  1.00  0.00    -0.272 OA
HETATM    3  N1  UNL     1      16.318  -7.180   0.744  1.00  0.00    -0.330 N 
HETATM    4  C12 UNL     1      15.413  -8.152   1.347  1.00  0.00     0.153 C 
HETATM    5  C13 UNL     1      16.265  -8.997   2.271  1.00  0.00     0.187 C 
HETATM    6  O4  UNL     1      16.759  -8.151   3.243  1.00  0.00    -0.387 OA
HETATM    7  C14 UNL     1      17.680  -7.250   2.796  1.00  0.00     0.208 C 
HETATM    8  C15 UNL     1      17.571  -6.897   1.342  1.00  0.00     0.218 C 
HETATM    9  C16 UNL     1      18.612  -7.660   0.628  1.00  0.00     0.087 C 
HETATM   10  N2  UNL     1      19.435  -8.263   0.067  1.00  0.00    -0.195 NA
ENDROOT
BRANCH   1  11
HETATM   11  C10 UNL     1      16.860  -5.524  -1.064  1.00  0.00     0.181 C 
BRANCH  11  12
HETATM   12  S2  UNL     1      16.045  -4.769  -2.484  1.00  0.00    -0.130 SA
BRANCH  12  13
HETATM   13  C9  UNL     1      15.980  -5.869  -3.851  1.00  0.00     0.076 C 
HETATM   14  C8  UNL     1      16.979  -6.360  -4.522  1.00  0.00     0.057 C 
HETATM   15  C5  UNL     1      18.386  -6.019  -4.172  1.00  0.00     0.026 C 
HETATM   16  N3  UNL     1      16.782  -7.237  -5.669  1.00  0.00    -0.325 N 
HETATM   17  S1  UNL     1      19.383  -5.628  -5.618  1.00  0.00    -0.113 SA
HETATM   18  C6  UNL     1      18.772  -6.027  -2.951  1.00  0.00     0.009 C 
HETATM   19  C4  UNL     1      18.938  -6.826  -6.892  1.00  0.00     0.154 C 
HETATM   20  C17 UNL     1      17.890  -7.723  -6.397  1.00  0.00     0.236 C 
HETATM   21  O5  UNL     1      17.963  -8.986  -6.620  1.00  0.00    -0.272 OA
ATOM     22  H3  UNL     1      15.837  -7.501  -5.949  1.00  0.00     0.169 HD
BRANCH  19  23
HETATM   23  C3  UNL     1      20.147  -7.578  -7.404  1.00  0.00     0.136 C 
BRANCH  23  24
HETATM   24  C2  UNL     1      20.213  -7.388  -8.872  1.00  0.00     0.260 C 
HETATM   25  O2  UNL     1      19.341  -6.705  -9.461  1.00  0.00    -0.265 OA
BRANCH  24  26
HETATM   26  O1  UNL     1      21.217  -7.944  -9.654  1.00  0.00    -0.326 OA
HETATM   27  C1  UNL     1      21.748  -9.201  -9.307  1.00  0.00     0.213 C 
ENDBRANCH  24  26
ENDBRANCH  23  24
ENDBRANCH  19  23
BRANCH  18  28
HETATM   28  C7  UNL     1      20.131  -5.708  -2.503  1.00  0.00     0.143 C 
HETATM   29 CL1  UNL     1      21.289  -6.997  -2.717  1.00  0.00    -0.126 Cl
ENDBRANCH  18  28
ENDBRANCH  12  13
ENDBRANCH  11  12
ENDBRANCH   1  11
TORSDOF 7
ENDMDL
