MODEL 1
REMARK VINA RESULT: -5.734810788      0.000      0.000
REMARK  5 active torsions:
REMARK  status: ('A' for Active; 'I' for Inactive)
REMARK    1  A    between atoms: C2_2  and  O1_3 
REMARK    2  A    between atoms: C2_2  and  C3_5 
REMARK    3  A    between atoms: C2_2  and  C4_8 
REMARK    4  A    between atoms: C3_5  and  O2_6 
REMARK    5  A    between atoms: C4_8  and  O3_9 
ROOT
HETATM    1  C4  UNL     1     -42.768  19.045  39.060  1.00  0.00     0.217 C 
HETATM    2  C5  UNL     1     -43.471  20.357  38.833  1.00  0.00     0.239 C 
HETATM    3  O4  UNL     1     -43.026  21.385  39.602  1.00  0.00    -0.384 OA
HETATM    4  C6  UNL     1     -41.886  21.153  40.332  1.00  0.00     0.194 C 
HETATM    5  C7  UNL     1     -41.780  19.796  40.928  1.00  0.00     0.197 C 
HETATM    6  O5  UNL     1     -42.663  18.868  40.440  1.00  0.00    -0.349 OA
ENDROOT
BRANCH   1   7
HETATM    7  C2  UNL     1     -43.528  17.886  38.507  1.00  0.00     0.133 C 
HETATM    8  C1  UNL     1     -42.591  16.990  37.707  1.00  0.00     0.054 C 
BRANCH   7   9
HETATM    9  O1  UNL     1     -44.515  18.314  37.652  1.00  0.00    -0.382 OA
ATOM     10  H1  UNL     1     -44.591  19.255  37.755  1.00  0.00     0.210 HD
ENDBRANCH   7   9
BRANCH   7  11
HETATM   11  C3  UNL     1     -44.164  17.029  39.576  1.00  0.00     0.207 C 
BRANCH  11  12
HETATM   12  O2  UNL     1     -43.418  15.903  39.863  1.00  0.00    -0.398 OA
ATOM     13  H2  UNL     1     -43.477  15.651  40.777  1.00  0.00     0.209 HD
ENDBRANCH  11  12
ENDBRANCH   7  11
ENDBRANCH   1   7
BRANCH   1  14
HETATM   14  O3  UNL     1     -41.473  19.046  38.553  1.00  0.00    -0.361 OA
ATOM     15  H3  UNL     1     -41.076  19.899  38.683  1.00  0.00     0.213 HD
ENDBRANCH   1  14
TORSDOF 5
ENDMDL
MODEL 2
REMARK VINA RESULT: -5.321721114      2.026      2.857
REMARK  5 active torsions:
REMARK  status: ('A' for Active; 'I' for Inactive)
REMARK    1  A    between atoms: C2_2  and  O1_3 
REMARK    2  A    between atoms: C2_2  and  C3_5 
REMARK    3  A    between atoms: C2_2  and  C4_8 
REMARK    4  A    between atoms: C3_5  and  O2_6 
REMARK    5  A    between atoms: C4_8  and  O3_9 
ROOT
HETATM    1  C4  UNL     1     -43.602  18.020  38.180  1.00  0.00     0.217 C 
HETATM    2  C5  UNL     1     -44.400  19.135  37.558  1.00  0.00     0.239 C 
HETATM    3  O4  UNL     1     -43.720  19.893  36.659  1.00  0.00    -0.384 OA
HETATM    4  C6  UNL     1     -42.478  19.437  36.292  1.00  0.00     0.194 C 
HETATM    5  C7  UNL     1     -41.672  18.841  37.388  1.00  0.00     0.197 C 
HETATM    6  O5  UNL     1     -42.362  18.551  38.536  1.00  0.00    -0.349 OA
ENDROOT
BRANCH   1   7
HETATM    7  C2  UNL     1     -44.241  17.481  39.416  1.00  0.00     0.133 C 
HETATM    8  C1  UNL     1     -43.314  17.691  40.609  1.00  0.00     0.054 C 
BRANCH   7   9
HETATM    9  O1  UNL     1     -44.462  16.130  39.303  1.00  0.00    -0.382 OA
ATOM     10  H1  UNL     1     -44.411  15.912  38.380  1.00  0.00     0.210 HD
ENDBRANCH   7   9
BRANCH   7  11
HETATM   11  C3  UNL     1     -45.554  18.152  39.746  1.00  0.00     0.207 C 
BRANCH  11  12
HETATM   12  O2  UNL     1     -46.616  17.270  39.732  1.00  0.00    -0.398 OA
ATOM     13  H2  UNL     1     -46.680  16.792  38.914  1.00  0.00     0.209 HD
ENDBRANCH  11  12
ENDBRANCH   7  11
ENDBRANCH   1   7
BRANCH   1  14
HETATM   14  O3  UNL     1     -43.357  16.985  37.285  1.00  0.00    -0.361 OA
ATOM     15  H3  UNL     1     -42.559  17.159  36.800  1.00  0.00     0.213 HD
ENDBRANCH   1  14
TORSDOF 5
ENDMDL
MODEL 3
REMARK VINA RESULT: -5.318511382      1.444      1.776
REMARK  5 active torsions:
REMARK  status: ('A' for Active; 'I' for Inactive)
REMARK    1  A    between atoms: C2_2  and  O1_3 
REMARK    2  A    between atoms: C2_2  and  C3_5 
REMARK    3  A    between atoms: C2_2  and  C4_8 
REMARK    4  A    between atoms: C3_5  and  O2_6 
REMARK    5  A    between atoms: C4_8  and  O3_9 
ROOT
HETATM    1  C4  UNL     1     -42.956  19.548  38.271  1.00  0.00     0.217 C 
HETATM    2  C5  UNL     1     -43.318  20.983  38.544  1.00  0.00     0.239 C 
HETATM    3  O4  UNL     1     -42.872  21.470  39.731  1.00  0.00    -0.384 OA
HETATM    4  C6  UNL     1     -41.998  20.672  40.429  1.00  0.00     0.194 C 
HETATM    5  C7  UNL     1     -42.300  19.218  40.389  1.00  0.00     0.197 C 
HETATM    6  O5  UNL     1     -43.209  18.830  39.440  1.00  0.00    -0.349 OA
ENDROOT
BRANCH   1   7
HETATM    7  C2  UNL     1     -43.779  18.949  37.179  1.00  0.00     0.133 C 
HETATM    8  C1  UNL     1     -43.947  19.957  36.048  1.00  0.00     0.054 C 
BRANCH   7   9
HETATM    9  O1  UNL     1     -45.036  18.631  37.634  1.00  0.00    -0.382 OA
ATOM     10  H1  UNL     1     -45.117  18.983  38.512  1.00  0.00     0.210 HD
ENDBRANCH   7   9
BRANCH   7  11
HETATM   11  C3  UNL     1     -43.160  17.706  36.584  1.00  0.00     0.207 C 
BRANCH  11  12
HETATM   12  O2  UNL     1     -43.035  16.685  37.504  1.00  0.00    -0.398 OA
ATOM     13  H2  UNL     1     -42.867  15.845  37.095  1.00  0.00     0.209 HD
ENDBRANCH  11  12
ENDBRANCH   7  11
ENDBRANCH   1   7
BRANCH   1  14
HETATM   14  O3  UNL     1     -41.605  19.390  37.984  1.00  0.00    -0.361 OA
ATOM     15  H3  UNL     1     -41.086  19.936  38.563  1.00  0.00     0.213 HD
ENDBRANCH   1  14
TORSDOF 5
ENDMDL
MODEL 4
REMARK VINA RESULT: -5.238070224      2.024      3.402
REMARK  5 active torsions:
REMARK  status: ('A' for Active; 'I' for Inactive)
REMARK    1  A    between atoms: C2_2  and  O1_3 
REMARK    2  A    between atoms: C2_2  and  C3_5 
REMARK    3  A    between atoms: C2_2  and  C4_8 
REMARK    4  A    between atoms: C3_5  and  O2_6 
REMARK    5  A    between atoms: C4_8  and  O3_9 
ROOT
HETATM    1  C4  UNL     1     -43.134  18.080  38.481  1.00  0.00     0.217 C 
HETATM    2  C5  UNL     1     -44.556  18.575  38.436  1.00  0.00     0.239 C 
HETATM    3  O4  UNL     1     -45.353  18.115  39.435  1.00  0.00    -0.384 OA
HETATM    4  C6  UNL     1     -44.729  17.431  40.449  1.00  0.00     0.194 C 
HETATM    5  C7  UNL     1     -43.631  16.527  40.020  1.00  0.00     0.197 C 
HETATM    6  O5  UNL     1     -43.184  16.710  38.737  1.00  0.00    -0.349 OA
ENDROOT
BRANCH   1   7
HETATM    7  C2  UNL     1     -42.420  18.278  37.186  1.00  0.00     0.133 C 
HETATM    8  C1  UNL     1     -43.406  18.158  36.029  1.00  0.00     0.054 C 
BRANCH   7   9
HETATM    9  O1  UNL     1     -41.460  17.312  37.006  1.00  0.00    -0.382 OA
ATOM     10  H1  UNL     1     -41.714  16.798  36.248  1.00  0.00     0.210 HD
ENDBRANCH   7   9
BRANCH   7  11
HETATM   11  C3  UNL     1     -41.759  19.632  37.073  1.00  0.00     0.207 C 
BRANCH  11  12
HETATM   12  O2  UNL     1     -40.461  19.550  36.609  1.00  0.00    -0.398 OA
ATOM     13  H2  UNL     1     -39.828  19.862  37.245  1.00  0.00     0.209 HD
ENDBRANCH  11  12
ENDBRANCH   7  11
ENDBRANCH   1   7
BRANCH   1  14
HETATM   14  O3  UNL     1     -42.407  18.659  39.515  1.00  0.00    -0.361 OA
ATOM     15  H3  UNL     1     -41.958  17.986  40.011  1.00  0.00     0.213 HD
ENDBRANCH   1  14
TORSDOF 5
ENDMDL
MODEL 5
REMARK VINA RESULT: -5.234716463      1.933      3.238
REMARK  5 active torsions:
REMARK  status: ('A' for Active; 'I' for Inactive)
REMARK    1  A    between atoms: C2_2  and  O1_3 
REMARK    2  A    between atoms: C2_2  and  C3_5 
REMARK    3  A    between atoms: C2_2  and  C4_8 
REMARK    4  A    between atoms: C3_5  and  O2_6 
REMARK    5  A    between atoms: C4_8  and  O3_9 
ROOT
HETATM    1  C4  UNL     1     -43.954  18.132  38.220  1.00  0.00     0.217 C 
HETATM    2  C5  UNL     1     -43.029  19.306  38.402  1.00  0.00     0.239 C 
HETATM    3  O4  UNL     1     -42.412  19.730  37.268  1.00  0.00    -0.384 OA
HETATM    4  C6  UNL     1     -42.850  19.175  36.091  1.00  0.00     0.194 C 
HETATM    5  C7  UNL     1     -43.177  17.727  36.156  1.00  0.00     0.197 C 
HETATM    6  O5  UNL     1     -43.289  17.205  37.418  1.00  0.00    -0.349 OA
ENDROOT
BRANCH   1   7
HETATM    7  C2  UNL     1     -44.290  17.464  39.511  1.00  0.00     0.133 C 
HETATM    8  C1  UNL     1     -43.183  17.722  40.528  1.00  0.00     0.054 C 
BRANCH   7   9
HETATM    9  O1  UNL     1     -44.384  16.103  39.346  1.00  0.00    -0.382 OA
ATOM     10  H1  UNL     1     -43.511  15.744  39.455  1.00  0.00     0.210 HD
ENDBRANCH   7   9
BRANCH   7  11
HETATM   11  C3  UNL     1     -45.581  17.960  40.118  1.00  0.00     0.207 C 
BRANCH  11  12
HETATM   12  O2  UNL     1     -46.681  17.255  39.669  1.00  0.00    -0.398 OA
ATOM     13  H2  UNL     1     -47.124  17.692  38.952  1.00  0.00     0.209 HD
ENDBRANCH  11  12
ENDBRANCH   7  11
ENDBRANCH   1   7
BRANCH   1  14
HETATM   14  O3  UNL     1     -45.122  18.481  37.551  1.00  0.00    -0.361 OA
ATOM     15  H3  UNL     1     -45.048  19.365  37.211  1.00  0.00     0.213 HD
ENDBRANCH   1  14
TORSDOF 5
ENDMDL
