MODEL 1
REMARK VINA RESULT: -6.179608473      0.000      0.000
REMARK  6 active torsions:
REMARK  status: ('A' for Active; 'I' for Inactive)
REMARK    1  A    between atoms: C2_2  and  O1_3 
REMARK    2  A    between atoms: C2_2  and  C3_5 
REMARK    3  A    between atoms: C3_5  and  O2_6 
REMARK    4  A    between atoms: C3_5  and  O3_8 
REMARK    5  A    between atoms: O3_8  and  C4_9 
REMARK    6  A    between atoms: C7_13  and  O5_14 
ROOT
HETATM    1  O3  UNL     1     -42.128  19.149  41.201  1.00  0.00    -0.327 OA
ENDROOT
BRANCH   1   2
HETATM    2  C3  UNL     1     -41.274  20.228  41.235  1.00  0.00     0.288 C 
BRANCH   2   3
HETATM    3  C2  UNL     1     -40.790  20.568  42.619  1.00  0.00     0.169 C 
HETATM    4  C1  UNL     1     -40.382  21.988  42.776  1.00  0.00     0.044 C 
BRANCH   3   5
HETATM    5  O1  UNL     1     -39.753  19.705  42.956  1.00  0.00    -0.391 OA
ATOM      6  H1  UNL     1     -39.378  19.930  43.798  1.00  0.00     0.210 HD
ENDBRANCH   3   5
ENDBRANCH   2   3
BRANCH   2   7
HETATM    7  O2  UNL     1     -42.017  21.331  40.749  1.00  0.00    -0.369 OA
ATOM      8  H2  UNL     1     -41.586  21.653  39.966  1.00  0.00     0.212 HD
ENDBRANCH   2   7
ENDBRANCH   1   2
BRANCH   1   9
HETATM    9  C4  UNL     1     -42.646  19.028  39.924  1.00  0.00     0.291 C 
HETATM   10  O4  UNL     1     -41.583  18.972  39.040  1.00  0.00    -0.358 OA
HETATM   11  C5  UNL     1     -41.906  18.136  38.012  1.00  0.00     0.173 C 
HETATM   12  C6  UNL     1     -43.115  17.341  38.358  1.00  0.00     0.063 C 
HETATM   13  C7  UNL     1     -43.472  17.794  39.731  1.00  0.00     0.175 C 
BRANCH  13  14
HETATM   14  O5  UNL     1     -43.221  16.816  40.684  1.00  0.00    -0.391 OA
ATOM     15  H5  UNL     1     -43.494  15.949  40.408  1.00  0.00     0.210 HD
ENDBRANCH  13  14
ENDBRANCH   1   9
TORSDOF 6
ENDMDL
MODEL 2
REMARK VINA RESULT: -5.884955149      1.486      2.448
REMARK  6 active torsions:
REMARK  status: ('A' for Active; 'I' for Inactive)
REMARK    1  A    between atoms: C2_2  and  O1_3 
REMARK    2  A    between atoms: C2_2  and  C3_5 
REMARK    3  A    between atoms: C3_5  and  O2_6 
REMARK    4  A    between atoms: C3_5  and  O3_8 
REMARK    5  A    between atoms: O3_8  and  C4_9 
REMARK    6  A    between atoms: C7_13  and  O5_14 
ROOT
HETATM    1  O3  UNL     1     -41.923  20.884  40.755  1.00  0.00    -0.327 OA
ENDROOT
BRANCH   1   2
HETATM    2  C3  UNL     1     -41.467  20.004  41.710  1.00  0.00     0.288 C 
BRANCH   2   3
HETATM    3  C2  UNL     1     -40.720  20.671  42.833  1.00  0.00     0.169 C 
HETATM    4  C1  UNL     1     -40.371  22.089  42.557  1.00  0.00     0.044 C 
BRANCH   3   5
HETATM    5  O1  UNL     1     -39.587  19.921  43.127  1.00  0.00    -0.391 OA
ATOM      6  H1  UNL     1     -39.477  19.817  44.065  1.00  0.00     0.210 HD
ENDBRANCH   3   5
ENDBRANCH   2   3
BRANCH   2   7
HETATM    7  O2  UNL     1     -40.569  19.135  41.045  1.00  0.00    -0.369 OA
ATOM      8  H2  UNL     1     -40.824  19.094  40.131  1.00  0.00     0.212 HD
ENDBRANCH   2   7
ENDBRANCH   1   2
BRANCH   1   9
HETATM    9  C4  UNL     1     -42.289  20.170  39.627  1.00  0.00     0.291 C 
HETATM   10  O4  UNL     1     -43.080  19.112  40.035  1.00  0.00    -0.358 OA
HETATM   11  C5  UNL     1     -44.033  18.881  39.086  1.00  0.00     0.173 C 
HETATM   12  C6  UNL     1     -44.097  20.023  38.136  1.00  0.00     0.063 C 
HETATM   13  C7  UNL     1     -43.071  20.978  38.639  1.00  0.00     0.175 C 
BRANCH  13  14
HETATM   14  O5  UNL     1     -43.645  22.112  39.196  1.00  0.00    -0.391 OA
ATOM     15  H5  UNL     1     -44.017  22.699  38.548  1.00  0.00     0.210 HD
ENDBRANCH  13  14
ENDBRANCH   1   9
TORSDOF 6
ENDMDL
MODEL 3
REMARK VINA RESULT: -5.809206818      1.672      2.522
REMARK  6 active torsions:
REMARK  status: ('A' for Active; 'I' for Inactive)
REMARK    1  A    between atoms: C2_2  and  O1_3 
REMARK    2  A    between atoms: C2_2  and  C3_5 
REMARK    3  A    between atoms: C3_5  and  O2_6 
REMARK    4  A    between atoms: C3_5  and  O3_8 
REMARK    5  A    between atoms: O3_8  and  C4_9 
REMARK    6  A    between atoms: C7_13  and  O5_14 
ROOT
HETATM    1  O3  UNL     1     -41.563  20.808  40.409  1.00  0.00    -0.327 OA
ENDROOT
BRANCH   1   2
HETATM    2  C3  UNL     1     -41.446  19.941  41.471  1.00  0.00     0.288 C 
BRANCH   2   3
HETATM    3  C2  UNL     1     -40.792  20.557  42.679  1.00  0.00     0.169 C 
HETATM    4  C1  UNL     1     -40.461  21.995  42.509  1.00  0.00     0.044 C 
BRANCH   3   5
HETATM    5  O1  UNL     1     -39.663  19.815  43.006  1.00  0.00    -0.391 OA
ATOM      6  H1  UNL     1     -39.900  18.989  43.411  1.00  0.00     0.210 HD
ENDBRANCH   3   5
ENDBRANCH   2   3
BRANCH   2   7
HETATM    7  O2  UNL     1     -40.623  18.881  41.023  1.00  0.00    -0.369 OA
ATOM      8  H2  UNL     1     -40.880  18.667  40.133  1.00  0.00     0.212 HD
ENDBRANCH   2   7
ENDBRANCH   1   2
BRANCH   1   9
HETATM    9  C4  UNL     1     -42.754  20.552  39.751  1.00  0.00     0.291 C 
HETATM   10  O4  UNL     1     -43.297  21.766  39.373  1.00  0.00    -0.358 OA
HETATM   11  C5  UNL     1     -43.933  21.614  38.176  1.00  0.00     0.173 C 
HETATM   12  C6  UNL     1     -43.546  20.320  37.552  1.00  0.00     0.063 C 
HETATM   13  C7  UNL     1     -42.586  19.718  38.519  1.00  0.00     0.175 C 
BRANCH  13  14
HETATM   14  O5  UNL     1     -41.286  19.722  38.032  1.00  0.00    -0.391 OA
ATOM     15  H5  UNL     1     -41.029  18.891  37.649  1.00  0.00     0.210 HD
ENDBRANCH  13  14
ENDBRANCH   1   9
TORSDOF 6
ENDMDL
MODEL 4
REMARK VINA RESULT: -5.264276316      1.841      2.648
REMARK  6 active torsions:
REMARK  status: ('A' for Active; 'I' for Inactive)
REMARK    1  A    between atoms: C2_2  and  O1_3 
REMARK    2  A    between atoms: C2_2  and  C3_5 
REMARK    3  A    between atoms: C3_5  and  O2_6 
REMARK    4  A    between atoms: C3_5  and  O3_8 
REMARK    5  A    between atoms: O3_8  and  C4_9 
REMARK    6  A    between atoms: C7_13  and  O5_14 
ROOT
HETATM    1  O3  UNL     1     -42.654  18.027  38.900  1.00  0.00    -0.327 OA
ENDROOT
BRANCH   1   2
HETATM    2  C3  UNL     1     -41.621  18.890  39.189  1.00  0.00     0.288 C 
BRANCH   2   3
HETATM    3  C2  UNL     1     -41.755  19.558  40.531  1.00  0.00     0.169 C 
HETATM    4  C1  UNL     1     -41.913  21.033  40.450  1.00  0.00     0.044 C 
BRANCH   3   5
HETATM    5  O1  UNL     1     -40.661  19.211  41.316  1.00  0.00    -0.391 OA
ATOM      6  H1  UNL     1     -40.862  18.473  41.880  1.00  0.00     0.210 HD
ENDBRANCH   3   5
ENDBRANCH   2   3
BRANCH   2   7
HETATM    7  O2  UNL     1     -41.662  19.897  38.195  1.00  0.00    -0.369 OA
ATOM      8  H2  UNL     1     -42.312  20.540  38.455  1.00  0.00     0.212 HD
ENDBRANCH   2   7
ENDBRANCH   1   2
BRANCH   1   9
HETATM    9  C4  UNL     1     -43.802  18.476  39.529  1.00  0.00     0.291 C 
HETATM   10  O4  UNL     1     -44.545  19.180  38.599  1.00  0.00    -0.358 OA
HETATM   11  C5  UNL     1     -45.871  18.973  38.843  1.00  0.00     0.173 C 
HETATM   12  C6  UNL     1     -46.047  17.834  39.783  1.00  0.00     0.063 C 
HETATM   13  C7  UNL     1     -44.659  17.372  40.064  1.00  0.00     0.175 C 
BRANCH  13  14
HETATM   14  O5  UNL     1     -44.391  16.142  39.478  1.00  0.00    -0.391 OA
ATOM     15  H5  UNL     1     -45.147  15.763  39.045  1.00  0.00     0.210 HD
ENDBRANCH  13  14
ENDBRANCH   1   9
TORSDOF 6
ENDMDL
MODEL 5
REMARK VINA RESULT: -5.237171352      3.657      4.407
REMARK  6 active torsions:
REMARK  status: ('A' for Active; 'I' for Inactive)
REMARK    1  A    between atoms: C2_2  and  O1_3 
REMARK    2  A    between atoms: C2_2  and  C3_5 
REMARK    3  A    between atoms: C3_5  and  O2_6 
REMARK    4  A    between atoms: C3_5  and  O3_8 
REMARK    5  A    between atoms: O3_8  and  C4_9 
REMARK    6  A    between atoms: C7_13  and  O5_14 
ROOT
HETATM    1  O3  UNL     1     -42.724  17.666  37.932  1.00  0.00    -0.327 OA
ENDROOT
BRANCH   1   2
HETATM    2  C3  UNL     1     -41.568  18.405  37.823  1.00  0.00     0.288 C 
BRANCH   2   3
HETATM    3  C2  UNL     1     -41.719  19.631  36.964  1.00  0.00     0.169 C 
HETATM    4  C1  UNL     1     -42.755  19.495  35.908  1.00  0.00     0.044 C 
BRANCH   3   5
HETATM    5  O1  UNL     1     -40.481  19.951  36.418  1.00  0.00    -0.391 OA
ATOM      6  H1  UNL     1     -40.075  20.672  36.884  1.00  0.00     0.210 HD
ENDBRANCH   3   5
ENDBRANCH   2   3
BRANCH   2   7
HETATM    7  O2  UNL     1     -40.616  17.556  37.210  1.00  0.00    -0.369 OA
ATOM      8  H2  UNL     1     -41.025  17.157  36.451  1.00  0.00     0.212 HD
ENDBRANCH   2   7
ENDBRANCH   1   2
BRANCH   1   9
HETATM    9  C4  UNL     1     -43.435  18.105  39.035  1.00  0.00     0.291 C 
HETATM   10  O4  UNL     1     -44.702  18.459  38.608  1.00  0.00    -0.358 OA
HETATM   11  C5  UNL     1     -45.601  18.151  39.586  1.00  0.00     0.173 C 
HETATM   12  C6  UNL     1     -44.970  17.264  40.601  1.00  0.00     0.063 C 
HETATM   13  C7  UNL     1     -43.581  17.066  40.102  1.00  0.00     0.175 C 
BRANCH  13  14
HETATM   14  O5  UNL     1     -43.374  15.775  39.637  1.00  0.00    -0.391 OA
ATOM     15  H5  UNL     1     -44.102  15.192  39.821  1.00  0.00     0.210 HD
ENDBRANCH  13  14
ENDBRANCH   1   9
TORSDOF 6
ENDMDL
