MODEL 1
REMARK VINA RESULT: -5.836141982      0.000      0.000
REMARK  6 active torsions:
REMARK  status: ('A' for Active; 'I' for Inactive)
REMARK    1  A    between atoms: C4_5  and  O2_6 
REMARK    2  A    between atoms: O2_6  and  C5_7 
REMARK    3  A    between atoms: C5_7  and  O3_8 
REMARK    4  A    between atoms: C5_7  and  C6_10 
REMARK    5  A    between atoms: C6_10  and  O4_11 
REMARK    6  A    between atoms: C7_13  and  O5_14 
ROOT
HETATM    1  C1  UNL     1     -42.891  19.865  35.562  1.00  0.00     0.042 C 
HETATM    2  C2  UNL     1     -43.206  20.056  37.001  1.00  0.00     0.148 C 
HETATM    3  O1  UNL     1     -43.889  21.203  37.305  1.00  0.00    -0.381 OA
HETATM    4  C3  UNL     1     -43.654  21.534  38.621  1.00  0.00     0.203 C 
HETATM    5  C4  UNL     1     -42.666  20.527  39.176  1.00  0.00     0.179 C 
HETATM    6  C7  UNL     1     -41.944  20.178  37.867  1.00  0.00     0.177 C 
ENDROOT
BRANCH   5   7
HETATM    7  O2  UNL     1     -41.812  21.030  40.095  1.00  0.00    -0.349 OA
BRANCH   7   8
HETATM    8  C5  UNL     1     -41.619  20.250  41.210  1.00  0.00     0.280 C 
BRANCH   8   9
HETATM    9  O3  UNL     1     -40.903  19.084  40.947  1.00  0.00    -0.369 OA
ATOM     10  H3  UNL     1     -40.305  19.170  40.214  1.00  0.00     0.212 HD
ENDBRANCH   8   9
BRANCH   8  11
HETATM   11  C6  UNL     1     -41.013  20.984  42.372  1.00  0.00     0.224 C 
BRANCH  11  12
HETATM   12  O4  UNL     1     -41.380  20.278  43.534  1.00  0.00    -0.396 OA
ATOM     13  H4  UNL     1     -40.876  20.647  44.249  1.00  0.00     0.209 HD
ENDBRANCH  11  12
ENDBRANCH   8  11
ENDBRANCH   7   8
ENDBRANCH   5   7
BRANCH   6  14
HETATM   14  O5  UNL     1     -41.249  19.005  37.948  1.00  0.00    -0.390 OA
ATOM     15  H5  UNL     1     -41.468  18.504  38.725  1.00  0.00     0.210 HD
ENDBRANCH   6  14
TORSDOF 6
ENDMDL
MODEL 2
REMARK VINA RESULT: -5.625456759      1.789      2.188
REMARK  6 active torsions:
REMARK  status: ('A' for Active; 'I' for Inactive)
REMARK    1  A    between atoms: C4_5  and  O2_6 
REMARK    2  A    between atoms: O2_6  and  C5_7 
REMARK    3  A    between atoms: C5_7  and  O3_8 
REMARK    4  A    between atoms: C5_7  and  C6_10 
REMARK    5  A    between atoms: C6_10  and  O4_11 
REMARK    6  A    between atoms: C7_13  and  O5_14 
ROOT
HETATM    1  C1  UNL     1     -44.387  18.357  37.901  1.00  0.00     0.042 C 
HETATM    2  C2  UNL     1     -43.798  19.236  38.942  1.00  0.00     0.148 C 
HETATM    3  O1  UNL     1     -43.218  20.388  38.479  1.00  0.00    -0.381 OA
HETATM    4  C3  UNL     1     -42.280  20.820  39.390  1.00  0.00     0.203 C 
HETATM    5  C4  UNL     1     -42.219  19.794  40.505  1.00  0.00     0.179 C 
HETATM    6  C7  UNL     1     -42.643  18.560  39.696  1.00  0.00     0.177 C 
ENDROOT
BRANCH   5   7
HETATM    7  O2  UNL     1     -40.992  19.634  41.049  1.00  0.00    -0.349 OA
BRANCH   7   8
HETATM    8  C5  UNL     1     -40.813  20.215  42.282  1.00  0.00     0.280 C 
BRANCH   8   9
HETATM    9  O3  UNL     1     -39.710  19.715  42.970  1.00  0.00    -0.369 OA
ATOM     10  H3  UNL     1     -39.605  20.094  43.834  1.00  0.00     0.212 HD
ENDBRANCH   8   9
BRANCH   8  11
HETATM   11  C6  UNL     1     -40.771  21.716  42.249  1.00  0.00     0.224 C 
BRANCH  11  12
HETATM   12  O4  UNL     1     -40.387  22.139  43.536  1.00  0.00    -0.396 OA
ATOM     13  H4  UNL     1     -40.954  21.690  44.151  1.00  0.00     0.209 HD
ENDBRANCH  11  12
ENDBRANCH   8  11
ENDBRANCH   7   8
ENDBRANCH   5   7
BRANCH   6  14
HETATM   14  O5  UNL     1     -43.067  17.533  40.490  1.00  0.00    -0.390 OA
ATOM     15  H5  UNL     1     -43.402  17.833  41.326  1.00  0.00     0.210 HD
ENDBRANCH   6  14
TORSDOF 6
ENDMDL
MODEL 3
REMARK VINA RESULT: -5.619980167      2.938      3.666
REMARK  6 active torsions:
REMARK  status: ('A' for Active; 'I' for Inactive)
REMARK    1  A    between atoms: C4_5  and  O2_6 
REMARK    2  A    between atoms: O2_6  and  C5_7 
REMARK    3  A    between atoms: C5_7  and  O3_8 
REMARK    4  A    between atoms: C5_7  and  C6_10 
REMARK    5  A    between atoms: C6_10  and  O4_11 
REMARK    6  A    between atoms: C7_13  and  O5_14 
ROOT
HETATM    1  C1  UNL     1     -41.496  20.474  36.126  1.00  0.00     0.042 C 
HETATM    2  C2  UNL     1     -41.571  19.437  37.186  1.00  0.00     0.148 C 
HETATM    3  O1  UNL     1     -42.185  18.269  36.822  1.00  0.00    -0.381 OA
HETATM    4  C3  UNL     1     -42.667  17.641  37.949  1.00  0.00     0.203 C 
HETATM    5  C4  UNL     1     -42.385  18.547  39.132  1.00  0.00     0.179 C 
HETATM    6  C7  UNL     1     -42.404  19.892  38.394  1.00  0.00     0.177 C 
ENDROOT
BRANCH   5   7
HETATM    7  O2  UNL     1     -43.322  18.502  40.106  1.00  0.00    -0.349 OA
BRANCH   7   8
HETATM    8  C5  UNL     1     -44.150  17.405  40.078  1.00  0.00     0.280 C 
BRANCH   8   9
HETATM    9  O3  UNL     1     -44.007  16.580  41.190  1.00  0.00    -0.369 OA
ATOM     10  H3  UNL     1     -44.688  16.706  41.840  1.00  0.00     0.212 HD
ENDBRANCH   8   9
BRANCH   8  11
HETATM   11  C6  UNL     1     -45.598  17.740  39.859  1.00  0.00     0.224 C 
BRANCH  11  12
HETATM   12  O4  UNL     1     -46.289  17.323  41.013  1.00  0.00    -0.396 OA
ATOM     13  H4  UNL     1     -45.631  17.060  41.645  1.00  0.00     0.209 HD
ENDBRANCH  11  12
ENDBRANCH   8  11
ENDBRANCH   7   8
ENDBRANCH   5   7
BRANCH   6  14
HETATM   14  O5  UNL     1     -41.796  20.889  39.103  1.00  0.00    -0.390 OA
ATOM     15  H5  UNL     1     -42.407  21.563  39.380  1.00  0.00     0.210 HD
ENDBRANCH   6  14
TORSDOF 6
ENDMDL
MODEL 4
REMARK VINA RESULT: -5.580254841      1.589      1.798
REMARK  6 active torsions:
REMARK  status: ('A' for Active; 'I' for Inactive)
REMARK    1  A    between atoms: C4_5  and  O2_6 
REMARK    2  A    between atoms: O2_6  and  C5_7 
REMARK    3  A    between atoms: C5_7  and  O3_8 
REMARK    4  A    between atoms: C5_7  and  C6_10 
REMARK    5  A    between atoms: C6_10  and  O4_11 
REMARK    6  A    between atoms: C7_13  and  O5_14 
ROOT
HETATM    1  C1  UNL     1     -43.410  17.976  36.120  1.00  0.00     0.042 C 
HETATM    2  C2  UNL     1     -42.850  18.026  37.495  1.00  0.00     0.148 C 
HETATM    3  O1  UNL     1     -43.758  17.850  38.505  1.00  0.00    -0.381 OA
HETATM    4  C3  UNL     1     -43.273  18.432  39.655  1.00  0.00     0.203 C 
HETATM    5  C4  UNL     1     -41.957  19.100  39.309  1.00  0.00     0.179 C 
HETATM    6  C7  UNL     1     -42.238  19.394  37.829  1.00  0.00     0.177 C 
ENDROOT
BRANCH   5   7
HETATM    7  O2  UNL     1     -41.707  20.234  40.002  1.00  0.00    -0.349 OA
BRANCH   7   8
HETATM    8  C5  UNL     1     -41.413  20.059  41.334  1.00  0.00     0.280 C 
BRANCH   8   9
HETATM    9  O3  UNL     1     -40.370  19.163  41.552  1.00  0.00    -0.369 OA
ATOM     10  H3  UNL     1     -39.930  19.297  42.383  1.00  0.00     0.212 HD
ENDBRANCH   8   9
BRANCH   8  11
HETATM   11  C6  UNL     1     -41.167  21.340  42.078  1.00  0.00     0.224 C 
BRANCH  11  12
HETATM   12  O4  UNL     1     -41.134  21.013  43.447  1.00  0.00    -0.396 OA
ATOM     13  H4  UNL     1     -41.813  21.526  43.867  1.00  0.00     0.209 HD
ENDBRANCH  11  12
ENDBRANCH   8  11
ENDBRANCH   7   8
ENDBRANCH   5   7
BRANCH   6  14
HETATM   14  O5  UNL     1     -41.098  19.645  37.119  1.00  0.00    -0.390 OA
ATOM     15  H5  UNL     1     -41.121  19.266  36.248  1.00  0.00     0.210 HD
ENDBRANCH   6  14
TORSDOF 6
ENDMDL
MODEL 5
REMARK VINA RESULT: -5.552712895      1.882      2.456
REMARK  6 active torsions:
REMARK  status: ('A' for Active; 'I' for Inactive)
REMARK    1  A    between atoms: C4_5  and  O2_6 
REMARK    2  A    between atoms: O2_6  and  C5_7 
REMARK    3  A    between atoms: C5_7  and  O3_8 
REMARK    4  A    between atoms: C5_7  and  C6_10 
REMARK    5  A    between atoms: C6_10  and  O4_11 
REMARK    6  A    between atoms: C7_13  and  O5_14 
ROOT
HETATM    1  C1  UNL     1     -43.736  17.237  34.971  1.00  0.00     0.042 C 
HETATM    2  C2  UNL     1     -43.412  18.273  35.984  1.00  0.00     0.148 C 
HETATM    3  O1  UNL     1     -42.565  19.263  35.560  1.00  0.00    -0.381 OA
HETATM    4  C3  UNL     1     -41.932  19.814  36.652  1.00  0.00     0.203 C 
HETATM    5  C4  UNL     1     -42.379  19.041  37.877  1.00  0.00     0.179 C 
HETATM    6  C7  UNL     1     -42.672  17.696  37.199  1.00  0.00     0.177 C 
ENDROOT
BRANCH   5   7
HETATM    7  O2  UNL     1     -41.433  18.918  38.836  1.00  0.00    -0.349 OA
BRANCH   7   8
HETATM    8  C5  UNL     1     -41.809  19.332  40.092  1.00  0.00     0.280 C 
BRANCH   8   9
HETATM    9  O3  UNL     1     -40.833  19.103  41.060  1.00  0.00    -0.369 OA
ATOM     10  H3  UNL     1     -41.194  18.874  41.907  1.00  0.00     0.212 HD
ENDBRANCH   8   9
BRANCH   8  11
HETATM   11  C6  UNL     1     -42.279  20.757  40.150  1.00  0.00     0.224 C 
BRANCH  11  12
HETATM   12  O4  UNL     1     -41.661  21.342  41.272  1.00  0.00    -0.396 OA
ATOM     13  H4  UNL     1     -42.074  22.187  41.402  1.00  0.00     0.209 HD
ENDBRANCH  11  12
ENDBRANCH   8  11
ENDBRANCH   7   8
ENDBRANCH   5   7
BRANCH   6  14
HETATM   14  O5  UNL     1     -43.466  16.886  37.959  1.00  0.00    -0.390 OA
ATOM     15  H5  UNL     1     -44.323  17.265  38.122  1.00  0.00     0.210 HD
ENDBRANCH   6  14
TORSDOF 6
ENDMDL
