MODEL 1
REMARK VINA RESULT: -6.603580951      0.000      0.000
REMARK  6 active torsions:
REMARK  status: ('A' for Active; 'I' for Inactive)
REMARK    1  A    between atoms: C2_2  and  C3_3 
REMARK    2  A    between atoms: C3_3  and  O1_4 
REMARK    3  A    between atoms: O1_4  and  C4_5 
REMARK    4  A    between atoms: C4_5  and  O2_6 
REMARK    5  A    between atoms: C6_10  and  O4_11 
REMARK    6  A    between atoms: C7_13  and  O5_14 
ROOT
HETATM    1  C1  UNL     1     -42.820  21.039  39.478  1.00  0.00     0.051 C 
HETATM    2  C2  UNL     1     -42.182  19.655  39.518  1.00  0.00     0.107 C 
HETATM    3  O3  UNL     1     -41.450  19.437  38.391  1.00  0.00    -0.373 OA
HETATM    4  C5  UNL     1     -41.694  18.131  37.970  1.00  0.00     0.203 C 
HETATM    5  C6  UNL     1     -43.224  18.114  38.097  1.00  0.00     0.173 C 
HETATM    6  C7  UNL     1     -43.353  18.681  39.496  1.00  0.00     0.185 C 
ENDROOT
BRANCH   2   7
HETATM    7  C3  UNL     1     -41.388  19.573  40.760  1.00  0.00     0.210 C 
BRANCH   7   8
HETATM    8  O1  UNL     1     -41.553  20.608  41.596  1.00  0.00    -0.364 OA
BRANCH   8   9
HETATM    9  C4  UNL     1     -40.837  20.758  42.726  1.00  0.00     0.334 C 
BRANCH   9  10
HETATM   10  O2  UNL     1     -41.595  20.205  43.797  1.00  0.00    -0.377 OA
ATOM     11  H2  UNL     1     -41.376  19.282  43.860  1.00  0.00     0.212 HD
ENDBRANCH   9  10
ENDBRANCH   8   9
ENDBRANCH   7   8
ENDBRANCH   2   7
BRANCH   6  12
HETATM   12  O5  UNL     1     -43.187  17.671  40.442  1.00  0.00    -0.390 OA
ATOM     13  H5  UNL     1     -43.748  16.927  40.254  1.00  0.00     0.210 HD
ENDBRANCH   6  12
BRANCH   5  14
HETATM   14  O4  UNL     1     -43.731  16.833  37.992  1.00  0.00    -0.391 OA
ATOM     15  H4  UNL     1     -44.022  16.642  37.108  1.00  0.00     0.210 HD
ENDBRANCH   5  14
TORSDOF 6
ENDMDL
MODEL 2
REMARK VINA RESULT: -5.788645521      2.903      4.636
REMARK  6 active torsions:
REMARK  status: ('A' for Active; 'I' for Inactive)
REMARK    1  A    between atoms: C2_2  and  C3_3 
REMARK    2  A    between atoms: C3_3  and  O1_4 
REMARK    3  A    between atoms: O1_4  and  C4_5 
REMARK    4  A    between atoms: C4_5  and  O2_6 
REMARK    5  A    between atoms: C6_10  and  O4_11 
REMARK    6  A    between atoms: C7_13  and  O5_14 
ROOT
HETATM    1  C1  UNL     1     -41.905  18.849  38.819  1.00  0.00     0.051 C 
HETATM    2  C2  UNL     1     -43.134  17.972  38.610  1.00  0.00     0.107 C 
HETATM    3  O3  UNL     1     -44.264  18.733  38.598  1.00  0.00    -0.373 OA
HETATM    4  C5  UNL     1     -45.238  18.059  39.332  1.00  0.00     0.203 C 
HETATM    5  C6  UNL     1     -44.398  17.670  40.557  1.00  0.00     0.173 C 
HETATM    6  C7  UNL     1     -43.198  17.082  39.845  1.00  0.00     0.185 C 
ENDROOT
BRANCH   2   7
HETATM    7  C3  UNL     1     -42.924  17.212  37.362  1.00  0.00     0.210 C 
BRANCH   7   8
HETATM    8  O1  UNL     1     -41.678  16.746  37.196  1.00  0.00    -0.364 OA
BRANCH   8   9
HETATM    9  C4  UNL     1     -41.413  15.472  36.855  1.00  0.00     0.334 C 
BRANCH   9  10
HETATM   10  O2  UNL     1     -40.063  15.414  36.407  1.00  0.00    -0.377 OA
ATOM     11  H2  UNL     1     -39.939  14.581  35.966  1.00  0.00     0.212 HD
ENDBRANCH   9  10
ENDBRANCH   8   9
ENDBRANCH   7   8
ENDBRANCH   2   7
BRANCH   6  12
HETATM   12  O5  UNL     1     -43.446  15.755  39.498  1.00  0.00    -0.390 OA
ATOM     13  H5  UNL     1     -43.957  15.314  40.166  1.00  0.00     0.210 HD
ENDBRANCH   6  12
BRANCH   5  14
HETATM   14  O4  UNL     1     -45.051  16.747  41.352  1.00  0.00    -0.391 OA
ATOM     15  H4  UNL     1     -45.905  16.523  40.999  1.00  0.00     0.210 HD
ENDBRANCH   5  14
TORSDOF 6
ENDMDL
MODEL 3
REMARK VINA RESULT: -5.781674228      2.901      4.926
REMARK  6 active torsions:
REMARK  status: ('A' for Active; 'I' for Inactive)
REMARK    1  A    between atoms: C2_2  and  C3_3 
REMARK    2  A    between atoms: C3_3  and  O1_4 
REMARK    3  A    between atoms: O1_4  and  C4_5 
REMARK    4  A    between atoms: C4_5  and  O2_6 
REMARK    5  A    between atoms: C6_10  and  O4_11 
REMARK    6  A    between atoms: C7_13  and  O5_14 
ROOT
HETATM    1  C1  UNL     1     -41.839  18.813  38.965  1.00  0.00     0.051 C 
HETATM    2  C2  UNL     1     -43.023  17.895  38.681  1.00  0.00     0.107 C 
HETATM    3  O3  UNL     1     -44.157  18.625  38.497  1.00  0.00    -0.373 OA
HETATM    4  C5  UNL     1     -45.195  17.973  39.163  1.00  0.00     0.203 C 
HETATM    5  C6  UNL     1     -44.487  17.681  40.494  1.00  0.00     0.173 C 
HETATM    6  C7  UNL     1     -43.205  17.081  39.955  1.00  0.00     0.185 C 
ENDROOT
BRANCH   2   7
HETATM    7  C3  UNL     1     -42.663  17.064  37.513  1.00  0.00     0.210 C 
BRANCH   7   8
HETATM    8  O1  UNL     1     -42.832  17.667  36.328  1.00  0.00    -0.364 OA
BRANCH   8   9
HETATM    9  C4  UNL     1     -43.491  17.096  35.303  1.00  0.00     0.334 C 
BRANCH   9  10
HETATM   10  O2  UNL     1     -42.714  15.993  34.848  1.00  0.00    -0.377 OA
ATOM     11  H2  UNL     1     -43.020  15.761  33.979  1.00  0.00     0.212 HD
ENDBRANCH   9  10
ENDBRANCH   8   9
ENDBRANCH   7   8
ENDBRANCH   2   7
BRANCH   6  12
HETATM   12  O5  UNL     1     -43.390  15.729  39.669  1.00  0.00    -0.390 OA
ATOM     13  H5  UNL     1     -44.313  15.509  39.627  1.00  0.00     0.210 HD
ENDBRANCH   6  12
BRANCH   5  14
HETATM   14  O4  UNL     1     -45.207  16.794  41.270  1.00  0.00    -0.391 OA
ATOM     15  H4  UNL     1     -45.712  17.242  41.939  1.00  0.00     0.210 HD
ENDBRANCH   5  14
TORSDOF 6
ENDMDL
MODEL 4
REMARK VINA RESULT: -5.701810703      1.177      1.260
REMARK  6 active torsions:
REMARK  status: ('A' for Active; 'I' for Inactive)
REMARK    1  A    between atoms: C2_2  and  C3_3 
REMARK    2  A    between atoms: C3_3  and  O1_4 
REMARK    3  A    between atoms: O1_4  and  C4_5 
REMARK    4  A    between atoms: C4_5  and  O2_6 
REMARK    5  A    between atoms: C6_10  and  O4_11 
REMARK    6  A    between atoms: C7_13  and  O5_14 
ROOT
HETATM    1  C1  UNL     1     -43.398  20.412  38.898  1.00  0.00     0.051 C 
HETATM    2  C2  UNL     1     -42.579  19.128  38.957  1.00  0.00     0.107 C 
HETATM    3  O3  UNL     1     -41.488  19.222  38.147  1.00  0.00    -0.373 OA
HETATM    4  C5  UNL     1     -41.348  18.006  37.479  1.00  0.00     0.203 C 
HETATM    5  C6  UNL     1     -42.806  17.794  37.047  1.00  0.00     0.173 C 
HETATM    6  C7  UNL     1     -43.487  18.053  38.375  1.00  0.00     0.185 C 
ENDROOT
BRANCH   2   7
HETATM    7  C3  UNL     1     -42.238  18.889  40.374  1.00  0.00     0.210 C 
BRANCH   7   8
HETATM    8  O1  UNL     1     -41.102  19.473  40.780  1.00  0.00    -0.364 OA
BRANCH   8   9
HETATM    9  C4  UNL     1     -41.017  20.206  41.905  1.00  0.00     0.334 C 
BRANCH   9  10
HETATM   10  O2  UNL     1     -39.937  19.693  42.678  1.00  0.00    -0.377 OA
ATOM     11  H2  UNL     1     -40.257  18.939  43.159  1.00  0.00     0.212 HD
ENDBRANCH   9  10
ENDBRANCH   8   9
ENDBRANCH   7   8
ENDBRANCH   2   7
BRANCH   6  12
HETATM   12  O5  UNL     1     -43.471  16.900  39.158  1.00  0.00    -0.390 OA
ATOM     13  H5  UNL     1     -42.582  16.640  39.370  1.00  0.00     0.210 HD
ENDBRANCH   6  12
BRANCH   5  14
HETATM   14  O4  UNL     1     -43.019  16.511  36.580  1.00  0.00    -0.391 OA
ATOM     15  H4  UNL     1     -43.114  15.890  37.293  1.00  0.00     0.210 HD
ENDBRANCH   5  14
TORSDOF 6
ENDMDL
MODEL 5
REMARK VINA RESULT: -5.669761772      1.477      2.123
REMARK  6 active torsions:
REMARK  status: ('A' for Active; 'I' for Inactive)
REMARK    1  A    between atoms: C2_2  and  C3_3 
REMARK    2  A    between atoms: C3_3  and  O1_4 
REMARK    3  A    between atoms: O1_4  and  C4_5 
REMARK    4  A    between atoms: C4_5  and  O2_6 
REMARK    5  A    between atoms: C6_10  and  O4_11 
REMARK    6  A    between atoms: C7_13  and  O5_14 
ROOT
HETATM    1  C1  UNL     1     -43.625  17.965  40.136  1.00  0.00     0.051 C 
HETATM    2  C2  UNL     1     -42.731  19.015  39.485  1.00  0.00     0.107 C 
HETATM    3  O3  UNL     1     -43.452  20.128  39.177  1.00  0.00    -0.373 OA
HETATM    4  C5  UNL     1     -43.048  20.561  37.915  1.00  0.00     0.203 C 
HETATM    5  C6  UNL     1     -43.065  19.215  37.177  1.00  0.00     0.173 C 
HETATM    6  C7  UNL     1     -42.278  18.388  38.173  1.00  0.00     0.185 C 
ENDROOT
BRANCH   2   7
HETATM    7  C3  UNL     1     -41.614  19.277  40.415  1.00  0.00     0.210 C 
BRANCH   7   8
HETATM    8  O1  UNL     1     -41.868  20.212  41.342  1.00  0.00    -0.364 OA
BRANCH   8   9
HETATM    9  C4  UNL     1     -40.961  20.604  42.254  1.00  0.00     0.334 C 
BRANCH   9  10
HETATM   10  O2  UNL     1     -41.447  20.230  43.540  1.00  0.00    -0.377 OA
ATOM     11  H2  UNL     1     -40.773  19.713  43.965  1.00  0.00     0.212 HD
ENDBRANCH   9  10
ENDBRANCH   8   9
ENDBRANCH   7   8
ENDBRANCH   2   7
BRANCH   6  12
HETATM   12  O5  UNL     1     -40.910  18.568  37.974  1.00  0.00    -0.390 OA
ATOM     13  H5  UNL     1     -40.731  19.386  37.526  1.00  0.00     0.210 HD
ENDBRANCH   6  12
BRANCH   5  14
HETATM   14  O4  UNL     1     -42.443  19.300  35.946  1.00  0.00    -0.391 OA
ATOM     15  H4  UNL     1     -41.514  19.108  36.008  1.00  0.00     0.210 HD
ENDBRANCH   5  14
TORSDOF 6
ENDMDL
