MODEL 1
REMARK VINA RESULT: -5.997079377      0.000      0.000
REMARK  5 active torsions:
REMARK  status: ('A' for Active; 'I' for Inactive)
REMARK    1  A    between atoms: C1_2  and  C2_3 
REMARK    2  A    between atoms: C2_3  and  O2_4 
REMARK    3  A    between atoms: C2_3  and  O3_6 
REMARK    4  A    between atoms: O3_6  and  C3_7 
REMARK    5  A    between atoms: C7_12  and  O5_13 
ROOT
HETATM    1  C3  UNL     1     -42.202  19.882  40.476  1.00  0.00     0.105 A 
HETATM    2  C4  UNL     1     -42.293  21.003  39.801  1.00  0.00     0.039 A 
HETATM    3  C5  UNL     1     -43.155  21.206  38.612  1.00  0.00     0.205 A 
HETATM    4  O4  UNL     1     -43.856  20.055  38.301  1.00  0.00    -0.356 OA
HETATM    5  C6  UNL     1     -43.767  18.879  38.999  1.00  0.00     0.174 A 
HETATM    6  C7  UNL     1     -42.986  18.736  40.058  1.00  0.00     0.121 A 
ENDROOT
BRANCH   1   7
HETATM    7  O3  UNL     1     -41.398  19.763  41.550  1.00  0.00    -0.311 OA
BRANCH   7   8
HETATM    8  C2  UNL     1     -41.298  20.690  42.627  1.00  0.00     0.326 C 
BRANCH   8   9
HETATM    9  C1  UNL     1     -39.978  21.204  42.870  1.00  0.00     0.291 C 
HETATM   10  O1  UNL     1     -39.592  20.182  43.174  1.00  0.00    -0.302 OA
ENDBRANCH   8   9
BRANCH   8  11
HETATM   11  O2  UNL     1     -41.769  20.007  43.779  1.00  0.00    -0.365 OA
ATOM     12  H2  UNL     1     -42.681  19.766  43.661  1.00  0.00     0.213 HD
ENDBRANCH   8  11
ENDBRANCH   7   8
ENDBRANCH   1   7
BRANCH   6  13
HETATM   13  O5  UNL     1     -42.919  17.518  40.748  1.00  0.00    -0.356 OA
ATOM     14  H5  UNL     1     -43.493  16.794  40.527  1.00  0.00     0.218 HD
ENDBRANCH   6  13
TORSDOF 5
ENDMDL
MODEL 2
REMARK VINA RESULT: -5.882377015      1.949      2.786
REMARK  5 active torsions:
REMARK  status: ('A' for Active; 'I' for Inactive)
REMARK    1  A    between atoms: C1_2  and  C2_3 
REMARK    2  A    between atoms: C2_3  and  O2_4 
REMARK    3  A    between atoms: C2_3  and  O3_6 
REMARK    4  A    between atoms: O3_6  and  C3_7 
REMARK    5  A    between atoms: C7_12  and  O5_13 
ROOT
HETATM    1  C3  UNL     1     -42.157  18.777  39.389  1.00  0.00     0.105 A 
HETATM    2  C4  UNL     1     -43.040  18.059  40.042  1.00  0.00     0.039 A 
HETATM    3  C5  UNL     1     -43.716  16.856  39.501  1.00  0.00     0.205 A 
HETATM    4  O4  UNL     1     -43.296  16.585  38.211  1.00  0.00    -0.356 OA
HETATM    5  C6  UNL     1     -42.376  17.328  37.521  1.00  0.00     0.174 A 
HETATM    6  C7  UNL     1     -41.792  18.398  38.039  1.00  0.00     0.121 A 
ENDROOT
BRANCH   1   7
HETATM    7  O3  UNL     1     -41.578  19.862  39.940  1.00  0.00    -0.311 OA
BRANCH   7   8
HETATM    8  C2  UNL     1     -41.427  20.113  41.333  1.00  0.00     0.326 C 
BRANCH   8   9
HETATM    9  C1  UNL     1     -41.176  21.485  41.683  1.00  0.00     0.291 C 
HETATM   10  O1  UNL     1     -41.248  21.257  42.792  1.00  0.00    -0.302 OA
ENDBRANCH   8   9
BRANCH   8  11
HETATM   11  O2  UNL     1     -40.346  19.300  41.765  1.00  0.00    -0.365 OA
ATOM     12  H2  UNL     1     -40.385  18.456  41.331  1.00  0.00     0.213 HD
ENDBRANCH   8  11
ENDBRANCH   7   8
ENDBRANCH   1   7
BRANCH   6  13
HETATM   13  O5  UNL     1     -40.854  19.136  37.303  1.00  0.00    -0.356 OA
ATOM     14  H5  UNL     1     -40.920  19.215  36.359  1.00  0.00     0.218 HD
ENDBRANCH   6  13
TORSDOF 5
ENDMDL
MODEL 3
REMARK VINA RESULT: -5.816899659      1.826      2.422
REMARK  5 active torsions:
REMARK  status: ('A' for Active; 'I' for Inactive)
REMARK    1  A    between atoms: C1_2  and  C2_3 
REMARK    2  A    between atoms: C2_3  and  O2_4 
REMARK    3  A    between atoms: C2_3  and  O3_6 
REMARK    4  A    between atoms: O3_6  and  C3_7 
REMARK    5  A    between atoms: C7_12  and  O5_13 
ROOT
HETATM    1  C3  UNL     1     -42.611  18.406  39.920  1.00  0.00     0.105 A 
HETATM    2  C4  UNL     1     -42.064  18.652  38.754  1.00  0.00     0.039 A 
HETATM    3  C5  UNL     1     -42.161  17.764  37.571  1.00  0.00     0.205 A 
HETATM    4  O4  UNL     1     -42.908  16.635  37.854  1.00  0.00    -0.356 OA
HETATM    5  C6  UNL     1     -43.484  16.369  39.068  1.00  0.00     0.174 A 
HETATM    6  C7  UNL     1     -43.375  17.187  40.103  1.00  0.00     0.121 A 
ENDROOT
BRANCH   1   7
HETATM    7  O3  UNL     1     -42.484  19.256  40.958  1.00  0.00    -0.311 OA
BRANCH   7   8
HETATM    8  C2  UNL     1     -41.531  20.308  41.065  1.00  0.00     0.326 C 
BRANCH   8   9
HETATM    9  C1  UNL     1     -40.951  20.478  42.370  1.00  0.00     0.291 C 
HETATM   10  O1  UNL     1     -41.325  21.546  42.441  1.00  0.00    -0.302 OA
ENDBRANCH   8   9
BRANCH   8  11
HETATM   11  O2  UNL     1     -42.210  21.495  40.681  1.00  0.00    -0.365 OA
ATOM     12  H2  UNL     1     -41.804  22.247  41.096  1.00  0.00     0.213 HD
ENDBRANCH   8  11
ENDBRANCH   7   8
ENDBRANCH   1   7
BRANCH   6  13
HETATM   13  O5  UNL     1     -43.976  16.883  41.333  1.00  0.00    -0.356 OA
ATOM     14  H5  UNL     1     -44.093  15.983  41.615  1.00  0.00     0.218 HD
ENDBRANCH   6  13
TORSDOF 5
ENDMDL
MODEL 4
REMARK VINA RESULT: -5.746851982      2.033      4.012
REMARK  5 active torsions:
REMARK  status: ('A' for Active; 'I' for Inactive)
REMARK    1  A    between atoms: C1_2  and  C2_3 
REMARK    2  A    between atoms: C2_3  and  O2_4 
REMARK    3  A    between atoms: C2_3  and  O3_6 
REMARK    4  A    between atoms: O3_6  and  C3_7 
REMARK    5  A    between atoms: C7_12  and  O5_13 
ROOT
HETATM    1  C3  UNL     1     -43.054  18.971  39.143  1.00  0.00     0.105 A 
HETATM    2  C4  UNL     1     -43.830  19.707  38.383  1.00  0.00     0.039 A 
HETATM    3  C5  UNL     1     -43.890  21.187  38.419  1.00  0.00     0.205 A 
HETATM    4  O4  UNL     1     -43.019  21.700  39.363  1.00  0.00    -0.356 OA
HETATM    5  C6  UNL     1     -42.205  20.941  40.162  1.00  0.00     0.174 A 
HETATM    6  C7  UNL     1     -42.178  19.619  40.100  1.00  0.00     0.121 A 
ENDROOT
BRANCH   1   7
HETATM    7  O3  UNL     1     -43.048  17.627  39.060  1.00  0.00    -0.311 OA
BRANCH   7   8
HETATM    8  C2  UNL     1     -44.053  16.752  39.563  1.00  0.00     0.326 C 
BRANCH   8   9
HETATM    9  C1  UNL     1     -45.014  17.366  40.439  1.00  0.00     0.291 C 
HETATM   10  O1  UNL     1     -44.580  16.842  41.347  1.00  0.00    -0.302 OA
ENDBRANCH   8   9
BRANCH   8  11
HETATM   11  O2  UNL     1     -43.366  15.717  40.250  1.00  0.00    -0.365 OA
ATOM     12  H2  UNL     1     -43.223  14.982  39.665  1.00  0.00     0.213 HD
ENDBRANCH   8  11
ENDBRANCH   7   8
ENDBRANCH   1   7
BRANCH   6  13
HETATM   13  O5  UNL     1     -41.333  18.872  40.934  1.00  0.00    -0.356 OA
ATOM     14  H5  UNL     1     -40.644  19.290  41.438  1.00  0.00     0.218 HD
ENDBRANCH   6  13
TORSDOF 5
ENDMDL
MODEL 5
REMARK VINA RESULT: -5.584595496      2.082      4.237
REMARK  5 active torsions:
REMARK  status: ('A' for Active; 'I' for Inactive)
REMARK    1  A    between atoms: C1_2  and  C2_3 
REMARK    2  A    between atoms: C2_3  and  O2_4 
REMARK    3  A    between atoms: C2_3  and  O3_6 
REMARK    4  A    between atoms: O3_6  and  C3_7 
REMARK    5  A    between atoms: C7_12  and  O5_13 
ROOT
HETATM    1  C3  UNL     1     -42.646  18.846  39.473  1.00  0.00     0.105 A 
HETATM    2  C4  UNL     1     -41.917  19.071  40.539  1.00  0.00     0.039 A 
HETATM    3  C5  UNL     1     -41.575  20.415  41.061  1.00  0.00     0.205 A 
HETATM    4  O4  UNL     1     -42.128  21.411  40.276  1.00  0.00    -0.356 OA
HETATM    5  C6  UNL     1     -42.891  21.187  39.161  1.00  0.00     0.174 A 
HETATM    6  C7  UNL     1     -43.176  19.970  38.725  1.00  0.00     0.121 A 
ENDROOT
BRANCH   1   7
HETATM    7  O3  UNL     1     -42.921  17.596  39.050  1.00  0.00    -0.311 OA
BRANCH   7   8
HETATM    8  C2  UNL     1     -43.986  16.773  39.511  1.00  0.00     0.326 C 
BRANCH   8   9
HETATM    9  C1  UNL     1     -44.990  17.449  40.287  1.00  0.00     0.291 C 
HETATM   10  O1  UNL     1     -44.704  16.881  41.226  1.00  0.00    -0.302 OA
ENDBRANCH   8   9
BRANCH   8  11
HETATM   11  O2  UNL     1     -43.384  15.749  40.290  1.00  0.00    -0.365 OA
ATOM     12  H2  UNL     1     -43.869  14.939  40.186  1.00  0.00     0.213 HD
ENDBRANCH   8  11
ENDBRANCH   7   8
ENDBRANCH   1   7
BRANCH   6  13
HETATM   13  O5  UNL     1     -43.960  19.777  37.579  1.00  0.00    -0.356 OA
ATOM     14  H5  UNL     1     -44.555  20.451  37.270  1.00  0.00     0.218 HD
ENDBRANCH   6  13
TORSDOF 5
ENDMDL
