MODEL 1
REMARK VINA RESULT: -6.191838522      0.000      0.000
REMARK  6 active torsions:
REMARK  status: ('A' for Active; 'I' for Inactive)
REMARK    1  A    between atoms: C2_2  and  C3_3 
REMARK    2  A    between atoms: C3_3  and  O1_4 
REMARK    3  A    between atoms: C5_8  and  C6_9 
REMARK    4  A    between atoms: C6_9  and  O3_10 
REMARK    5  A    between atoms: C6_9  and  C7_12 
REMARK    6  A    between atoms: C7_12  and  O4_13 
ROOT
HETATM    1  C1  UNL     1     -44.594  18.385  38.782  1.00  0.00     0.051 C 
HETATM    2  C2  UNL     1     -43.300  18.084  39.524  1.00  0.00     0.103 C 
HETATM    3  C4  UNL     1     -42.182  18.179  38.542  1.00  0.00     0.211 C 
HETATM    4  O2  UNL     1     -41.531  19.362  38.970  1.00  0.00    -0.355 OA
HETATM    5  C5  UNL     1     -41.654  19.239  40.337  1.00  0.00     0.291 C 
HETATM    6  O5  UNL     1     -43.021  19.029  40.493  1.00  0.00    -0.344 OA
ENDROOT
BRANCH   5   7
HETATM    7  C6  UNL     1     -41.147  20.425  41.101  1.00  0.00     0.196 C 
BRANCH   7   8
HETATM    8  O3  UNL     1     -42.146  21.360  41.207  1.00  0.00    -0.389 OA
ATOM      9  H3  UNL     1     -42.069  21.811  42.040  1.00  0.00     0.210 HD
ENDBRANCH   7   8
BRANCH   7  10
HETATM   10  C7  UNL     1     -40.609  20.071  42.458  1.00  0.00     0.200 C 
BRANCH  10  11
HETATM   11  O4  UNL     1     -41.505  20.276  43.478  1.00  0.00    -0.398 OA
ATOM     12  H4  UNL     1     -41.263  19.846  44.291  1.00  0.00     0.209 HD
ENDBRANCH  10  11
ENDBRANCH   7  10
ENDBRANCH   5   7
BRANCH   2  13
HETATM   13  C3  UNL     1     -43.459  16.721  40.138  1.00  0.00     0.204 C 
BRANCH  13  14
HETATM   14  O1  UNL     1     -44.198  16.707  41.293  1.00  0.00    -0.398 OA
ATOM     15  H1  UNL     1     -44.361  15.838  41.641  1.00  0.00     0.209 HD
ENDBRANCH  13  14
ENDBRANCH   2  13
TORSDOF 6
ENDMDL
MODEL 2
REMARK VINA RESULT: -5.906561842      2.287      3.157
REMARK  6 active torsions:
REMARK  status: ('A' for Active; 'I' for Inactive)
REMARK    1  A    between atoms: C2_2  and  C3_3 
REMARK    2  A    between atoms: C3_3  and  O1_4 
REMARK    3  A    between atoms: C5_8  and  C6_9 
REMARK    4  A    between atoms: C6_9  and  O3_10 
REMARK    5  A    between atoms: C6_9  and  C7_12 
REMARK    6  A    between atoms: C7_12  and  O4_13 
ROOT
HETATM    1  C1  UNL     1     -43.505  19.246  37.085  1.00  0.00     0.051 C 
HETATM    2  C2  UNL     1     -42.489  20.154  37.763  1.00  0.00     0.103 C 
HETATM    3  C4  UNL     1     -43.216  21.361  38.253  1.00  0.00     0.211 C 
HETATM    4  O2  UNL     1     -43.182  21.162  39.654  1.00  0.00    -0.355 OA
HETATM    5  C5  UNL     1     -41.921  20.624  39.804  1.00  0.00     0.291 C 
HETATM    6  O5  UNL     1     -41.938  19.574  38.891  1.00  0.00    -0.344 OA
ENDROOT
BRANCH   5   7
HETATM    7  C6  UNL     1     -41.611  20.186  41.204  1.00  0.00     0.196 C 
BRANCH   7   8
HETATM    8  O3  UNL     1     -40.721  19.143  41.168  1.00  0.00    -0.389 OA
ATOM      9  H3  UNL     1     -39.862  19.470  40.927  1.00  0.00     0.210 HD
ENDBRANCH   7   8
BRANCH   7  10
HETATM   10  C7  UNL     1     -41.090  21.296  42.071  1.00  0.00     0.200 C 
BRANCH  10  11
HETATM   11  O4  UNL     1     -41.153  21.022  43.415  1.00  0.00    -0.398 OA
ATOM     12  H4  UNL     1     -40.309  20.822  43.803  1.00  0.00     0.209 HD
ENDBRANCH  10  11
ENDBRANCH   7  10
ENDBRANCH   5   7
BRANCH   2  13
HETATM   13  C3  UNL     1     -41.426  20.454  36.744  1.00  0.00     0.204 C 
BRANCH  13  14
HETATM   14  O1  UNL     1     -40.441  19.503  36.662  1.00  0.00    -0.398 OA
ATOM     15  H1  UNL     1     -40.214  19.254  35.774  1.00  0.00     0.209 HD
ENDBRANCH  13  14
ENDBRANCH   2  13
TORSDOF 6
ENDMDL
MODEL 3
REMARK VINA RESULT: -5.874458057      1.642      1.988
REMARK  6 active torsions:
REMARK  status: ('A' for Active; 'I' for Inactive)
REMARK    1  A    between atoms: C2_2  and  C3_3 
REMARK    2  A    between atoms: C3_3  and  O1_4 
REMARK    3  A    between atoms: C5_8  and  C6_9 
REMARK    4  A    between atoms: C6_9  and  O3_10 
REMARK    5  A    between atoms: C6_9  and  C7_12 
REMARK    6  A    between atoms: C7_12  and  O4_13 
ROOT
HETATM    1  C1  UNL     1     -44.787  18.739  39.180  1.00  0.00     0.051 C 
HETATM    2  C2  UNL     1     -43.295  19.039  39.155  1.00  0.00     0.103 C 
HETATM    3  C4  UNL     1     -43.128  20.473  38.783  1.00  0.00     0.211 C 
HETATM    4  O2  UNL     1     -42.681  21.031  40.006  1.00  0.00    -0.355 OA
HETATM    5  C5  UNL     1     -41.870  20.015  40.466  1.00  0.00     0.291 C 
HETATM    6  O5  UNL     1     -42.715  18.912  40.403  1.00  0.00    -0.344 OA
ENDROOT
BRANCH   5   7
HETATM    7  C6  UNL     1     -41.315  20.258  41.838  1.00  0.00     0.196 C 
BRANCH   7   8
HETATM    8  O3  UNL     1     -40.220  19.456  42.035  1.00  0.00    -0.389 OA
ATOM      9  H3  UNL     1     -39.475  19.820  41.573  1.00  0.00     0.210 HD
ENDBRANCH   7   8
BRANCH   7  10
HETATM   10  C7  UNL     1     -40.968  21.697  42.092  1.00  0.00     0.200 C 
BRANCH  10  11
HETATM   11  O4  UNL     1     -40.558  21.948  43.378  1.00  0.00    -0.398 OA
ATOM     12  H4  UNL     1     -39.673  21.655  43.560  1.00  0.00     0.209 HD
ENDBRANCH  10  11
ENDBRANCH   7  10
ENDBRANCH   5   7
BRANCH   2  13
HETATM   13  C3  UNL     1     -42.675  18.079  38.178  1.00  0.00     0.204 C 
BRANCH  13  14
HETATM   14  O1  UNL     1     -43.467  17.003  37.866  1.00  0.00    -0.398 OA
ATOM     15  H1  UNL     1     -43.363  16.688  36.977  1.00  0.00     0.209 HD
ENDBRANCH  13  14
ENDBRANCH   2  13
TORSDOF 6
ENDMDL
MODEL 4
REMARK VINA RESULT: -5.768866588      1.965      4.198
REMARK  6 active torsions:
REMARK  status: ('A' for Active; 'I' for Inactive)
REMARK    1  A    between atoms: C2_2  and  C3_3 
REMARK    2  A    between atoms: C3_3  and  O1_4 
REMARK    3  A    between atoms: C5_8  and  C6_9 
REMARK    4  A    between atoms: C6_9  and  O3_10 
REMARK    5  A    between atoms: C6_9  and  C7_12 
REMARK    6  A    between atoms: C7_12  and  O4_13 
ROOT
HETATM    1  C1  UNL     1     -43.210  21.193  38.324  1.00  0.00     0.051 C 
HETATM    2  C2  UNL     1     -42.781  19.733  38.323  1.00  0.00     0.103 C 
HETATM    3  C4  UNL     1     -41.885  19.523  39.496  1.00  0.00     0.211 C 
HETATM    4  O2  UNL     1     -42.703  18.732  40.338  1.00  0.00    -0.355 OA
HETATM    5  C5  UNL     1     -43.333  17.936  39.405  1.00  0.00     0.291 C 
HETATM    6  O5  UNL     1     -43.847  18.874  38.515  1.00  0.00    -0.344 OA
ENDROOT
BRANCH   5   7
HETATM    7  C6  UNL     1     -44.381  17.034  39.985  1.00  0.00     0.196 C 
BRANCH   7   8
HETATM    8  O3  UNL     1     -44.002  16.646  41.245  1.00  0.00    -0.389 OA
ATOM      9  H3  UNL     1     -44.745  16.261  41.694  1.00  0.00     0.210 HD
ENDBRANCH   7   8
BRANCH   7  10
HETATM   10  C7  UNL     1     -45.748  17.657  40.014  1.00  0.00     0.200 C 
BRANCH  10  11
HETATM   11  O4  UNL     1     -46.498  17.291  41.104  1.00  0.00    -0.398 OA
ATOM     12  H4  UNL     1     -47.203  16.687  40.897  1.00  0.00     0.209 HD
ENDBRANCH  10  11
ENDBRANCH   7  10
ENDBRANCH   5   7
BRANCH   2  13
HETATM   13  C3  UNL     1     -42.121  19.475  36.997  1.00  0.00     0.204 C 
BRANCH  13  14
HETATM   14  O1  UNL     1     -40.811  19.081  37.088  1.00  0.00    -0.398 OA
ATOM     15  H1  UNL     1     -40.371  18.996  36.250  1.00  0.00     0.209 HD
ENDBRANCH  13  14
ENDBRANCH   2  13
TORSDOF 6
ENDMDL
MODEL 5
REMARK VINA RESULT: -5.759304208      2.135      4.337
REMARK  6 active torsions:
REMARK  status: ('A' for Active; 'I' for Inactive)
REMARK    1  A    between atoms: C2_2  and  C3_3 
REMARK    2  A    between atoms: C3_3  and  O1_4 
REMARK    3  A    between atoms: C5_8  and  C6_9 
REMARK    4  A    between atoms: C6_9  and  O3_10 
REMARK    5  A    between atoms: C6_9  and  C7_12 
REMARK    6  A    between atoms: C7_12  and  O4_13 
ROOT
HETATM    1  C1  UNL     1     -43.006  20.222  36.915  1.00  0.00     0.051 C 
HETATM    2  C2  UNL     1     -42.476  19.172  37.880  1.00  0.00     0.103 C 
HETATM    3  C4  UNL     1     -42.295  19.826  39.208  1.00  0.00     0.211 C 
HETATM    4  O2  UNL     1     -43.335  19.229  39.961  1.00  0.00    -0.355 OA
HETATM    5  C5  UNL     1     -43.300  17.942  39.466  1.00  0.00     0.291 C 
HETATM    6  O5  UNL     1     -43.384  18.151  38.094  1.00  0.00    -0.344 OA
ENDROOT
BRANCH   5   7
HETATM    7  C6  UNL     1     -44.388  17.058  39.998  1.00  0.00     0.196 C 
BRANCH   7   8
HETATM    8  O3  UNL     1     -44.033  16.595  41.240  1.00  0.00    -0.389 OA
ATOM      9  H3  UNL     1     -43.898  15.655  41.199  1.00  0.00     0.210 HD
ENDBRANCH   7   8
BRANCH   7  10
HETATM   10  C7  UNL     1     -45.728  17.734  40.050  1.00  0.00     0.200 C 
BRANCH  10  11
HETATM   11  O4  UNL     1     -46.039  18.432  38.910  1.00  0.00    -0.398 OA
ATOM     12  H4  UNL     1     -46.880  18.874  38.950  1.00  0.00     0.209 HD
ENDBRANCH  10  11
ENDBRANCH   7  10
ENDBRANCH   5   7
BRANCH   2  13
HETATM   13  C3  UNL     1     -41.203  18.637  37.285  1.00  0.00     0.204 C 
BRANCH  13  14
HETATM   14  O1  UNL     1     -40.452  19.577  36.627  1.00  0.00    -0.398 OA
ATOM     15  H1  UNL     1     -40.814  19.851  35.793  1.00  0.00     0.209 HD
ENDBRANCH  13  14
ENDBRANCH   2  13
TORSDOF 6
ENDMDL
