MODEL 1
REMARK VINA RESULT: -4.779752321      0.000      0.000
REMARK  2 active torsions:
REMARK  status: ('A' for Active; 'I' for Inactive)
REMARK    1  A    between atoms: C3_4  and  C4_5 
REMARK    2  A    between atoms: C4_5  and  C5_6 
ROOT
HETATM    1  C4  UNL     1      18.803   3.008  -4.653  1.00  0.00    -0.021 C 
HETATM    2  C7  UNL     1      17.886   3.818  -5.320  1.00  0.00     0.111 C 
HETATM    3  N3  UNL     1      16.584   3.398  -5.590  1.00  0.00    -0.114 NA
ENDROOT
BRANCH   1   4
HETATM    4  C3  UNL     1      20.058   3.593  -4.470  1.00  0.00     0.034 C 
HETATM    5  C2  UNL     1      21.014   3.676  -3.616  1.00  0.00     0.021 C 
HETATM    6  C1  UNL     1      22.230   4.542  -4.027  1.00  0.00     0.065 C 
HETATM    7  N1  UNL     1      21.152   3.114  -2.356  1.00  0.00    -0.107 NA
ENDBRANCH   1   4
BRANCH   1   8
HETATM    8  C5  UNL     1      18.259   1.746  -4.301  1.00  0.00     0.027 C 
HETATM    9  C6  UNL     1      18.622   0.742  -3.596  1.00  0.00     0.101 C 
HETATM   10  N2  UNL     1      17.722  -0.409  -3.488  1.00  0.00    -0.115 NA
ENDBRANCH   1   8
TORSDOF 2
ENDMDL
MODEL 2
REMARK VINA RESULT: -4.670134748      1.281      2.785
REMARK  2 active torsions:
REMARK  status: ('A' for Active; 'I' for Inactive)
REMARK    1  A    between atoms: C3_4  and  C4_5 
REMARK    2  A    between atoms: C4_5  and  C5_6 
ROOT
HETATM    1  C4  UNL     1      19.050   2.001  -3.947  1.00  0.00    -0.021 C 
HETATM    2  C7  UNL     1      18.979   0.883  -3.118  1.00  0.00     0.111 C 
HETATM    3  N3  UNL     1      17.929  -0.031  -3.194  1.00  0.00    -0.114 NA
ENDROOT
BRANCH   1   4
HETATM    4  C3  UNL     1      20.171   2.805  -3.730  1.00  0.00     0.034 C 
HETATM    5  C2  UNL     1      20.596   4.006  -3.900  1.00  0.00     0.021 C 
HETATM    6  C1  UNL     1      22.037   4.301  -3.415  1.00  0.00     0.065 C 
HETATM    7  N1  UNL     1      19.976   5.114  -4.458  1.00  0.00    -0.107 NA
ENDBRANCH   1   4
BRANCH   1   8
HETATM    8  C5  UNL     1      17.953   2.085  -4.842  1.00  0.00     0.027 C 
HETATM    9  C6  UNL     1      17.223   3.015  -5.332  1.00  0.00     0.101 C 
HETATM   10  N2  UNL     1      16.150   2.655  -6.262  1.00  0.00    -0.115 NA
ENDBRANCH   1   8
TORSDOF 2
ENDMDL
MODEL 3
REMARK VINA RESULT: -4.649223470      1.526      1.528
REMARK  2 active torsions:
REMARK  status: ('A' for Active; 'I' for Inactive)
REMARK    1  A    between atoms: C3_4  and  C4_5 
REMARK    2  A    between atoms: C4_5  and  C5_6 
ROOT
HETATM    1  C4  UNL     1      19.027   3.082  -5.034  1.00  0.00    -0.021 C 
HETATM    2  C7  UNL     1      19.000   2.926  -6.419  1.00  0.00     0.111 C 
HETATM    3  N3  UNL     1      18.501   1.774  -7.026  1.00  0.00    -0.114 NA
ENDROOT
BRANCH   1   4
HETATM    4  C3  UNL     1      19.560   4.299  -4.605  1.00  0.00     0.034 C 
HETATM    5  C2  UNL     1      20.558   4.789  -3.961  1.00  0.00     0.021 C 
HETATM    6  C1  UNL     1      20.586   6.329  -3.805  1.00  0.00     0.065 C 
HETATM    7  N1  UNL     1      21.642   4.165  -3.363  1.00  0.00    -0.107 NA
ENDBRANCH   1   4
BRANCH   1   8
HETATM    8  C5  UNL     1      18.503   1.955  -4.350  1.00  0.00     0.027 C 
HETATM    9  C6  UNL     1      18.917   1.132  -3.462  1.00  0.00     0.101 C 
HETATM   10  N2  UNL     1      18.019   0.068  -3.010  1.00  0.00    -0.115 NA
ENDBRANCH   1   8
TORSDOF 2
ENDMDL
MODEL 4
REMARK VINA RESULT: -4.553513668      1.831      2.676
REMARK  2 active torsions:
REMARK  status: ('A' for Active; 'I' for Inactive)
REMARK    1  A    between atoms: C3_4  and  C4_5 
REMARK    2  A    between atoms: C4_5  and  C5_6 
ROOT
HETATM    1  C4  UNL     1      19.507   1.894  -3.682  1.00  0.00    -0.021 C 
HETATM    2  C7  UNL     1      19.201   1.360  -2.431  1.00  0.00     0.111 C 
HETATM    3  N3  UNL     1      18.190   0.417  -2.254  1.00  0.00    -0.114 NA
ENDROOT
BRANCH   1   4
HETATM    4  C3  UNL     1      20.548   2.824  -3.670  1.00  0.00     0.034 C 
HETATM    5  C2  UNL     1      20.818   4.037  -3.998  1.00  0.00     0.021 C 
HETATM    6  C1  UNL     1      22.259   4.523  -3.709  1.00  0.00     0.065 C 
HETATM    7  N1  UNL     1      20.024   5.013  -4.582  1.00  0.00    -0.107 NA
ENDBRANCH   1   4
BRANCH   1   8
HETATM    8  C5  UNL     1      18.682   1.372  -4.712  1.00  0.00     0.027 C 
HETATM    9  C6  UNL     1      18.550   1.544  -5.973  1.00  0.00     0.101 C 
HETATM   10  N2  UNL     1      17.534   0.771  -6.690  1.00  0.00    -0.115 NA
ENDBRANCH   1   8
TORSDOF 2
ENDMDL
MODEL 5
REMARK VINA RESULT: -4.522422804      2.052      3.192
REMARK  2 active torsions:
REMARK  status: ('A' for Active; 'I' for Inactive)
REMARK    1  A    between atoms: C3_4  and  C4_5 
REMARK    2  A    between atoms: C4_5  and  C5_6 
ROOT
HETATM    1  C4  UNL     1      20.180   3.891  -4.239  1.00  0.00    -0.021 C 
HETATM    2  C7  UNL     1      20.888   3.472  -3.114  1.00  0.00     0.111 C 
HETATM    3  N3  UNL     1      20.596   2.278  -2.455  1.00  0.00    -0.114 NA
ENDROOT
BRANCH   1   4
HETATM    4  C3  UNL     1      20.611   5.110  -4.766  1.00  0.00     0.034 C 
HETATM    5  C2  UNL     1      20.664   6.364  -4.489  1.00  0.00     0.021 C 
HETATM    6  C1  UNL     1      21.308   7.279  -5.559  1.00  0.00     0.065 C 
HETATM    7  N1  UNL     1      20.232   7.062  -3.371  1.00  0.00    -0.107 NA
ENDBRANCH   1   4
BRANCH   1   8
HETATM    8  C5  UNL     1      19.159   2.979  -4.609  1.00  0.00     0.027 C 
HETATM    9  C6  UNL     1      17.963   3.056  -5.058  1.00  0.00     0.101 C 
HETATM   10  N2  UNL     1      17.226   1.818  -5.320  1.00  0.00    -0.115 NA
ENDBRANCH   1   8
TORSDOF 2
ENDMDL
