MODEL 1
REMARK VINA RESULT: -4.543305100      0.000      0.000
REMARK  5 active torsions:
REMARK  status: ('A' for Active; 'I' for Inactive)
REMARK    1  A    between atoms: C2_2  and  C3_3 
REMARK    2  A    between atoms: C3_3  and  N1_4 
REMARK    3  A    between atoms: C4_8  and  C5_9 
REMARK    4  A    between atoms: C4_8  and  C7_12 
REMARK    5  A    between atoms: C7_12  and  N3_13 
ROOT
HETATM    1  C1  UNL     1      20.881   2.745  -2.307  1.00  0.00     0.046 C 
HETATM    2  C2  UNL     1      20.445   3.385  -3.596  1.00  0.00    -0.051 C 
HETATM    3  C4  UNL     1      19.449   2.818  -4.251  1.00  0.00    -0.028 C 
ENDROOT
BRANCH   3   4
HETATM    4  C5  UNL     1      18.816   1.633  -3.734  1.00  0.00     0.023 C 
HETATM    5  C6  UNL     1      18.436   0.516  -4.236  1.00  0.00     0.100 C 
HETATM    6  N2  UNL     1      18.482  -0.023  -5.524  1.00  0.00    -0.115 NA
ENDBRANCH   3   4
BRANCH   3   7
HETATM    7  C7  UNL     1      19.033   3.442  -5.517  1.00  0.00     0.268 C 
BRANCH   7   8
HETATM    8  N3  UNL     1      19.576   2.781  -6.697  1.00  0.00    -0.075 N 
ATOM      9  H33 UNL     1      20.524   3.105  -6.888  1.00  0.00     0.274 HD
ATOM     10  H32 UNL     1      19.767   1.798  -6.504  1.00  0.00     0.274 HD
ATOM     11  H31 UNL     1      18.988   2.879  -7.525  1.00  0.00     0.274 HD
ENDBRANCH   7   8
ENDBRANCH   3   7
BRANCH   2  12
HETATM   12  C3  UNL     1      21.204   4.583  -3.966  1.00  0.00     0.264 C 
BRANCH  12  13
HETATM   13  N1  UNL     1      22.635   4.317  -3.696  1.00  0.00    -0.076 N 
ATOM     14  H13 UNL     1      22.964   4.760  -2.838  1.00  0.00     0.274 HD
ATOM     15  H12 UNL     1      22.813   3.349  -3.427  1.00  0.00     0.274 HD
ATOM     16  H11 UNL     1      23.168   4.603  -4.518  1.00  0.00     0.274 HD
ENDBRANCH  12  13
ENDBRANCH   2  12
TORSDOF 5
ENDMDL
MODEL 2
REMARK VINA RESULT: -4.404698789      1.156      3.971
REMARK  5 active torsions:
REMARK  status: ('A' for Active; 'I' for Inactive)
REMARK    1  A    between atoms: C2_2  and  C3_3 
REMARK    2  A    between atoms: C3_3  and  N1_4 
REMARK    3  A    between atoms: C4_8  and  C5_9 
REMARK    4  A    between atoms: C4_8  and  C7_12 
REMARK    5  A    between atoms: C7_12  and  N3_13 
ROOT
HETATM    1  C1  UNL     1      18.711   0.915  -2.174  1.00  0.00     0.046 C 
HETATM    2  C2  UNL     1      18.870   1.222  -3.637  1.00  0.00    -0.051 C 
HETATM    3  C4  UNL     1      19.761   2.136  -3.974  1.00  0.00    -0.028 C 
ENDROOT
BRANCH   3   4
HETATM    4  C5  UNL     1      20.542   2.801  -2.965  1.00  0.00     0.023 C 
HETATM    5  C6  UNL     1      21.459   3.698  -2.972  1.00  0.00     0.100 C 
HETATM    6  N2  UNL     1      22.091   4.416  -3.989  1.00  0.00    -0.115 NA
ENDBRANCH   3   4
BRANCH   3   7
HETATM    7  C7  UNL     1      19.905   2.440  -5.406  1.00  0.00     0.268 C 
BRANCH   7   8
HETATM    8  N3  UNL     1      19.363   3.740  -5.783  1.00  0.00    -0.075 N 
ATOM      9  H33 UNL     1      18.951   4.206  -4.975  1.00  0.00     0.274 HD
ATOM     10  H32 UNL     1      20.114   4.396  -5.994  1.00  0.00     0.274 HD
ATOM     11  H31 UNL     1      18.696   3.696  -6.552  1.00  0.00     0.274 HD
ENDBRANCH   7   8
ENDBRANCH   3   7
BRANCH   2  12
HETATM   12  C3  UNL     1      17.991   0.449  -4.519  1.00  0.00     0.264 C 
BRANCH  12  13
HETATM   13  N1  UNL     1      17.966  -0.947  -4.027  1.00  0.00    -0.076 N 
ATOM     14  H13 UNL     1      18.858  -1.426  -4.149  1.00  0.00     0.274 HD
ATOM     15  H12 UNL     1      17.918  -1.006  -3.009  1.00  0.00     0.274 HD
ATOM     16  H11 UNL     1      17.193  -1.428  -4.487  1.00  0.00     0.274 HD
ENDBRANCH  12  13
ENDBRANCH   2  12
TORSDOF 5
ENDMDL
MODEL 3
REMARK VINA RESULT: -4.381095121      2.101      4.385
REMARK  5 active torsions:
REMARK  status: ('A' for Active; 'I' for Inactive)
REMARK    1  A    between atoms: C2_2  and  C3_3 
REMARK    2  A    between atoms: C3_3  and  N1_4 
REMARK    3  A    between atoms: C4_8  and  C5_9 
REMARK    4  A    between atoms: C4_8  and  C7_12 
REMARK    5  A    between atoms: C7_12  and  N3_13 
ROOT
HETATM    1  C1  UNL     1      18.563   2.677  -5.006  1.00  0.00     0.046 C 
HETATM    2  C2  UNL     1      19.771   2.741  -4.114  1.00  0.00    -0.051 C 
HETATM    3  C4  UNL     1      20.399   3.898  -4.022  1.00  0.00    -0.028 C 
ENDROOT
BRANCH   3   4
HETATM    4  C5  UNL     1      19.931   5.044  -4.755  1.00  0.00     0.023 C 
HETATM    5  C6  UNL     1      19.878   6.305  -4.530  1.00  0.00     0.100 C 
HETATM    6  N2  UNL     1      20.265   7.106  -3.453  1.00  0.00    -0.115 NA
ENDBRANCH   3   4
BRANCH   3   7
HETATM    7  C7  UNL     1      21.587   3.952  -3.154  1.00  0.00     0.268 C 
BRANCH   7   8
HETATM    8  N3  UNL     1      22.795   4.384  -3.847  1.00  0.00    -0.075 N 
ATOM      9  H33 UNL     1      23.257   3.592  -4.293  1.00  0.00     0.274 HD
ATOM     10  H32 UNL     1      22.560   4.933  -4.674  1.00  0.00     0.274 HD
ATOM     11  H31 UNL     1      23.447   4.892  -3.250  1.00  0.00     0.274 HD
ENDBRANCH   7   8
ENDBRANCH   3   7
BRANCH   2  12
HETATM   12  C3  UNL     1      20.101   1.478  -3.447  1.00  0.00     0.264 C 
BRANCH  12  13
HETATM   13  N1  UNL     1      19.070   1.225  -2.415  1.00  0.00    -0.076 N 
ATOM     14  H13 UNL     1      18.464   0.437  -2.647  1.00  0.00     0.274 HD
ATOM     15  H12 UNL     1      19.460   0.847  -1.551  1.00  0.00     0.274 HD
ATOM     16  H11 UNL     1      18.553   2.092  -2.269  1.00  0.00     0.274 HD
ENDBRANCH  12  13
ENDBRANCH   2  12
TORSDOF 5
ENDMDL
MODEL 4
REMARK VINA RESULT: -4.316733450      1.529      4.480
REMARK  5 active torsions:
REMARK  status: ('A' for Active; 'I' for Inactive)
REMARK    1  A    between atoms: C2_2  and  C3_3 
REMARK    2  A    between atoms: C3_3  and  N1_4 
REMARK    3  A    between atoms: C4_8  and  C5_9 
REMARK    4  A    between atoms: C4_8  and  C7_12 
REMARK    5  A    between atoms: C7_12  and  N3_13 
ROOT
HETATM    1  C1  UNL     1      18.306   1.846  -6.394  1.00  0.00     0.046 C 
HETATM    2  C2  UNL     1      18.649   1.383  -5.005  1.00  0.00    -0.051 C 
HETATM    3  C4  UNL     1      19.249   2.247  -4.207  1.00  0.00    -0.028 C 
ENDROOT
BRANCH   3   4
HETATM    4  C5  UNL     1      19.555   3.575  -4.667  1.00  0.00     0.023 C 
HETATM    5  C6  UNL     1      20.611   4.303  -4.698  1.00  0.00     0.100 C 
HETATM    6  N2  UNL     1      21.930   4.099  -4.290  1.00  0.00    -0.115 NA
ENDBRANCH   3   4
BRANCH   3   7
HETATM    7  C7  UNL     1      19.591   1.786  -2.852  1.00  0.00     0.268 C 
BRANCH   7   8
HETATM    8  N3  UNL     1      20.999   1.447  -2.690  1.00  0.00    -0.075 N 
ATOM      9  H33 UNL     1      21.195   0.523  -3.077  1.00  0.00     0.274 HD
ATOM     10  H32 UNL     1      21.580   2.015  -3.307  1.00  0.00     0.274 HD
ATOM     11  H31 UNL     1      21.326   1.511  -1.726  1.00  0.00     0.274 HD
ENDBRANCH   7   8
ENDBRANCH   3   7
BRANCH   2  12
HETATM   12  C3  UNL     1      18.263  -0.000  -4.713  1.00  0.00     0.264 C 
BRANCH  12  13
HETATM   13  N1  UNL     1      17.982  -0.676  -6.000  1.00  0.00    -0.076 N 
ATOM     14  H13 UNL     1      17.387  -0.122  -6.616  1.00  0.00     0.274 HD
ATOM     15  H12 UNL     1      18.800  -0.724  -6.608  1.00  0.00     0.274 HD
ATOM     16  H11 UNL     1      17.590  -1.595  -5.792  1.00  0.00     0.274 HD
ENDBRANCH  12  13
ENDBRANCH   2  12
TORSDOF 5
ENDMDL
MODEL 5
REMARK VINA RESULT: -4.310085420      2.978      4.584
REMARK  5 active torsions:
REMARK  status: ('A' for Active; 'I' for Inactive)
REMARK    1  A    between atoms: C2_2  and  C3_3 
REMARK    2  A    between atoms: C3_3  and  N1_4 
REMARK    3  A    between atoms: C4_8  and  C5_9 
REMARK    4  A    between atoms: C4_8  and  C7_12 
REMARK    5  A    between atoms: C7_12  and  N3_13 
ROOT
HETATM    1  C1  UNL     1      17.308   3.405  -5.117  1.00  0.00     0.046 C 
HETATM    2  C2  UNL     1      17.376   1.947  -5.477  1.00  0.00    -0.051 C 
HETATM    3  C4  UNL     1      18.210   1.189  -4.791  1.00  0.00    -0.028 C 
ENDROOT
BRANCH   3   4
HETATM    4  C5  UNL     1      19.016   1.754  -3.742  1.00  0.00     0.023 C 
HETATM    5  C6  UNL     1      19.085   1.602  -2.470  1.00  0.00     0.100 C 
HETATM    6  N2  UNL     1      18.392   0.803  -1.559  1.00  0.00    -0.115 NA
ENDBRANCH   3   4
BRANCH   3   7
HETATM    7  C7  UNL     1      18.280  -0.235  -5.155  1.00  0.00     0.268 C 
BRANCH   7   8
HETATM    8  N3  UNL     1      17.852  -1.131  -4.087  1.00  0.00    -0.075 N 
ATOM      9  H33 UNL     1      18.424  -1.976  -4.074  1.00  0.00     0.274 HD
ATOM     10  H32 UNL     1      18.096  -0.747  -3.175  1.00  0.00     0.274 HD
ATOM     11  H31 UNL     1      16.861  -1.367  -4.126  1.00  0.00     0.274 HD
ENDBRANCH   7   8
ENDBRANCH   3   7
BRANCH   2  12
HETATM   12  C3  UNL     1      16.485   1.549  -6.571  1.00  0.00     0.264 C 
BRANCH  12  13
HETATM   13  N1  UNL     1      15.292   0.906  -5.976  1.00  0.00    -0.076 N 
ATOM     14  H13 UNL     1      14.417   1.312  -6.308  1.00  0.00     0.274 HD
ATOM     15  H12 UNL     1      15.141  -0.042  -6.320  1.00  0.00     0.274 HD
ATOM     16  H11 UNL     1      15.387   0.947  -4.961  1.00  0.00     0.274 HD
ENDBRANCH  12  13
ENDBRANCH   2  12
TORSDOF 5
ENDMDL
