MODEL 1
REMARK VINA RESULT: -4.584278347      0.000      0.000
REMARK  6 active torsions:
REMARK  status: ('A' for Active; 'I' for Inactive)
REMARK    1  A    between atoms: C2_2  and  C3_3 
REMARK    2  A    between atoms: C3_3  and  C5_6 
REMARK    3  A    between atoms: C5_6  and  N2_7 
REMARK    4  A    between atoms: N2_7  and  C6_10 
REMARK    5  A    between atoms: C6_10  and  C7_11 
REMARK    6  A    between atoms: C7_11  and  N3_12 
ROOT
HETATM    1  N2  UNL     1      17.183  -0.363  -7.126  1.00  0.00    -0.070 N 
ATOM      2  H21 UNL     1      16.449  -0.640  -6.475  1.00  0.00     0.277 HD
ATOM      3  H22 UNL     1      17.768  -1.195  -7.038  1.00  0.00     0.277 HD
ENDROOT
BRANCH   1   4
HETATM    4  C5  UNL     1      17.855   0.826  -6.722  1.00  0.00     0.271 C 
BRANCH   4   5
HETATM    5  C3  UNL     1      17.945   1.066  -5.276  1.00  0.00    -0.020 C 
HETATM    6  C4  UNL     1      18.156   0.094  -4.434  1.00  0.00     0.108 C 
HETATM    7  N1  UNL     1      18.242   0.323  -3.037  1.00  0.00    -0.115 NA
BRANCH   5   8
HETATM    8  C2  UNL     1      17.791   2.423  -4.774  1.00  0.00    -0.001 C 
HETATM    9  C1  UNL     1      17.052   3.333  -5.396  1.00  0.00     0.012 C 
ENDBRANCH   5   8
ENDBRANCH   4   5
ENDBRANCH   1   4
BRANCH   1  10
HETATM   10  C6  UNL     1      16.688  -0.172  -8.475  1.00  0.00     0.260 C 
BRANCH  10  11
HETATM   11  C7  UNL     1      16.122  -1.520  -8.943  1.00  0.00     0.257 C 
BRANCH  11  12
HETATM   12  N3  UNL     1      17.035  -2.536  -8.443  1.00  0.00    -0.078 N 
ATOM     13  H33 UNL     1      17.251  -3.260  -9.129  1.00  0.00     0.274 HD
ATOM     14  H32 UNL     1      17.989  -2.198  -8.316  1.00  0.00     0.274 HD
ATOM     15  H31 UNL     1      16.614  -2.898  -7.588  1.00  0.00     0.274 HD
ENDBRANCH  11  12
ENDBRANCH  10  11
ENDBRANCH   1  10
TORSDOF 6
ENDMDL
MODEL 2
REMARK VINA RESULT: -4.583091481      3.469      5.091
REMARK  6 active torsions:
REMARK  status: ('A' for Active; 'I' for Inactive)
REMARK    1  A    between atoms: C2_2  and  C3_3 
REMARK    2  A    between atoms: C3_3  and  C5_6 
REMARK    3  A    between atoms: C5_6  and  N2_7 
REMARK    4  A    between atoms: N2_7  and  C6_10 
REMARK    5  A    between atoms: C6_10  and  C7_11 
REMARK    6  A    between atoms: C7_11  and  N3_12 
ROOT
HETATM    1  N2  UNL     1      20.450   1.328  -3.199  1.00  0.00    -0.070 N 
ATOM      2  H21 UNL     1      21.106   0.696  -2.739  1.00  0.00     0.277 HD
ATOM      3  H22 UNL     1      20.759   1.175  -4.159  1.00  0.00     0.277 HD
ENDROOT
BRANCH   1   4
HETATM    4  C5  UNL     1      20.609   2.681  -2.781  1.00  0.00     0.271 C 
BRANCH   4   5
HETATM    5  C3  UNL     1      21.068   3.631  -3.804  1.00  0.00    -0.020 C 
HETATM    6  C4  UNL     1      22.142   4.348  -3.636  1.00  0.00     0.108 C 
HETATM    7  N1  UNL     1      22.587   5.266  -4.622  1.00  0.00    -0.115 NA
BRANCH   5   8
HETATM    8  C2  UNL     1      20.300   3.772  -5.031  1.00  0.00    -0.001 C 
HETATM    9  C1  UNL     1      19.062   4.248  -5.047  1.00  0.00     0.012 C 
ENDBRANCH   5   8
ENDBRANCH   4   5
ENDBRANCH   1   4
BRANCH   1  10
HETATM   10  C6  UNL     1      19.068   0.945  -2.990  1.00  0.00     0.260 C 
BRANCH  10  11
HETATM   11  C7  UNL     1      18.567   0.330  -4.304  1.00  0.00     0.257 C 
BRANCH  11  12
HETATM   12  N3  UNL     1      17.936  -0.930  -3.944  1.00  0.00    -0.078 N 
ATOM     13  H33 UNL     1      17.886  -1.594  -4.716  1.00  0.00     0.274 HD
ATOM     14  H32 UNL     1      18.503  -1.506  -3.322  1.00  0.00     0.274 HD
ATOM     15  H31 UNL     1      17.024  -0.688  -3.556  1.00  0.00     0.274 HD
ENDBRANCH  11  12
ENDBRANCH  10  11
ENDBRANCH   1  10
TORSDOF 6
ENDMDL
MODEL 3
REMARK VINA RESULT: -4.497448016      2.394      3.131
REMARK  6 active torsions:
REMARK  status: ('A' for Active; 'I' for Inactive)
REMARK    1  A    between atoms: C2_2  and  C3_3 
REMARK    2  A    between atoms: C3_3  and  C5_6 
REMARK    3  A    between atoms: C5_6  and  N2_7 
REMARK    4  A    between atoms: N2_7  and  C6_10 
REMARK    5  A    between atoms: C6_10  and  C7_11 
REMARK    6  A    between atoms: C7_11  and  N3_12 
ROOT
HETATM    1  N2  UNL     1      18.552   2.504  -5.682  1.00  0.00    -0.070 N 
ATOM      2  H21 UNL     1      18.500   3.492  -5.927  1.00  0.00     0.277 HD
ATOM      3  H22 UNL     1      17.713   2.460  -5.103  1.00  0.00     0.277 HD
ENDROOT
BRANCH   1   4
HETATM    4  C5  UNL     1      19.736   2.180  -4.958  1.00  0.00     0.271 C 
BRANCH   4   5
HETATM    5  C3  UNL     1      19.566   1.874  -3.531  1.00  0.00    -0.020 C 
HETATM    6  C4  UNL     1      18.591   1.122  -3.106  1.00  0.00     0.108 C 
HETATM    7  N1  UNL     1      18.424   0.826  -1.728  1.00  0.00    -0.115 NA
BRANCH   5   8
HETATM    8  C2  UNL     1      20.510   2.428  -2.573  1.00  0.00    -0.001 C 
HETATM    9  C1  UNL     1      21.199   3.536  -2.811  1.00  0.00     0.012 C 
ENDBRANCH   5   8
ENDBRANCH   4   5
ENDBRANCH   1   4
BRANCH   1  10
HETATM   10  C6  UNL     1      18.474   1.637  -6.841  1.00  0.00     0.260 C 
BRANCH  10  11
HETATM   11  C7  UNL     1      17.294   0.683  -6.612  1.00  0.00     0.257 C 
BRANCH  11  12
HETATM   12  N3  UNL     1      17.877  -0.610  -6.289  1.00  0.00    -0.078 N 
ATOM     13  H33 UNL     1      17.212  -1.381  -6.345  1.00  0.00     0.274 HD
ATOM     14  H32 UNL     1      18.525  -0.952  -6.999  1.00  0.00     0.274 HD
ATOM     15  H31 UNL     1      18.302  -0.505  -5.368  1.00  0.00     0.274 HD
ENDBRANCH  11  12
ENDBRANCH  10  11
ENDBRANCH   1  10
TORSDOF 6
ENDMDL
MODEL 4
REMARK VINA RESULT: -4.469740032      3.211      4.624
REMARK  6 active torsions:
REMARK  status: ('A' for Active; 'I' for Inactive)
REMARK    1  A    between atoms: C2_2  and  C3_3 
REMARK    2  A    between atoms: C3_3  and  C5_6 
REMARK    3  A    between atoms: C5_6  and  N2_7 
REMARK    4  A    between atoms: N2_7  and  C6_10 
REMARK    5  A    between atoms: C6_10  and  C7_11 
REMARK    6  A    between atoms: C7_11  and  N3_12 
ROOT
HETATM    1  N2  UNL     1      18.177   2.419  -4.689  1.00  0.00    -0.070 N 
ATOM      2  H21 UNL     1      17.546   3.080  -5.142  1.00  0.00     0.277 HD
ATOM      3  H22 UNL     1      17.916   2.616  -3.723  1.00  0.00     0.277 HD
ENDROOT
BRANCH   1   4
HETATM    4  C5  UNL     1      19.548   2.699  -4.956  1.00  0.00     0.271 C 
BRANCH   4   5
HETATM    5  C3  UNL     1      20.128   3.851  -4.253  1.00  0.00    -0.020 C 
HETATM    6  C4  UNL     1      19.905   5.073  -4.647  1.00  0.00     0.108 C 
HETATM    7  N1  UNL     1      20.465   6.188  -3.970  1.00  0.00    -0.115 NA
BRANCH   5   8
HETATM    8  C2  UNL     1      20.971   3.618  -3.091  1.00  0.00    -0.001 C 
HETATM    9  C1  UNL     1      20.764   2.613  -2.250  1.00  0.00     0.012 C 
ENDBRANCH   5   8
ENDBRANCH   4   5
ENDBRANCH   1   4
BRANCH   1  10
HETATM   10  C6  UNL     1      17.909   1.045  -5.068  1.00  0.00     0.260 C 
BRANCH  10  11
HETATM   11  C7  UNL     1      18.600   0.149  -4.032  1.00  0.00     0.257 C 
BRANCH  11  12
HETATM   12  N3  UNL     1      17.902  -1.127  -4.074  1.00  0.00    -0.078 N 
ATOM     13  H33 UNL     1      17.195  -1.227  -3.346  1.00  0.00     0.274 HD
ATOM     14  H32 UNL     1      17.273  -1.220  -4.871  1.00  0.00     0.274 HD
ATOM     15  H31 UNL     1      18.625  -1.845  -4.040  1.00  0.00     0.274 HD
ENDBRANCH  11  12
ENDBRANCH  10  11
ENDBRANCH   1  10
TORSDOF 6
ENDMDL
MODEL 5
REMARK VINA RESULT: -4.351920578      3.614      5.628
REMARK  6 active torsions:
REMARK  status: ('A' for Active; 'I' for Inactive)
REMARK    1  A    between atoms: C2_2  and  C3_3 
REMARK    2  A    between atoms: C3_3  and  C5_6 
REMARK    3  A    between atoms: C5_6  and  N2_7 
REMARK    4  A    between atoms: N2_7  and  C6_10 
REMARK    5  A    between atoms: C6_10  and  C7_11 
REMARK    6  A    between atoms: C7_11  and  N3_12 
ROOT
HETATM    1  N2  UNL     1      21.262   2.703  -5.425  1.00  0.00    -0.070 N 
ATOM      2  H21 UNL     1      21.641   1.982  -6.038  1.00  0.00     0.277 HD
ATOM      3  H22 UNL     1      21.823   2.491  -4.599  1.00  0.00     0.277 HD
ENDROOT
BRANCH   1   4
HETATM    4  C5  UNL     1      19.865   2.546  -5.193  1.00  0.00     0.271 C 
BRANCH   4   5
HETATM    5  C3  UNL     1      19.481   1.609  -4.129  1.00  0.00    -0.020 C 
HETATM    6  C4  UNL     1      18.411   0.871  -4.223  1.00  0.00     0.108 C 
HETATM    7  N1  UNL     1      18.037  -0.034  -3.196  1.00  0.00    -0.115 NA
BRANCH   5   8
HETATM    8  C2  UNL     1      20.315   1.507  -2.942  1.00  0.00    -0.001 C 
HETATM    9  C1  UNL     1      20.487   2.520  -2.102  1.00  0.00     0.012 C 
ENDBRANCH   5   8
ENDBRANCH   4   5
ENDBRANCH   1   4
BRANCH   1  10
HETATM   10  C6  UNL     1      21.494   4.042  -5.928  1.00  0.00     0.260 C 
BRANCH  10  11
HETATM   11  C7  UNL     1      21.656   4.960  -4.709  1.00  0.00     0.257 C 
BRANCH  11  12
HETATM   12  N3  UNL     1      22.786   4.436  -3.957  1.00  0.00    -0.078 N 
ATOM     13  H33 UNL     1      22.516   3.958  -3.098  1.00  0.00     0.274 HD
ATOM     14  H32 UNL     1      23.239   3.640  -4.405  1.00  0.00     0.274 HD
ATOM     15  H31 UNL     1      23.413   5.226  -3.803  1.00  0.00     0.274 HD
ENDBRANCH  11  12
ENDBRANCH  10  11
ENDBRANCH   1  10
TORSDOF 6
ENDMDL
