MODEL 1
REMARK VINA RESULT: -7.530035923      0.000      0.000
REMARK  9 active torsions:
REMARK  status: ('A' for Active; 'I' for Inactive)
REMARK    1  A    between atoms: C2_2  and  C3_3 
REMARK    2  A    between atoms: C3_3  and  C4_4 
REMARK    3  A    between atoms: C4_4  and  C5_5 
REMARK    4  A    between atoms: C5_5  and  C6_6 
REMARK    5  A    between atoms: C10_10  and  O1_11 
REMARK    6  A    between atoms: O1_11  and  C11_12 
REMARK    7  A    between atoms: C14_15  and  C15_16 
REMARK    8  A    between atoms: C15_16  and  C16_17 
REMARK    9  A    between atoms: C16_17  and  O2_18 
ROOT
HETATM    1  C6  UNL     1     -34.162 125.704   5.399  1.00  0.00    -0.051 A 
HETATM    2  C7  UNL     1     -33.363 125.159   6.414  1.00  0.00     0.017 A 
HETATM    3  C8  UNL     1     -33.213 123.815   6.635  1.00  0.00    -0.028 A 
HETATM    4  C9  UNL     1     -32.344 123.320   7.737  1.00  0.00     0.051 C 
HETATM    5  C10 UNL     1     -33.890 122.958   5.805  1.00  0.00     0.075 A 
HETATM    6  C13 UNL     1     -34.680 123.464   4.803  1.00  0.00     0.045 A 
HETATM    7  C14 UNL     1     -34.831 124.833   4.584  1.00  0.00    -0.047 A 
ENDROOT
BRANCH   1   8
HETATM    8  C5  UNL     1     -34.162 127.177   5.236  1.00  0.00     0.039 C 
BRANCH   8   9
HETATM    9  C4  UNL     1     -32.868 127.702   4.675  1.00  0.00     0.005 C 
BRANCH   9  10
HETATM   10  C3  UNL     1     -32.414 128.900   5.448  1.00  0.00    -0.000 C 
BRANCH  10  11
HETATM   11  C2  UNL     1     -32.644 128.765   6.922  1.00  0.00    -0.005 C 
HETATM   12  C1  UNL     1     -33.413 129.943   7.457  1.00  0.00     0.005 C 
ENDBRANCH  10  11
ENDBRANCH   9  10
ENDBRANCH   8   9
ENDBRANCH   1   8
BRANCH   7  13
HETATM   13  C15 UNL     1     -35.751 125.331   3.546  1.00  0.00     0.065 C 
BRANCH  13  14
HETATM   14  C16 UNL     1     -36.188 124.292   2.548  1.00  0.00     0.168 C 
BRANCH  14  15
HETATM   15  O2  UNL     1     -35.341 124.339   1.419  1.00  0.00    -0.401 OA
ATOM     16  H2  UNL     1     -35.809 124.723   0.687  1.00  0.00     0.209 HD
ENDBRANCH  14  15
ENDBRANCH  13  14
ENDBRANCH   7  13
BRANCH   5  17
HETATM   17  O1  UNL     1     -33.792 121.610   5.960  1.00  0.00    -0.351 OA
BRANCH  17  18
HETATM   18  C11 UNL     1     -34.664 120.694   6.502  1.00  0.00     0.171 C 
HETATM   19  C12 UNL     1     -34.706 120.594   7.982  1.00  0.00     0.034 C 
ENDBRANCH  17  18
ENDBRANCH   5  17
TORSDOF 9
ENDMDL
MODEL 2
REMARK VINA RESULT: -7.129927286      2.069      4.442
REMARK  9 active torsions:
REMARK  status: ('A' for Active; 'I' for Inactive)
REMARK    1  A    between atoms: C2_2  and  C3_3 
REMARK    2  A    between atoms: C3_3  and  C4_4 
REMARK    3  A    between atoms: C4_4  and  C5_5 
REMARK    4  A    between atoms: C5_5  and  C6_6 
REMARK    5  A    between atoms: C10_10  and  O1_11 
REMARK    6  A    between atoms: O1_11  and  C11_12 
REMARK    7  A    between atoms: C14_15  and  C15_16 
REMARK    8  A    between atoms: C15_16  and  C16_17 
REMARK    9  A    between atoms: C16_17  and  O2_18 
ROOT
HETATM    1  C6  UNL     1     -34.567 125.356   5.490  1.00  0.00    -0.051 A 
HETATM    2  C7  UNL     1     -34.799 123.979   5.619  1.00  0.00     0.017 A 
HETATM    3  C8  UNL     1     -34.025 123.137   6.373  1.00  0.00    -0.028 A 
HETATM    4  C9  UNL     1     -34.342 121.686   6.456  1.00  0.00     0.051 C 
HETATM    5  C10 UNL     1     -32.959 123.685   7.041  1.00  0.00     0.075 A 
HETATM    6  C13 UNL     1     -32.708 125.031   6.933  1.00  0.00     0.045 A 
HETATM    7  C14 UNL     1     -33.498 125.884   6.162  1.00  0.00    -0.047 A 
ENDROOT
BRANCH   1   8
HETATM    8  C5  UNL     1     -35.539 126.149   4.701  1.00  0.00     0.039 C 
BRANCH   8   9
HETATM    9  C4  UNL     1     -35.538 125.789   3.240  1.00  0.00     0.005 C 
BRANCH   9  10
HETATM   10  C3  UNL     1     -36.664 124.853   2.934  1.00  0.00    -0.000 C 
BRANCH  10  11
HETATM   11  C2  UNL     1     -36.195 123.522   2.432  1.00  0.00    -0.005 C 
HETATM   12  C1  UNL     1     -34.717 123.542   2.153  1.00  0.00     0.005 C 
ENDBRANCH  10  11
ENDBRANCH   9  10
ENDBRANCH   8   9
ENDBRANCH   1   8
BRANCH   7  13
HETATM   13  C15 UNL     1     -33.144 127.306   6.012  1.00  0.00     0.065 C 
BRANCH  13  14
HETATM   14  C16 UNL     1     -32.685 127.694   4.633  1.00  0.00     0.168 C 
BRANCH  14  15
HETATM   15  O2  UNL     1     -32.091 128.974   4.677  1.00  0.00    -0.401 OA
ATOM     16  H2  UNL     1     -32.628 129.555   5.203  1.00  0.00     0.209 HD
ENDBRANCH  14  15
ENDBRANCH  13  14
ENDBRANCH   7  13
BRANCH   5  17
HETATM   17  O1  UNL     1     -32.144 122.915   7.811  1.00  0.00    -0.351 OA
BRANCH  17  18
HETATM   18  C11 UNL     1     -30.821 122.568   7.663  1.00  0.00     0.171 C 
HETATM   19  C12 UNL     1     -30.530 121.304   6.943  1.00  0.00     0.034 C 
ENDBRANCH  17  18
ENDBRANCH   5  17
TORSDOF 9
ENDMDL
MODEL 3
REMARK VINA RESULT: -7.066021130      1.084      1.427
REMARK  9 active torsions:
REMARK  status: ('A' for Active; 'I' for Inactive)
REMARK    1  A    between atoms: C2_2  and  C3_3 
REMARK    2  A    between atoms: C3_3  and  C4_4 
REMARK    3  A    between atoms: C4_4  and  C5_5 
REMARK    4  A    between atoms: C5_5  and  C6_6 
REMARK    5  A    between atoms: C10_10  and  O1_11 
REMARK    6  A    between atoms: O1_11  and  C11_12 
REMARK    7  A    between atoms: C14_15  and  C15_16 
REMARK    8  A    between atoms: C15_16  and  C16_17 
REMARK    9  A    between atoms: C16_17  and  O2_18 
ROOT
HETATM    1  C6  UNL     1     -33.742 126.018   5.594  1.00  0.00    -0.051 A 
HETATM    2  C7  UNL     1     -33.188 125.281   6.651  1.00  0.00     0.017 A 
HETATM    3  C8  UNL     1     -33.176 123.913   6.710  1.00  0.00    -0.028 A 
HETATM    4  C9  UNL     1     -32.565 123.210   7.870  1.00  0.00     0.051 C 
HETATM    5  C10 UNL     1     -33.743 123.229   5.665  1.00  0.00     0.075 A 
HETATM    6  C13 UNL     1     -34.294 123.924   4.617  1.00  0.00     0.045 A 
HETATM    7  C14 UNL     1     -34.306 125.318   4.562  1.00  0.00    -0.047 A 
ENDROOT
BRANCH   1   8
HETATM    8  C5  UNL     1     -33.609 127.493   5.635  1.00  0.00     0.039 C 
BRANCH   8   9
HETATM    9  C4  UNL     1     -32.411 127.949   6.423  1.00  0.00     0.005 C 
BRANCH   9  10
HETATM   10  C3  UNL     1     -32.744 129.175   7.213  1.00  0.00    -0.000 C 
BRANCH  10  11
HETATM   11  C2  UNL     1     -33.887 129.950   6.633  1.00  0.00    -0.005 C 
HETATM   12  C1  UNL     1     -34.513 130.842   7.671  1.00  0.00     0.005 C 
ENDBRANCH  10  11
ENDBRANCH   9  10
ENDBRANCH   8   9
ENDBRANCH   1   8
BRANCH   7  13
HETATM   13  C15 UNL     1     -34.978 126.021   3.456  1.00  0.00     0.065 C 
BRANCH  13  14
HETATM   14  C16 UNL     1     -34.424 125.712   2.091  1.00  0.00     0.168 C 
BRANCH  14  15
HETATM   15  O2  UNL     1     -35.223 124.726   1.470  1.00  0.00    -0.401 OA
ATOM     16  H2  UNL     1     -34.762 124.374   0.718  1.00  0.00     0.209 HD
ENDBRANCH  14  15
ENDBRANCH  13  14
ENDBRANCH   7  13
BRANCH   5  17
HETATM   17  O1  UNL     1     -33.770 121.869   5.650  1.00  0.00    -0.351 OA
BRANCH  17  18
HETATM   18  C11 UNL     1     -34.803 120.985   5.441  1.00  0.00     0.171 C 
HETATM   19  C12 UNL     1     -35.743 121.292   4.334  1.00  0.00     0.034 C 
ENDBRANCH  17  18
ENDBRANCH   5  17
TORSDOF 9
ENDMDL
MODEL 4
REMARK VINA RESULT: -7.046538712      1.132      1.417
REMARK  9 active torsions:
REMARK  status: ('A' for Active; 'I' for Inactive)
REMARK    1  A    between atoms: C2_2  and  C3_3 
REMARK    2  A    between atoms: C3_3  and  C4_4 
REMARK    3  A    between atoms: C4_4  and  C5_5 
REMARK    4  A    between atoms: C5_5  and  C6_6 
REMARK    5  A    between atoms: C10_10  and  O1_11 
REMARK    6  A    between atoms: O1_11  and  C11_12 
REMARK    7  A    between atoms: C14_15  and  C15_16 
REMARK    8  A    between atoms: C15_16  and  C16_17 
REMARK    9  A    between atoms: C16_17  and  O2_18 
ROOT
HETATM    1  C6  UNL     1     -34.225 124.501   5.500  1.00  0.00    -0.051 A 
HETATM    2  C7  UNL     1     -33.349 124.424   6.592  1.00  0.00     0.017 A 
HETATM    3  C8  UNL     1     -32.812 123.257   7.066  1.00  0.00    -0.028 A 
HETATM    4  C9  UNL     1     -31.888 123.265   8.232  1.00  0.00     0.051 C 
HETATM    5  C10 UNL     1     -33.160 122.094   6.425  1.00  0.00     0.075 A 
HETATM    6  C13 UNL     1     -34.016 122.139   5.353  1.00  0.00     0.045 A 
HETATM    7  C14 UNL     1     -34.562 123.331   4.875  1.00  0.00    -0.047 A 
ENDROOT
BRANCH   1   8
HETATM    8  C5  UNL     1     -34.660 125.846   5.056  1.00  0.00     0.039 C 
BRANCH   8   9
HETATM    9  C4  UNL     1     -33.588 126.589   4.307  1.00  0.00     0.005 C 
BRANCH   9  10
HETATM   10  C3  UNL     1     -33.348 127.927   4.931  1.00  0.00    -0.000 C 
BRANCH  10  11
HETATM   11  C2  UNL     1     -32.417 127.866   6.103  1.00  0.00    -0.005 C 
HETATM   12  C1  UNL     1     -32.671 129.005   7.052  1.00  0.00     0.005 C 
ENDBRANCH  10  11
ENDBRANCH   9  10
ENDBRANCH   8   9
ENDBRANCH   1   8
BRANCH   7  13
HETATM   13  C15 UNL     1     -35.538 123.321   3.772  1.00  0.00     0.065 C 
BRANCH  13  14
HETATM   14  C16 UNL     1     -34.932 123.179   2.402  1.00  0.00     0.168 C 
BRANCH  14  15
HETATM   15  O2  UNL     1     -35.326 124.271   1.597  1.00  0.00    -0.401 OA
ATOM     16  H2  UNL     1     -34.611 124.513   1.020  1.00  0.00     0.209 HD
ENDBRANCH  14  15
ENDBRANCH  13  14
ENDBRANCH   7  13
BRANCH   5  17
HETATM   17  O1  UNL     1     -32.668 120.894   6.835  1.00  0.00    -0.351 OA
BRANCH  17  18
HETATM   18  C11 UNL     1     -32.700 120.275   8.063  1.00  0.00     0.171 C 
HETATM   19  C12 UNL     1     -33.995 120.274   8.787  1.00  0.00     0.034 C 
ENDBRANCH  17  18
ENDBRANCH   5  17
TORSDOF 9
ENDMDL
MODEL 5
REMARK VINA RESULT: -6.985015403      2.239      4.591
REMARK  9 active torsions:
REMARK  status: ('A' for Active; 'I' for Inactive)
REMARK    1  A    between atoms: C2_2  and  C3_3 
REMARK    2  A    between atoms: C3_3  and  C4_4 
REMARK    3  A    between atoms: C4_4  and  C5_5 
REMARK    4  A    between atoms: C5_5  and  C6_6 
REMARK    5  A    between atoms: C10_10  and  O1_11 
REMARK    6  A    between atoms: O1_11  and  C11_12 
REMARK    7  A    between atoms: C14_15  and  C15_16 
REMARK    8  A    between atoms: C15_16  and  C16_17 
REMARK    9  A    between atoms: C16_17  and  O2_18 
ROOT
HETATM    1  C6  UNL     1     -34.515 122.985   5.434  1.00  0.00    -0.051 A 
HETATM    2  C7  UNL     1     -33.858 121.788   5.755  1.00  0.00     0.017 A 
HETATM    3  C8  UNL     1     -32.786 121.704   6.603  1.00  0.00    -0.028 A 
HETATM    4  C9  UNL     1     -32.148 120.391   6.891  1.00  0.00     0.051 C 
HETATM    5  C10 UNL     1     -32.334 122.869   7.170  1.00  0.00     0.075 A 
HETATM    6  C13 UNL     1     -32.957 124.056   6.873  1.00  0.00     0.045 A 
HETATM    7  C14 UNL     1     -34.047 124.136   6.007  1.00  0.00    -0.047 A 
ENDROOT
BRANCH   1   8
HETATM    8  C5  UNL     1     -35.710 122.905   4.561  1.00  0.00     0.039 C 
BRANCH   8   9
HETATM    9  C4  UNL     1     -35.407 122.320   3.208  1.00  0.00     0.005 C 
BRANCH   9  10
HETATM   10  C3  UNL     1     -34.542 123.252   2.421  1.00  0.00    -0.000 C 
BRANCH  10  11
HETATM   11  C2  UNL     1     -35.253 124.506   2.014  1.00  0.00    -0.005 C 
HETATM   12  C1  UNL     1     -34.342 125.699   2.118  1.00  0.00     0.005 C 
ENDBRANCH  10  11
ENDBRANCH   9  10
ENDBRANCH   8   9
ENDBRANCH   1   8
BRANCH   7  13
HETATM   13  C15 UNL     1     -34.634 125.442   5.657  1.00  0.00     0.065 C 
BRANCH  13  14
HETATM   14  C16 UNL     1     -33.655 126.584   5.650  1.00  0.00     0.168 C 
BRANCH  14  15
HETATM   15  O2  UNL     1     -34.279 127.736   5.122  1.00  0.00    -0.401 OA
ATOM     16  H2  UNL     1     -34.271 128.428   5.774  1.00  0.00     0.209 HD
ENDBRANCH  14  15
ENDBRANCH  13  14
ENDBRANCH   7  13
BRANCH   5  17
HETATM   17  O1  UNL     1     -31.275 122.867   8.023  1.00  0.00    -0.351 OA
BRANCH  17  18
HETATM   18  C11 UNL     1     -29.947 123.163   7.820  1.00  0.00     0.171 C 
HETATM   19  C12 UNL     1     -29.025 122.022   7.600  1.00  0.00     0.034 C 
ENDBRANCH  17  18
ENDBRANCH   5  17
TORSDOF 9
ENDMDL
