MODEL 1
REMARK VINA RESULT: -8.583051631      0.000      0.000
REMARK  8 active torsions:
REMARK  status: ('A' for Active; 'I' for Inactive)
REMARK    1  A    between atoms: C2_2  and  C3_3 
REMARK    2  A    between atoms: C3_3  and  C4_4 
REMARK    3  A    between atoms: C4_4  and  C5_5 
REMARK    4  A    between atoms: C5_5  and  C6_6 
REMARK    5  A    between atoms: C6_6  and  C7_7 
REMARK    6  A    between atoms: C7_7  and  C8_9 
REMARK    7  A    between atoms: C10_11  and  C11_12 
REMARK    8  A    between atoms: C13_14  and  O2_15 
ROOT
HETATM    1  C8  UNL     1     -33.441 126.922   5.436  1.00  0.00     0.016 A 
HETATM    2  C9  UNL     1     -33.243 125.746   6.185  1.00  0.00     0.025 A 
HETATM    3  C10 UNL     1     -33.889 124.560   5.911  1.00  0.00    -0.024 A 
HETATM    4  C13 UNL     1     -34.765 124.555   4.849  1.00  0.00     0.072 A 
HETATM    5  C14 UNL     1     -34.995 125.675   4.085  1.00  0.00     0.044 A 
HETATM    6  C15 UNL     1     -34.317 126.877   4.389  1.00  0.00    -0.045 A 
HETATM    7  C16 UNL     1     -34.609 128.035   3.541  1.00  0.00     0.049 C 
ENDROOT
BRANCH   1   8
HETATM    8  C7  UNL     1     -32.729 128.124   5.767  1.00  0.00     0.160 C 
HETATM    9  O1  UNL     1     -31.799 128.527   5.016  1.00  0.00    -0.292 OA
BRANCH   8  10
HETATM   10  C6  UNL     1     -32.968 128.999   6.948  1.00  0.00     0.084 C 
BRANCH  10  11
HETATM   11  C5  UNL     1     -33.936 130.105   6.603  1.00  0.00     0.008 C 
BRANCH  11  12
HETATM   12  C4  UNL     1     -34.488 130.787   7.828  1.00  0.00     0.004 C 
BRANCH  12  13
HETATM   13  C3  UNL     1     -35.938 131.101   7.734  1.00  0.00     0.026 C 
BRANCH  13  14
HETATM   14  C2  UNL     1     -36.306 131.975   8.891  1.00  0.00    -0.037 C 
HETATM   15  C1  UNL     1     -37.551 132.190   9.282  1.00  0.00     0.007 C 
ENDBRANCH  13  14
ENDBRANCH  12  13
ENDBRANCH  11  12
ENDBRANCH  10  11
ENDBRANCH   8  10
ENDBRANCH   1   8
BRANCH   3  16
HETATM   16  C11 UNL     1     -33.647 123.344   6.733  1.00  0.00     0.037 C 
HETATM   17  C12 UNL     1     -32.325 123.405   7.461  1.00  0.00     0.010 C 
ENDBRANCH   3  16
BRANCH   4  18
HETATM   18  O2  UNL     1     -35.410 123.351   4.584  1.00  0.00    -0.360 OA
ATOM     19  H2  UNL     1     -35.430 123.073   3.676  1.00  0.00     0.217 HD
ENDBRANCH   4  18
TORSDOF 8
ENDMDL
MODEL 2
REMARK VINA RESULT: -8.526557029      2.805      4.505
REMARK  8 active torsions:
REMARK  status: ('A' for Active; 'I' for Inactive)
REMARK    1  A    between atoms: C2_2  and  C3_3 
REMARK    2  A    between atoms: C3_3  and  C4_4 
REMARK    3  A    between atoms: C4_4  and  C5_5 
REMARK    4  A    between atoms: C5_5  and  C6_6 
REMARK    5  A    between atoms: C6_6  and  C7_7 
REMARK    6  A    between atoms: C7_7  and  C8_9 
REMARK    7  A    between atoms: C10_11  and  C11_12 
REMARK    8  A    between atoms: C13_14  and  O2_15 
ROOT
HETATM    1  C8  UNL     1     -34.382 123.431   4.714  1.00  0.00     0.016 A 
HETATM    2  C9  UNL     1     -33.499 123.497   5.809  1.00  0.00     0.025 A 
HETATM    3  C10 UNL     1     -33.352 122.476   6.723  1.00  0.00    -0.024 A 
HETATM    4  C13 UNL     1     -34.119 121.349   6.530  1.00  0.00     0.072 A 
HETATM    5  C14 UNL     1     -34.995 121.231   5.477  1.00  0.00     0.044 A 
HETATM    6  C15 UNL     1     -35.124 122.295   4.556  1.00  0.00    -0.045 A 
HETATM    7  C16 UNL     1     -36.077 122.111   3.460  1.00  0.00     0.049 C 
ENDROOT
BRANCH   1   8
HETATM    8  C7  UNL     1     -34.481 124.526   3.791  1.00  0.00     0.160 C 
HETATM    9  O1  UNL     1     -33.681 124.599   2.819  1.00  0.00    -0.292 OA
BRANCH   8  10
HETATM   10  C6  UNL     1     -35.465 125.643   3.845  1.00  0.00     0.084 C 
BRANCH  10  11
HETATM   11  C5  UNL     1     -34.818 126.942   3.430  1.00  0.00     0.008 C 
BRANCH  11  12
HETATM   12  C4  UNL     1     -34.337 127.747   4.611  1.00  0.00     0.004 C 
BRANCH  12  13
HETATM   13  C3  UNL     1     -32.859 127.768   4.756  1.00  0.00     0.026 C 
BRANCH  13  14
HETATM   14  C2  UNL     1     -32.530 127.783   6.215  1.00  0.00    -0.037 C 
HETATM   15  C1  UNL     1     -32.572 128.871   6.967  1.00  0.00     0.007 C 
ENDBRANCH  13  14
ENDBRANCH  12  13
ENDBRANCH  11  12
ENDBRANCH  10  11
ENDBRANCH   8  10
ENDBRANCH   1   8
BRANCH   3  16
HETATM   16  C11 UNL     1     -32.407 122.595   7.865  1.00  0.00     0.037 C 
HETATM   17  C12 UNL     1     -30.998 122.206   7.480  1.00  0.00     0.010 C 
ENDBRANCH   3  16
BRANCH   4  18
HETATM   18  O2  UNL     1     -33.960 120.326   7.460  1.00  0.00    -0.360 OA
ATOM     19  H2  UNL     1     -34.749 120.028   7.898  1.00  0.00     0.217 HD
ENDBRANCH   4  18
TORSDOF 8
ENDMDL
MODEL 3
REMARK VINA RESULT: -8.272478213      2.250      3.724
REMARK  8 active torsions:
REMARK  status: ('A' for Active; 'I' for Inactive)
REMARK    1  A    between atoms: C2_2  and  C3_3 
REMARK    2  A    between atoms: C3_3  and  C4_4 
REMARK    3  A    between atoms: C4_4  and  C5_5 
REMARK    4  A    between atoms: C5_5  and  C6_6 
REMARK    5  A    between atoms: C6_6  and  C7_7 
REMARK    6  A    between atoms: C7_7  and  C8_9 
REMARK    7  A    between atoms: C10_11  and  C11_12 
REMARK    8  A    between atoms: C13_14  and  O2_15 
ROOT
HETATM    1  C8  UNL     1     -34.409 124.106   4.505  1.00  0.00     0.016 A 
HETATM    2  C9  UNL     1     -33.631 123.667   5.594  1.00  0.00     0.025 A 
HETATM    3  C10 UNL     1     -33.753 122.413   6.151  1.00  0.00    -0.024 A 
HETATM    4  C13 UNL     1     -34.689 121.570   5.596  1.00  0.00     0.072 A 
HETATM    5  C14 UNL     1     -35.474 121.947   4.532  1.00  0.00     0.044 A 
HETATM    6  C15 UNL     1     -35.326 123.240   3.980  1.00  0.00    -0.045 A 
HETATM    7  C16 UNL     1     -36.194 123.582   2.853  1.00  0.00     0.049 C 
ENDROOT
BRANCH   1   8
HETATM    8  C7  UNL     1     -34.226 125.423   3.963  1.00  0.00     0.160 C 
HETATM    9  O1  UNL     1     -33.628 125.569   2.862  1.00  0.00    -0.292 OA
BRANCH   8  10
HETATM   10  C6  UNL     1     -34.680 126.703   4.574  1.00  0.00     0.084 C 
BRANCH  10  11
HETATM   11  C5  UNL     1     -33.893 127.865   4.021  1.00  0.00     0.008 C 
BRANCH  11  12
HETATM   12  C4  UNL     1     -32.631 128.128   4.803  1.00  0.00     0.004 C 
BRANCH  12  13
HETATM   13  C3  UNL     1     -32.725 127.744   6.235  1.00  0.00     0.026 C 
BRANCH  13  14
HETATM   14  C2  UNL     1     -32.638 128.987   7.062  1.00  0.00    -0.037 C 
HETATM   15  C1  UNL     1     -33.596 129.898   7.122  1.00  0.00     0.007 C 
ENDBRANCH  13  14
ENDBRANCH  12  13
ENDBRANCH  11  12
ENDBRANCH  10  11
ENDBRANCH   8  10
ENDBRANCH   1   8
BRANCH   3  16
HETATM   16  C11 UNL     1     -32.909 121.997   7.303  1.00  0.00     0.037 C 
HETATM   17  C12 UNL     1     -31.557 121.488   6.862  1.00  0.00     0.010 C 
ENDBRANCH   3  16
BRANCH   4  18
HETATM   18  O2  UNL     1     -34.802 120.307   6.169  1.00  0.00    -0.360 OA
ATOM     19  H2  UNL     1     -35.418 120.222   6.887  1.00  0.00     0.217 HD
ENDBRANCH   4  18
TORSDOF 8
ENDMDL
MODEL 4
REMARK VINA RESULT: -8.042667001      2.738      6.714
REMARK  8 active torsions:
REMARK  status: ('A' for Active; 'I' for Inactive)
REMARK    1  A    between atoms: C2_2  and  C3_3 
REMARK    2  A    between atoms: C3_3  and  C4_4 
REMARK    3  A    between atoms: C4_4  and  C5_5 
REMARK    4  A    between atoms: C5_5  and  C6_6 
REMARK    5  A    between atoms: C6_6  and  C7_7 
REMARK    6  A    between atoms: C7_7  and  C8_9 
REMARK    7  A    between atoms: C10_11  and  C11_12 
REMARK    8  A    between atoms: C13_14  and  O2_15 
ROOT
HETATM    1  C8  UNL     1     -34.364 124.657   4.984  1.00  0.00     0.016 A 
HETATM    2  C9  UNL     1     -33.871 125.810   5.624  1.00  0.00     0.025 A 
HETATM    3  C10 UNL     1     -34.044 127.083   5.125  1.00  0.00    -0.024 A 
HETATM    4  C13 UNL     1     -34.736 127.202   3.941  1.00  0.00     0.072 A 
HETATM    5  C14 UNL     1     -35.240 126.109   3.275  1.00  0.00     0.044 A 
HETATM    6  C15 UNL     1     -35.047 124.816   3.811  1.00  0.00    -0.045 A 
HETATM    7  C16 UNL     1     -35.603 123.695   3.052  1.00  0.00     0.049 C 
ENDROOT
BRANCH   1   8
HETATM    8  C7  UNL     1     -34.159 123.359   5.562  1.00  0.00     0.160 C 
HETATM    9  O1  UNL     1     -34.838 123.006   6.564  1.00  0.00    -0.292 OA
BRANCH   8  10
HETATM   10  C6  UNL     1     -33.194 122.325   5.096  1.00  0.00     0.084 C 
BRANCH  10  11
HETATM   11  C5  UNL     1     -32.868 121.361   6.211  1.00  0.00     0.008 C 
BRANCH  11  12
HETATM   12  C4  UNL     1     -31.586 121.716   6.920  1.00  0.00     0.004 C 
BRANCH  12  13
HETATM   13  C3  UNL     1     -31.793 122.335   8.255  1.00  0.00     0.026 C 
BRANCH  13  14
HETATM   14  C2  UNL     1     -32.350 121.295   9.174  1.00  0.00    -0.037 C 
HETATM   15  C1  UNL     1     -31.698 120.197   9.522  1.00  0.00     0.007 C 
ENDBRANCH  13  14
ENDBRANCH  12  13
ENDBRANCH  11  12
ENDBRANCH  10  11
ENDBRANCH   8  10
ENDBRANCH   1   8
BRANCH   3  16
HETATM   16  C11 UNL     1     -33.502 128.270   5.839  1.00  0.00     0.037 C 
HETATM   17  C12 UNL     1     -32.030 128.126   6.144  1.00  0.00     0.010 C 
ENDBRANCH   3  16
BRANCH   4  18
HETATM   18  O2  UNL     1     -34.903 128.492   3.448  1.00  0.00    -0.360 OA
ATOM     19  H2  UNL     1     -34.109 128.988   3.286  1.00  0.00     0.217 HD
ENDBRANCH   4  18
TORSDOF 8
ENDMDL
MODEL 5
REMARK VINA RESULT: -8.011948636      2.762      6.789
REMARK  8 active torsions:
REMARK  status: ('A' for Active; 'I' for Inactive)
REMARK    1  A    between atoms: C2_2  and  C3_3 
REMARK    2  A    between atoms: C3_3  and  C4_4 
REMARK    3  A    between atoms: C4_4  and  C5_5 
REMARK    4  A    between atoms: C5_5  and  C6_6 
REMARK    5  A    between atoms: C6_6  and  C7_7 
REMARK    6  A    between atoms: C7_7  and  C8_9 
REMARK    7  A    between atoms: C10_11  and  C11_12 
REMARK    8  A    between atoms: C13_14  and  O2_15 
ROOT
HETATM    1  C8  UNL     1     -34.313 124.421   4.479  1.00  0.00     0.016 A 
HETATM    2  C9  UNL     1     -34.028 125.505   5.332  1.00  0.00     0.025 A 
HETATM    3  C10 UNL     1     -33.993 126.814   4.902  1.00  0.00    -0.024 A 
HETATM    4  C13 UNL     1     -34.253 127.042   3.569  1.00  0.00     0.072 A 
HETATM    5  C14 UNL     1     -34.538 126.021   2.694  1.00  0.00     0.044 A 
HETATM    6  C15 UNL     1     -34.567 124.688   3.163  1.00  0.00    -0.045 A 
HETATM    7  C16 UNL     1     -34.871 123.646   2.182  1.00  0.00     0.049 C 
ENDROOT
BRANCH   1   8
HETATM    8  C7  UNL     1     -34.344 123.080   4.992  1.00  0.00     0.160 C 
HETATM    9  O1  UNL     1     -35.435 122.448   5.024  1.00  0.00    -0.292 OA
BRANCH   8  10
HETATM   10  C6  UNL     1     -33.184 122.305   5.514  1.00  0.00     0.084 C 
BRANCH  10  11
HETATM   11  C5  UNL     1     -33.322 122.080   7.000  1.00  0.00     0.008 C 
BRANCH  11  12
HETATM   12  C4  UNL     1     -32.076 122.466   7.757  1.00  0.00     0.004 C 
BRANCH  12  13
HETATM   13  C3  UNL     1     -31.174 121.322   8.046  1.00  0.00     0.026 C 
BRANCH  13  14
HETATM   14  C2  UNL     1     -29.886 121.544   7.319  1.00  0.00    -0.037 C 
HETATM   15  C1  UNL     1     -29.138 122.626   7.464  1.00  0.00     0.007 C 
ENDBRANCH  13  14
ENDBRANCH  12  13
ENDBRANCH  11  12
ENDBRANCH  10  11
ENDBRANCH   8  10
ENDBRANCH   1   8
BRANCH   3  16
HETATM   16  C11 UNL     1     -33.685 127.924   5.842  1.00  0.00     0.037 C 
HETATM   17  C12 UNL     1     -32.201 128.068   6.085  1.00  0.00     0.010 C 
ENDBRANCH   3  16
BRANCH   4  18
HETATM   18  O2  UNL     1     -34.214 128.368   3.150  1.00  0.00    -0.360 OA
ATOM     19  H2  UNL     1     -34.969 128.680   2.664  1.00  0.00     0.217 HD
ENDBRANCH   4  18
TORSDOF 8
ENDMDL
