MODEL 1
REMARK VINA RESULT: -7.793593040      0.000      0.000
REMARK  16 active torsions:
REMARK  status: ('A' for Active; 'I' for Inactive)
REMARK    1  A    between atoms: C2_2  and  O1_3 
REMARK    2  A    between atoms: O1_3  and  P1_4 
REMARK    3  A    between atoms: P1_4  and  O2_5 
REMARK    4  A    between atoms: P1_4  and  O3_8 
REMARK    5  A    between atoms: O2_5  and  C3_6 
REMARK    6  A    between atoms: O3_8  and  C5_9 
REMARK    7  A    between atoms: C5_9  and  C6_10 
REMARK    8  A    between atoms: C6_10  and  N1_11 
REMARK    9  A    between atoms: N1_11  and  C7_13 
REMARK   10  A    between atoms: C9_17  and  C10_18 
REMARK   11  A    between atoms: N3_19  and  N4_21 
REMARK   12  A    between atoms: C11_24  and  C13_26 
REMARK       I    between atoms: C13_26  and  N5_28 
REMARK   13  A    between atoms: N5_28  and  C14_30 
REMARK   14  A    between atoms: C14_30  and  C15_31 
REMARK   15  A    between atoms: C15_31  and  O5_32 
REMARK   16  A    between atoms: C17_35  and  C18_36 
ROOT
HETATM    1  C7  UNL     1      59.920  74.512 -91.804  1.00  0.00     0.119 C 
HETATM    2  N2  UNL     1      59.847  75.412 -90.823  1.00  0.00    -0.344 N 
ATOM      3  H2  UNL     1      60.262  76.343 -90.830  1.00  0.00     0.167 HD
HETATM    4  C8  UNL     1      59.036  74.805 -89.694  1.00  0.00     0.033 C 
HETATM    5  C9  UNL     1      57.783  75.114 -89.479  1.00  0.00     0.045 C 
HETATM    6  C11 UNL     1      59.804  73.753 -89.055  1.00  0.00     0.098 C 
HETATM    7  C12 UNL     1      61.296  74.189 -88.949  1.00  0.00     0.037 C 
HETATM    8  C16 UNL     1      59.786  72.697 -90.181  1.00  0.00     0.017 C 
HETATM    9  C17 UNL     1      59.849  73.078 -91.446  1.00  0.00     0.051 C 
ENDROOT
BRANCH   1  10
HETATM   10  N1  UNL     1      60.573  74.759 -93.055  1.00  0.00    -0.353 N 
ATOM     11  H1  UNL     1      59.964  74.749 -93.873  1.00  0.00     0.166 HD
BRANCH  10  12
HETATM   12  C6  UNL     1      61.910  75.009 -93.317  1.00  0.00     0.089 C 
BRANCH  12  13
HETATM   13  C5  UNL     1      63.076  74.442 -92.606  1.00  0.00     0.222 C 
BRANCH  13  14
HETATM   14  O3  UNL     1      63.831  75.648 -92.304  1.00  0.00    -0.312 OA
BRANCH  14  15
HETATM   15  P1  UNL     1      64.671  76.095 -93.791  1.00  0.00     0.334 P 
BRANCH  15  16
HETATM   16  O1  UNL     1      66.460  76.116 -93.131  1.00  0.00    -0.318 OA
BRANCH  16  17
HETATM   17  C2  UNL     1      66.442  75.009 -92.291  1.00  0.00     0.173 C 
HETATM   18  C1  UNL     1      67.190  73.873 -92.922  1.00  0.00     0.034 C 
ENDBRANCH  16  17
ENDBRANCH  15  16
BRANCH  15  19
HETATM   19  O2  UNL     1      64.678  77.864 -94.000  1.00  0.00    -0.318 OA
BRANCH  19  20
HETATM   20  C3  UNL     1      63.975  78.206 -95.118  1.00  0.00     0.173 C 
HETATM   21  C4  UNL     1      63.814  76.949 -95.973  1.00  0.00     0.034 C 
ENDBRANCH  19  20
ENDBRANCH  15  19
ENDBRANCH  14  15
ENDBRANCH  13  14
ENDBRANCH  12  13
ENDBRANCH  10  12
ENDBRANCH   1  10
BRANCH   9  22
HETATM   22  C18 UNL     1      59.636  72.054 -92.519  1.00  0.00     0.134 A 
HETATM   23  N6  UNL     1      58.564  72.012 -93.365  1.00  0.00    -0.336 N 
HETATM   24  C19 UNL     1      58.682  70.922 -94.174  1.00  0.00     0.199 A 
ATOM     25  H6  UNL     1      57.800  72.686 -93.387  1.00  0.00     0.168 HD
HETATM   26  N7  UNL     1      59.829  70.324 -93.818  1.00  0.00    -0.295 N 
HETATM   27  N8  UNL     1      60.391  71.030 -92.802  1.00  0.00    -0.284 N 
ATOM     28  H7  UNL     1      60.216  69.479 -94.240  1.00  0.00     0.187 HD
ATOM     29  H8  UNL     1      61.267  70.795 -92.335  1.00  0.00     0.188 HD
ENDBRANCH   9  22
BRANCH   5  30
HETATM   30  C10 UNL     1      56.997  76.057 -90.285  1.00  0.00     0.108 C 
HETATM   31  N3  UNL     1      56.343  75.634 -91.316  1.00  0.00    -0.318 N 
ATOM     32  H3  UNL     1      55.796  76.296 -91.864  1.00  0.00     0.185 HD
BRANCH  31  33
HETATM   33  N4  UNL     1      56.369  74.271 -91.701  1.00  0.00    -0.345 N 
ATOM     34  H42 UNL     1      55.586  73.678 -91.428  1.00  0.00     0.176 HD
ATOM     35  H41 UNL     1      57.145  73.884 -92.238  1.00  0.00     0.176 HD
ENDBRANCH  31  33
ENDBRANCH   5  30
BRANCH   6  36
HETATM   36  C13 UNL     1      59.454  73.228 -87.765  1.00  0.00     0.235 C 
HETATM   37  O4  UNL     1      59.458  73.837 -86.645  1.00  0.00    -0.272 OA
HETATM   38  N5  UNL     1      59.043  71.855 -87.695  1.00  0.00    -0.358 N 
ATOM     39  H5  UNL     1      59.013  71.286 -88.540  1.00  0.00     0.162 HD
BRANCH  38  40
HETATM   40  C14 UNL     1      58.666  71.270 -86.399  1.00  0.00     0.148 C 
BRANCH  40  41
HETATM   41  C15 UNL     1      58.225  69.829 -86.592  1.00  0.00     0.183 C 
BRANCH  41  42
HETATM   42  O5  UNL     1      57.276  69.879 -87.671  1.00  0.00    -0.399 OA
ATOM     43  H5  UNL     1      57.396  69.060 -88.135  1.00  0.00     0.209 HD
ENDBRANCH  41  42
ENDBRANCH  40  41
ENDBRANCH  38  40
ENDBRANCH   6  36
TORSDOF 16
ENDMDL
MODEL 2
REMARK VINA RESULT: -7.671184014      1.805      3.744
REMARK  16 active torsions:
REMARK  status: ('A' for Active; 'I' for Inactive)
REMARK    1  A    between atoms: C2_2  and  O1_3 
REMARK    2  A    between atoms: O1_3  and  P1_4 
REMARK    3  A    between atoms: P1_4  and  O2_5 
REMARK    4  A    between atoms: P1_4  and  O3_8 
REMARK    5  A    between atoms: O2_5  and  C3_6 
REMARK    6  A    between atoms: O3_8  and  C5_9 
REMARK    7  A    between atoms: C5_9  and  C6_10 
REMARK    8  A    between atoms: C6_10  and  N1_11 
REMARK    9  A    between atoms: N1_11  and  C7_13 
REMARK   10  A    between atoms: C9_17  and  C10_18 
REMARK   11  A    between atoms: N3_19  and  N4_21 
REMARK   12  A    between atoms: C11_24  and  C13_26 
REMARK       I    between atoms: C13_26  and  N5_28 
REMARK   13  A    between atoms: N5_28  and  C14_30 
REMARK   14  A    between atoms: C14_30  and  C15_31 
REMARK   15  A    between atoms: C15_31  and  O5_32 
REMARK   16  A    between atoms: C17_35  and  C18_36 
ROOT
HETATM    1  C7  UNL     1      59.794  73.876 -92.621  1.00  0.00     0.119 C 
HETATM    2  N2  UNL     1      60.661  72.866 -92.542  1.00  0.00    -0.344 N 
ATOM      3  H2  UNL     1      61.329  72.591 -93.262  1.00  0.00     0.167 HD
HETATM    4  C8  UNL     1      60.477  72.199 -91.193  1.00  0.00     0.033 C 
HETATM    5  C9  UNL     1      61.290  72.400 -90.189  1.00  0.00     0.045 C 
HETATM    6  C11 UNL     1      59.213  71.487 -91.171  1.00  0.00     0.098 C 
HETATM    7  C12 UNL     1      58.981  70.796 -92.548  1.00  0.00     0.037 C 
HETATM    8  C16 UNL     1      58.239  72.685 -91.167  1.00  0.00     0.017 C 
HETATM    9  C17 UNL     1      58.531  73.777 -91.855  1.00  0.00     0.051 C 
ENDROOT
BRANCH   1  10
HETATM   10  N1  UNL     1      59.715  74.764 -93.742  1.00  0.00    -0.353 N 
ATOM     11  H1  UNL     1      58.943  74.587 -94.385  1.00  0.00     0.166 HD
BRANCH  10  12
HETATM   12  C6  UNL     1      60.534  75.828 -94.082  1.00  0.00     0.089 C 
BRANCH  12  13
HETATM   13  C5  UNL     1      60.884  76.987 -93.231  1.00  0.00     0.222 C 
BRANCH  13  14
HETATM   14  O3  UNL     1      61.906  76.404 -92.375  1.00  0.00    -0.312 OA
BRANCH  14  15
HETATM   15  P1  UNL     1      63.242  75.945 -93.434  1.00  0.00     0.334 P 
BRANCH  15  16
HETATM   16  O1  UNL     1      64.419  75.204 -92.129  1.00  0.00    -0.318 OA
BRANCH  16  17
HETATM   17  C2  UNL     1      65.088  74.252 -92.889  1.00  0.00     0.173 C 
HETATM   18  C1  UNL     1      66.555  74.290 -92.583  1.00  0.00     0.034 C 
ENDBRANCH  16  17
ENDBRANCH  15  16
BRANCH  15  19
HETATM   19  O2  UNL     1      64.333  77.327 -93.701  1.00  0.00    -0.318 OA
BRANCH  19  20
HETATM   20  C3  UNL     1      64.102  77.874 -94.930  1.00  0.00     0.173 C 
HETATM   21  C4  UNL     1      63.825  76.732 -95.907  1.00  0.00     0.034 C 
ENDBRANCH  19  20
ENDBRANCH  15  19
ENDBRANCH  14  15
ENDBRANCH  13  14
ENDBRANCH  12  13
ENDBRANCH  10  12
ENDBRANCH   1  10
BRANCH   9  22
HETATM   22  C18 UNL     1      57.670  74.990 -91.681  1.00  0.00     0.134 A 
HETATM   23  N6  UNL     1      58.055  76.146 -91.062  1.00  0.00    -0.336 N 
HETATM   24  C19 UNL     1      57.003  77.011 -91.048  1.00  0.00     0.199 A 
ATOM     25  H6  UNL     1      58.979  76.330 -90.673  1.00  0.00     0.168 HD
HETATM   26  N7  UNL     1      55.997  76.376 -91.669  1.00  0.00    -0.295 N 
HETATM   27  N8  UNL     1      56.427  75.142 -92.042  1.00  0.00    -0.284 N 
ATOM     28  H7  UNL     1      55.065  76.757 -91.835  1.00  0.00     0.187 HD
ATOM     29  H8  UNL     1      55.864  74.444 -92.528  1.00  0.00     0.188 HD
ENDBRANCH   9  22
BRANCH   5  30
HETATM   30  C10 UNL     1      62.460  73.289 -90.215  1.00  0.00     0.108 C 
HETATM   31  N3  UNL     1      62.325  74.539 -89.920  1.00  0.00    -0.318 N 
ATOM     32  H3  UNL     1      63.145  75.145 -89.937  1.00  0.00     0.185 HD
BRANCH  31  33
HETATM   33  N4  UNL     1      61.066  75.088 -89.575  1.00  0.00    -0.345 N 
ATOM     34  H42 UNL     1      60.591  75.674 -90.261  1.00  0.00     0.176 HD
ATOM     35  H41 UNL     1      60.638  74.909 -88.667  1.00  0.00     0.176 HD
ENDBRANCH  31  33
ENDBRANCH   5  30
BRANCH   6  36
HETATM   36  C13 UNL     1      58.912  70.495 -90.177  1.00  0.00     0.235 C 
HETATM   37  O4  UNL     1      59.091  69.234 -90.251  1.00  0.00    -0.272 OA
HETATM   38  N5  UNL     1      58.343  70.945 -88.940  1.00  0.00    -0.358 N 
ATOM     39  H5  UNL     1      58.160  71.937 -88.791  1.00  0.00     0.162 HD
BRANCH  38  40
HETATM   40  C14 UNL     1      58.024  69.970 -87.885  1.00  0.00     0.148 C 
BRANCH  40  41
HETATM   41  C15 UNL     1      58.272  70.588 -86.519  1.00  0.00     0.183 C 
BRANCH  41  42
HETATM   42  O5  UNL     1      59.621  70.216 -86.189  1.00  0.00    -0.399 OA
ATOM     43  H5  UNL     1      60.155  70.632 -86.855  1.00  0.00     0.209 HD
ENDBRANCH  41  42
ENDBRANCH  40  41
ENDBRANCH  38  40
ENDBRANCH   6  36
TORSDOF 16
ENDMDL
MODEL 3
REMARK VINA RESULT: -7.592532384      1.263      2.357
REMARK  16 active torsions:
REMARK  status: ('A' for Active; 'I' for Inactive)
REMARK    1  A    between atoms: C2_2  and  O1_3 
REMARK    2  A    between atoms: O1_3  and  P1_4 
REMARK    3  A    between atoms: P1_4  and  O2_5 
REMARK    4  A    between atoms: P1_4  and  O3_8 
REMARK    5  A    between atoms: O2_5  and  C3_6 
REMARK    6  A    between atoms: O3_8  and  C5_9 
REMARK    7  A    between atoms: C5_9  and  C6_10 
REMARK    8  A    between atoms: C6_10  and  N1_11 
REMARK    9  A    between atoms: N1_11  and  C7_13 
REMARK   10  A    between atoms: C9_17  and  C10_18 
REMARK   11  A    between atoms: N3_19  and  N4_21 
REMARK   12  A    between atoms: C11_24  and  C13_26 
REMARK       I    between atoms: C13_26  and  N5_28 
REMARK   13  A    between atoms: N5_28  and  C14_30 
REMARK   14  A    between atoms: C14_30  and  C15_31 
REMARK   15  A    between atoms: C15_31  and  O5_32 
REMARK   16  A    between atoms: C17_35  and  C18_36 
ROOT
HETATM    1  C7  UNL     1      59.836  74.510 -92.108  1.00  0.00     0.119 C 
HETATM    2  N2  UNL     1      59.904  75.447 -91.162  1.00  0.00    -0.344 N 
ATOM      3  H2  UNL     1      60.392  76.340 -91.235  1.00  0.00     0.167 HD
HETATM    4  C8  UNL     1      59.126  74.952 -89.958  1.00  0.00     0.033 C 
HETATM    5  C9  UNL     1      57.921  75.372 -89.675  1.00  0.00     0.045 C 
HETATM    6  C11 UNL     1      59.848  73.863 -89.328  1.00  0.00     0.098 C 
HETATM    7  C12 UNL     1      61.374  74.176 -89.339  1.00  0.00     0.037 C 
HETATM    8  C16 UNL     1      59.668  72.772 -90.406  1.00  0.00     0.017 C 
HETATM    9  C17 UNL     1      59.674  73.100 -91.687  1.00  0.00     0.051 C 
ENDROOT
BRANCH   1  10
HETATM   10  N1  UNL     1      60.419  74.656 -93.409  1.00  0.00    -0.353 N 
ATOM     11  H1  UNL     1      61.030  73.893 -93.700  1.00  0.00     0.166 HD
BRANCH  10  12
HETATM   12  C6  UNL     1      60.275  75.682 -94.329  1.00  0.00     0.089 C 
BRANCH  12  13
HETATM   13  C5  UNL     1      61.289  76.693 -94.698  1.00  0.00     0.222 C 
BRANCH  13  14
HETATM   14  O3  UNL     1      61.947  76.906 -93.418  1.00  0.00    -0.312 OA
BRANCH  14  15
HETATM   15  P1  UNL     1      63.680  76.753 -93.717  1.00  0.00     0.334 P 
BRANCH  15  16
HETATM   16  O1  UNL     1      63.644  76.593 -95.617  1.00  0.00    -0.318 OA
BRANCH  16  17
HETATM   17  C2  UNL     1      64.701  77.423 -95.970  1.00  0.00     0.173 C 
HETATM   18  C1  UNL     1      64.359  78.191 -97.212  1.00  0.00     0.034 C 
ENDBRANCH  16  17
ENDBRANCH  15  16
BRANCH  15  19
HETATM   19  O2  UNL     1      64.199  75.058 -93.538  1.00  0.00    -0.318 OA
BRANCH  19  20
HETATM   20  C3  UNL     1      63.887  74.603 -92.290  1.00  0.00     0.173 C 
HETATM   21  C4  UNL     1      63.384  73.167 -92.427  1.00  0.00     0.034 C 
ENDBRANCH  19  20
ENDBRANCH  15  19
ENDBRANCH  14  15
ENDBRANCH  13  14
ENDBRANCH  12  13
ENDBRANCH  10  12
ENDBRANCH   1  10
BRANCH   9  22
HETATM   22  C18 UNL     1      59.306  72.060 -92.700  1.00  0.00     0.134 A 
HETATM   23  N6  UNL     1      59.729  70.761 -92.683  1.00  0.00    -0.336 N 
HETATM   24  C19 UNL     1      59.235  70.121 -93.779  1.00  0.00     0.199 A 
ATOM     25  H6  UNL     1      60.320  70.339 -91.967  1.00  0.00     0.168 HD
HETATM   26  N7  UNL     1      58.508  71.035 -94.441  1.00  0.00    -0.295 N 
HETATM   27  N8  UNL     1      58.571  72.212 -93.765  1.00  0.00    -0.284 N 
ATOM     28  H7  UNL     1      57.993  70.873 -95.307  1.00  0.00     0.187 HD
ATOM     29  H8  UNL     1      58.114  73.079 -94.048  1.00  0.00     0.188 HD
ENDBRANCH   9  22
BRANCH   5  30
HETATM   30  C10 UNL     1      57.159  76.348 -90.466  1.00  0.00     0.108 C 
HETATM   31  N3  UNL     1      56.400  75.943 -91.430  1.00  0.00    -0.318 N 
ATOM     32  H3  UNL     1      55.872  76.629 -91.969  1.00  0.00     0.185 HD
BRANCH  31  33
HETATM   33  N4  UNL     1      56.285  74.570 -91.756  1.00  0.00    -0.345 N 
ATOM     34  H42 UNL     1      56.620  73.884 -91.080  1.00  0.00     0.176 HD
ATOM     35  H41 UNL     1      55.880  74.264 -92.641  1.00  0.00     0.176 HD
ENDBRANCH  31  33
ENDBRANCH   5  30
BRANCH   6  36
HETATM   36  C13 UNL     1      59.547  73.416 -87.997  1.00  0.00     0.235 C 
HETATM   37  O4  UNL     1      59.570  74.096 -86.919  1.00  0.00    -0.272 OA
HETATM   38  N5  UNL     1      59.168  72.043 -87.827  1.00  0.00    -0.358 N 
ATOM     39  H5  UNL     1      59.126  71.420 -88.633  1.00  0.00     0.162 HD
BRANCH  38  40
HETATM   40  C14 UNL     1      58.841  71.536 -86.485  1.00  0.00     0.148 C 
BRANCH  40  41
HETATM   41  C15 UNL     1      58.112  70.207 -86.599  1.00  0.00     0.183 C 
BRANCH  41  42
HETATM   42  O5  UNL     1      59.093  69.221 -86.234  1.00  0.00    -0.399 OA
ATOM     43  H5  UNL     1      58.777  68.860 -85.414  1.00  0.00     0.209 HD
ENDBRANCH  41  42
ENDBRANCH  40  41
ENDBRANCH  38  40
ENDBRANCH   6  36
TORSDOF 16
ENDMDL
MODEL 4
REMARK VINA RESULT: -7.553065905      2.164      4.121
REMARK  16 active torsions:
REMARK  status: ('A' for Active; 'I' for Inactive)
REMARK    1  A    between atoms: C2_2  and  O1_3 
REMARK    2  A    between atoms: O1_3  and  P1_4 
REMARK    3  A    between atoms: P1_4  and  O2_5 
REMARK    4  A    between atoms: P1_4  and  O3_8 
REMARK    5  A    between atoms: O2_5  and  C3_6 
REMARK    6  A    between atoms: O3_8  and  C5_9 
REMARK    7  A    between atoms: C5_9  and  C6_10 
REMARK    8  A    between atoms: C6_10  and  N1_11 
REMARK    9  A    between atoms: N1_11  and  C7_13 
REMARK   10  A    between atoms: C9_17  and  C10_18 
REMARK   11  A    between atoms: N3_19  and  N4_21 
REMARK   12  A    between atoms: C11_24  and  C13_26 
REMARK       I    between atoms: C13_26  and  N5_28 
REMARK   13  A    between atoms: N5_28  and  C14_30 
REMARK   14  A    between atoms: C14_30  and  C15_31 
REMARK   15  A    between atoms: C15_31  and  O5_32 
REMARK   16  A    between atoms: C17_35  and  C18_36 
ROOT
HETATM    1  C7  UNL     1      60.552  74.228 -93.260  1.00  0.00     0.119 C 
HETATM    2  N2  UNL     1      59.333  73.737 -93.039  1.00  0.00    -0.344 N 
ATOM      3  H2  UNL     1      58.474  74.033 -93.503  1.00  0.00     0.167 HD
HETATM    4  C8  UNL     1      59.448  72.662 -91.976  1.00  0.00     0.033 C 
HETATM    5  C9  UNL     1      59.435  71.385 -92.258  1.00  0.00     0.045 C 
HETATM    6  C11 UNL     1      59.742  73.275 -90.694  1.00  0.00     0.098 C 
HETATM    7  C12 UNL     1      58.921  74.592 -90.548  1.00  0.00     0.037 C 
HETATM    8  C16 UNL     1      61.188  73.746 -90.955  1.00  0.00     0.017 C 
HETATM    9  C17 UNL     1      61.534  74.191 -92.152  1.00  0.00     0.051 C 
ENDROOT
BRANCH   1  10
HETATM   10  N1  UNL     1      60.834  75.234 -94.240  1.00  0.00    -0.353 N 
ATOM     11  H1  UNL     1      61.627  75.036 -94.851  1.00  0.00     0.166 HD
BRANCH  10  12
HETATM   12  C6  UNL     1      60.188  76.435 -94.481  1.00  0.00     0.089 C 
BRANCH  12  13
HETATM   13  C5  UNL     1      60.295  77.677 -93.684  1.00  0.00     0.222 C 
BRANCH  13  14
HETATM   14  O3  UNL     1      61.716  77.685 -93.373  1.00  0.00    -0.312 OA
BRANCH  14  15
HETATM   15  P1  UNL     1      62.496  78.641 -94.636  1.00  0.00     0.334 P 
BRANCH  15  16
HETATM   16  O1  UNL     1      64.184  77.754 -94.683  1.00  0.00    -0.318 OA
BRANCH  16  17
HETATM   17  C2  UNL     1      64.112  77.118 -95.916  1.00  0.00     0.173 C 
HETATM   18  C1  UNL     1      64.933  77.861 -96.927  1.00  0.00     0.034 C 
ENDBRANCH  16  17
ENDBRANCH  15  16
BRANCH  15  19
HETATM   19  O2  UNL     1      63.233  80.108 -93.947  1.00  0.00    -0.318 OA
BRANCH  19  20
HETATM   20  C3  UNL     1      63.754  80.882 -94.942  1.00  0.00     0.173 C 
HETATM   21  C4  UNL     1      64.934  81.662 -94.363  1.00  0.00     0.034 C 
ENDBRANCH  19  20
ENDBRANCH  15  19
ENDBRANCH  14  15
ENDBRANCH  13  14
ENDBRANCH  12  13
ENDBRANCH  10  12
ENDBRANCH   1  10
BRANCH   9  22
HETATM   22  C18 UNL     1      62.981  74.457 -92.432  1.00  0.00     0.134 A 
HETATM   23  N6  UNL     1      63.945  73.498 -92.573  1.00  0.00    -0.336 N 
HETATM   24  C19 UNL     1      65.147  74.107 -92.773  1.00  0.00     0.199 A 
ATOM     25  H6  UNL     1      63.789  72.492 -92.534  1.00  0.00     0.168 HD
HETATM   26  N7  UNL     1      64.897  75.425 -92.765  1.00  0.00    -0.295 N 
HETATM   27  N8  UNL     1      63.569  75.614 -92.549  1.00  0.00    -0.284 N 
ATOM     28  H7  UNL     1      65.589  76.163 -92.898  1.00  0.00     0.187 HD
ATOM     29  H8  UNL     1      63.104  76.521 -92.489  1.00  0.00     0.188 HD
ENDBRANCH   9  22
BRANCH   5  30
HETATM   30  C10 UNL     1      59.323  70.821 -93.610  1.00  0.00     0.108 C 
HETATM   31  N3  UNL     1      58.882  69.618 -93.772  1.00  0.00    -0.318 N 
ATOM     32  H3  UNL     1      58.803  69.240 -94.716  1.00  0.00     0.185 HD
BRANCH  31  33
HETATM   33  N4  UNL     1      58.505  68.813 -92.670  1.00  0.00    -0.345 N 
ATOM     34  H42 UNL     1      57.643  69.044 -92.177  1.00  0.00     0.176 HD
ATOM     35  H41 UNL     1      59.074  68.022 -92.368  1.00  0.00     0.176 HD
ENDBRANCH  31  33
ENDBRANCH   5  30
BRANCH   6  36
HETATM   36  C13 UNL     1      59.579  72.570 -89.454  1.00  0.00     0.235 C 
HETATM   37  O4  UNL     1      60.456  71.904 -88.811  1.00  0.00    -0.272 OA
HETATM   38  N5  UNL     1      58.284  72.601 -88.836  1.00  0.00    -0.358 N 
ATOM     39  H5  UNL     1      57.518  73.107 -89.280  1.00  0.00     0.162 HD
BRANCH  38  40
HETATM   40  C14 UNL     1      58.066  71.902 -87.561  1.00  0.00     0.148 C 
BRANCH  40  41
HETATM   41  C15 UNL     1      57.436  70.543 -87.818  1.00  0.00     0.183 C 
BRANCH  41  42
HETATM   42  O5  UNL     1      58.548  69.636 -87.906  1.00  0.00    -0.399 OA
ATOM     43  H5  UNL     1      58.290  68.887 -87.384  1.00  0.00     0.209 HD
ENDBRANCH  41  42
ENDBRANCH  40  41
ENDBRANCH  38  40
ENDBRANCH   6  36
TORSDOF 16
ENDMDL
MODEL 5
REMARK VINA RESULT: -7.431199543      1.944      4.333
REMARK  16 active torsions:
REMARK  status: ('A' for Active; 'I' for Inactive)
REMARK    1  A    between atoms: C2_2  and  O1_3 
REMARK    2  A    between atoms: O1_3  and  P1_4 
REMARK    3  A    between atoms: P1_4  and  O2_5 
REMARK    4  A    between atoms: P1_4  and  O3_8 
REMARK    5  A    between atoms: O2_5  and  C3_6 
REMARK    6  A    between atoms: O3_8  and  C5_9 
REMARK    7  A    between atoms: C5_9  and  C6_10 
REMARK    8  A    between atoms: C6_10  and  N1_11 
REMARK    9  A    between atoms: N1_11  and  C7_13 
REMARK   10  A    between atoms: C9_17  and  C10_18 
REMARK   11  A    between atoms: N3_19  and  N4_21 
REMARK   12  A    between atoms: C11_24  and  C13_26 
REMARK       I    between atoms: C13_26  and  N5_28 
REMARK   13  A    between atoms: N5_28  and  C14_30 
REMARK   14  A    between atoms: C14_30  and  C15_31 
REMARK   15  A    between atoms: C15_31  and  O5_32 
REMARK   16  A    between atoms: C17_35  and  C18_36 
ROOT
HETATM    1  C7  UNL     1      59.432  74.499 -92.822  1.00  0.00     0.119 C 
HETATM    2  N2  UNL     1      60.398  73.584 -92.730  1.00  0.00    -0.344 N 
ATOM      3  H2  UNL     1      61.069  73.345 -93.460  1.00  0.00     0.167 HD
HETATM    4  C8  UNL     1      60.322  72.962 -91.349  1.00  0.00     0.033 C 
HETATM    5  C9  UNL     1      61.139  73.288 -90.382  1.00  0.00     0.045 C 
HETATM    6  C11 UNL     1      59.136  72.131 -91.255  1.00  0.00     0.098 C 
HETATM    7  C12 UNL     1      58.935  71.360 -92.594  1.00  0.00     0.037 C 
HETATM    8  C16 UNL     1      58.048  73.225 -91.269  1.00  0.00     0.017 C 
HETATM    9  C17 UNL     1      58.208  74.309 -92.010  1.00  0.00     0.051 C 
ENDROOT
BRANCH   1  10
HETATM   10  N1  UNL     1      59.232  75.324 -93.975  1.00  0.00    -0.353 N 
ATOM     11  H1  UNL     1      58.368  75.152 -94.489  1.00  0.00     0.166 HD
BRANCH  10  12
HETATM   12  C6  UNL     1      60.040  76.322 -94.495  1.00  0.00     0.089 C 
BRANCH  12  13
HETATM   13  C5  UNL     1      61.455  76.197 -94.904  1.00  0.00     0.222 C 
BRANCH  13  14
HETATM   14  O3  UNL     1      62.084  75.875 -93.633  1.00  0.00    -0.312 OA
BRANCH  14  15
HETATM   15  P1  UNL     1      63.759  76.423 -93.752  1.00  0.00     0.334 P 
BRANCH  15  16
HETATM   16  O1  UNL     1      63.919  76.488 -95.651  1.00  0.00    -0.318 OA
BRANCH  16  17
HETATM   17  C2  UNL     1      64.673  77.644 -95.811  1.00  0.00     0.173 C 
HETATM   18  C1  UNL     1      64.986  77.856 -97.262  1.00  0.00     0.034 C 
ENDBRANCH  16  17
ENDBRANCH  15  16
BRANCH  15  19
HETATM   19  O2  UNL     1      64.878  75.041 -93.658  1.00  0.00    -0.318 OA
BRANCH  19  20
HETATM   20  C3  UNL     1      66.024  75.410 -93.017  1.00  0.00     0.173 C 
HETATM   21  C4  UNL     1      66.780  74.138 -92.637  1.00  0.00     0.034 C 
ENDBRANCH  19  20
ENDBRANCH  15  19
ENDBRANCH  14  15
ENDBRANCH  13  14
ENDBRANCH  12  13
ENDBRANCH  10  12
ENDBRANCH   1  10
BRANCH   9  22
HETATM   22  C18 UNL     1      57.235  75.438 -91.857  1.00  0.00     0.134 A 
HETATM   23  N6  UNL     1      57.358  76.467 -90.967  1.00  0.00    -0.336 N 
HETATM   24  C19 UNL     1      56.270  77.279 -91.077  1.00  0.00     0.199 A 
ATOM     25  H6  UNL     1      58.138  76.605 -90.325  1.00  0.00     0.168 HD
HETATM   26  N7  UNL     1      55.506  76.740 -92.040  1.00  0.00    -0.295 N 
HETATM   27  N8  UNL     1      56.114  75.614 -92.497  1.00  0.00    -0.284 N 
ATOM     28  H7  UNL     1      54.617  77.113 -92.374  1.00  0.00     0.187 HD
ATOM     29  H8  UNL     1      55.749  75.002 -93.228  1.00  0.00     0.188 HD
ENDBRANCH   9  22
BRANCH   5  30
HETATM   30  C10 UNL     1      62.212  74.286 -90.484  1.00  0.00     0.108 C 
HETATM   31  N3  UNL     1      63.283  74.013 -91.153  1.00  0.00    -0.318 N 
ATOM     32  H3  UNL     1      64.019  74.716 -91.222  1.00  0.00     0.185 HD
BRANCH  31  33
HETATM   33  N4  UNL     1      63.460  72.762 -91.792  1.00  0.00    -0.345 N 
ATOM     34  H42 UNL     1      62.688  72.096 -91.769  1.00  0.00     0.176 HD
ATOM     35  H41 UNL     1      64.331  72.523 -92.265  1.00  0.00     0.176 HD
ENDBRANCH  31  33
ENDBRANCH   5  30
BRANCH   6  36
HETATM   36  C13 UNL     1      58.966  71.159 -90.212  1.00  0.00     0.235 C 
HETATM   37  O4  UNL     1      59.324  69.935 -90.217  1.00  0.00    -0.272 OA
HETATM   38  N5  UNL     1      58.321  71.586 -89.004  1.00  0.00    -0.358 N 
ATOM     39  H5  UNL     1      57.996  72.548 -88.910  1.00  0.00     0.162 HD
BRANCH  38  40
HETATM   40  C14 UNL     1      58.129  70.632 -87.901  1.00  0.00     0.148 C 
BRANCH  40  41
HETATM   41  C15 UNL     1      58.752  71.183 -86.628  1.00  0.00     0.183 C 
BRANCH  41  42
HETATM   42  O5  UNL     1      59.610  70.130 -86.157  1.00  0.00    -0.399 OA
ATOM     43  H5  UNL     1      59.038  69.378 -86.061  1.00  0.00     0.209 HD
ENDBRANCH  41  42
ENDBRANCH  40  41
ENDBRANCH  38  40
ENDBRANCH   6  36
TORSDOF 16
ENDMDL
