MODEL 1
REMARK VINA RESULT: -7.145259357      0.000      0.000
REMARK  15 active torsions:
REMARK  status: ('A' for Active; 'I' for Inactive)
REMARK    1  A    between atoms: C2_2  and  C3_3 
REMARK    2  A    between atoms: C3_3  and  C4_4 
REMARK    3  A    between atoms: C4_4  and  C5_5 
REMARK    4  A    between atoms: C5_5  and  O1_6 
REMARK    5  A    between atoms: O1_6  and  C6_7 
REMARK    6  A    between atoms: C6_7  and  C7_8 
REMARK    7  A    between atoms: C7_8  and  C8_9 
REMARK    8  A    between atoms: C9_10  and  N1_11 
REMARK    9  A    between atoms: N1_11  and  C10_13 
REMARK   10  A    between atoms: C10_13  and  O2_14 
REMARK       I    between atoms: N5_26  and  C16_27 
REMARK   11  A    between atoms: C16_27  and  C17_29 
REMARK   12  A    between atoms: C17_29  and  N6_30 
REMARK       I    between atoms: N6_30  and  C19_32 
REMARK       I    between atoms: C19_32  and  N8_36 
REMARK   13  A    between atoms: N8_36  and  P1_38 
REMARK   14  A    between atoms: P1_38  and  O4_39 
REMARK   15  A    between atoms: P1_38  and  O5_41 
ROOT
HETATM    1  C8  UNL     1      60.478  72.525 -91.664  1.00  0.00     0.146 C 
HETATM    2  C9  UNL     1      59.769  71.761 -90.668  1.00  0.00     0.061 C 
HETATM    3  C11 UNL     1      59.599  72.288 -89.406  1.00  0.00     0.102 A 
HETATM    4  C12 UNL     1      60.195  73.600 -89.125  1.00  0.00     0.079 A 
HETATM    5  N2  UNL     1      59.976  74.258 -88.059  1.00  0.00    -0.348 N 
ATOM      6  H2  UNL     1      60.410  75.169 -87.909  1.00  0.00     0.167 HD
HETATM    7  C13 UNL     1      59.131  73.704 -87.100  1.00  0.00     0.198 A 
HETATM    8  N3  UNL     1      58.568  72.582 -87.220  1.00  0.00    -0.294 N 
ATOM      9  H3  UNL     1      57.965  72.241 -86.471  1.00  0.00     0.188 HD
HETATM   10  N4  UNL     1      58.770  71.742 -88.442  1.00  0.00    -0.292 N 
HETATM   11  C14 UNL     1      58.185  70.479 -88.397  1.00  0.00     0.178 C 
HETATM   12  C15 UNL     1      61.315  74.139 -89.941  1.00  0.00     0.127 C 
HETATM   13  N5  UNL     1      61.435  73.558 -91.172  1.00  0.00    -0.314 N 
HETATM   14  C16 UNL     1      62.429  74.007 -92.091  1.00  0.00     0.242 C 
HETATM   15  O3  UNL     1      62.675  73.410 -93.196  1.00  0.00    -0.271 OA
ENDROOT
BRANCH   1  16
HETATM   16  C7  UNL     1      59.459  73.643 -92.221  1.00  0.00     0.058 C 
BRANCH  16  17
HETATM   17  C6  UNL     1      58.250  73.060 -92.871  1.00  0.00     0.170 C 
BRANCH  17  18
HETATM   18  O1  UNL     1      57.214  73.560 -92.222  1.00  0.00    -0.391 OA
BRANCH  18  19
HETATM   19  C5  UNL     1      56.973  74.463 -91.364  1.00  0.00     0.167 C 
BRANCH  19  20
HETATM   20  C4  UNL     1      56.578  74.165 -89.976  1.00  0.00     0.026 C 
BRANCH  20  21
HETATM   21  C3  UNL     1      56.436  75.371 -89.088  1.00  0.00     0.002 C 
BRANCH  21  22
HETATM   22  C2  UNL     1      57.460  76.353 -89.678  1.00  0.00    -0.004 C 
HETATM   23  C1  UNL     1      56.961  77.745 -89.638  1.00  0.00     0.005 C 
ENDBRANCH  21  22
ENDBRANCH  20  21
ENDBRANCH  19  20
ENDBRANCH  18  19
ENDBRANCH  17  18
ENDBRANCH  16  17
ENDBRANCH   1  16
BRANCH  14  24
HETATM   24  C17 UNL     1      63.207  75.212 -91.826  1.00  0.00     0.228 C 
BRANCH  24  25
HETATM   25  N6  UNL     1      64.435  75.362 -92.596  1.00  0.00    -0.349 N 
HETATM   26  C18 UNL     1      65.647  74.656 -92.296  1.00  0.00     0.153 C 
HETATM   27  C19 UNL     1      64.408  76.269 -93.679  1.00  0.00     0.177 C 
HETATM   28  N7  UNL     1      65.403  77.050 -94.041  1.00  0.00    -0.371 N 
HETATM   29  N8  UNL     1      63.185  76.440 -94.506  1.00  0.00    -0.292 N 
ATOM     30  H72 UNL     1      66.243  76.933 -93.474  1.00  0.00     0.159 HD
ATOM     31  H71 UNL     1      65.384  77.705 -94.823  1.00  0.00     0.159 HD
ATOM     32  H8  UNL     1      62.882  75.783 -95.224  1.00  0.00     0.171 HD
BRANCH  29  33
HETATM   33  P1  UNL     1      62.310  77.945 -94.084  1.00  0.00     0.286 P 
BRANCH  33  34
HETATM   34  O4  UNL     1      63.444  79.247 -94.099  1.00  0.00    -0.333 OA
ATOM     35  H4  UNL     1      63.078  79.964 -93.594  1.00  0.00     0.219 HD
ENDBRANCH  33  34
BRANCH  33  36
HETATM   36  O5  UNL     1      61.005  78.255 -95.148  1.00  0.00    -0.333 OA
ATOM     37  H5  UNL     1      60.428  77.505 -95.237  1.00  0.00     0.219 HD
ENDBRANCH  33  36
ENDBRANCH  29  33
ENDBRANCH  24  25
ENDBRANCH  14  24
BRANCH   2  38
HETATM   38  N1  UNL     1      59.186  70.482 -90.822  1.00  0.00    -0.368 N 
ATOM     39  H1  UNL     1      58.456  70.230 -90.156  1.00  0.00     0.161 HD
BRANCH  38  40
HETATM   40  C10 UNL     1      59.517  69.487 -91.833  1.00  0.00     0.287 C 
BRANCH  40  41
HETATM   41  O2  UNL     1      60.039  68.415 -91.084  1.00  0.00    -0.382 OA
ATOM     42  H2  UNL     1      60.797  68.792 -90.652  1.00  0.00     0.211 HD
ENDBRANCH  40  41
ENDBRANCH  38  40
ENDBRANCH   2  38
TORSDOF 15
ENDMDL
MODEL 2
REMARK VINA RESULT: -7.045913958      1.026      1.054
REMARK  15 active torsions:
REMARK  status: ('A' for Active; 'I' for Inactive)
REMARK    1  A    between atoms: C2_2  and  C3_3 
REMARK    2  A    between atoms: C3_3  and  C4_4 
REMARK    3  A    between atoms: C4_4  and  C5_5 
REMARK    4  A    between atoms: C5_5  and  O1_6 
REMARK    5  A    between atoms: O1_6  and  C6_7 
REMARK    6  A    between atoms: C6_7  and  C7_8 
REMARK    7  A    between atoms: C7_8  and  C8_9 
REMARK    8  A    between atoms: C9_10  and  N1_11 
REMARK    9  A    between atoms: N1_11  and  C10_13 
REMARK   10  A    between atoms: C10_13  and  O2_14 
REMARK       I    between atoms: N5_26  and  C16_27 
REMARK   11  A    between atoms: C16_27  and  C17_29 
REMARK   12  A    between atoms: C17_29  and  N6_30 
REMARK       I    between atoms: N6_30  and  C19_32 
REMARK       I    between atoms: C19_32  and  N8_36 
REMARK   13  A    between atoms: N8_36  and  P1_38 
REMARK   14  A    between atoms: P1_38  and  O4_39 
REMARK   15  A    between atoms: P1_38  and  O5_41 
ROOT
HETATM    1  C8  UNL     1      60.550  72.022 -91.533  1.00  0.00     0.146 C 
HETATM    2  C9  UNL     1      59.721  71.322 -90.584  1.00  0.00     0.061 C 
HETATM    3  C11 UNL     1      59.499  71.875 -89.342  1.00  0.00     0.102 A 
HETATM    4  C12 UNL     1      60.162  73.146 -89.029  1.00  0.00     0.079 A 
HETATM    5  N2  UNL     1      59.914  73.831 -87.986  1.00  0.00    -0.348 N 
ATOM      6  H2  UNL     1      60.398  74.713 -87.812  1.00  0.00     0.167 HD
HETATM    7  C13 UNL     1      58.967  73.348 -87.086  1.00  0.00     0.198 A 
HETATM    8  N3  UNL     1      58.338  72.265 -87.238  1.00  0.00    -0.294 N 
ATOM      9  H3  UNL     1      57.662  71.976 -86.531  1.00  0.00     0.188 HD
HETATM   10  N4  UNL     1      58.568  71.399 -88.435  1.00  0.00    -0.292 N 
HETATM   11  C14 UNL     1      57.896  70.178 -88.423  1.00  0.00     0.178 C 
HETATM   12  C15 UNL     1      61.372  73.598 -89.766  1.00  0.00     0.127 C 
HETATM   13  N5  UNL     1      61.538  72.994 -90.981  1.00  0.00    -0.314 N 
HETATM   14  C16 UNL     1      62.624  73.363 -91.831  1.00  0.00     0.242 C 
HETATM   15  O3  UNL     1      62.906  72.737 -92.910  1.00  0.00    -0.271 OA
ENDROOT
BRANCH   1  16
HETATM   16  C7  UNL     1      59.652  73.201 -92.169  1.00  0.00     0.058 C 
BRANCH  16  17
HETATM   17  C6  UNL     1      58.425  72.697 -92.850  1.00  0.00     0.170 C 
BRANCH  17  18
HETATM   18  O1  UNL     1      57.414  73.342 -92.298  1.00  0.00    -0.391 OA
BRANCH  18  19
HETATM   19  C5  UNL     1      57.223  74.262 -91.445  1.00  0.00     0.167 C 
BRANCH  19  20
HETATM   20  C4  UNL     1      56.654  74.011 -90.110  1.00  0.00     0.026 C 
BRANCH  20  21
HETATM   21  C3  UNL     1      56.597  75.216 -89.211  1.00  0.00     0.002 C 
BRANCH  21  22
HETATM   22  C2  UNL     1      57.722  76.106 -89.762  1.00  0.00    -0.004 C 
HETATM   23  C1  UNL     1      57.355  77.538 -89.705  1.00  0.00     0.005 C 
ENDBRANCH  21  22
ENDBRANCH  20  21
ENDBRANCH  19  20
ENDBRANCH  18  19
ENDBRANCH  17  18
ENDBRANCH  16  17
ENDBRANCH   1  16
BRANCH  14  24
HETATM   24  C17 UNL     1      63.462  74.516 -91.519  1.00  0.00     0.228 C 
BRANCH  24  25
HETATM   25  N6  UNL     1      64.191  75.096 -92.639  1.00  0.00    -0.349 N 
HETATM   26  C18 UNL     1      65.564  74.797 -92.930  1.00  0.00     0.153 C 
HETATM   27  C19 UNL     1      63.491  76.012 -93.457  1.00  0.00     0.177 C 
HETATM   28  N7  UNL     1      64.008  77.090 -94.006  1.00  0.00    -0.371 N 
HETATM   29  N8  UNL     1      62.043  75.834 -93.742  1.00  0.00    -0.292 N 
ATOM     30  H72 UNL     1      65.002  77.212 -93.810  1.00  0.00     0.159 HD
ATOM     31  H71 UNL     1      63.503  77.751 -94.596  1.00  0.00     0.159 HD
ATOM     32  H8  UNL     1      61.669  75.160 -94.409  1.00  0.00     0.171 HD
BRANCH  29  33
HETATM   33  P1  UNL     1      61.038  76.952 -92.768  1.00  0.00     0.286 P 
BRANCH  33  34
HETATM   34  O4  UNL     1      61.428  78.569 -93.236  1.00  0.00    -0.333 OA
ATOM     35  H4  UNL     1      61.604  79.069 -92.448  1.00  0.00     0.219 HD
ENDBRANCH  33  34
BRANCH  33  36
HETATM   36  O5  UNL     1      59.364  76.646 -92.953  1.00  0.00    -0.333 OA
ATOM     37  H5  UNL     1      59.150  75.729 -92.825  1.00  0.00     0.219 HD
ENDBRANCH  33  36
ENDBRANCH  29  33
ENDBRANCH  24  25
ENDBRANCH  14  24
BRANCH   2  38
HETATM   38  N1  UNL     1      59.064  70.083 -90.770  1.00  0.00    -0.368 N 
ATOM     39  H1  UNL     1      58.239  69.914 -90.194  1.00  0.00     0.161 HD
BRANCH  38  40
HETATM   40  C10 UNL     1      59.440  69.025 -91.697  1.00  0.00     0.287 C 
BRANCH  40  41
HETATM   41  O2  UNL     1      58.512  69.158 -92.747  1.00  0.00    -0.382 OA
ATOM     42  H2  UNL     1      57.983  68.372 -92.680  1.00  0.00     0.211 HD
ENDBRANCH  40  41
ENDBRANCH  38  40
ENDBRANCH   2  38
TORSDOF 15
ENDMDL
MODEL 3
REMARK VINA RESULT: -6.733836237      3.343      5.708
REMARK  15 active torsions:
REMARK  status: ('A' for Active; 'I' for Inactive)
REMARK    1  A    between atoms: C2_2  and  C3_3 
REMARK    2  A    between atoms: C3_3  and  C4_4 
REMARK    3  A    between atoms: C4_4  and  C5_5 
REMARK    4  A    between atoms: C5_5  and  O1_6 
REMARK    5  A    between atoms: O1_6  and  C6_7 
REMARK    6  A    between atoms: C6_7  and  C7_8 
REMARK    7  A    between atoms: C7_8  and  C8_9 
REMARK    8  A    between atoms: C9_10  and  N1_11 
REMARK    9  A    between atoms: N1_11  and  C10_13 
REMARK   10  A    between atoms: C10_13  and  O2_14 
REMARK       I    between atoms: N5_26  and  C16_27 
REMARK   11  A    between atoms: C16_27  and  C17_29 
REMARK   12  A    between atoms: C17_29  and  N6_30 
REMARK       I    between atoms: N6_30  and  C19_32 
REMARK       I    between atoms: C19_32  and  N8_36 
REMARK   13  A    between atoms: N8_36  and  P1_38 
REMARK   14  A    between atoms: P1_38  and  O4_39 
REMARK   15  A    between atoms: P1_38  and  O5_41 
ROOT
HETATM    1  C8  UNL     1      61.166  76.430 -94.326  1.00  0.00     0.146 C 
HETATM    2  C9  UNL     1      61.532  75.315 -93.488  1.00  0.00     0.061 C 
HETATM    3  C11 UNL     1      62.863  75.072 -93.229  1.00  0.00     0.102 A 
HETATM    4  C12 UNL     1      63.856  75.948 -93.862  1.00  0.00     0.079 A 
HETATM    5  N2  UNL     1      65.096  75.926 -93.578  1.00  0.00    -0.348 N 
ATOM      6  H2  UNL     1      65.749  76.557 -94.042  1.00  0.00     0.167 HD
HETATM    7  C13 UNL     1      65.540  75.018 -92.620  1.00  0.00     0.198 A 
HETATM    8  N3  UNL     1      64.788  74.208 -92.014  1.00  0.00    -0.294 N 
ATOM      9  H3  UNL     1      65.189  73.569 -91.327  1.00  0.00     0.188 HD
HETATM   10  N4  UNL     1      63.317  74.166 -92.286  1.00  0.00    -0.292 N 
HETATM   11  C14 UNL     1      62.621  73.150 -91.636  1.00  0.00     0.178 C 
HETATM   12  C15 UNL     1      63.536  76.738 -95.080  1.00  0.00     0.127 C 
HETATM   13  N5  UNL     1      62.198  76.924 -95.284  1.00  0.00    -0.314 N 
HETATM   14  C16 UNL     1      61.735  77.710 -96.382  1.00  0.00     0.242 C 
HETATM   15  O3  UNL     1      60.499  77.800 -96.700  1.00  0.00    -0.271 OA
ENDROOT
BRANCH   1  16
HETATM   16  C7  UNL     1      61.278  77.760 -93.422  1.00  0.00     0.058 C 
BRANCH  16  17
HETATM   17  C6  UNL     1      60.045  78.033 -92.629  1.00  0.00     0.170 C 
BRANCH  17  18
HETATM   18  O1  UNL     1      60.230  77.450 -91.460  1.00  0.00    -0.391 OA
BRANCH  18  19
HETATM   19  C5  UNL     1      59.569  77.195 -90.407  1.00  0.00     0.167 C 
BRANCH  19  20
HETATM   20  C4  UNL     1      58.540  78.100 -89.867  1.00  0.00     0.026 C 
BRANCH  20  21
HETATM   21  C3  UNL     1      57.190  77.469 -89.660  1.00  0.00     0.002 C 
BRANCH  21  22
HETATM   22  C2  UNL     1      57.537  75.991 -89.421  1.00  0.00    -0.004 C 
HETATM   23  C1  UNL     1      56.424  75.275 -88.762  1.00  0.00     0.005 C 
ENDBRANCH  21  22
ENDBRANCH  20  21
ENDBRANCH  19  20
ENDBRANCH  18  19
ENDBRANCH  17  18
ENDBRANCH  16  17
ENDBRANCH   1  16
BRANCH  14  24
HETATM   24  C17 UNL     1      62.664  78.488 -97.192  1.00  0.00     0.228 C 
BRANCH  24  25
HETATM   25  N6  UNL     1      63.164  79.716 -96.588  1.00  0.00    -0.349 N 
HETATM   26  C18 UNL     1      62.369  80.562 -95.745  1.00  0.00     0.153 C 
HETATM   27  C19 UNL     1      64.498  80.080 -96.878  1.00  0.00     0.177 C 
HETATM   28  N7  UNL     1      64.929  81.310 -97.057  1.00  0.00    -0.371 N 
HETATM   29  N8  UNL     1      65.555  79.048 -97.043  1.00  0.00    -0.292 N 
ATOM     30  H72 UNL     1      64.204  82.018 -96.944  1.00  0.00     0.159 HD
ATOM     31  H71 UNL     1      65.893  81.572 -97.267  1.00  0.00     0.159 HD
ATOM     32  H8  UNL     1      66.000  78.554 -96.270  1.00  0.00     0.171 HD
BRANCH  29  33
HETATM   33  P1  UNL     1      65.950  78.781 -98.770  1.00  0.00     0.286 P 
BRANCH  33  34
HETATM   34  O4  UNL     1      65.108  79.966 -99.702  1.00  0.00    -0.333 OA
ATOM     35  H4  UNL     1      65.133  79.697-100.613  1.00  0.00     0.219 HD
ENDBRANCH  33  34
BRANCH  33  36
HETATM   36  O5  UNL     1      67.635  78.850 -99.066  1.00  0.00    -0.333 OA
ATOM     37  H5  UNL     1      67.838  78.818 -99.994  1.00  0.00     0.219 HD
ENDBRANCH  33  36
ENDBRANCH  29  33
ENDBRANCH  24  25
ENDBRANCH  14  24
BRANCH   2  38
HETATM   38  N1  UNL     1      60.662  74.395 -92.858  1.00  0.00    -0.368 N 
ATOM     39  H1  UNL     1      61.101  73.645 -92.324  1.00  0.00     0.161 HD
BRANCH  38  40
HETATM   40  C10 UNL     1      59.206  74.406 -92.889  1.00  0.00     0.287 C 
BRANCH  40  41
HETATM   41  O2  UNL     1      58.896  73.757 -94.099  1.00  0.00    -0.382 OA
ATOM     42  H2  UNL     1      59.071  74.418 -94.759  1.00  0.00     0.211 HD
ENDBRANCH  40  41
ENDBRANCH  38  40
ENDBRANCH   2  38
TORSDOF 15
ENDMDL
MODEL 4
REMARK VINA RESULT: -6.693199697      2.588      4.321
REMARK  15 active torsions:
REMARK  status: ('A' for Active; 'I' for Inactive)
REMARK    1  A    between atoms: C2_2  and  C3_3 
REMARK    2  A    between atoms: C3_3  and  C4_4 
REMARK    3  A    between atoms: C4_4  and  C5_5 
REMARK    4  A    between atoms: C5_5  and  O1_6 
REMARK    5  A    between atoms: O1_6  and  C6_7 
REMARK    6  A    between atoms: C6_7  and  C7_8 
REMARK    7  A    between atoms: C7_8  and  C8_9 
REMARK    8  A    between atoms: C9_10  and  N1_11 
REMARK    9  A    between atoms: N1_11  and  C10_13 
REMARK   10  A    between atoms: C10_13  and  O2_14 
REMARK       I    between atoms: N5_26  and  C16_27 
REMARK   11  A    between atoms: C16_27  and  C17_29 
REMARK   12  A    between atoms: C17_29  and  N6_30 
REMARK       I    between atoms: N6_30  and  C19_32 
REMARK       I    between atoms: C19_32  and  N8_36 
REMARK   13  A    between atoms: N8_36  and  P1_38 
REMARK   14  A    between atoms: P1_38  and  O4_39 
REMARK   15  A    between atoms: P1_38  and  O5_41 
ROOT
HETATM    1  C8  UNL     1      60.230  76.056 -90.879  1.00  0.00     0.146 C 
HETATM    2  C9  UNL     1      59.254  75.186 -90.272  1.00  0.00     0.061 C 
HETATM    3  C11 UNL     1      59.307  73.832 -90.520  1.00  0.00     0.102 A 
HETATM    4  C12 UNL     1      60.345  73.342 -91.435  1.00  0.00     0.079 A 
HETATM    5  N2  UNL     1      60.597  72.110 -91.619  1.00  0.00    -0.348 N 
ATOM      6  H2  UNL     1      61.332  71.816 -92.263  1.00  0.00     0.167 HD
HETATM    7  C13 UNL     1      59.844  71.169 -90.920  1.00  0.00     0.198 A 
HETATM    8  N3  UNL     1      58.920  71.462 -90.114  1.00  0.00    -0.294 N 
ATOM      9  H3  UNL     1      58.410  70.716 -89.643  1.00  0.00     0.188 HD
HETATM   10  N4  UNL     1      58.558  72.888 -89.839  1.00  0.00    -0.292 N 
HETATM   11  C14 UNL     1      57.446  73.071 -89.020  1.00  0.00     0.178 C 
HETATM   12  C15 UNL     1      60.999  74.240 -92.425  1.00  0.00     0.127 C 
HETATM   13  N5  UNL     1      60.890  75.568 -92.126  1.00  0.00    -0.314 N 
HETATM   14  C16 UNL     1      61.513  76.551 -92.952  1.00  0.00     0.242 C 
HETATM   15  O3  UNL     1      61.327  77.807 -92.799  1.00  0.00    -0.271 OA
ENDROOT
BRANCH   1  16
HETATM   16  C7  UNL     1      61.591  75.910 -90.027  1.00  0.00     0.058 C 
BRANCH  16  17
HETATM   17  C6  UNL     1      61.420  76.264 -88.588  1.00  0.00     0.170 C 
BRANCH  17  18
HETATM   18  O1  UNL     1      62.274  77.243 -88.353  1.00  0.00    -0.391 OA
BRANCH  18  19
HETATM   19  C5  UNL     1      62.312  78.342 -87.720  1.00  0.00     0.167 C 
BRANCH  19  20
HETATM   20  C4  UNL     1      61.227  79.337 -87.776  1.00  0.00     0.026 C 
BRANCH  20  21
HETATM   21  C3  UNL     1      60.850  79.781 -89.164  1.00  0.00     0.002 C 
BRANCH  21  22
HETATM   22  C2  UNL     1      59.373  79.370 -89.264  1.00  0.00    -0.004 C 
HETATM   23  C1  UNL     1      58.475  80.482 -88.885  1.00  0.00     0.005 C 
ENDBRANCH  21  22
ENDBRANCH  20  21
ENDBRANCH  19  20
ENDBRANCH  18  19
ENDBRANCH  17  18
ENDBRANCH  16  17
ENDBRANCH   1  16
BRANCH  14  24
HETATM   24  C17 UNL     1      62.435  76.162 -94.013  1.00  0.00     0.228 C 
BRANCH  24  25
HETATM   25  N6  UNL     1      63.842  76.087 -93.640  1.00  0.00    -0.349 N 
HETATM   26  C18 UNL     1      64.360  75.136 -92.700  1.00  0.00     0.153 C 
HETATM   27  C19 UNL     1      64.717  77.022 -94.237  1.00  0.00     0.177 C 
HETATM   28  N7  UNL     1      65.739  77.595 -93.641  1.00  0.00    -0.371 N 
HETATM   29  N8  UNL     1      64.516  77.473 -95.639  1.00  0.00    -0.292 N 
ATOM     30  H72 UNL     1      65.877  77.286 -92.678  1.00  0.00     0.159 HD
ATOM     31  H71 UNL     1      66.371  78.271 -94.071  1.00  0.00     0.159 HD
ATOM     32  H8  UNL     1      64.762  76.921 -96.460  1.00  0.00     0.171 HD
BRANCH  29  33
HETATM   33  P1  UNL     1      63.787  79.108 -95.707  1.00  0.00     0.286 P 
BRANCH  33  34
HETATM   34  O4  UNL     1      63.341  79.563 -94.101  1.00  0.00    -0.333 OA
ATOM     35  H4  UNL     1      63.829  80.345 -93.870  1.00  0.00     0.219 HD
ENDBRANCH  33  34
BRANCH  33  36
HETATM   36  O5  UNL     1      64.845  80.261 -96.401  1.00  0.00    -0.333 OA
ATOM     37  H5  UNL     1      64.978  81.013 -95.835  1.00  0.00     0.219 HD
ENDBRANCH  33  36
ENDBRANCH  29  33
ENDBRANCH  24  25
ENDBRANCH  14  24
BRANCH   2  38
HETATM   38  N1  UNL     1      58.199  75.554 -89.405  1.00  0.00    -0.368 N 
ATOM     39  H1  UNL     1      58.165  75.082 -88.502  1.00  0.00     0.161 HD
BRANCH  38  40
HETATM   40  C10 UNL     1      57.155  76.537 -89.666  1.00  0.00     0.287 C 
BRANCH  40  41
HETATM   41  O2  UNL     1      56.350  75.916 -90.638  1.00  0.00    -0.382 OA
ATOM     42  H2  UNL     1      55.574  76.464 -90.670  1.00  0.00     0.211 HD
ENDBRANCH  40  41
ENDBRANCH  38  40
ENDBRANCH   2  38
TORSDOF 15
ENDMDL
MODEL 5
REMARK VINA RESULT: -6.688464077      1.907      2.369
REMARK  15 active torsions:
REMARK  status: ('A' for Active; 'I' for Inactive)
REMARK    1  A    between atoms: C2_2  and  C3_3 
REMARK    2  A    between atoms: C3_3  and  C4_4 
REMARK    3  A    between atoms: C4_4  and  C5_5 
REMARK    4  A    between atoms: C5_5  and  O1_6 
REMARK    5  A    between atoms: O1_6  and  C6_7 
REMARK    6  A    between atoms: C6_7  and  C7_8 
REMARK    7  A    between atoms: C7_8  and  C8_9 
REMARK    8  A    between atoms: C9_10  and  N1_11 
REMARK    9  A    between atoms: N1_11  and  C10_13 
REMARK   10  A    between atoms: C10_13  and  O2_14 
REMARK       I    between atoms: N5_26  and  C16_27 
REMARK   11  A    between atoms: C16_27  and  C17_29 
REMARK   12  A    between atoms: C17_29  and  N6_30 
REMARK       I    between atoms: N6_30  and  C19_32 
REMARK       I    between atoms: C19_32  and  N8_36 
REMARK   13  A    between atoms: N8_36  and  P1_38 
REMARK   14  A    between atoms: P1_38  and  O4_39 
REMARK   15  A    between atoms: P1_38  and  O5_41 
ROOT
HETATM    1  C8  UNL     1      60.413  72.314 -91.674  1.00  0.00     0.146 C 
HETATM    2  C9  UNL     1      59.718  71.526 -90.687  1.00  0.00     0.061 C 
HETATM    3  C11 UNL     1      59.450  72.072 -89.451  1.00  0.00     0.102 A 
HETATM    4  C12 UNL     1      59.930  73.433 -89.184  1.00  0.00     0.079 A 
HETATM    5  N2  UNL     1      59.612  74.101 -88.150  1.00  0.00    -0.348 N 
ATOM      6  H2  UNL     1      59.967  75.048 -88.009  1.00  0.00     0.167 HD
HETATM    7  C13 UNL     1      58.768  73.510 -87.213  1.00  0.00     0.198 A 
HETATM    8  N3  UNL     1      58.298  72.345 -87.323  1.00  0.00    -0.294 N 
ATOM      9  H3  UNL     1      57.688  71.979 -86.592  1.00  0.00     0.188 HD
HETATM   10  N4  UNL     1      58.621  71.490 -88.508  1.00  0.00    -0.292 N 
HETATM   11  C14 UNL     1      58.132  70.187 -88.451  1.00  0.00     0.178 C 
HETATM   12  C15 UNL     1      61.043  74.035 -89.966  1.00  0.00     0.127 C 
HETATM   13  N5  UNL     1      61.264  73.432 -91.171  1.00  0.00    -0.314 N 
HETATM   14  C16 UNL     1      62.263  73.931 -92.059  1.00  0.00     0.242 C 
HETATM   15  O3  UNL     1      62.606  73.324 -93.133  1.00  0.00    -0.271 OA
ENDROOT
BRANCH   1  16
HETATM   16  C7  UNL     1      59.338  73.334 -92.310  1.00  0.00     0.058 C 
BRANCH  16  17
HETATM   17  C6  UNL     1      58.198  72.641 -92.976  1.00  0.00     0.170 C 
BRANCH  17  18
HETATM   18  O1  UNL     1      57.144  73.413 -92.783  1.00  0.00    -0.391 OA
BRANCH  18  19
HETATM   19  C5  UNL     1      56.874  74.648 -92.675  1.00  0.00     0.167 C 
BRANCH  19  20
HETATM   20  C4  UNL     1      56.669  75.312 -91.376  1.00  0.00     0.026 C 
BRANCH  20  21
HETATM   21  C3  UNL     1      56.540  74.379 -90.203  1.00  0.00     0.002 C 
BRANCH  21  22
HETATM   22  C2  UNL     1      56.288  75.337 -89.029  1.00  0.00    -0.004 C 
HETATM   23  C1  UNL     1      56.633  76.731 -89.385  1.00  0.00     0.005 C 
ENDBRANCH  21  22
ENDBRANCH  20  21
ENDBRANCH  19  20
ENDBRANCH  18  19
ENDBRANCH  17  18
ENDBRANCH  16  17
ENDBRANCH   1  16
BRANCH  14  24
HETATM   24  C17 UNL     1      62.933  75.200 -91.797  1.00  0.00     0.228 C 
BRANCH  24  25
HETATM   25  N6  UNL     1      63.124  76.071 -92.949  1.00  0.00    -0.349 N 
HETATM   26  C18 UNL     1      62.056  76.787 -93.585  1.00  0.00     0.153 C 
HETATM   27  C19 UNL     1      64.437  76.186 -93.458  1.00  0.00     0.177 C 
HETATM   28  N7  UNL     1      64.753  76.290 -94.731  1.00  0.00    -0.371 N 
HETATM   29  N8  UNL     1      65.616  76.162 -92.553  1.00  0.00    -0.292 N 
ATOM     30  H72 UNL     1      63.944  76.306 -95.353  1.00  0.00     0.159 HD
ATOM     31  H71 UNL     1      65.701  76.373 -95.099  1.00  0.00     0.159 HD
ATOM     32  H8  UNL     1      65.913  76.951 -91.979  1.00  0.00     0.171 HD
BRANCH  29  33
HETATM   33  P1  UNL     1      66.447  74.576 -92.595  1.00  0.00     0.286 P 
BRANCH  33  34
HETATM   34  O4  UNL     1      65.456  73.475 -93.484  1.00  0.00    -0.333 OA
ATOM     35  H4  UNL     1      65.881  73.302 -94.316  1.00  0.00     0.219 HD
ENDBRANCH  33  34
BRANCH  33  36
HETATM   36  O5  UNL     1      68.013  74.684 -93.279  1.00  0.00    -0.333 OA
ATOM     37  H5  UNL     1      68.069  74.243 -94.119  1.00  0.00     0.219 HD
ENDBRANCH  33  36
ENDBRANCH  29  33
ENDBRANCH  24  25
ENDBRANCH  14  24
BRANCH   2  38
HETATM   38  N1  UNL     1      59.242  70.201 -90.828  1.00  0.00    -0.368 N 
ATOM     39  H1  UNL     1      58.573  69.880 -90.128  1.00  0.00     0.161 HD
BRANCH  38  40
HETATM   40  C10 UNL     1      59.606  69.247 -91.867  1.00  0.00     0.287 C 
BRANCH  40  41
HETATM   41  O2  UNL     1      58.416  69.086 -92.600  1.00  0.00    -0.382 OA
ATOM     42  H2  UNL     1      58.558  69.613 -93.378  1.00  0.00     0.211 HD
ENDBRANCH  40  41
ENDBRANCH  38  40
ENDBRANCH   2  38
TORSDOF 15
ENDMDL
