MODEL 1
REMARK VINA RESULT: -7.579589051      0.000      0.000
REMARK  16 active torsions:
REMARK  status: ('A' for Active; 'I' for Inactive)
REMARK    1  A    between atoms: C2_2  and  C3_3 
REMARK    2  A    between atoms: C3_3  and  C4_4 
REMARK    3  A    between atoms: C4_4  and  N1_5 
REMARK    4  A    between atoms: N1_5  and  C5_7 
REMARK    5  A    between atoms: C5_7  and  N2_8 
REMARK    6  A    between atoms: N2_8  and  C6_10 
REMARK    7  A    between atoms: C6_10  and  C7_11 
REMARK    8  A    between atoms: C7_11  and  O1_12 
REMARK    9  A    between atoms: C8_14  and  C10_16 
REMARK   10  A    between atoms: C12_23  and  N6_24 
REMARK   11  A    between atoms: N6_24  and  C13_26 
REMARK   12  A    between atoms: C13_26  and  C16_34 
REMARK   13  A    between atoms: C14_27  and  C15_28 
REMARK   14  A    between atoms: C15_28  and  P1_29 
REMARK   15  A    between atoms: P1_29  and  O2_30 
REMARK   16  A    between atoms: P1_29  and  O3_32 
ROOT
HETATM    1  C10 UNL     1      62.692  76.841 -94.731  1.00  0.00     0.060 A 
HETATM    2  N3  UNL     1      63.101  76.235 -93.624  1.00  0.00    -0.278 N 
ATOM      3  H3  UNL     1      64.049  76.493 -93.351  1.00  0.00     0.188 HD
HETATM    4  N4  UNL     1      62.516  75.333 -92.769  1.00  0.00    -0.080 N 
HETATM    5  C11 UNL     1      63.339  74.938 -91.683  1.00  0.00     0.242 A 
HETATM    6  N5  UNL     1      62.923  74.097 -90.803  1.00  0.00    -0.185 N 
ATOM      7  H5  UNL     1      63.549  73.842 -90.039  1.00  0.00     0.185 HD
HETATM    8  C12 UNL     1      61.634  73.510 -90.845  1.00  0.00     0.698 A 
HETATM    9  N7  UNL     1      60.844  73.834 -91.811  1.00  0.00    -0.020 N 
ATOM     10  H7  UNL     1      59.915  73.415 -91.849  1.00  0.00     0.203 HD
HETATM   11  C17 UNL     1      61.224  74.757 -92.828  1.00  0.00     0.718 A 
HETATM   12  N8  UNL     1      60.313  74.968 -93.719  1.00  0.00    -0.199 N 
ATOM     13  H8  UNL     1      59.441  74.454 -93.588  1.00  0.00     0.183 HD
HETATM   14  C18 UNL     1      60.358  75.816 -94.855  1.00  0.00     0.108 A 
HETATM   15  C19 UNL     1      61.376  76.606 -95.271  1.00  0.00     0.049 A 
ENDROOT
BRANCH   1  16
HETATM   16  C8  UNL     1      63.620  77.731 -95.341  1.00  0.00     0.010 C 
HETATM   17  C5  UNL     1      63.572  78.968 -95.652  1.00  0.00     0.105 C 
HETATM   18  C9  UNL     1      64.961  77.060 -95.706  1.00  0.00     0.054 C 
BRANCH  17  19
HETATM   19  N1  UNL     1      64.774  79.525 -96.289  1.00  0.00    -0.376 N 
ATOM     20  H1  UNL     1      65.678  79.488 -95.817  1.00  0.00     0.161 HD
BRANCH  19  21
HETATM   21  C4  UNL     1      64.653  80.116 -97.573  1.00  0.00     0.121 C 
BRANCH  21  22
HETATM   22  C3  UNL     1      64.172  79.126 -98.603  1.00  0.00     0.019 C 
BRANCH  22  23
HETATM   23  C2  UNL     1      65.225  79.016 -99.678  1.00  0.00    -0.003 C 
HETATM   24  C1  UNL     1      66.455  78.345 -99.116  1.00  0.00     0.005 C 
ENDBRANCH  22  23
ENDBRANCH  21  22
ENDBRANCH  19  21
ENDBRANCH  17  19
BRANCH  17  25
HETATM   25  N2  UNL     1      62.519  79.883 -95.469  1.00  0.00    -0.374 N 
ATOM     26  H2  UNL     1      61.825  80.009 -96.206  1.00  0.00     0.161 HD
BRANCH  25  27
HETATM   27  C6  UNL     1      62.412  80.656 -94.234  1.00  0.00     0.147 C 
BRANCH  27  28
HETATM   28  C7  UNL     1      62.968  82.041 -94.400  1.00  0.00     0.183 C 
BRANCH  28  29
HETATM   29  O1  UNL     1      64.147  82.233 -93.679  1.00  0.00    -0.399 OA
ATOM     30  H1  UNL     1      63.997  82.281 -92.742  1.00  0.00     0.209 HD
ENDBRANCH  28  29
ENDBRANCH  27  28
ENDBRANCH  25  27
ENDBRANCH  17  25
ENDBRANCH   1  16
BRANCH   8  31
HETATM   31  N6  UNL     1      61.214  72.573 -89.834  1.00  0.00    -0.185 N 
ATOM     32  H6  UNL     1      61.908  71.963 -89.402  1.00  0.00     0.184 HD
BRANCH  31  33
HETATM   33  C13 UNL     1      59.862  72.479 -89.425  1.00  0.00     0.122 C 
HETATM   34  C14 UNL     1      59.111  71.534 -89.949  1.00  0.00     0.019 C 
BRANCH  34  35
HETATM   35  C15 UNL     1      59.662  70.592 -90.940  1.00  0.00     0.122 C 
BRANCH  35  36
HETATM   36  P1  UNL     1      58.937  70.855 -92.629  1.00  0.00     0.166 P 
BRANCH  36  37
HETATM   37  O2  UNL     1      58.474  72.512 -92.855  1.00  0.00    -0.349 OA
ATOM     38  H2  UNL     1      58.482  72.745 -93.775  1.00  0.00     0.217 HD
ENDBRANCH  36  37
BRANCH  36  39
HETATM   39  O3  UNL     1      60.032  70.326 -93.867  1.00  0.00    -0.349 OA
ATOM     40  H3  UNL     1      60.775  69.868 -93.493  1.00  0.00     0.217 HD
ENDBRANCH  36  39
ENDBRANCH  35  36
ENDBRANCH  34  35
BRANCH  33  41
HETATM   41  C16 UNL     1      59.324  73.422 -88.436  1.00  0.00     0.227 C 
HETATM   42  O4  UNL     1      58.102  73.435 -88.212  1.00  0.00    -0.643 OA
HETATM   43  O5  UNL     1      60.196  74.272 -87.782  1.00  0.00    -0.643 OA
ENDBRANCH  33  41
ENDBRANCH  31  33
ENDBRANCH   8  31
TORSDOF 16
ENDMDL
MODEL 2
REMARK VINA RESULT: -7.489324164      2.550      3.923
REMARK  16 active torsions:
REMARK  status: ('A' for Active; 'I' for Inactive)
REMARK    1  A    between atoms: C2_2  and  C3_3 
REMARK    2  A    between atoms: C3_3  and  C4_4 
REMARK    3  A    between atoms: C4_4  and  N1_5 
REMARK    4  A    between atoms: N1_5  and  C5_7 
REMARK    5  A    between atoms: C5_7  and  N2_8 
REMARK    6  A    between atoms: N2_8  and  C6_10 
REMARK    7  A    between atoms: C6_10  and  C7_11 
REMARK    8  A    between atoms: C7_11  and  O1_12 
REMARK    9  A    between atoms: C8_14  and  C10_16 
REMARK   10  A    between atoms: C12_23  and  N6_24 
REMARK   11  A    between atoms: N6_24  and  C13_26 
REMARK   12  A    between atoms: C13_26  and  C16_34 
REMARK   13  A    between atoms: C14_27  and  C15_28 
REMARK   14  A    between atoms: C15_28  and  P1_29 
REMARK   15  A    between atoms: P1_29  and  O2_30 
REMARK   16  A    between atoms: P1_29  and  O3_32 
ROOT
HETATM    1  C10 UNL     1      63.608  76.310 -93.791  1.00  0.00     0.060 A 
HETATM    2  N3  UNL     1      62.480  76.027 -93.153  1.00  0.00    -0.278 N 
ATOM      3  H3  UNL     1      61.707  76.641 -93.411  1.00  0.00     0.188 HD
HETATM    4  N4  UNL     1      62.133  75.082 -92.219  1.00  0.00    -0.080 N 
HETATM    5  C11 UNL     1      60.780  75.144 -91.797  1.00  0.00     0.242 A 
HETATM    6  N5  UNL     1      60.315  74.320 -90.925  1.00  0.00    -0.185 N 
ATOM      7  H5  UNL     1      59.336  74.402 -90.651  1.00  0.00     0.185 HD
HETATM    8  C12 UNL     1      61.100  73.303 -90.329  1.00  0.00     0.698 A 
HETATM    9  N7  UNL     1      62.338  73.201 -90.676  1.00  0.00    -0.020 N 
ATOM     10  H7  UNL     1      62.910  72.472 -90.250  1.00  0.00     0.203 HD
HETATM   11  C17 UNL     1      62.934  74.071 -91.634  1.00  0.00     0.718 A 
HETATM   12  N8  UNL     1      64.182  73.829 -91.865  1.00  0.00    -0.199 N 
ATOM     13  H8  UNL     1      64.584  73.053 -91.340  1.00  0.00     0.183 HD
HETATM   14  C18 UNL     1      65.069  74.495 -92.750  1.00  0.00     0.108 A 
HETATM   15  C19 UNL     1      64.810  75.547 -93.562  1.00  0.00     0.049 A 
ENDROOT
BRANCH   1  16
HETATM   16  C8  UNL     1      63.557  77.398 -94.707  1.00  0.00     0.010 C 
HETATM   17  C5  UNL     1      62.875  77.621 -95.762  1.00  0.00     0.105 C 
HETATM   18  C9  UNL     1      64.532  78.541 -94.355  1.00  0.00     0.054 C 
BRANCH  17  19
HETATM   19  N1  UNL     1      63.130  78.900 -96.443  1.00  0.00    -0.376 N 
ATOM     20  H1  UNL     1      63.184  79.770 -95.913  1.00  0.00     0.161 HD
BRANCH  19  21
HETATM   21  C4  UNL     1      63.300  78.899 -97.851  1.00  0.00     0.121 C 
BRANCH  21  22
HETATM   22  C3  UNL     1      64.668  79.393 -98.252  1.00  0.00     0.019 C 
BRANCH  22  23
HETATM   23  C2  UNL     1      65.619  78.222 -98.223  1.00  0.00    -0.003 C 
HETATM   24  C1  UNL     1      66.854  78.553 -99.025  1.00  0.00     0.005 C 
ENDBRANCH  22  23
ENDBRANCH  21  22
ENDBRANCH  19  21
ENDBRANCH  17  19
BRANCH  17  25
HETATM   25  N2  UNL     1      61.901  76.809 -96.373  1.00  0.00    -0.374 N 
ATOM     26  H2  UNL     1      62.184  75.952 -96.848  1.00  0.00     0.161 HD
BRANCH  25  27
HETATM   27  C6  UNL     1      60.490  77.181 -96.331  1.00  0.00     0.147 C 
BRANCH  27  28
HETATM   28  C7  UNL     1      59.783  76.537 -95.173  1.00  0.00     0.183 C 
BRANCH  28  29
HETATM   29  O1  UNL     1      60.071  75.176 -95.063  1.00  0.00    -0.399 OA
ATOM     30  H1  UNL     1      59.760  74.803 -94.246  1.00  0.00     0.209 HD
ENDBRANCH  28  29
ENDBRANCH  27  28
ENDBRANCH  25  27
ENDBRANCH  17  25
ENDBRANCH   1  16
BRANCH   8  31
HETATM   31  N6  UNL     1      60.533  72.404 -89.357  1.00  0.00    -0.185 N 
ATOM     32  H6  UNL     1      60.916  72.387 -88.411  1.00  0.00     0.184 HD
BRANCH  31  33
HETATM   33  C13 UNL     1      59.457  71.542 -89.681  1.00  0.00     0.122 C 
HETATM   34  C14 UNL     1      58.492  71.383 -88.801  1.00  0.00     0.019 C 
BRANCH  34  35
HETATM   35  C15 UNL     1      58.526  72.085 -87.505  1.00  0.00     0.122 C 
BRANCH  35  36
HETATM   36  P1  UNL     1      58.554  70.904 -86.072  1.00  0.00     0.166 P 
BRANCH  36  37
HETATM   37  O2  UNL     1      58.988  69.307 -86.594  1.00  0.00    -0.349 OA
ATOM     38  H2  UNL     1      59.820  69.041 -86.219  1.00  0.00     0.217 HD
ENDBRANCH  36  37
BRANCH  36  39
HETATM   39  O3  UNL     1      59.608  71.471 -84.816  1.00  0.00    -0.349 OA
ATOM     40  H3  UNL     1      59.471  72.396 -84.647  1.00  0.00     0.217 HD
ENDBRANCH  36  39
ENDBRANCH  35  36
ENDBRANCH  34  35
BRANCH  33  41
HETATM   41  C16 UNL     1      59.433  70.848 -90.975  1.00  0.00     0.227 C 
HETATM   42  O4  UNL     1      59.787  69.659 -91.032  1.00  0.00    -0.643 OA
HETATM   43  O5  UNL     1      59.017  71.542 -92.095  1.00  0.00    -0.643 OA
ENDBRANCH  33  41
ENDBRANCH  31  33
ENDBRANCH   8  31
TORSDOF 16
ENDMDL
MODEL 3
REMARK VINA RESULT: -7.486117345      3.464      9.536
REMARK  16 active torsions:
REMARK  status: ('A' for Active; 'I' for Inactive)
REMARK    1  A    between atoms: C2_2  and  C3_3 
REMARK    2  A    between atoms: C3_3  and  C4_4 
REMARK    3  A    between atoms: C4_4  and  N1_5 
REMARK    4  A    between atoms: N1_5  and  C5_7 
REMARK    5  A    between atoms: C5_7  and  N2_8 
REMARK    6  A    between atoms: N2_8  and  C6_10 
REMARK    7  A    between atoms: C6_10  and  C7_11 
REMARK    8  A    between atoms: C7_11  and  O1_12 
REMARK    9  A    between atoms: C8_14  and  C10_16 
REMARK   10  A    between atoms: C12_23  and  N6_24 
REMARK   11  A    between atoms: N6_24  and  C13_26 
REMARK   12  A    between atoms: C13_26  and  C16_34 
REMARK   13  A    between atoms: C14_27  and  C15_28 
REMARK   14  A    between atoms: C15_28  and  P1_29 
REMARK   15  A    between atoms: P1_29  and  O2_30 
REMARK   16  A    between atoms: P1_29  and  O3_32 
ROOT
HETATM    1  C10 UNL     1      63.029  74.507 -92.351  1.00  0.00     0.060 A 
HETATM    2  N3  UNL     1      62.298  75.192 -93.220  1.00  0.00    -0.278 N 
ATOM      3  H3  UNL     1      61.302  74.978 -93.166  1.00  0.00     0.188 HD
HETATM    4  N4  UNL     1      62.600  76.130 -94.178  1.00  0.00    -0.080 N 
HETATM    5  C11 UNL     1      61.476  76.610 -94.900  1.00  0.00     0.242 A 
HETATM    6  N5  UNL     1      61.609  77.492 -95.828  1.00  0.00    -0.185 N 
ATOM      7  H5  UNL     1      60.774  77.808 -96.321  1.00  0.00     0.185 HD
HETATM    8  C12 UNL     1      62.861  78.042 -96.197  1.00  0.00     0.698 A 
HETATM    9  N7  UNL     1      63.915  77.641 -95.572  1.00  0.00    -0.020 N 
ATOM     10  H7  UNL     1      64.821  78.032 -95.833  1.00  0.00     0.203 HD
HETATM   11  C17 UNL     1      63.860  76.669 -94.532  1.00  0.00     0.718 A 
HETATM   12  N8  UNL     1      65.007  76.382 -94.014  1.00  0.00    -0.199 N 
ATOM     13  H8  UNL     1      65.806  76.880 -94.408  1.00  0.00     0.183 HD
HETATM   14  C18 UNL     1      65.311  75.468 -92.972  1.00  0.00     0.108 A 
HETATM   15  C19 UNL     1      64.459  74.679 -92.275  1.00  0.00     0.049 A 
ENDROOT
BRANCH   1  16
HETATM   16  C8  UNL     1      62.322  73.607 -91.505  1.00  0.00     0.010 C 
HETATM   17  C5  UNL     1      61.865  73.699 -90.317  1.00  0.00     0.105 C 
HETATM   18  C9  UNL     1      62.058  72.234 -92.159  1.00  0.00     0.054 C 
BRANCH  17  19
HETATM   19  N1  UNL     1      61.182  72.508 -89.790  1.00  0.00    -0.376 N 
ATOM     20  H1  UNL     1      61.510  71.572 -90.027  1.00  0.00     0.161 HD
BRANCH  19  21
HETATM   21  C4  UNL     1      60.056  72.688 -88.945  1.00  0.00     0.121 C 
BRANCH  21  22
HETATM   22  C3  UNL     1      58.842  71.961 -89.465  1.00  0.00     0.019 C 
BRANCH  22  23
HETATM   23  C2  UNL     1      57.750  72.067 -88.430  1.00  0.00    -0.003 C 
HETATM   24  C1  UNL     1      57.587  70.741 -87.728  1.00  0.00     0.005 C 
ENDBRANCH  22  23
ENDBRANCH  21  22
ENDBRANCH  19  21
ENDBRANCH  17  19
BRANCH  17  25
HETATM   25  N2  UNL     1      61.922  74.790 -89.431  1.00  0.00    -0.374 N 
ATOM     26  H2  UNL     1      62.498  74.730 -88.591  1.00  0.00     0.161 HD
BRANCH  25  27
HETATM   27  C6  UNL     1      61.166  76.010 -89.704  1.00  0.00     0.147 C 
BRANCH  27  28
HETATM   28  C7  UNL     1      61.573  77.128 -88.787  1.00  0.00     0.183 C 
BRANCH  28  29
HETATM   29  O1  UNL     1      62.679  76.799 -88.002  1.00  0.00    -0.399 OA
ATOM     30  H1  UNL     1      62.731  77.321 -87.210  1.00  0.00     0.209 HD
ENDBRANCH  28  29
ENDBRANCH  27  28
ENDBRANCH  25  27
ENDBRANCH  17  25
ENDBRANCH   1  16
BRANCH   8  31
HETATM   31  N6  UNL     1      62.957  79.028 -97.244  1.00  0.00    -0.185 N 
ATOM     32  H6  UNL     1      62.105  79.347 -97.705  1.00  0.00     0.184 HD
BRANCH  31  33
HETATM   33  C13 UNL     1      64.203  79.564 -97.647  1.00  0.00     0.122 C 
HETATM   34  C14 UNL     1      64.553  80.749 -97.196  1.00  0.00     0.019 C 
BRANCH  34  35
HETATM   35  C15 UNL     1      63.670  81.505 -96.288  1.00  0.00     0.122 C 
BRANCH  35  36
HETATM   36  P1  UNL     1      64.331  81.555 -94.554  1.00  0.00     0.166 P 
BRANCH  36  37
HETATM   37  O2  UNL     1      63.119  82.110 -93.443  1.00  0.00    -0.349 OA
ATOM     38  H2  UNL     1      62.762  81.387 -92.941  1.00  0.00     0.217 HD
ENDBRANCH  36  37
BRANCH  36  39
HETATM   39  O3  UNL     1      64.965  80.009 -94.083  1.00  0.00    -0.349 OA
ATOM     40  H3  UNL     1      64.869  79.871 -93.149  1.00  0.00     0.217 HD
ENDBRANCH  36  39
ENDBRANCH  35  36
ENDBRANCH  34  35
BRANCH  33  41
HETATM   41  C16 UNL     1      65.075  78.803 -98.551  1.00  0.00     0.227 C 
HETATM   42  O4  UNL     1      64.872  78.855 -99.775  1.00  0.00    -0.643 OA
HETATM   43  O5  UNL     1      66.098  78.048 -98.010  1.00  0.00    -0.643 OA
ENDBRANCH  33  41
ENDBRANCH  31  33
ENDBRANCH   8  31
TORSDOF 16
ENDMDL
MODEL 4
REMARK VINA RESULT: -7.448986178      2.744      3.609
REMARK  16 active torsions:
REMARK  status: ('A' for Active; 'I' for Inactive)
REMARK    1  A    between atoms: C2_2  and  C3_3 
REMARK    2  A    between atoms: C3_3  and  C4_4 
REMARK    3  A    between atoms: C4_4  and  N1_5 
REMARK    4  A    between atoms: N1_5  and  C5_7 
REMARK    5  A    between atoms: C5_7  and  N2_8 
REMARK    6  A    between atoms: N2_8  and  C6_10 
REMARK    7  A    between atoms: C6_10  and  C7_11 
REMARK    8  A    between atoms: C7_11  and  O1_12 
REMARK    9  A    between atoms: C8_14  and  C10_16 
REMARK   10  A    between atoms: C12_23  and  N6_24 
REMARK   11  A    between atoms: N6_24  and  C13_26 
REMARK   12  A    between atoms: C13_26  and  C16_34 
REMARK   13  A    between atoms: C14_27  and  C15_28 
REMARK   14  A    between atoms: C15_28  and  P1_29 
REMARK   15  A    between atoms: P1_29  and  O2_30 
REMARK   16  A    between atoms: P1_29  and  O3_32 
ROOT
HETATM    1  C10 UNL     1      63.573  75.125 -92.629  1.00  0.00     0.060 A 
HETATM    2  N3  UNL     1      62.820  75.625 -91.658  1.00  0.00    -0.278 N 
ATOM      3  H3  UNL     1      62.786  76.644 -91.659  1.00  0.00     0.188 HD
HETATM    4  N4  UNL     1      62.076  75.058 -90.652  1.00  0.00    -0.080 N 
HETATM    5  C11 UNL     1      61.413  75.995 -89.816  1.00  0.00     0.242 A 
HETATM    6  N5  UNL     1      60.680  75.607 -88.832  1.00  0.00    -0.185 N 
ATOM      7  H5  UNL     1      60.223  76.315 -88.257  1.00  0.00     0.185 HD
HETATM    8  C12 UNL     1      60.479  74.243 -88.510  1.00  0.00     0.698 A 
HETATM    9  N7  UNL     1      61.058  73.348 -89.237  1.00  0.00    -0.020 N 
ATOM     10  H7  UNL     1      60.918  72.364 -89.011  1.00  0.00     0.203 HD
HETATM   11  C17 UNL     1      61.886  73.689 -90.346  1.00  0.00     0.718 A 
HETATM   12  N8  UNL     1      62.387  72.672 -90.965  1.00  0.00    -0.199 N 
ATOM     13  H8  UNL     1      62.131  71.759 -90.589  1.00  0.00     0.183 HD
HETATM   14  C18 UNL     1      63.243  72.651 -92.095  1.00  0.00     0.108 A 
HETATM   15  C19 UNL     1      63.738  73.702 -92.792  1.00  0.00     0.049 A 
ENDROOT
BRANCH   1  16
HETATM   16  C8  UNL     1      64.196  76.070 -93.492  1.00  0.00     0.010 C 
HETATM   17  C5  UNL     1      63.745  76.919 -94.331  1.00  0.00     0.105 C 
HETATM   18  C9  UNL     1      65.736  76.062 -93.396  1.00  0.00     0.054 C 
BRANCH  17  19
HETATM   19  N1  UNL     1      64.748  77.724 -95.043  1.00  0.00    -0.376 N 
ATOM     20  H1  UNL     1      65.371  78.351 -94.534  1.00  0.00     0.161 HD
BRANCH  19  21
HETATM   21  C4  UNL     1      64.831  77.613 -96.455  1.00  0.00     0.121 C 
BRANCH  21  22
HETATM   22  C3  UNL     1      64.387  78.877 -97.146  1.00  0.00     0.019 C 
BRANCH  22  23
HETATM   23  C2  UNL     1      64.680  78.737 -98.619  1.00  0.00    -0.003 C 
HETATM   24  C1  UNL     1      66.134  78.382 -98.816  1.00  0.00     0.005 C 
ENDBRANCH  22  23
ENDBRANCH  21  22
ENDBRANCH  19  21
ENDBRANCH  17  19
BRANCH  17  25
HETATM   25  N2  UNL     1      62.409  77.197 -94.673  1.00  0.00    -0.374 N 
ATOM     26  H2  UNL     1      62.031  78.132 -94.518  1.00  0.00     0.161 HD
BRANCH  25  27
HETATM   27  C6  UNL     1      61.557  76.159 -95.249  1.00  0.00     0.147 C 
BRANCH  27  28
HETATM   28  C7  UNL     1      60.346  75.906 -94.399  1.00  0.00     0.183 C 
BRANCH  28  29
HETATM   29  O1  UNL     1      60.437  74.713 -93.679  1.00  0.00    -0.399 OA
ATOM     30  H1  UNL     1      60.927  74.813 -92.871  1.00  0.00     0.209 HD
ENDBRANCH  28  29
ENDBRANCH  27  28
ENDBRANCH  25  27
ENDBRANCH  17  25
ENDBRANCH   1  16
BRANCH   8  31
HETATM   31  N6  UNL     1      59.648  73.859 -87.397  1.00  0.00    -0.185 N 
ATOM     32  H6  UNL     1      59.719  74.379 -86.522  1.00  0.00     0.184 HD
BRANCH  31  33
HETATM   33  C13 UNL     1      58.736  72.780 -87.487  1.00  0.00     0.122 C 
HETATM   34  C14 UNL     1      57.631  72.948 -88.181  1.00  0.00     0.019 C 
BRANCH  34  35
HETATM   35  C15 UNL     1      57.345  74.229 -88.852  1.00  0.00     0.122 C 
BRANCH  35  36
HETATM   36  P1  UNL     1      57.177  74.031 -90.690  1.00  0.00     0.166 P 
BRANCH  36  37
HETATM   37  O2  UNL     1      56.306  75.364 -91.381  1.00  0.00    -0.349 OA
ATOM     38  H2  UNL     1      56.484  76.168 -90.908  1.00  0.00     0.217 HD
ENDBRANCH  36  37
BRANCH  36  39
HETATM   39  O3  UNL     1      58.728  73.827 -91.441  1.00  0.00    -0.349 OA
ATOM     40  H3  UNL     1      58.644  73.759 -92.385  1.00  0.00     0.217 HD
ENDBRANCH  36  39
ENDBRANCH  35  36
ENDBRANCH  34  35
BRANCH  33  41
HETATM   41  C16 UNL     1      59.031  71.508 -86.816  1.00  0.00     0.227 C 
HETATM   42  O4  UNL     1      58.994  70.454 -87.471  1.00  0.00    -0.643 OA
HETATM   43  O5  UNL     1      59.342  71.522 -85.469  1.00  0.00    -0.643 OA
ENDBRANCH  33  41
ENDBRANCH  31  33
ENDBRANCH   8  31
TORSDOF 16
ENDMDL
MODEL 5
REMARK VINA RESULT: -7.426963420      1.384      2.135
REMARK  16 active torsions:
REMARK  status: ('A' for Active; 'I' for Inactive)
REMARK    1  A    between atoms: C2_2  and  C3_3 
REMARK    2  A    between atoms: C3_3  and  C4_4 
REMARK    3  A    between atoms: C4_4  and  N1_5 
REMARK    4  A    between atoms: N1_5  and  C5_7 
REMARK    5  A    between atoms: C5_7  and  N2_8 
REMARK    6  A    between atoms: N2_8  and  C6_10 
REMARK    7  A    between atoms: C6_10  and  C7_11 
REMARK    8  A    between atoms: C7_11  and  O1_12 
REMARK    9  A    between atoms: C8_14  and  C10_16 
REMARK   10  A    between atoms: C12_23  and  N6_24 
REMARK   11  A    between atoms: N6_24  and  C13_26 
REMARK   12  A    between atoms: C13_26  and  C16_34 
REMARK   13  A    between atoms: C14_27  and  C15_28 
REMARK   14  A    between atoms: C15_28  and  P1_29 
REMARK   15  A    between atoms: P1_29  and  O2_30 
REMARK   16  A    between atoms: P1_29  and  O3_32 
ROOT
HETATM    1  C10 UNL     1      64.429  76.883 -94.187  1.00  0.00     0.060 A 
HETATM    2  N3  UNL     1      63.296  76.450 -93.649  1.00  0.00    -0.278 N 
ATOM      3  H3  UNL     1      62.468  76.902 -94.036  1.00  0.00     0.188 HD
HETATM    4  N4  UNL     1      63.005  75.520 -92.681  1.00  0.00    -0.080 N 
HETATM    5  C11 UNL     1      61.620  75.374 -92.409  1.00  0.00     0.242 A 
HETATM    6  N5  UNL     1      61.199  74.539 -91.524  1.00  0.00    -0.185 N 
ATOM      7  H5  UNL     1      60.194  74.468 -91.361  1.00  0.00     0.185 HD
HETATM    8  C12 UNL     1      62.066  73.715 -90.767  1.00  0.00     0.698 A 
HETATM    9  N7  UNL     1      63.336  73.806 -90.974  1.00  0.00    -0.020 N 
ATOM     10  H7  UNL     1      63.967  73.216 -90.431  1.00  0.00     0.203 HD
HETATM   11  C17 UNL     1      63.888  74.703 -91.933  1.00  0.00     0.718 A 
HETATM   12  N8  UNL     1      65.176  74.668 -92.013  1.00  0.00    -0.199 N 
ATOM     13  H8  UNL     1      65.638  74.008 -91.386  1.00  0.00     0.183 HD
HETATM   14  C18 UNL     1      66.038  75.419 -92.852  1.00  0.00     0.108 A 
HETATM   15  C19 UNL     1      65.705  76.356 -93.772  1.00  0.00     0.049 A 
ENDROOT
BRANCH   1  16
HETATM   16  C8  UNL     1      64.306  77.884 -95.191  1.00  0.00     0.010 C 
HETATM   17  C5  UNL     1      63.811  79.060 -95.198  1.00  0.00     0.105 C 
HETATM   18  C9  UNL     1      64.888  77.456 -96.555  1.00  0.00     0.054 C 
BRANCH  17  19
HETATM   19  N1  UNL     1      63.880  79.787 -96.474  1.00  0.00    -0.376 N 
ATOM     20  H1  UNL     1      64.780  80.037 -96.884  1.00  0.00     0.161 HD
BRANCH  19  21
HETATM   21  C4  UNL     1      62.668  80.133 -97.127  1.00  0.00     0.121 C 
BRANCH  21  22
HETATM   22  C3  UNL     1      62.409  79.262 -98.330  1.00  0.00     0.019 C 
BRANCH  22  23
HETATM   23  C2  UNL     1      62.981  79.952 -99.543  1.00  0.00    -0.003 C 
HETATM   24  C1  UNL     1      64.314  79.338 -99.894  1.00  0.00     0.005 C 
ENDBRANCH  22  23
ENDBRANCH  21  22
ENDBRANCH  19  21
ENDBRANCH  17  19
BRANCH  17  25
HETATM   25  N2  UNL     1      63.202  79.767 -94.145  1.00  0.00    -0.374 N 
ATOM     26  H2  UNL     1      63.749  80.435 -93.602  1.00  0.00     0.161 HD
BRANCH  25  27
HETATM   27  C6  UNL     1      61.793  79.555 -93.823  1.00  0.00     0.147 C 
BRANCH  27  28
HETATM   28  C7  UNL     1      61.187  80.766 -93.175  1.00  0.00     0.183 C 
BRANCH  28  29
HETATM   29  O1  UNL     1      62.150  81.666 -92.718  1.00  0.00    -0.399 OA
ATOM     30  H1  UNL     1      62.772  81.908 -93.394  1.00  0.00     0.209 HD
ENDBRANCH  28  29
ENDBRANCH  27  28
ENDBRANCH  25  27
ENDBRANCH  17  25
ENDBRANCH   1  16
BRANCH   8  31
HETATM   31  N6  UNL     1      61.546  72.794 -89.788  1.00  0.00    -0.185 N 
ATOM     32  H6  UNL     1      62.177  72.118 -89.356  1.00  0.00     0.184 HD
BRANCH  31  33
HETATM   33  C13 UNL     1      60.182  72.804 -89.410  1.00  0.00     0.122 C 
HETATM   34  C14 UNL     1      59.365  71.944 -89.980  1.00  0.00     0.019 C 
BRANCH  34  35
HETATM   35  C15 UNL     1      59.857  70.989 -90.989  1.00  0.00     0.122 C 
BRANCH  35  36
HETATM   36  P1  UNL     1      59.109  71.294 -92.661  1.00  0.00     0.166 P 
BRANCH  36  37
HETATM   37  O2  UNL     1      59.189  72.977 -93.078  1.00  0.00    -0.349 OA
ATOM     38  H2  UNL     1      58.476  73.217 -93.658  1.00  0.00     0.217 HD
ENDBRANCH  36  37
BRANCH  36  39
HETATM   39  O3  UNL     1      59.858  70.302 -93.871  1.00  0.00    -0.349 OA
ATOM     40  H3  UNL     1      60.795  70.453 -93.904  1.00  0.00     0.217 HD
ENDBRANCH  36  39
ENDBRANCH  35  36
ENDBRANCH  34  35
BRANCH  33  41
HETATM   41  C16 UNL     1      59.703  73.760 -88.403  1.00  0.00     0.227 C 
HETATM   42  O4  UNL     1      58.495  73.784 -88.116  1.00  0.00    -0.643 OA
HETATM   43  O5  UNL     1      60.615  74.608 -87.803  1.00  0.00    -0.643 OA
ENDBRANCH  33  41
ENDBRANCH  31  33
ENDBRANCH   8  31
TORSDOF 16
ENDMDL
