MODEL 1
REMARK VINA RESULT: -7.150218638      0.000      0.000
REMARK  19 active torsions:
REMARK  status: ('A' for Active; 'I' for Inactive)
REMARK    1  A    between atoms: C2_2  and  C3_3 
REMARK    2  A    between atoms: C2_2  and  C5_10 
REMARK    3  A    between atoms: C3_3  and  C4_4 
REMARK    4  A    between atoms: C4_4  and  P1_5 
REMARK    5  A    between atoms: P1_5  and  O1_6 
REMARK    6  A    between atoms: P1_5  and  O2_8 
REMARK       I    between atoms: C5_10  and  N1_12 
REMARK    7  A    between atoms: N1_12  and  C6_14 
REMARK    8  A    between atoms: C6_14  and  C7_15 
REMARK    9  A    between atoms: C6_14  and  N8_35 
REMARK   10  A    between atoms: C7_15  and  C8_16 
REMARK   11  A    between atoms: C8_16  and  N2_17 
REMARK   12  A    between atoms: N2_17  and  C9_19 
REMARK   13  A    between atoms: C9_19  and  N7_31 
REMARK   14  A    between atoms: N7_31  and  C14_33 
REMARK   15  A    between atoms: N8_35  and  C15_36 
REMARK   16  A    between atoms: N8_35  and  C17_38 
REMARK   17  A    between atoms: C17_38  and  C18_39 
REMARK   18  A    between atoms: C18_39  and  C19_40 
REMARK   19  A    between atoms: C19_40  and  O5_41 
ROOT
HETATM    1  C6  UNL     1      58.984  75.021 -89.816  1.00  0.00     0.325 C 
ENDROOT
BRANCH   1   2
HETATM    2  N1  UNL     1      58.317  76.353 -89.556  1.00  0.00    -0.326 N 
HETATM    3  C5  UNL     1      58.748  77.605 -89.866  1.00  0.00     0.260 C 
HETATM    4  O3  UNL     1      59.805  77.841 -90.488  1.00  0.00    -0.267 OA
ATOM      5  H1  UNL     1      57.417  76.305 -89.079  1.00  0.00     0.165 HD
BRANCH   3   6
HETATM    6  C2  UNL     1      57.981  78.806 -89.484  1.00  0.00     0.068 C 
HETATM    7  C1  UNL     1      56.598  78.721 -89.530  1.00  0.00     0.038 C 
BRANCH   6   8
HETATM    8  C3  UNL     1      58.446  80.023 -89.081  1.00  0.00    -0.107 C 
BRANCH   8   9
HETATM    9  C4  UNL     1      58.913  81.153 -88.700  1.00  0.00     0.121 C 
BRANCH   9  10
HETATM   10  P1  UNL     1      60.480  81.790 -89.505  1.00  0.00     0.197 P 
BRANCH  10  11
HETATM   11  O1  UNL     1      61.190  80.528 -90.462  1.00  0.00    -0.346 OA
ATOM     12  H1  UNL     1      61.824  80.905 -91.061  1.00  0.00     0.217 HD
ENDBRANCH  10  11
BRANCH  10  13
HETATM   13  O2  UNL     1      61.619  82.293 -88.326  1.00  0.00    -0.346 OA
ATOM     14  H2  UNL     1      62.474  81.913 -88.493  1.00  0.00     0.217 HD
ENDBRANCH  10  13
ENDBRANCH   9  10
ENDBRANCH   8   9
ENDBRANCH   6   8
ENDBRANCH   3   6
ENDBRANCH   1   2
BRANCH   1  15
HETATM   15  C7  UNL     1      59.970  74.807 -88.768  1.00  0.00     0.077 C 
BRANCH  15  16
HETATM   16  C8  UNL     1      61.350  74.302 -89.086  1.00  0.00     0.125 C 
BRANCH  16  17
HETATM   17  N2  UNL     1      61.338  73.044 -89.762  1.00  0.00    -0.373 N 
ATOM     18  H2  UNL     1      61.272  72.207 -89.182  1.00  0.00     0.161 HD
BRANCH  17  19
HETATM   19  C9  UNL     1      61.410  72.847 -91.198  1.00  0.00     0.151 C 
HETATM   20  C10 UNL     1      60.809  71.733 -91.657  1.00  0.00     0.167 A 
HETATM   21  N3  UNL     1      60.798  71.417 -93.020  1.00  0.00    -0.268 N 
HETATM   22  N6  UNL     1      60.098  70.840 -90.799  1.00  0.00    -0.327 N 
HETATM   23  N4  UNL     1      60.177  70.376 -93.467  1.00  0.00    -0.240 N 
ATOM     24  H3  UNL     1      61.292  72.022 -93.675  1.00  0.00     0.190 HD
HETATM   25  N5  UNL     1      59.493  69.525 -92.619  1.00  0.00    -0.275 N 
ATOM     26  H4  UNL     1      60.193  70.178 -94.467  1.00  0.00     0.208 HD
HETATM   27  C11 UNL     1      59.419  69.688 -91.348  1.00  0.00     0.094 A 
ATOM     28  H5  UNL     1      59.019  68.720 -93.028  1.00  0.00     0.189 HD
HETATM   29  C12 UNL     1      58.664  68.735 -90.521  1.00  0.00     0.090 C 
ATOM     30  H6  UNL     1      60.071  71.015 -89.795  1.00  0.00     0.169 HD
BRANCH  19  31
HETATM   31  N7  UNL     1      62.104  73.687 -92.050  1.00  0.00    -0.313 N 
HETATM   32  C13 UNL     1      61.353  74.771 -92.744  1.00  0.00     0.160 C 
BRANCH  31  33
HETATM   33  C14 UNL     1      63.455  73.629 -92.415  1.00  0.00     0.356 C 
HETATM   34  O4  UNL     1      64.357  74.257 -91.722  1.00  0.00    -0.283 OA
ENDBRANCH  31  33
ENDBRANCH  19  31
ENDBRANCH  17  19
ENDBRANCH  16  17
ENDBRANCH  15  16
ENDBRANCH   1  15
BRANCH   1  35
HETATM   35  N8  UNL     1      57.910  74.143 -90.055  1.00  0.00     0.111 N 
BRANCH  35  36
HETATM   36  C15 UNL     1      57.389  73.635 -88.775  1.00  0.00     0.270 C 
HETATM   37  C16 UNL     1      57.666  72.194 -88.553  1.00  0.00     0.037 C 
ENDBRANCH  35  36
BRANCH  35  38
HETATM   38  C17 UNL     1      56.874  74.451 -90.948  1.00  0.00     0.277 C 
BRANCH  38  39
HETATM   39  C18 UNL     1      57.252  74.336 -92.418  1.00  0.00     0.056 C 
BRANCH  39  40
HETATM   40  C19 UNL     1      57.720  72.903 -92.680  1.00  0.00     0.165 C 
BRANCH  40  41
HETATM   41  O5  UNL     1      58.185  72.853 -94.019  1.00  0.00    -0.401 OA
ATOM     42  H5  UNL     1      57.749  72.121 -94.439  1.00  0.00     0.209 HD
ENDBRANCH  40  41
ENDBRANCH  39  40
ENDBRANCH  38  39
ENDBRANCH  35  38
ENDBRANCH   1  35
TORSDOF 19
ENDMDL
MODEL 2
REMARK VINA RESULT: -6.808525882      3.412      5.432
REMARK  19 active torsions:
REMARK  status: ('A' for Active; 'I' for Inactive)
REMARK    1  A    between atoms: C2_2  and  C3_3 
REMARK    2  A    between atoms: C2_2  and  C5_10 
REMARK    3  A    between atoms: C3_3  and  C4_4 
REMARK    4  A    between atoms: C4_4  and  P1_5 
REMARK    5  A    between atoms: P1_5  and  O1_6 
REMARK    6  A    between atoms: P1_5  and  O2_8 
REMARK       I    between atoms: C5_10  and  N1_12 
REMARK    7  A    between atoms: N1_12  and  C6_14 
REMARK    8  A    between atoms: C6_14  and  C7_15 
REMARK    9  A    between atoms: C6_14  and  N8_35 
REMARK   10  A    between atoms: C7_15  and  C8_16 
REMARK   11  A    between atoms: C8_16  and  N2_17 
REMARK   12  A    between atoms: N2_17  and  C9_19 
REMARK   13  A    between atoms: C9_19  and  N7_31 
REMARK   14  A    between atoms: N7_31  and  C14_33 
REMARK   15  A    between atoms: N8_35  and  C15_36 
REMARK   16  A    between atoms: N8_35  and  C17_38 
REMARK   17  A    between atoms: C17_38  and  C18_39 
REMARK   18  A    between atoms: C18_39  and  C19_40 
REMARK   19  A    between atoms: C19_40  and  O5_41 
ROOT
HETATM    1  C6  UNL     1      60.762  75.969 -89.035  1.00  0.00     0.325 C 
ENDROOT
BRANCH   1   2
HETATM    2  N1  UNL     1      59.525  75.101 -89.072  1.00  0.00    -0.326 N 
HETATM    3  C5  UNL     1      59.033  74.263 -88.120  1.00  0.00     0.260 C 
HETATM    4  O3  UNL     1      59.549  74.116 -86.992  1.00  0.00    -0.267 OA
ATOM      5  H1  UNL     1      58.981  75.152 -89.934  1.00  0.00     0.165 HD
BRANCH   3   6
HETATM    6  C2  UNL     1      57.827  73.447 -88.353  1.00  0.00     0.068 C 
HETATM    7  C1  UNL     1      56.707  74.093 -88.855  1.00  0.00     0.038 C 
BRANCH   6   8
HETATM    8  C3  UNL     1      57.647  72.111 -88.143  1.00  0.00    -0.107 C 
BRANCH   8   9
HETATM    9  C4  UNL     1      57.462  70.865 -87.917  1.00  0.00     0.121 C 
BRANCH   9  10
HETATM   10  P1  UNL     1      58.070  70.149 -86.296  1.00  0.00     0.197 P 
BRANCH  10  11
HETATM   11  O1  UNL     1      59.804  70.227 -86.247  1.00  0.00    -0.346 OA
ATOM     12  H1  UNL     1      60.082  70.521 -85.388  1.00  0.00     0.217 HD
ENDBRANCH  10  11
BRANCH  10  13
HETATM   13  O2  UNL     1      57.587  68.513 -86.124  1.00  0.00    -0.346 OA
ATOM     14  H2  UNL     1      58.224  68.020 -85.620  1.00  0.00     0.217 HD
ENDBRANCH  10  13
ENDBRANCH   9  10
ENDBRANCH   8   9
ENDBRANCH   6   8
ENDBRANCH   3   6
ENDBRANCH   1   2
BRANCH   1  15
HETATM   15  C7  UNL     1      61.818  75.266 -89.747  1.00  0.00     0.077 C 
BRANCH  15  16
HETATM   16  C8  UNL     1      62.255  73.888 -89.332  1.00  0.00     0.125 C 
BRANCH  16  17
HETATM   17  N2  UNL     1      61.528  72.852 -89.994  1.00  0.00    -0.373 N 
ATOM     18  H2  UNL     1      61.031  72.184 -89.405  1.00  0.00     0.161 HD
BRANCH  17  19
HETATM   19  C9  UNL     1      61.431  72.664 -91.430  1.00  0.00     0.151 C 
HETATM   20  C10 UNL     1      60.748  71.571 -91.822  1.00  0.00     0.167 A 
HETATM   21  N3  UNL     1      60.574  71.265 -93.176  1.00  0.00    -0.268 N 
HETATM   22  N6  UNL     1      60.112  70.694 -90.892  1.00  0.00    -0.327 N 
HETATM   23  N4  UNL     1      59.875  70.246 -93.553  1.00  0.00    -0.240 N 
ATOM     24  H3  UNL     1      61.009  71.859 -93.881  1.00  0.00     0.190 HD
HETATM   25  N5  UNL     1      59.265  69.411 -92.637  1.00  0.00    -0.275 N 
ATOM     26  H4  UNL     1      59.772  70.054 -94.549  1.00  0.00     0.208 HD
HETATM   27  C11 UNL     1      59.340  69.566 -91.364  1.00  0.00     0.094 A 
ATOM     28  H5  UNL     1      58.724  68.623 -92.992  1.00  0.00     0.189 HD
HETATM   29  C12 UNL     1      58.654  68.631 -90.461  1.00  0.00     0.090 C 
ATOM     30  H6  UNL     1      60.203  70.863 -89.891  1.00  0.00     0.169 HD
BRANCH  19  31
HETATM   31  N7  UNL     1      62.050  73.487 -92.352  1.00  0.00    -0.313 N 
HETATM   32  C13 UNL     1      63.491  73.259 -92.653  1.00  0.00     0.160 C 
BRANCH  31  33
HETATM   33  C14 UNL     1      61.511  74.588 -93.032  1.00  0.00     0.356 C 
HETATM   34  O4  UNL     1      60.402  74.477 -93.701  1.00  0.00    -0.283 OA
ENDBRANCH  31  33
ENDBRANCH  19  31
ENDBRANCH  17  19
ENDBRANCH  16  17
ENDBRANCH  15  16
ENDBRANCH   1  15
BRANCH   1  35
HETATM   35  N8  UNL     1      60.296  77.244 -89.409  1.00  0.00     0.111 N 
BRANCH  35  36
HETATM   36  C15 UNL     1      61.175  78.280 -88.843  1.00  0.00     0.270 C 
HETATM   37  C16 UNL     1      60.544  79.622 -88.779  1.00  0.00     0.037 C 
ENDBRANCH  35  36
BRANCH  35  38
HETATM   38  C17 UNL     1      59.920  77.548 -90.725  1.00  0.00     0.277 C 
BRANCH  38  39
HETATM   39  C18 UNL     1      58.416  77.602 -90.956  1.00  0.00     0.056 C 
BRANCH  39  40
HETATM   40  C19 UNL     1      58.081  76.683 -92.134  1.00  0.00     0.165 C 
BRANCH  40  41
HETATM   41  O5  UNL     1      58.354  75.355 -91.716  1.00  0.00    -0.401 OA
ATOM     42  H5  UNL     1      57.799  74.782 -92.231  1.00  0.00     0.209 HD
ENDBRANCH  40  41
ENDBRANCH  39  40
ENDBRANCH  38  39
ENDBRANCH  35  38
ENDBRANCH   1  35
TORSDOF 19
ENDMDL
MODEL 3
REMARK VINA RESULT: -6.793243220      4.152      6.519
REMARK  19 active torsions:
REMARK  status: ('A' for Active; 'I' for Inactive)
REMARK    1  A    between atoms: C2_2  and  C3_3 
REMARK    2  A    between atoms: C2_2  and  C5_10 
REMARK    3  A    between atoms: C3_3  and  C4_4 
REMARK    4  A    between atoms: C4_4  and  P1_5 
REMARK    5  A    between atoms: P1_5  and  O1_6 
REMARK    6  A    between atoms: P1_5  and  O2_8 
REMARK       I    between atoms: C5_10  and  N1_12 
REMARK    7  A    between atoms: N1_12  and  C6_14 
REMARK    8  A    between atoms: C6_14  and  C7_15 
REMARK    9  A    between atoms: C6_14  and  N8_35 
REMARK   10  A    between atoms: C7_15  and  C8_16 
REMARK   11  A    between atoms: C8_16  and  N2_17 
REMARK   12  A    between atoms: N2_17  and  C9_19 
REMARK   13  A    between atoms: C9_19  and  N7_31 
REMARK   14  A    between atoms: N7_31  and  C14_33 
REMARK   15  A    between atoms: N8_35  and  C15_36 
REMARK   16  A    between atoms: N8_35  and  C17_38 
REMARK   17  A    between atoms: C17_38  and  C18_39 
REMARK   18  A    between atoms: C18_39  and  C19_40 
REMARK   19  A    between atoms: C19_40  and  O5_41 
ROOT
HETATM    1  C6  UNL     1      58.748  73.848 -89.172  1.00  0.00     0.325 C 
ENDROOT
BRANCH   1   2
HETATM    2  N1  UNL     1      58.469  72.383 -88.927  1.00  0.00    -0.326 N 
HETATM    3  C5  UNL     1      58.509  71.683 -87.762  1.00  0.00     0.260 C 
HETATM    4  O3  UNL     1      58.759  72.197 -86.652  1.00  0.00    -0.267 OA
ATOM      5  H1  UNL     1      58.214  71.843 -89.754  1.00  0.00     0.165 HD
BRANCH   3   6
HETATM    6  C2  UNL     1      58.253  70.231 -87.720  1.00  0.00     0.068 C 
HETATM    7  C1  UNL     1      58.012  69.661 -86.479  1.00  0.00     0.038 C 
BRANCH   6   8
HETATM    8  C3  UNL     1      58.218  69.340 -88.753  1.00  0.00    -0.107 C 
BRANCH   8   9
HETATM    9  C4  UNL     1      58.202  68.525 -89.741  1.00  0.00     0.121 C 
BRANCH   9  10
HETATM   10  P1  UNL     1      59.241  68.925 -91.247  1.00  0.00     0.197 P 
BRANCH  10  11
HETATM   11  O1  UNL     1      59.942  70.502 -91.061  1.00  0.00    -0.346 OA
ATOM     12  H1  UNL     1      60.875  70.416 -90.906  1.00  0.00     0.217 HD
ENDBRANCH  10  11
BRANCH  10  13
HETATM   13  O2  UNL     1      58.291  68.909 -92.674  1.00  0.00    -0.346 OA
ATOM     14  H2  UNL     1      58.541  69.615 -93.259  1.00  0.00     0.217 HD
ENDBRANCH  10  13
ENDBRANCH   9  10
ENDBRANCH   8   9
ENDBRANCH   6   8
ENDBRANCH   3   6
ENDBRANCH   1   2
BRANCH   1  15
HETATM   15  C7  UNL     1      60.084  73.955 -89.739  1.00  0.00     0.077 C 
BRANCH  15  16
HETATM   16  C8  UNL     1      61.039  75.025 -89.290  1.00  0.00     0.125 C 
BRANCH  16  17
HETATM   17  N2  UNL     1      61.665  75.704 -90.380  1.00  0.00    -0.373 N 
ATOM     18  H2  UNL     1      61.942  76.674 -90.226  1.00  0.00     0.161 HD
BRANCH  17  19
HETATM   19  C9  UNL     1      61.944  75.139 -91.688  1.00  0.00     0.151 C 
HETATM   20  C10 UNL     1      61.155  75.580 -92.685  1.00  0.00     0.167 A 
HETATM   21  N3  UNL     1      61.312  75.123 -93.998  1.00  0.00    -0.268 N 
HETATM   22  N6  UNL     1      60.155  76.579 -92.483  1.00  0.00    -0.327 N 
HETATM   23  N4  UNL     1      60.590  75.585 -94.964  1.00  0.00    -0.240 N 
ATOM     24  H3  UNL     1      62.012  74.409 -94.196  1.00  0.00     0.190 HD
HETATM   25  N5  UNL     1      59.628  76.554 -94.747  1.00  0.00    -0.275 N 
ATOM     26  H4  UNL     1      60.732  75.226 -95.908  1.00  0.00     0.208 HD
HETATM   27  C11 UNL     1      59.372  77.064 -93.597  1.00  0.00     0.094 A 
ATOM     28  H5  UNL     1      59.090  76.883 -95.548  1.00  0.00     0.189 HD
HETATM   29  C12 UNL     1      58.334  78.095 -93.458  1.00  0.00     0.090 C 
ATOM     30  H6  UNL     1      59.991  76.952 -91.547  1.00  0.00     0.169 HD
BRANCH  19  31
HETATM   31  N7  UNL     1      62.895  74.160 -91.910  1.00  0.00    -0.313 N 
HETATM   32  C13 UNL     1      64.308  74.581 -92.129  1.00  0.00     0.160 C 
BRANCH  31  33
HETATM   33  C14 UNL     1      62.708  72.776 -92.020  1.00  0.00     0.356 C 
HETATM   34  O4  UNL     1      61.641  72.294 -92.582  1.00  0.00    -0.283 OA
ENDBRANCH  31  33
ENDBRANCH  19  31
ENDBRANCH  17  19
ENDBRANCH  16  17
ENDBRANCH  15  16
ENDBRANCH   1  15
BRANCH   1  35
HETATM   35  N8  UNL     1      57.592  74.311 -89.829  1.00  0.00     0.111 N 
BRANCH  35  36
HETATM   36  C15 UNL     1      56.762  75.082 -88.888  1.00  0.00     0.270 C 
HETATM   37  C16 UNL     1      56.347  76.406 -89.413  1.00  0.00     0.037 C 
ENDBRANCH  35  36
BRANCH  35  38
HETATM   38  C17 UNL     1      57.640  74.917 -91.092  1.00  0.00     0.277 C 
BRANCH  38  39
HETATM   39  C18 UNL     1      57.064  74.072 -92.221  1.00  0.00     0.056 C 
BRANCH  39  40
HETATM   40  C19 UNL     1      58.175  73.160 -92.748  1.00  0.00     0.165 C 
BRANCH  40  41
HETATM   41  O5  UNL     1      58.559  73.663 -94.017  1.00  0.00    -0.401 OA
ATOM     42  H5  UNL     1      59.242  74.306 -93.868  1.00  0.00     0.209 HD
ENDBRANCH  40  41
ENDBRANCH  39  40
ENDBRANCH  38  39
ENDBRANCH  35  38
ENDBRANCH   1  35
TORSDOF 19
ENDMDL
MODEL 4
REMARK VINA RESULT: -6.770385929      3.643      6.525
REMARK  19 active torsions:
REMARK  status: ('A' for Active; 'I' for Inactive)
REMARK    1  A    between atoms: C2_2  and  C3_3 
REMARK    2  A    between atoms: C2_2  and  C5_10 
REMARK    3  A    between atoms: C3_3  and  C4_4 
REMARK    4  A    between atoms: C4_4  and  P1_5 
REMARK    5  A    between atoms: P1_5  and  O1_6 
REMARK    6  A    between atoms: P1_5  and  O2_8 
REMARK       I    between atoms: C5_10  and  N1_12 
REMARK    7  A    between atoms: N1_12  and  C6_14 
REMARK    8  A    between atoms: C6_14  and  C7_15 
REMARK    9  A    between atoms: C6_14  and  N8_35 
REMARK   10  A    between atoms: C7_15  and  C8_16 
REMARK   11  A    between atoms: C8_16  and  N2_17 
REMARK   12  A    between atoms: N2_17  and  C9_19 
REMARK   13  A    between atoms: C9_19  and  N7_31 
REMARK   14  A    between atoms: N7_31  and  C14_33 
REMARK   15  A    between atoms: N8_35  and  C15_36 
REMARK   16  A    between atoms: N8_35  and  C17_38 
REMARK   17  A    between atoms: C17_38  and  C18_39 
REMARK   18  A    between atoms: C18_39  and  C19_40 
REMARK   19  A    between atoms: C19_40  and  O5_41 
ROOT
HETATM    1  C6  UNL     1      60.701  76.910 -89.953  1.00  0.00     0.325 C 
ENDROOT
BRANCH   1   2
HETATM    2  N1  UNL     1      59.682  75.887 -89.504  1.00  0.00    -0.326 N 
HETATM    3  C5  UNL     1      59.776  74.956 -88.517  1.00  0.00     0.260 C 
HETATM    4  O3  UNL     1      60.768  74.837 -87.767  1.00  0.00    -0.267 OA
ATOM      5  H1  UNL     1      58.799  75.897 -90.014  1.00  0.00     0.165 HD
BRANCH   3   6
HETATM    6  C2  UNL     1      58.688  73.996 -88.251  1.00  0.00     0.068 C 
HETATM    7  C1  UNL     1      57.400  74.501 -88.157  1.00  0.00     0.038 C 
BRANCH   6   8
HETATM    8  C3  UNL     1      58.766  72.645 -88.078  1.00  0.00    -0.107 C 
BRANCH   8   9
HETATM    9  C4  UNL     1      58.812  71.373 -87.935  1.00  0.00     0.121 C 
BRANCH   9  10
HETATM   10  P1  UNL     1      58.510  70.652 -86.233  1.00  0.00     0.197 P 
BRANCH  10  11
HETATM   11  O1  UNL     1      59.489  71.491 -85.070  1.00  0.00    -0.346 OA
ATOM     12  H1  UNL     1      59.110  71.388 -84.206  1.00  0.00     0.217 HD
ENDBRANCH  10  11
BRANCH  10  13
HETATM   13  O2  UNL     1      58.910  68.986 -86.189  1.00  0.00    -0.346 OA
ATOM     14  H2  UNL     1      59.290  68.747 -85.351  1.00  0.00     0.217 HD
ENDBRANCH  10  13
ENDBRANCH   9  10
ENDBRANCH   8   9
ENDBRANCH   6   8
ENDBRANCH   3   6
ENDBRANCH   1   2
BRANCH   1  15
HETATM   15  C7  UNL     1      60.800  76.829 -91.402  1.00  0.00     0.077 C 
BRANCH  15  16
HETATM   16  C8  UNL     1      59.998  75.826 -92.184  1.00  0.00     0.125 C 
BRANCH  16  17
HETATM   17  N2  UNL     1      60.816  74.914 -92.919  1.00  0.00    -0.373 N 
ATOM     18  H2  UNL     1      60.719  74.919 -93.935  1.00  0.00     0.161 HD
BRANCH  17  19
HETATM   19  C9  UNL     1      61.773  73.981 -92.353  1.00  0.00     0.151 C 
HETATM   20  C10 UNL     1      63.067  74.287 -92.561  1.00  0.00     0.167 A 
HETATM   21  N3  UNL     1      64.097  73.478 -92.071  1.00  0.00    -0.268 N 
HETATM   22  N6  UNL     1      63.471  75.477 -93.239  1.00  0.00    -0.327 N 
HETATM   23  N4  UNL     1      65.339  73.798 -92.225  1.00  0.00    -0.240 N 
ATOM     24  H3  UNL     1      63.863  72.616 -91.580  1.00  0.00     0.190 HD
HETATM   25  N5  UNL     1      65.709  74.957 -92.882  1.00  0.00    -0.275 N 
ATOM     26  H4  UNL     1      66.063  73.183 -91.854  1.00  0.00     0.208 HD
HETATM   27  C11 UNL     1      64.874  75.793 -93.386  1.00  0.00     0.094 A 
ATOM     28  H5  UNL     1      66.704  75.160 -92.972  1.00  0.00     0.189 HD
HETATM   29  C12 UNL     1      65.356  77.004 -94.064  1.00  0.00     0.090 C 
ATOM     30  H6  UNL     1      62.767  76.108 -93.621  1.00  0.00     0.169 HD
BRANCH  19  31
HETATM   31  N7  UNL     1      61.410  72.814 -91.706  1.00  0.00    -0.313 N 
HETATM   32  C13 UNL     1      61.830  72.629 -90.289  1.00  0.00     0.160 C 
BRANCH  31  33
HETATM   33  C14 UNL     1      60.725  71.709 -92.228  1.00  0.00     0.356 C 
HETATM   34  O4  UNL     1      59.719  71.872 -93.034  1.00  0.00    -0.283 OA
ENDBRANCH  31  33
ENDBRANCH  19  31
ENDBRANCH  17  19
ENDBRANCH  16  17
ENDBRANCH  15  16
ENDBRANCH   1  15
BRANCH   1  35
HETATM   35  N8  UNL     1      60.332  78.083 -89.269  1.00  0.00     0.111 N 
BRANCH  35  36
HETATM   36  C15 UNL     1      61.478  78.591 -88.498  1.00  0.00     0.270 C 
HETATM   37  C16 UNL     1      61.176  79.825 -87.731  1.00  0.00     0.037 C 
ENDBRANCH  35  36
BRANCH  35  38
HETATM   38  C17 UNL     1      59.626  79.123 -89.891  1.00  0.00     0.277 C 
BRANCH  38  39
HETATM   39  C18 UNL     1      58.130  79.131 -89.607  1.00  0.00     0.056 C 
BRANCH  39  40
HETATM   40  C19 UNL     1      57.413  78.517 -90.812  1.00  0.00     0.165 C 
BRANCH  40  41
HETATM   41  O5  UNL     1      57.153  77.159 -90.494  1.00  0.00    -0.401 OA
ATOM     42  H5  UNL     1      57.344  76.649 -91.273  1.00  0.00     0.209 HD
ENDBRANCH  40  41
ENDBRANCH  39  40
ENDBRANCH  38  39
ENDBRANCH  35  38
ENDBRANCH   1  35
TORSDOF 19
ENDMDL
MODEL 5
REMARK VINA RESULT: -6.689077152      3.018      5.486
REMARK  19 active torsions:
REMARK  status: ('A' for Active; 'I' for Inactive)
REMARK    1  A    between atoms: C2_2  and  C3_3 
REMARK    2  A    between atoms: C2_2  and  C5_10 
REMARK    3  A    between atoms: C3_3  and  C4_4 
REMARK    4  A    between atoms: C4_4  and  P1_5 
REMARK    5  A    between atoms: P1_5  and  O1_6 
REMARK    6  A    between atoms: P1_5  and  O2_8 
REMARK       I    between atoms: C5_10  and  N1_12 
REMARK    7  A    between atoms: N1_12  and  C6_14 
REMARK    8  A    between atoms: C6_14  and  C7_15 
REMARK    9  A    between atoms: C6_14  and  N8_35 
REMARK   10  A    between atoms: C7_15  and  C8_16 
REMARK   11  A    between atoms: C8_16  and  N2_17 
REMARK   12  A    between atoms: N2_17  and  C9_19 
REMARK   13  A    between atoms: C9_19  and  N7_31 
REMARK   14  A    between atoms: N7_31  and  C14_33 
REMARK   15  A    between atoms: N8_35  and  C15_36 
REMARK   16  A    between atoms: N8_35  and  C17_38 
REMARK   17  A    between atoms: C17_38  and  C18_39 
REMARK   18  A    between atoms: C18_39  and  C19_40 
REMARK   19  A    between atoms: C19_40  and  O5_41 
ROOT
HETATM    1  C6  UNL     1      57.990  75.197 -92.374  1.00  0.00     0.325 C 
ENDROOT
BRANCH   1   2
HETATM    2  N1  UNL     1      59.206  75.530 -93.208  1.00  0.00    -0.326 N 
HETATM    3  C5  UNL     1      59.368  76.506 -94.141  1.00  0.00     0.260 C 
HETATM    4  O3  UNL     1      58.488  77.346 -94.426  1.00  0.00    -0.267 OA
ATOM      5  H1  UNL     1      60.020  74.937 -93.049  1.00  0.00     0.165 HD
BRANCH   3   6
HETATM    6  C2  UNL     1      60.623  76.652 -94.902  1.00  0.00     0.068 C 
HETATM    7  C1  UNL     1      60.742  75.930 -96.080  1.00  0.00     0.038 C 
BRANCH   6   8
HETATM    8  C3  UNL     1      61.715  77.415 -94.609  1.00  0.00    -0.107 C 
BRANCH   8   9
HETATM    9  C4  UNL     1      62.760  78.105 -94.340  1.00  0.00     0.121 C 
BRANCH   9  10
HETATM   10  P1  UNL     1      64.341  77.735 -95.272  1.00  0.00     0.197 P 
BRANCH  10  11
HETATM   11  O1  UNL     1      65.624  77.447 -94.138  1.00  0.00    -0.346 OA
ATOM     12  H1  UNL     1      65.298  77.571 -93.254  1.00  0.00     0.217 HD
ENDBRANCH  10  11
BRANCH  10  13
HETATM   13  O2  UNL     1      64.784  79.046 -96.283  1.00  0.00    -0.346 OA
ATOM     14  H2  UNL     1      64.668  78.826 -97.199  1.00  0.00     0.217 HD
ENDBRANCH  10  13
ENDBRANCH   9  10
ENDBRANCH   8   9
ENDBRANCH   6   8
ENDBRANCH   3   6
ENDBRANCH   1   2
BRANCH   1  15
HETATM   15  C7  UNL     1      57.904  73.748 -92.275  1.00  0.00     0.077 C 
BRANCH  15  16
HETATM   16  C8  UNL     1      58.346  72.861 -93.407  1.00  0.00     0.125 C 
BRANCH  16  17
HETATM   17  N2  UNL     1      59.431  72.003 -93.048  1.00  0.00    -0.373 N 
ATOM     18  H2  UNL     1      59.893  71.499 -93.805  1.00  0.00     0.161 HD
BRANCH  17  19
HETATM   19  C9  UNL     1      59.936  71.784 -91.705  1.00  0.00     0.151 C 
HETATM   20  C10 UNL     1      61.103  72.394 -91.423  1.00  0.00     0.167 A 
HETATM   21  N3  UNL     1      61.706  72.273 -90.167  1.00  0.00    -0.268 N 
HETATM   22  N6  UNL     1      61.766  73.245 -92.359  1.00  0.00    -0.327 N 
HETATM   23  N4  UNL     1      62.798  72.899 -89.879  1.00  0.00    -0.240 N 
ATOM     24  H3  UNL     1      61.273  71.676 -89.463  1.00  0.00     0.190 HD
HETATM   25  N5  UNL     1      63.423  73.720 -90.799  1.00  0.00    -0.275 N 
ATOM     26  H4  UNL     1      63.209  72.785 -88.953  1.00  0.00     0.208 HD
HETATM   27  C11 UNL     1      62.986  73.925 -91.989  1.00  0.00     0.094 A 
ATOM     28  H5  UNL     1      64.281  74.192 -90.515  1.00  0.00     0.189 HD
HETATM   29  C12 UNL     1      63.713  74.820 -92.901  1.00  0.00     0.090 C 
ATOM     30  H6  UNL     1      61.376  73.374 -93.293  1.00  0.00     0.169 HD
BRANCH  19  31
HETATM   31  N7  UNL     1      59.324  70.954 -90.785  1.00  0.00    -0.313 N 
HETATM   32  C13 UNL     1      59.236  69.499 -91.091  1.00  0.00     0.160 C 
BRANCH  31  33
HETATM   33  C14 UNL     1      58.697  71.304 -89.582  1.00  0.00     0.356 C 
HETATM   34  O4  UNL     1      59.381  71.404 -88.482  1.00  0.00    -0.283 OA
ENDBRANCH  31  33
ENDBRANCH  19  31
ENDBRANCH  17  19
ENDBRANCH  16  17
ENDBRANCH  15  16
ENDBRANCH   1  15
BRANCH   1  35
HETATM   35  N8  UNL     1      58.103  76.041 -91.254  1.00  0.00     0.111 N 
BRANCH  35  36
HETATM   36  C15 UNL     1      56.911  76.900 -91.156  1.00  0.00     0.270 C 
HETATM   37  C16 UNL     1      56.455  77.123 -89.761  1.00  0.00     0.037 C 
ENDBRANCH  35  36
BRANCH  35  38
HETATM   38  C17 UNL     1      58.503  75.568 -89.996  1.00  0.00     0.277 C 
BRANCH  38  39
HETATM   39  C18 UNL     1      60.001  75.649 -89.737  1.00  0.00     0.056 C 
BRANCH  39  40
HETATM   40  C19 UNL     1      60.302  74.895 -88.439  1.00  0.00     0.165 C 
BRANCH  40  41
HETATM   41  O5  UNL     1      61.710  74.916 -88.263  1.00  0.00    -0.401 OA
ATOM     42  H5  UNL     1      61.874  74.924 -87.327  1.00  0.00     0.209 HD
ENDBRANCH  40  41
ENDBRANCH  39  40
ENDBRANCH  38  39
ENDBRANCH  35  38
ENDBRANCH   1  35
TORSDOF 19
ENDMDL
