MODEL 1
REMARK VINA RESULT: -10.016131860      0.000      0.000
REMARK  3 active torsions:
REMARK  status: ('A' for Active; 'I' for Inactive)
REMARK    1  A    between atoms: C7_7  and  N1_8 
REMARK    2  A    between atoms: N1_8  and  C8_10 
REMARK    3  A    between atoms: C14_20  and  C15_21 
ROOT
HETATM    1  C8  UNL     1      -7.593  18.413  15.306  1.00  0.00     0.120 A 
HETATM    2  N2  UNL     1      -8.908  18.706  15.138  1.00  0.00    -0.327 N 
ATOM      3  H2  UNL     1      -9.272  19.535  15.608  1.00  0.00     0.169 HD
HETATM    4  C9  UNL     1      -9.759  17.983  14.400  1.00  0.00     0.118 A 
HETATM    5  N3  UNL     1     -11.083  18.114  14.117  1.00  0.00    -0.345 N 
ATOM      6  H3  UNL     1     -11.684  18.862  14.463  1.00  0.00     0.167 HD
HETATM    7  C10 UNL     1     -11.480  17.127  13.325  1.00  0.00     0.018 A 
HETATM    8  C11 UNL     1     -10.375  16.340  13.092  1.00  0.00    -0.021 A 
HETATM    9  C12 UNL     1      -9.292  16.857  13.754  1.00  0.00     0.017 A 
HETATM   10  C13 UNL     1      -7.966  16.537  13.907  1.00  0.00     0.034 A 
HETATM   11  C14 UNL     1      -7.074  17.303  14.686  1.00  0.00     0.047 A 
HETATM   12  C16 UNL     1     -10.524  15.155  12.233  1.00  0.00     0.041 C 
HETATM   13  C17 UNL     1     -11.805  14.422  12.421  1.00  0.00     0.005 C 
HETATM   14  C18 UNL     1     -12.944  15.259  12.900  1.00  0.00     0.006 C 
HETATM   15  C19 UNL     1     -12.775  16.726  12.683  1.00  0.00     0.057 C 
ENDROOT
BRANCH   1  16
HETATM   16  N1  UNL     1      -6.818  19.302  16.087  1.00  0.00    -0.342 N 
ATOM     17  H1  UNL     1      -6.090  18.889  16.669  1.00  0.00     0.167 HD
BRANCH  16  18
HETATM   18  C7  UNL     1      -6.958  20.708  16.138  1.00  0.00     0.034 A 
HETATM   19  C6  UNL     1      -6.965  21.571  15.084  1.00  0.00     0.036 A 
HETATM   20  C4  UNL     1      -7.072  22.944  15.239  1.00  0.00    -0.059 A 
HETATM   21  C3  UNL     1      -7.180  23.483  16.497  1.00  0.00     0.013 A 
HETATM   22  C5  UNL     1      -7.073  23.837  14.046  1.00  0.00     0.048 C 
HETATM   23  C2  UNL     1      -7.179  22.654  17.594  1.00  0.00    -0.059 A 
HETATM   24  C1  UNL     1      -7.296  23.218  18.976  1.00  0.00     0.048 C 
HETATM   25  C20 UNL     1      -7.071  21.305  17.405  1.00  0.00     0.036 A 
ENDBRANCH  16  18
ENDBRANCH   1  16
BRANCH  11  26
HETATM   26  C15 UNL     1      -5.698  16.895  14.807  1.00  0.00     0.273 C 
HETATM   27  O1  UNL     1      -5.074  16.541  15.803  1.00  0.00    -0.301 OA
ENDBRANCH  11  26
TORSDOF 3
ENDMDL
MODEL 2
REMARK VINA RESULT: -9.949465984      0.172      1.733
REMARK  3 active torsions:
REMARK  status: ('A' for Active; 'I' for Inactive)
REMARK    1  A    between atoms: C7_7  and  N1_8 
REMARK    2  A    between atoms: N1_8  and  C8_10 
REMARK    3  A    between atoms: C14_20  and  C15_21 
ROOT
HETATM    1  C8  UNL     1      -7.532  18.359  15.350  1.00  0.00     0.120 A 
HETATM    2  N2  UNL     1      -8.830  18.717  15.181  1.00  0.00    -0.327 N 
ATOM      3  H2  UNL     1      -9.158  19.554  15.663  1.00  0.00     0.169 HD
HETATM    4  C9  UNL     1      -9.710  18.047  14.427  1.00  0.00     0.118 A 
HETATM    5  N3  UNL     1     -11.025  18.245  14.139  1.00  0.00    -0.345 N 
ATOM      6  H3  UNL     1     -11.591  19.015  14.495  1.00  0.00     0.167 HD
HETATM    7  C10 UNL     1     -11.463  17.291  13.329  1.00  0.00     0.018 A 
HETATM    8  C11 UNL     1     -10.395  16.457  13.088  1.00  0.00    -0.021 A 
HETATM    9  C12 UNL     1      -9.293  16.911  13.764  1.00  0.00     0.017 A 
HETATM   10  C13 UNL     1      -7.984  16.527  13.918  1.00  0.00     0.034 A 
HETATM   11  C14 UNL     1      -7.062  17.236  14.715  1.00  0.00     0.047 A 
HETATM   12  C16 UNL     1     -10.594  15.295  12.209  1.00  0.00     0.041 C 
HETATM   13  C17 UNL     1     -11.909  14.620  12.378  1.00  0.00     0.005 C 
HETATM   14  C18 UNL     1     -13.011  15.501  12.865  1.00  0.00     0.006 C 
HETATM   15  C19 UNL     1     -12.772  16.962  12.674  1.00  0.00     0.057 C 
ENDROOT
BRANCH   1  16
HETATM   16  N1  UNL     1      -6.720  19.198  16.150  1.00  0.00    -0.342 N 
ATOM     17  H1  UNL     1      -5.950  18.754  16.650  1.00  0.00     0.167 HD
BRANCH  16  18
HETATM   18  C7  UNL     1      -6.875  20.593  16.323  1.00  0.00     0.034 A 
HETATM   19  C6  UNL     1      -7.095  21.255  17.493  1.00  0.00     0.036 A 
HETATM   20  C4  UNL     1      -7.270  22.628  17.556  1.00  0.00    -0.059 A 
HETATM   21  C3  UNL     1      -7.223  23.376  16.406  1.00  0.00     0.013 A 
HETATM   22  C5  UNL     1      -7.509  23.296  18.867  1.00  0.00     0.048 C 
HETATM   23  C2  UNL     1      -7.003  22.755  15.200  1.00  0.00    -0.059 A 
HETATM   24  C1  UNL     1      -6.946  23.549  13.932  1.00  0.00     0.048 C 
HETATM   25  C20 UNL     1      -6.835  21.399  15.173  1.00  0.00     0.036 A 
ENDBRANCH  16  18
ENDBRANCH   1  16
BRANCH  11  26
HETATM   26  C15 UNL     1      -5.707  16.762  14.835  1.00  0.00     0.273 C 
HETATM   27  O1  UNL     1      -5.070  16.469  15.843  1.00  0.00    -0.301 OA
ENDBRANCH  11  26
TORSDOF 3
ENDMDL
MODEL 3
REMARK VINA RESULT: -9.441736368      1.963      2.090
REMARK  3 active torsions:
REMARK  status: ('A' for Active; 'I' for Inactive)
REMARK    1  A    between atoms: C7_7  and  N1_8 
REMARK    2  A    between atoms: N1_8  and  C8_10 
REMARK    3  A    between atoms: C14_20  and  C15_21 
ROOT
HETATM    1  C8  UNL     1      -7.662  19.551  13.970  1.00  0.00     0.120 A 
HETATM    2  N2  UNL     1      -8.671  18.926  14.628  1.00  0.00    -0.327 N 
ATOM      3  H2  UNL     1      -8.743  19.073  15.635  1.00  0.00     0.169 HD
HETATM    4  C9  UNL     1      -9.578  18.130  14.048  1.00  0.00     0.118 A 
HETATM    5  N3  UNL     1     -10.640  17.430  14.530  1.00  0.00    -0.345 N 
ATOM      6  H3  UNL     1     -10.932  17.408  15.507  1.00  0.00     0.167 HD
HETATM    7  C10 UNL     1     -11.243  16.780  13.543  1.00  0.00     0.018 A 
HETATM    8  C11 UNL     1     -10.545  17.074  12.393  1.00  0.00    -0.021 A 
HETATM    9  C12 UNL     1      -9.503  17.914  12.687  1.00  0.00     0.017 A 
HETATM   10  C13 UNL     1      -8.492  18.534  11.998  1.00  0.00     0.034 A 
HETATM   11  C14 UNL     1      -7.539  19.372  12.615  1.00  0.00     0.047 A 
HETATM   12  C16 UNL     1     -10.997  16.481  11.125  1.00  0.00     0.041 C 
HETATM   13  C17 UNL     1     -11.474  15.077  11.243  1.00  0.00     0.005 C 
HETATM   14  C18 UNL     1     -12.021  14.710  12.583  1.00  0.00     0.006 C 
HETATM   15  C19 UNL     1     -12.429  15.868  13.430  1.00  0.00     0.057 C 
ENDROOT
BRANCH   1  16
HETATM   16  N1  UNL     1      -6.810  20.392  14.725  1.00  0.00    -0.342 N 
ATOM     17  H1  UNL     1      -5.870  20.045  14.915  1.00  0.00     0.167 HD
BRANCH  16  18
HETATM   18  C7  UNL     1      -7.138  21.667  15.240  1.00  0.00     0.034 A 
HETATM   19  C6  UNL     1      -7.481  22.777  14.529  1.00  0.00     0.036 A 
HETATM   20  C4  UNL     1      -7.752  23.997  15.126  1.00  0.00    -0.059 A 
HETATM   21  C3  UNL     1      -7.680  24.120  16.492  1.00  0.00     0.013 A 
HETATM   22  C5  UNL     1      -8.122  25.177  14.294  1.00  0.00     0.048 C 
HETATM   23  C2  UNL     1      -7.339  23.029  17.255  1.00  0.00    -0.059 A 
HETATM   24  C1  UNL     1      -7.254  23.137  18.746  1.00  0.00     0.048 C 
HETATM   25  C20 UNL     1      -7.077  21.840  16.633  1.00  0.00     0.036 A 
ENDBRANCH  16  18
ENDBRANCH   1  16
BRANCH  11  26
HETATM   26  C15 UNL     1      -6.500  19.978  11.823  1.00  0.00     0.273 C 
HETATM   27  O1  UNL     1      -6.239  21.165  11.655  1.00  0.00    -0.301 OA
ENDBRANCH  11  26
TORSDOF 3
ENDMDL
MODEL 4
REMARK VINA RESULT: -9.428931613      1.409      2.439
REMARK  3 active torsions:
REMARK  status: ('A' for Active; 'I' for Inactive)
REMARK    1  A    between atoms: C7_7  and  N1_8 
REMARK    2  A    between atoms: N1_8  and  C8_10 
REMARK    3  A    between atoms: C14_20  and  C15_21 
ROOT
HETATM    1  C8  UNL     1      -7.847  19.251  14.384  1.00  0.00     0.120 A 
HETATM    2  N2  UNL     1      -9.201  19.340  14.359  1.00  0.00    -0.327 N 
ATOM      3  H2  UNL     1      -9.631  20.157  14.794  1.00  0.00     0.169 HD
HETATM    4  C9  UNL     1     -10.012  18.431  13.803  1.00  0.00     0.118 A 
HETATM    5  N3  UNL     1     -11.364  18.347  13.680  1.00  0.00    -0.345 N 
ATOM      6  H3  UNL     1     -12.028  19.038  14.030  1.00  0.00     0.167 HD
HETATM    7  C10 UNL     1     -11.695  17.235  13.038  1.00  0.00     0.018 A 
HETATM    8  C11 UNL     1     -10.518  16.587  12.739  1.00  0.00    -0.021 A 
HETATM    9  C12 UNL     1      -9.457  17.317  13.208  1.00  0.00     0.017 A 
HETATM   10  C13 UNL     1      -8.090  17.202  13.220  1.00  0.00     0.034 A 
HETATM   11  C14 UNL     1      -7.241  18.163  13.807  1.00  0.00     0.047 A 
HETATM   12  C16 UNL     1     -10.583  15.307  12.017  1.00  0.00     0.041 C 
HETATM   13  C17 UNL     1     -11.710  14.429  12.431  1.00  0.00     0.005 C 
HETATM   14  C18 UNL     1     -12.901  15.148  12.973  1.00  0.00     0.006 C 
HETATM   15  C19 UNL     1     -12.979  16.591  12.605  1.00  0.00     0.057 C 
ENDROOT
BRANCH   1  16
HETATM   16  N1  UNL     1      -7.132  20.318  14.976  1.00  0.00    -0.342 N 
ATOM     17  H1  UNL     1      -6.585  20.100  15.810  1.00  0.00     0.167 HD
BRANCH  16  18
HETATM   18  C7  UNL     1      -7.102  21.657  14.524  1.00  0.00     0.034 A 
HETATM   19  C6  UNL     1      -7.275  22.781  15.274  1.00  0.00     0.036 A 
HETATM   20  C4  UNL     1      -7.263  24.055  14.730  1.00  0.00    -0.059 A 
HETATM   21  C3  UNL     1      -7.069  24.220  13.381  1.00  0.00     0.013 A 
HETATM   22  C5  UNL     1      -7.458  25.248  15.603  1.00  0.00     0.048 C 
HETATM   23  C2  UNL     1      -6.889  23.117  12.580  1.00  0.00    -0.059 A 
HETATM   24  C1  UNL     1      -6.675  23.271  11.106  1.00  0.00     0.048 C 
HETATM   25  C20 UNL     1      -6.907  21.875  13.149  1.00  0.00     0.036 A 
ENDBRANCH  16  18
ENDBRANCH   1  16
BRANCH  11  26
HETATM   26  C15 UNL     1      -5.815  17.964  13.788  1.00  0.00     0.273 C 
HETATM   27  O1  UNL     1      -5.008  18.014  14.712  1.00  0.00    -0.301 OA
ENDBRANCH  11  26
TORSDOF 3
ENDMDL
MODEL 5
REMARK VINA RESULT: -9.421732934      1.490      1.894
REMARK  3 active torsions:
REMARK  status: ('A' for Active; 'I' for Inactive)
REMARK    1  A    between atoms: C7_7  and  N1_8 
REMARK    2  A    between atoms: N1_8  and  C8_10 
REMARK    3  A    between atoms: C14_20  and  C15_21 
ROOT
HETATM    1  C8  UNL     1      -7.920  19.281  14.293  1.00  0.00     0.120 A 
HETATM    2  N2  UNL     1      -9.274  19.339  14.238  1.00  0.00    -0.327 N 
ATOM      3  H2  UNL     1      -9.729  20.168  14.621  1.00  0.00     0.169 HD
HETATM    4  C9  UNL     1     -10.055  18.384  13.718  1.00  0.00     0.118 A 
HETATM    5  N3  UNL     1     -11.402  18.263  13.575  1.00  0.00    -0.345 N 
ATOM      6  H3  UNL     1     -12.087  18.957  13.875  1.00  0.00     0.167 HD
HETATM    7  C10 UNL     1     -11.697  17.111  12.988  1.00  0.00     0.018 A 
HETATM    8  C11 UNL     1     -10.501  16.474  12.746  1.00  0.00    -0.021 A 
HETATM    9  C12 UNL     1      -9.465  17.251  13.194  1.00  0.00     0.017 A 
HETATM   10  C13 UNL     1      -8.096  17.167  13.237  1.00  0.00     0.034 A 
HETATM   11  C14 UNL     1      -7.279  18.177  13.787  1.00  0.00     0.047 A 
HETATM   12  C16 UNL     1     -10.525  15.157  12.093  1.00  0.00     0.041 C 
HETATM   13  C17 UNL     1     -11.641  14.277  12.534  1.00  0.00     0.005 C 
HETATM   14  C18 UNL     1     -12.857  14.997  13.014  1.00  0.00     0.006 C 
HETATM   15  C19 UNL     1     -12.959  16.417  12.567  1.00  0.00     0.057 C 
ENDROOT
BRANCH   1  16
HETATM   16  N1  UNL     1      -7.238  20.394  14.840  1.00  0.00    -0.342 N 
ATOM     17  H1  UNL     1      -6.768  20.253  15.734  1.00  0.00     0.167 HD
BRANCH  16  18
HETATM   18  C7  UNL     1      -7.147  21.683  14.265  1.00  0.00     0.034 A 
HETATM   19  C6  UNL     1      -6.894  21.984  12.961  1.00  0.00     0.036 A 
HETATM   20  C4  UNL     1      -6.788  23.285  12.499  1.00  0.00    -0.059 A 
HETATM   21  C3  UNL     1      -6.942  24.335  13.371  1.00  0.00     0.013 A 
HETATM   22  C5  UNL     1      -6.509  23.552  11.059  1.00  0.00     0.048 C 
HETATM   23  C2  UNL     1      -7.199  24.083  14.697  1.00  0.00    -0.059 A 
HETATM   24  C1  UNL     1      -7.372  25.211  15.667  1.00  0.00     0.048 C 
HETATM   25  C20 UNL     1      -7.297  22.787  15.120  1.00  0.00     0.036 A 
ENDBRANCH  16  18
ENDBRANCH   1  16
BRANCH  11  26
HETATM   26  C15 UNL     1      -5.849  18.009  13.805  1.00  0.00     0.273 C 
HETATM   27  O1  UNL     1      -5.071  18.046  14.753  1.00  0.00    -0.301 OA
ENDBRANCH  11  26
TORSDOF 3
ENDMDL
