MODEL 1
REMARK VINA RESULT: -4.742784860      0.000      0.000
REMARK  4 active torsions:
REMARK  status: ('A' for Active; 'I' for Inactive)
REMARK    1  A    between atoms: C1_2  and  C5_10 
REMARK    2  A    between atoms: C2_3  and  C3_4 
REMARK       I    between atoms: C3_4  and  N2_6 
REMARK    3  A    between atoms: N2_6  and  C4_8 
REMARK    4  A    between atoms: C5_10  and  O3_11 
ROOT
HETATM    1  N1  UNL     1      -5.013  21.911  18.442  1.00  0.00    -0.105 NA
HETATM    2  C1  UNL     1      -6.371  22.050  17.979  1.00  0.00     0.052 C 
HETATM    3  C2  UNL     1      -6.868  21.050  17.328  1.00  0.00     0.098 C 
ENDROOT
BRANCH   3   4
HETATM    4  C3  UNL     1      -8.176  20.874  16.740  1.00  0.00     0.248 C 
HETATM    5  O1  UNL     1      -8.373  20.888  15.530  1.00  0.00    -0.268 OA
HETATM    6  N2  UNL     1      -9.289  20.676  17.635  1.00  0.00    -0.301 N 
ATOM      7  H2  UNL     1      -9.157  20.661  18.647  1.00  0.00     0.171 HD
BRANCH   6   8
HETATM    8  C4  UNL     1     -10.560  20.507  17.066  1.00  0.00     0.355 C 
HETATM    9  O2  UNL     1     -11.461  19.882  17.678  1.00  0.00    -0.283 OA
ENDBRANCH   6   8
ENDBRANCH   3   4
BRANCH   2  10
HETATM   10  C5  UNL     1      -7.073  23.302  18.277  1.00  0.00     0.218 C 
BRANCH  10  11
HETATM   11  O3  UNL     1      -8.057  23.116  19.278  1.00  0.00    -0.395 OA
ATOM     12  H3  UNL     1      -7.990  23.777  19.957  1.00  0.00     0.209 HD
ENDBRANCH  10  11
ENDBRANCH   2  10
TORSDOF 4
ENDMDL
MODEL 2
REMARK VINA RESULT: -4.623785419      7.834      8.894
REMARK  4 active torsions:
REMARK  status: ('A' for Active; 'I' for Inactive)
REMARK    1  A    between atoms: C1_2  and  C5_10 
REMARK    2  A    between atoms: C2_3  and  C3_4 
REMARK       I    between atoms: C3_4  and  N2_6 
REMARK    3  A    between atoms: N2_6  and  C4_8 
REMARK    4  A    between atoms: C5_10  and  O3_11 
ROOT
HETATM    1  N1  UNL     1     -10.981  13.003  11.743  1.00  0.00    -0.105 NA
HETATM    2  C1  UNL     1     -11.086  14.352  12.238  1.00  0.00     0.052 C 
HETATM    3  C2  UNL     1     -12.262  14.887  12.222  1.00  0.00     0.098 C 
ENDROOT
BRANCH   3   4
HETATM    4  C3  UNL     1     -12.698  16.200  12.640  1.00  0.00     0.248 C 
HETATM    5  O1  UNL     1     -13.392  16.390  13.634  1.00  0.00    -0.268 OA
HETATM    6  N2  UNL     1     -12.290  17.326  11.837  1.00  0.00    -0.301 N 
ATOM      7  H2  UNL     1     -11.713  17.199  11.005  1.00  0.00     0.171 HD
BRANCH   6   8
HETATM    8  C4  UNL     1     -12.714  18.600  12.241  1.00  0.00     0.355 C 
HETATM    9  O2  UNL     1     -11.880  19.492  12.534  1.00  0.00    -0.283 OA
ENDBRANCH   6   8
ENDBRANCH   3   4
BRANCH   2  10
HETATM   10  C5  UNL     1      -9.863  15.005  12.715  1.00  0.00     0.218 C 
BRANCH  10  11
HETATM   11  O3  UNL     1      -9.780  14.978  14.128  1.00  0.00    -0.395 OA
ATOM     12  H3  UNL     1      -9.705  15.854  14.487  1.00  0.00     0.209 HD
ENDBRANCH  10  11
ENDBRANCH   2  10
TORSDOF 4
ENDMDL
MODEL 3
REMARK VINA RESULT: -4.551483366      6.866      7.809
REMARK  4 active torsions:
REMARK  status: ('A' for Active; 'I' for Inactive)
REMARK    1  A    between atoms: C1_2  and  C5_10 
REMARK    2  A    between atoms: C2_3  and  C3_4 
REMARK       I    between atoms: C3_4  and  N2_6 
REMARK    3  A    between atoms: N2_6  and  C4_8 
REMARK    4  A    between atoms: C5_10  and  O3_11 
ROOT
HETATM    1  N1  UNL     1     -10.110  20.464  11.244  1.00  0.00    -0.105 NA
HETATM    2  C1  UNL     1     -10.512  19.097  11.461  1.00  0.00     0.052 C 
HETATM    3  C2  UNL     1     -11.077  18.830  12.593  1.00  0.00     0.098 C 
ENDROOT
BRANCH   3   4
HETATM    4  C3  UNL     1     -11.586  17.581  13.112  1.00  0.00     0.248 C 
HETATM    5  O1  UNL     1     -11.020  16.941  13.992  1.00  0.00    -0.268 OA
HETATM    6  N2  UNL     1     -12.818  17.081  12.556  1.00  0.00    -0.301 N 
ATOM      7  H2  UNL     1     -13.312  17.590  11.823  1.00  0.00     0.171 HD
BRANCH   6   8
HETATM    8  C4  UNL     1     -13.314  15.868  13.058  1.00  0.00     0.355 C 
HETATM    9  O2  UNL     1     -14.059  15.847  14.069  1.00  0.00    -0.283 OA
ENDBRANCH   6   8
ENDBRANCH   3   4
BRANCH   2  10
HETATM   10  C5  UNL     1     -10.250  18.127  10.394  1.00  0.00     0.218 C 
BRANCH  10  11
HETATM   11  O3  UNL     1      -9.945  18.774   9.172  1.00  0.00    -0.395 OA
ATOM     12  H3  UNL     1     -10.440  18.405   8.451  1.00  0.00     0.209 HD
ENDBRANCH  10  11
ENDBRANCH   2  10
TORSDOF 4
ENDMDL
MODEL 4
REMARK VINA RESULT: -4.520637311      7.390      8.602
REMARK  4 active torsions:
REMARK  status: ('A' for Active; 'I' for Inactive)
REMARK    1  A    between atoms: C1_2  and  C5_10 
REMARK    2  A    between atoms: C2_3  and  C3_4 
REMARK       I    between atoms: C3_4  and  N2_6 
REMARK    3  A    between atoms: N2_6  and  C4_8 
REMARK    4  A    between atoms: C5_10  and  O3_11 
ROOT
HETATM    1  N1  UNL     1     -11.442  19.299  12.839  1.00  0.00    -0.105 NA
HETATM    2  C1  UNL     1     -11.025  17.975  12.452  1.00  0.00     0.052 C 
HETATM    3  C2  UNL     1     -11.284  17.018  13.281  1.00  0.00     0.098 C 
ENDROOT
BRANCH   3   4
HETATM    4  C3  UNL     1     -11.003  15.603  13.195  1.00  0.00     0.248 C 
HETATM    5  O1  UNL     1     -10.198  15.035  13.925  1.00  0.00    -0.268 OA
HETATM    6  N2  UNL     1     -11.711  14.842  12.196  1.00  0.00    -0.301 N 
ATOM      7  H2  UNL     1     -12.387  15.287  11.574  1.00  0.00     0.171 HD
BRANCH   6   8
HETATM    8  C4  UNL     1     -11.439  13.469  12.110  1.00  0.00     0.355 C 
HETATM    9  O2  UNL     1     -10.563  13.035  11.322  1.00  0.00    -0.283 OA
ENDBRANCH   6   8
ENDBRANCH   3   4
BRANCH   2  10
HETATM   10  C5  UNL     1     -10.346  17.819  11.162  1.00  0.00     0.218 C 
BRANCH  10  11
HETATM   11  O3  UNL     1     -11.189  17.205  10.205  1.00  0.00    -0.395 OA
ATOM     12  H3  UNL     1     -11.339  17.774   9.459  1.00  0.00     0.209 HD
ENDBRANCH  10  11
ENDBRANCH   2  10
TORSDOF 4
ENDMDL
MODEL 5
REMARK VINA RESULT: -4.494054629      7.036      7.501
REMARK  4 active torsions:
REMARK  status: ('A' for Active; 'I' for Inactive)
REMARK    1  A    between atoms: C1_2  and  C5_10 
REMARK    2  A    between atoms: C2_3  and  C3_4 
REMARK       I    between atoms: C3_4  and  N2_6 
REMARK    3  A    between atoms: N2_6  and  C4_8 
REMARK    4  A    between atoms: C5_10  and  O3_11 
ROOT
HETATM    1  N1  UNL     1      -8.119  19.179   8.998  1.00  0.00    -0.105 NA
HETATM    2  C1  UNL     1      -8.968  19.286  10.157  1.00  0.00     0.052 C 
HETATM    3  C2  UNL     1      -9.918  18.417  10.264  1.00  0.00     0.098 C 
ENDROOT
BRANCH   3   4
HETATM    4  C3  UNL     1     -10.925  18.253  11.287  1.00  0.00     0.248 C 
HETATM    5  O1  UNL     1     -11.709  19.141  11.604  1.00  0.00    -0.268 OA
HETATM    6  N2  UNL     1     -10.993  16.978  11.957  1.00  0.00    -0.301 N 
ATOM      7  H2  UNL     1     -10.354  16.220  11.716  1.00  0.00     0.171 HD
BRANCH   6   8
HETATM    8  C4  UNL     1     -11.969  16.817  12.952  1.00  0.00     0.355 C 
HETATM    9  O2  UNL     1     -11.645  16.537  14.132  1.00  0.00    -0.283 OA
ENDBRANCH   6   8
ENDBRANCH   3   4
BRANCH   2  10
HETATM   10  C5  UNL     1      -8.690  20.362  11.114  1.00  0.00     0.218 C 
BRANCH  10  11
HETATM   11  O3  UNL     1      -9.679  21.373  11.056  1.00  0.00    -0.395 OA
ATOM     12  H3  UNL     1      -9.466  22.099  11.631  1.00  0.00     0.209 HD
ENDBRANCH  10  11
ENDBRANCH   2  10
TORSDOF 4
ENDMDL
