MODEL 1
REMARK VINA RESULT: -9.006130175      0.000      0.000
REMARK  3 active torsions:
REMARK  status: ('A' for Active; 'I' for Inactive)
REMARK    1  A    between atoms: C3_4  and  C4_5 
REMARK    2  A    between atoms: C4_5  and  N2_6 
REMARK       I    between atoms: N2_6  and  C5_8 
REMARK       I    between atoms: C5_8  and  N3_10 
REMARK    3  A    between atoms: N3_10  and  C6_12 
ROOT
HETATM    1  N2  UNL     1      -7.741  21.541  11.533  1.00  0.00    -0.339 N 
ATOM      2  H2  UNL     1      -7.929  21.842  10.577  1.00  0.00     0.164 HD
HETATM    3  C5  UNL     1      -8.502  20.432  12.065  1.00  0.00     0.320 C 
HETATM    4  O1  UNL     1      -8.225  20.103  13.239  1.00  0.00    -0.247 OA
HETATM    5  N3  UNL     1      -9.455  19.828  11.268  1.00  0.00    -0.309 N 
ATOM      6  H3  UNL     1      -9.571  20.199  10.325  1.00  0.00     0.170 HD
ENDROOT
BRANCH   1   7
HETATM    7  C4  UNL     1      -6.744  22.235  12.274  1.00  0.00     0.165 C 
BRANCH   7   8
HETATM    8  C3  UNL     1      -7.272  23.232  13.232  1.00  0.00    -0.012 A 
HETATM    9  C2  UNL     1      -7.969  24.389  12.994  1.00  0.00     0.100 A 
HETATM   10  N1  UNL     1      -8.207  24.960  14.188  1.00  0.00    -0.360 N 
HETATM   11  C1  UNL     1      -8.924  26.208  14.359  1.00  0.00     0.155 C 
HETATM   12  C21 UNL     1      -7.706  24.250  15.195  1.00  0.00     0.044 A 
HETATM   13  C16 UNL     1      -7.109  23.151  14.619  1.00  0.00    -0.000 A 
HETATM   14  C20 UNL     1      -7.669  24.383  16.579  1.00  0.00     0.030 A 
HETATM   15  C17 UNL     1      -6.493  22.218  15.441  1.00  0.00     0.014 A 
HETATM   16  C18 UNL     1      -6.464  22.362  16.811  1.00  0.00     0.001 A 
HETATM   17  C19 UNL     1      -7.058  23.458  17.394  1.00  0.00     0.002 A 
ENDBRANCH   7   8
ENDBRANCH   1   7
BRANCH   5  18
HETATM   18  C6  UNL     1     -10.281  18.751  11.634  1.00  0.00     0.037 A 
HETATM   19  C7  UNL     1     -11.540  19.030  12.208  1.00  0.00     0.030 A 
HETATM   20  C8  UNL     1     -12.394  18.037  12.601  1.00  0.00     0.014 A 
HETATM   21  C9  UNL     1     -12.088  16.707  12.464  1.00  0.00    -0.026 A 
HETATM   22  C10 UNL     1     -12.922  15.691  12.846  1.00  0.00     0.012 A 
HETATM   23  C14 UNL     1     -10.869  16.407  11.907  1.00  0.00    -0.024 A 
HETATM   24  C11 UNL     1     -12.560  14.366  12.684  1.00  0.00     0.001 A 
HETATM   25  C12 UNL     1     -11.345  14.035  12.130  1.00  0.00     0.001 A 
HETATM   26  C13 UNL     1     -10.521  15.070  11.752  1.00  0.00     0.012 A 
HETATM   27  C15 UNL     1      -9.986  17.416  11.502  1.00  0.00     0.042 A 
ENDBRANCH   5  18
TORSDOF 3
ENDMDL
MODEL 2
REMARK VINA RESULT: -8.479557098      0.767      1.531
REMARK  3 active torsions:
REMARK  status: ('A' for Active; 'I' for Inactive)
REMARK    1  A    between atoms: C3_4  and  C4_5 
REMARK    2  A    between atoms: C4_5  and  N2_6 
REMARK       I    between atoms: N2_6  and  C5_8 
REMARK       I    between atoms: C5_8  and  N3_10 
REMARK    3  A    between atoms: N3_10  and  C6_12 
ROOT
HETATM    1  N2  UNL     1      -7.124  21.647  11.636  1.00  0.00    -0.339 N 
ATOM      2  H2  UNL     1      -7.238  21.813  10.637  1.00  0.00     0.164 HD
HETATM    3  C5  UNL     1      -7.845  20.545  12.235  1.00  0.00     0.320 C 
HETATM    4  O1  UNL     1      -7.663  20.384  13.461  1.00  0.00    -0.247 OA
HETATM    5  N3  UNL     1      -8.663  19.767  11.438  1.00  0.00    -0.309 N 
ATOM      6  H3  UNL     1      -8.711  20.011  10.449  1.00  0.00     0.170 HD
ENDROOT
BRANCH   1   7
HETATM    7  C4  UNL     1      -6.265  22.511  12.371  1.00  0.00     0.165 C 
BRANCH   7   8
HETATM    8  C3  UNL     1      -6.963  23.448  13.279  1.00  0.00    -0.012 A 
HETATM    9  C2  UNL     1      -7.724  24.550  12.982  1.00  0.00     0.100 A 
HETATM   10  N1  UNL     1      -8.124  25.081  14.151  1.00  0.00    -0.360 N 
HETATM   11  C1  UNL     1      -8.953  26.265  14.259  1.00  0.00     0.155 C 
HETATM   12  C21 UNL     1      -7.671  24.396  15.197  1.00  0.00     0.044 A 
HETATM   13  C16 UNL     1      -6.934  23.357  14.675  1.00  0.00    -0.000 A 
HETATM   14  C20 UNL     1      -7.783  24.508  16.579  1.00  0.00     0.030 A 
HETATM   15  C17 UNL     1      -6.329  22.462  15.547  1.00  0.00     0.014 A 
HETATM   16  C18 UNL     1      -6.449  22.585  16.914  1.00  0.00     0.001 A 
HETATM   17  C19 UNL     1      -7.184  23.620  17.443  1.00  0.00     0.002 A 
ENDBRANCH   7   8
ENDBRANCH   1   7
BRANCH   5  18
HETATM   18  C6  UNL     1      -9.434  18.670  11.862  1.00  0.00     0.037 A 
HETATM   19  C7  UNL     1      -8.777  17.457  12.157  1.00  0.00     0.030 A 
HETATM   20  C8  UNL     1      -9.457  16.342  12.563  1.00  0.00     0.014 A 
HETATM   21  C9  UNL     1     -10.821  16.328  12.711  1.00  0.00    -0.026 A 
HETATM   22  C10 UNL     1     -11.532  15.230  13.116  1.00  0.00     0.012 A 
HETATM   23  C14 UNL     1     -11.486  17.496  12.431  1.00  0.00    -0.024 A 
HETATM   24  C11 UNL     1     -12.907  15.273  13.248  1.00  0.00     0.001 A 
HETATM   25  C12 UNL     1     -13.600  16.430  12.974  1.00  0.00     0.001 A 
HETATM   26  C13 UNL     1     -12.870  17.522  12.569  1.00  0.00     0.012 A 
HETATM   27  C15 UNL     1     -10.798  18.643  12.014  1.00  0.00     0.042 A 
ENDBRANCH   5  18
TORSDOF 3
ENDMDL
MODEL 3
REMARK VINA RESULT: -8.333499583      0.801      1.550
REMARK  3 active torsions:
REMARK  status: ('A' for Active; 'I' for Inactive)
REMARK    1  A    between atoms: C3_4  and  C4_5 
REMARK    2  A    between atoms: C4_5  and  N2_6 
REMARK       I    between atoms: N2_6  and  C5_8 
REMARK       I    between atoms: C5_8  and  N3_10 
REMARK    3  A    between atoms: N3_10  and  C6_12 
ROOT
HETATM    1  N2  UNL     1      -8.161  22.499  11.281  1.00  0.00    -0.339 N 
ATOM      2  H2  UNL     1      -8.679  23.002  10.561  1.00  0.00     0.164 HD
HETATM    3  C5  UNL     1      -8.567  21.148  11.601  1.00  0.00     0.320 C 
HETATM    4  O1  UNL     1      -7.892  20.578  12.487  1.00  0.00    -0.247 OA
HETATM    5  N3  UNL     1      -9.639  20.593  10.931  1.00  0.00    -0.309 N 
ATOM      6  H3  UNL     1     -10.094  21.174  10.227  1.00  0.00     0.170 HD
ENDROOT
BRANCH   1   7
HETATM    7  C4  UNL     1      -7.076  23.163  11.919  1.00  0.00     0.165 C 
BRANCH   7   8
HETATM    8  C3  UNL     1      -7.453  23.946  13.118  1.00  0.00    -0.012 A 
HETATM    9  C2  UNL     1      -8.062  25.171  13.206  1.00  0.00     0.100 A 
HETATM   10  N1  UNL     1      -8.171  25.465  14.514  1.00  0.00    -0.360 N 
HETATM   11  C1  UNL     1      -8.767  26.685  15.021  1.00  0.00     0.155 C 
HETATM   12  C21 UNL     1      -7.669  24.509  15.289  1.00  0.00     0.044 A 
HETATM   13  C16 UNL     1      -7.207  23.535  14.433  1.00  0.00    -0.000 A 
HETATM   14  C20 UNL     1      -7.529  24.314  16.660  1.00  0.00     0.030 A 
HETATM   15  C17 UNL     1      -6.619  22.397  14.968  1.00  0.00     0.014 A 
HETATM   16  C18 UNL     1      -6.489  22.218  16.329  1.00  0.00     0.001 A 
HETATM   17  C19 UNL     1      -6.947  23.186  17.190  1.00  0.00     0.002 A 
ENDBRANCH   7   8
ENDBRANCH   1   7
BRANCH   5  18
HETATM   18  C6  UNL     1     -10.163  19.304  11.127  1.00  0.00     0.037 A 
HETATM   19  C7  UNL     1      -9.587  18.226  10.421  1.00  0.00     0.030 A 
HETATM   20  C8  UNL     1     -10.048  16.945  10.548  1.00  0.00     0.014 A 
HETATM   21  C9  UNL     1     -11.098  16.621  11.369  1.00  0.00    -0.026 A 
HETATM   22  C10 UNL     1     -11.582  15.348  11.519  1.00  0.00     0.012 A 
HETATM   23  C14 UNL     1     -11.677  17.650  12.069  1.00  0.00    -0.024 A 
HETATM   24  C11 UNL     1     -12.644  15.079  12.362  1.00  0.00     0.001 A 
HETATM   25  C12 UNL     1     -13.245  16.091  13.075  1.00  0.00     0.001 A 
HETATM   26  C13 UNL     1     -12.745  17.362  12.911  1.00  0.00     0.012 A 
HETATM   27  C15 UNL     1     -11.213  18.966  11.945  1.00  0.00     0.042 A 
ENDBRANCH   5  18
TORSDOF 3
ENDMDL
MODEL 4
REMARK VINA RESULT: -8.249396201      0.899      2.079
REMARK  3 active torsions:
REMARK  status: ('A' for Active; 'I' for Inactive)
REMARK    1  A    between atoms: C3_4  and  C4_5 
REMARK    2  A    between atoms: C4_5  and  N2_6 
REMARK       I    between atoms: N2_6  and  C5_8 
REMARK       I    between atoms: C5_8  and  N3_10 
REMARK    3  A    between atoms: N3_10  and  C6_12 
ROOT
HETATM    1  N2  UNL     1      -8.387  21.635  11.378  1.00  0.00    -0.339 N 
ATOM      2  H2  UNL     1      -8.967  22.204  10.762  1.00  0.00     0.164 HD
HETATM    3  C5  UNL     1      -8.894  20.348  11.803  1.00  0.00     0.320 C 
HETATM    4  O1  UNL     1      -8.138  19.692  12.552  1.00  0.00    -0.247 OA
HETATM    5  N3  UNL     1     -10.141  19.942  11.368  1.00  0.00    -0.309 N 
ATOM      6  H3  UNL     1     -10.646  20.580  10.754  1.00  0.00     0.170 HD
ENDROOT
BRANCH   1   7
HETATM    7  C4  UNL     1      -7.120  22.147  11.776  1.00  0.00     0.165 C 
BRANCH   7   8
HETATM    8  C3  UNL     1      -7.036  22.544  13.199  1.00  0.00    -0.012 A 
HETATM    9  C2  UNL     1      -6.516  21.861  14.268  1.00  0.00     0.100 A 
HETATM   10  N1  UNL     1      -6.694  22.633  15.355  1.00  0.00    -0.360 N 
HETATM   11  C1  UNL     1      -6.273  22.257  16.691  1.00  0.00     0.155 C 
HETATM   12  C21 UNL     1      -7.300  23.780  15.065  1.00  0.00     0.044 A 
HETATM   13  C16 UNL     1      -7.529  23.751  13.708  1.00  0.00    -0.000 A 
HETATM   14  C20 UNL     1      -7.711  24.895  15.789  1.00  0.00     0.030 A 
HETATM   15  C17 UNL     1      -8.161  24.835  13.113  1.00  0.00     0.014 A 
HETATM   16  C18 UNL     1      -8.561  25.933  13.843  1.00  0.00     0.001 A 
HETATM   17  C19 UNL     1      -8.336  25.969  15.199  1.00  0.00     0.002 A 
ENDBRANCH   7   8
ENDBRANCH   1   7
BRANCH   5  18
HETATM   18  C6  UNL     1     -10.779  18.733  11.694  1.00  0.00     0.037 A 
HETATM   19  C7  UNL     1     -12.041  18.784  12.325  1.00  0.00     0.030 A 
HETATM   20  C8  UNL     1     -12.720  17.652  12.683  1.00  0.00     0.014 A 
HETATM   21  C9  UNL     1     -12.223  16.394  12.454  1.00  0.00    -0.026 A 
HETATM   22  C10 UNL     1     -12.878  15.243  12.800  1.00  0.00     0.012 A 
HETATM   23  C14 UNL     1     -10.997  16.315  11.841  1.00  0.00    -0.024 A 
HETATM   24  C11 UNL     1     -12.328  14.000  12.545  1.00  0.00     0.001 A 
HETATM   25  C12 UNL     1     -11.101  13.890  11.932  1.00  0.00     0.001 A 
HETATM   26  C13 UNL     1     -10.459  15.057  11.592  1.00  0.00     0.012 A 
HETATM   27  C15 UNL     1     -10.294  17.468  11.470  1.00  0.00     0.042 A 
ENDBRANCH   5  18
TORSDOF 3
ENDMDL
MODEL 5
REMARK VINA RESULT: -8.140591803      1.383      8.041
REMARK  3 active torsions:
REMARK  status: ('A' for Active; 'I' for Inactive)
REMARK    1  A    between atoms: C3_4  and  C4_5 
REMARK    2  A    between atoms: C4_5  and  N2_6 
REMARK       I    between atoms: N2_6  and  C5_8 
REMARK       I    between atoms: C5_8  and  N3_10 
REMARK    3  A    between atoms: N3_10  and  C6_12 
ROOT
HETATM    1  N2  UNL     1      -8.511  19.535  11.211  1.00  0.00    -0.339 N 
ATOM      2  H2  UNL     1      -8.199  20.145  10.456  1.00  0.00     0.164 HD
HETATM    3  C5  UNL     1      -8.379  20.007  12.573  1.00  0.00     0.320 C 
HETATM    4  O1  UNL     1      -8.785  19.221  13.457  1.00  0.00    -0.247 OA
HETATM    5  N3  UNL     1      -7.831  21.254  12.800  1.00  0.00    -0.309 N 
ATOM      6  H3  UNL     1      -7.548  21.791  11.980  1.00  0.00     0.170 HD
ENDROOT
BRANCH   1   7
HETATM    7  C4  UNL     1      -9.054  18.264  10.872  1.00  0.00     0.165 C 
BRANCH   7   8
HETATM    8  C3  UNL     1     -10.433  18.034  11.359  1.00  0.00    -0.012 A 
HETATM    9  C2  UNL     1     -11.490  18.904  11.435  1.00  0.00     0.100 A 
HETATM   10  N1  UNL     1     -12.523  18.226  11.966  1.00  0.00    -0.360 N 
HETATM   11  C1  UNL     1     -13.831  18.804  12.208  1.00  0.00     0.155 C 
HETATM   12  C21 UNL     1     -12.207  16.965  12.246  1.00  0.00     0.044 A 
HETATM   13  C16 UNL     1     -10.891  16.815  11.872  1.00  0.00    -0.000 A 
HETATM   14  C20 UNL     1     -12.877  15.872  12.788  1.00  0.00     0.030 A 
HETATM   15  C17 UNL     1     -10.281  15.582  12.051  1.00  0.00     0.014 A 
HETATM   16  C18 UNL     1     -10.957  14.507  12.589  1.00  0.00     0.001 A 
HETATM   17  C19 UNL     1     -12.272  14.649  12.964  1.00  0.00     0.002 A 
ENDBRANCH   7   8
ENDBRANCH   1   7
BRANCH   5  18
HETATM   18  C6  UNL     1      -7.627  21.854  14.055  1.00  0.00     0.037 A 
HETATM   19  C7  UNL     1      -7.368  23.241  14.106  1.00  0.00     0.030 A 
HETATM   20  C8  UNL     1      -7.146  23.895  15.286  1.00  0.00     0.014 A 
HETATM   21  C9  UNL     1      -7.161  23.250  16.497  1.00  0.00    -0.026 A 
HETATM   22  C10 UNL     1      -6.944  23.877  17.695  1.00  0.00     0.012 A 
HETATM   23  C14 UNL     1      -7.411  21.901  16.477  1.00  0.00    -0.024 A 
HETATM   24  C11 UNL     1      -6.971  23.176  18.887  1.00  0.00     0.001 A 
HETATM   25  C12 UNL     1      -7.218  21.823  18.897  1.00  0.00     0.001 A 
HETATM   26  C13 UNL     1      -7.434  21.211  17.684  1.00  0.00     0.012 A 
HETATM   27  C15 UNL     1      -7.639  21.221  15.273  1.00  0.00     0.042 A 
ENDBRANCH   5  18
TORSDOF 3
ENDMDL
