MODEL 1
REMARK VINA RESULT: -5.819601185      0.000      0.000
REMARK  5 active torsions:
REMARK  status: ('A' for Active; 'I' for Inactive)
REMARK    1  A    between atoms: C2_5  and  S1_6 
REMARK    2  A    between atoms: S1_6  and  C3_7 
REMARK    3  A    between atoms: C3_7  and  C4_8 
REMARK    4  A    between atoms: C4_8  and  O2_9 
REMARK    5  A    between atoms: C5_13  and  C6_14 
ROOT
HETATM    1  O1  UNL     1      11.580 -20.075   0.564  1.00  0.00    -0.247 OA
HETATM    2  C1  UNL     1      10.465 -20.067  -0.023  1.00  0.00     0.327 A 
HETATM    3  N1  UNL     1      10.357 -19.414  -1.190  1.00  0.00    -0.289 N 
ATOM      4  H1  UNL     1      11.162 -18.934  -1.593  1.00  0.00     0.172 HD
HETATM    5  C2  UNL     1       9.175 -19.404  -1.815  1.00  0.00     0.149 A 
HETATM    6  N2  UNL     1       8.133 -20.062  -1.227  1.00  0.00    -0.322 N 
ATOM      7  H2  UNL     1       7.225 -20.061  -1.693  1.00  0.00     0.169 HD
HETATM    8  C5  UNL     1       8.259 -20.703  -0.069  1.00  0.00     0.128 A 
HETATM    9  N3  UNL     1       9.429 -20.711   0.544  1.00  0.00    -0.293 N 
ATOM     10  H3  UNL     1       9.545 -21.198   1.432  1.00  0.00     0.172 HD
ENDROOT
BRANCH   5  11
HETATM   11  S1  UNL     1       8.816 -18.610  -3.358  1.00  0.00    -0.092 SA
BRANCH  11  12
HETATM   12  C3  UNL     1       9.326 -16.910  -3.470  1.00  0.00     0.108 C 
BRANCH  12  13
HETATM   13  C4  UNL     1      10.797 -16.771  -3.701  1.00  0.00     0.174 C 
BRANCH  13  14
HETATM   14  O2  UNL     1      11.522 -16.840  -2.541  1.00  0.00    -0.400 OA
ATOM     15  H2  UNL     1      11.742 -17.731  -2.298  1.00  0.00     0.209 HD
ENDBRANCH  13  14
ENDBRANCH  12  13
ENDBRANCH  11  12
ENDBRANCH   5  11
BRANCH   8  16
HETATM   16  C6  UNL     1       7.027 -21.388   0.449  1.00  0.00     0.042 A 
HETATM   17  C7  UNL     1       5.807 -21.106   0.277  1.00  0.00     0.006 A 
HETATM   18  C8  UNL     1       5.204 -22.150   1.035  1.00  0.00     0.108 A 
HETATM   19  S2  UNL     1       6.763 -22.781   1.442  1.00  0.00    -0.123 SA
ENDBRANCH   8  16
TORSDOF 5
ENDMDL
MODEL 2
REMARK VINA RESULT: -5.785847476      3.863      4.357
REMARK  5 active torsions:
REMARK  status: ('A' for Active; 'I' for Inactive)
REMARK    1  A    between atoms: C2_5  and  S1_6 
REMARK    2  A    between atoms: S1_6  and  C3_7 
REMARK    3  A    between atoms: C3_7  and  C4_8 
REMARK    4  A    between atoms: C4_8  and  O2_9 
REMARK    5  A    between atoms: C5_13  and  C6_14 
ROOT
HETATM    1  O1  UNL     1       7.895 -23.047   2.277  1.00  0.00    -0.247 OA
HETATM    2  C1  UNL     1       7.624 -22.566   1.145  1.00  0.00     0.327 A 
HETATM    3  N1  UNL     1       7.530 -21.233   1.019  1.00  0.00    -0.289 N 
ATOM      4  H1  UNL     1       7.676 -20.623   1.824  1.00  0.00     0.172 HD
HETATM    5  C2  UNL     1       7.242 -20.719  -0.181  1.00  0.00     0.149 A 
HETATM    6  N2  UNL     1       7.056 -21.583  -1.222  1.00  0.00    -0.322 N 
ATOM      7  H2  UNL     1       6.835 -21.205  -2.143  1.00  0.00     0.169 HD
HETATM    8  C5  UNL     1       7.153 -22.902  -1.077  1.00  0.00     0.128 A 
HETATM    9  N3  UNL     1       7.438 -23.405   0.110  1.00  0.00    -0.293 N 
ATOM     10  H3  UNL     1       7.517 -24.413   0.241  1.00  0.00     0.172 HD
ENDROOT
BRANCH   5  11
HETATM   11  S1  UNL     1       7.076 -18.997  -0.568  1.00  0.00    -0.092 SA
BRANCH  11  12
HETATM   12  C3  UNL     1       6.094 -18.638  -2.008  1.00  0.00     0.108 C 
BRANCH  12  13
HETATM   13  C4  UNL     1       5.754 -17.187  -2.117  1.00  0.00     0.174 C 
BRANCH  13  14
HETATM   14  O2  UNL     1       5.247 -16.674  -0.951  1.00  0.00    -0.400 OA
ATOM     15  H2  UNL     1       5.242 -15.725  -0.940  1.00  0.00     0.209 HD
ENDBRANCH  13  14
ENDBRANCH  12  13
ENDBRANCH  11  12
ENDBRANCH   5  11
BRANCH   8  16
HETATM   16  C6  UNL     1       6.931 -23.725  -2.314  1.00  0.00     0.042 A 
HETATM   17  C7  UNL     1       6.904 -24.979  -2.461  1.00  0.00     0.006 A 
HETATM   18  C8  UNL     1       6.652 -25.057  -3.861  1.00  0.00     0.108 A 
HETATM   19  S2  UNL     1       6.627 -23.330  -3.971  1.00  0.00    -0.123 SA
ENDBRANCH   8  16
TORSDOF 5
ENDMDL
MODEL 3
REMARK VINA RESULT: -5.701333573      1.946      2.022
REMARK  5 active torsions:
REMARK  status: ('A' for Active; 'I' for Inactive)
REMARK    1  A    between atoms: C2_5  and  S1_6 
REMARK    2  A    between atoms: S1_6  and  C3_7 
REMARK    3  A    between atoms: C3_7  and  C4_8 
REMARK    4  A    between atoms: C4_8  and  O2_9 
REMARK    5  A    between atoms: C5_13  and  C6_14 
ROOT
HETATM    1  O1  UNL     1      11.581 -20.079   0.598  1.00  0.00    -0.247 OA
HETATM    2  C1  UNL     1      10.472 -20.078  -0.001  1.00  0.00     0.327 A 
HETATM    3  N1  UNL     1      10.376 -19.436  -1.175  1.00  0.00    -0.289 N 
ATOM      4  H1  UNL     1      11.185 -18.958  -1.573  1.00  0.00     0.172 HD
HETATM    5  C2  UNL     1       9.201 -19.433  -1.812  1.00  0.00     0.149 A 
HETATM    6  N2  UNL     1       8.153 -20.088  -1.231  1.00  0.00    -0.322 N 
ATOM      7  H2  UNL     1       7.251 -20.093  -1.706  1.00  0.00     0.169 HD
HETATM    8  C5  UNL     1       8.268 -20.719  -0.066  1.00  0.00     0.128 A 
HETATM    9  N3  UNL     1       9.431 -20.720   0.560  1.00  0.00    -0.293 N 
ATOM     10  H3  UNL     1       9.539 -21.198   1.454  1.00  0.00     0.172 HD
ENDROOT
BRANCH   5  11
HETATM   11  S1  UNL     1       8.857 -18.653  -3.367  1.00  0.00    -0.092 SA
BRANCH  11  12
HETATM   12  C3  UNL     1       9.784 -19.281  -4.748  1.00  0.00     0.108 C 
BRANCH  12  13
HETATM   13  C4  UNL     1       9.038 -20.334  -5.503  1.00  0.00     0.174 C 
BRANCH  13  14
HETATM   14  O2  UNL     1       9.870 -21.238  -6.109  1.00  0.00    -0.400 OA
ATOM     15  H2  UNL     1       9.629 -21.410  -7.012  1.00  0.00     0.209 HD
ENDBRANCH  13  14
ENDBRANCH  12  13
ENDBRANCH  11  12
ENDBRANCH   5  11
BRANCH   8  16
HETATM   16  C6  UNL     1       7.031 -21.402   0.445  1.00  0.00     0.042 A 
HETATM   17  C7  UNL     1       5.814 -21.115   0.269  1.00  0.00     0.006 A 
HETATM   18  C8  UNL     1       5.204 -22.160   1.021  1.00  0.00     0.108 A 
HETATM   19  S2  UNL     1       6.760 -22.797   1.432  1.00  0.00    -0.123 SA
ENDBRANCH   8  16
TORSDOF 5
ENDMDL
MODEL 4
REMARK VINA RESULT: -5.675174555      2.538      5.341
REMARK  5 active torsions:
REMARK  status: ('A' for Active; 'I' for Inactive)
REMARK    1  A    between atoms: C2_5  and  S1_6 
REMARK    2  A    between atoms: S1_6  and  C3_7 
REMARK    3  A    between atoms: C3_7  and  C4_8 
REMARK    4  A    between atoms: C4_8  and  O2_9 
REMARK    5  A    between atoms: C5_13  and  C6_14 
ROOT
HETATM    1  O1  UNL     1      11.468 -19.961   0.573  1.00  0.00    -0.247 OA
HETATM    2  C1  UNL     1      10.301 -20.307   0.248  1.00  0.00     0.327 A 
HETATM    3  N1  UNL     1       9.601 -21.078   1.095  1.00  0.00    -0.289 N 
ATOM      4  H1  UNL     1      10.007 -21.377   1.982  1.00  0.00     0.172 HD
HETATM    5  C2  UNL     1       8.361 -21.447   0.754  1.00  0.00     0.149 A 
HETATM    6  N2  UNL     1       7.871 -21.018  -0.446  1.00  0.00    -0.322 N 
ATOM      7  H2  UNL     1       6.927 -21.292  -0.719  1.00  0.00     0.169 HD
HETATM    8  C5  UNL     1       8.581 -20.254  -1.272  1.00  0.00     0.128 A 
HETATM    9  N3  UNL     1       9.804 -19.892  -0.930  1.00  0.00    -0.293 N 
ATOM     10  H3  UNL     1      10.364 -19.307  -1.550  1.00  0.00     0.172 HD
ENDROOT
BRANCH   5  11
HETATM   11  S1  UNL     1       7.268 -22.453   1.720  1.00  0.00    -0.092 SA
BRANCH  11  12
HETATM   12  C3  UNL     1       5.611 -22.591   1.087  1.00  0.00     0.108 C 
BRANCH  12  13
HETATM   13  C4  UNL     1       4.862 -21.300   1.168  1.00  0.00     0.174 C 
BRANCH  13  14
HETATM   14  O2  UNL     1       3.586 -21.459   1.639  1.00  0.00    -0.400 OA
ATOM     15  H2  UNL     1       2.966 -20.870   1.225  1.00  0.00     0.209 HD
ENDBRANCH  13  14
ENDBRANCH  12  13
ENDBRANCH  11  12
ENDBRANCH   5  11
BRANCH   8  16
HETATM   16  C6  UNL     1       7.905 -19.854  -2.553  1.00  0.00     0.042 A 
HETATM   17  C7  UNL     1       7.260 -20.553  -3.384  1.00  0.00     0.006 A 
HETATM   18  C8  UNL     1       6.911 -19.549  -4.332  1.00  0.00     0.108 A 
HETATM   19  S2  UNL     1       7.725 -18.349  -3.387  1.00  0.00    -0.123 SA
ENDBRANCH   8  16
TORSDOF 5
ENDMDL
MODEL 5
REMARK VINA RESULT: -5.603914993      2.360      2.865
REMARK  5 active torsions:
REMARK  status: ('A' for Active; 'I' for Inactive)
REMARK    1  A    between atoms: C2_5  and  S1_6 
REMARK    2  A    between atoms: S1_6  and  C3_7 
REMARK    3  A    between atoms: C3_7  and  C4_8 
REMARK    4  A    between atoms: C4_8  and  O2_9 
REMARK    5  A    between atoms: C5_13  and  C6_14 
ROOT
HETATM    1  O1  UNL     1       5.550 -17.083  -0.941  1.00  0.00    -0.247 OA
HETATM    2  C1  UNL     1       6.526 -17.877  -0.993  1.00  0.00     0.327 A 
HETATM    3  N1  UNL     1       7.593 -17.538  -1.733  1.00  0.00    -0.289 N 
ATOM      4  H1  UNL     1       7.611 -16.655  -2.244  1.00  0.00     0.172 HD
HETATM    5  C2  UNL     1       8.631 -18.379  -1.790  1.00  0.00     0.149 A 
HETATM    6  N2  UNL     1       8.549 -19.547  -1.088  1.00  0.00    -0.322 N 
ATOM      7  H2  UNL     1       9.334 -20.198  -1.123  1.00  0.00     0.169 HD
HETATM    8  C5  UNL     1       7.483 -19.866  -0.359  1.00  0.00     0.128 A 
HETATM    9  N3  UNL     1       6.461 -19.032  -0.306  1.00  0.00    -0.293 N 
ATOM     10  H3  UNL     1       5.635 -19.259   0.247  1.00  0.00     0.172 HD
ENDROOT
BRANCH   5  11
HETATM   11  S1  UNL     1      10.131 -18.127  -2.700  1.00  0.00    -0.092 SA
BRANCH  11  12
HETATM   12  C3  UNL     1      10.045 -16.885  -3.969  1.00  0.00     0.108 C 
BRANCH  12  13
HETATM   13  C4  UNL     1      10.377 -15.521  -3.454  1.00  0.00     0.174 C 
BRANCH  13  14
HETATM   14  O2  UNL     1       9.561 -15.133  -2.424  1.00  0.00    -0.400 OA
ATOM     15  H2  UNL     1       9.116 -14.312  -2.599  1.00  0.00     0.209 HD
ENDBRANCH  13  14
ENDBRANCH  12  13
ENDBRANCH  11  12
ENDBRANCH   5  11
BRANCH   8  16
HETATM   16  C6  UNL     1       7.542 -21.181   0.365  1.00  0.00     0.042 A 
HETATM   17  C7  UNL     1       7.732 -21.426   1.590  1.00  0.00     0.006 A 
HETATM   18  C8  UNL     1       7.663 -22.848   1.570  1.00  0.00     0.108 A 
HETATM   19  S2  UNL     1       7.379 -22.829  -0.137  1.00  0.00    -0.123 SA
ENDBRANCH   8  16
TORSDOF 5
ENDMDL
