MODEL 1
REMARK VINA RESULT: -6.875778884      0.000      0.000
REMARK  2 active torsions:
REMARK  status: ('A' for Active; 'I' for Inactive)
REMARK    1  A    between atoms: S1_2  and  N1_4 
REMARK    2  A    between atoms: N1_4  and  C1_6 
ROOT
HETATM    1  C1  UNL     1       7.357 -20.151  -2.186  1.00  0.00     0.130 A 
HETATM    2  N2  UNL     1       7.224 -20.020  -3.517  1.00  0.00    -0.318 N 
ATOM      3  H2  UNL     1       7.275 -19.098  -3.951  1.00  0.00     0.170 HD
HETATM    4  C2  UNL     1       7.023 -21.126  -4.279  1.00  0.00     0.177 A 
HETATM    5  S2  UNL     1       6.867 -20.929  -5.891  1.00  0.00    -0.040 SA
HETATM    6  N3  UNL     1       6.948 -22.358  -3.763  1.00  0.00    -0.332 N 
ATOM      7  H3  UNL     1       6.795 -23.157  -4.378  1.00  0.00     0.168 HD
HETATM    8  C3  UNL     1       7.074 -22.552  -2.426  1.00  0.00     0.048 A 
HETATM    9  C4  UNL     1       7.000 -23.805  -1.879  1.00  0.00     0.032 A 
HETATM   10  C5  UNL     1       7.128 -23.991  -0.527  1.00  0.00     0.026 A 
HETATM   11  C6  UNL     1       7.335 -22.861   0.260  1.00  0.00     0.035 A 
HETATM   12 CL1  UNL     1       7.500 -23.089   1.991  1.00  0.00    -0.084 Cl
HETATM   13  C7  UNL     1       7.411 -21.596  -0.282  1.00  0.00     0.041 A 
HETATM   14  C8  UNL     1       7.281 -21.413  -1.644  1.00  0.00     0.037 A 
ENDROOT
BRANCH   1  15
HETATM   15  N1  UNL     1       7.552 -19.129  -1.396  1.00  0.00    -0.255 N 
ATOM     16  H1  UNL     1       8.299 -19.171  -0.703  1.00  0.00     0.181 HD
BRANCH  15  17
HETATM   17  S1  UNL     1       6.580 -17.716  -1.500  1.00  0.00     0.360 S 
HETATM   18  O1  UNL     1       5.202 -18.138  -1.985  1.00  0.00    -0.187 OA
HETATM   19  O2  UNL     1       6.453 -17.073  -0.146  1.00  0.00    -0.187 OA
ENDBRANCH  15  17
ENDBRANCH   1  15
TORSDOF 2
ENDMDL
MODEL 2
REMARK VINA RESULT: -6.832132069      3.168      4.103
REMARK  2 active torsions:
REMARK  status: ('A' for Active; 'I' for Inactive)
REMARK    1  A    between atoms: S1_2  and  N1_4 
REMARK    2  A    between atoms: N1_4  and  C1_6 
ROOT
HETATM    1  C1  UNL     1       7.838 -21.384  -1.174  1.00  0.00     0.130 A 
HETATM    2  N2  UNL     1       7.983 -20.054  -1.038  1.00  0.00    -0.318 N 
ATOM      3  H2  UNL     1       8.288 -19.658  -0.148  1.00  0.00     0.170 HD
HETATM    4  C2  UNL     1       7.720 -19.243  -2.094  1.00  0.00     0.177 A 
HETATM    5  S2  UNL     1       7.907 -17.636  -1.893  1.00  0.00    -0.040 SA
HETATM    6  N3  UNL     1       7.317 -19.709  -3.283  1.00  0.00    -0.332 N 
ATOM      7  H3  UNL     1       7.132 -19.059  -4.046  1.00  0.00     0.168 HD
HETATM    8  C3  UNL     1       7.154 -21.042  -3.478  1.00  0.00     0.048 A 
HETATM    9  C4  UNL     1       6.743 -21.538  -4.687  1.00  0.00     0.032 A 
HETATM   10  C5  UNL     1       6.579 -22.885  -4.876  1.00  0.00     0.026 A 
HETATM   11  C6  UNL     1       6.848 -23.722  -3.796  1.00  0.00     0.035 A 
HETATM   12 CL1  UNL     1       6.642 -25.449  -4.028  1.00  0.00    -0.084 Cl
HETATM   13  C7  UNL     1       7.262 -23.232  -2.576  1.00  0.00     0.041 A 
HETATM   14  C8  UNL     1       7.425 -21.874  -2.389  1.00  0.00     0.037 A 
ENDROOT
BRANCH   1  15
HETATM   15  N1  UNL     1       8.075 -22.218  -0.197  1.00  0.00    -0.255 N 
ATOM     16  H1  UNL     1       8.481 -23.130  -0.408  1.00  0.00     0.181 HD
BRANCH  15  17
HETATM   17  S1  UNL     1       7.717 -21.816   1.435  1.00  0.00     0.360 S 
HETATM   18  O1  UNL     1       7.948 -23.060   2.279  1.00  0.00    -0.187 OA
HETATM   19  O2  UNL     1       8.630 -20.719   1.912  1.00  0.00    -0.187 OA
ENDBRANCH  15  17
ENDBRANCH   1  15
TORSDOF 2
ENDMDL
MODEL 3
REMARK VINA RESULT: -6.737793719      1.095      1.211
REMARK  2 active torsions:
REMARK  status: ('A' for Active; 'I' for Inactive)
REMARK    1  A    between atoms: S1_2  and  N1_4 
REMARK    2  A    between atoms: N1_4  and  C1_6 
ROOT
HETATM    1  C1  UNL     1       6.965 -19.473  -1.606  1.00  0.00     0.130 A 
HETATM    2  N2  UNL     1       6.858 -19.085  -2.889  1.00  0.00    -0.318 N 
ATOM      3  H2  UNL     1       6.715 -18.101  -3.119  1.00  0.00     0.170 HD
HETATM    4  C2  UNL     1       6.942 -20.014  -3.876  1.00  0.00     0.177 A 
HETATM    5  S2  UNL     1       6.808 -19.507  -5.420  1.00  0.00    -0.040 SA
HETATM    6  N3  UNL     1       7.129 -21.316  -3.631  1.00  0.00    -0.332 N 
ATOM      7  H3  UNL     1       7.185 -21.975  -4.408  1.00  0.00     0.168 HD
HETATM    8  C3  UNL     1       7.244 -21.766  -2.356  1.00  0.00     0.048 A 
HETATM    9  C4  UNL     1       7.436 -23.095  -2.086  1.00  0.00     0.032 A 
HETATM   10  C5  UNL     1       7.550 -23.541  -0.795  1.00  0.00     0.026 A 
HETATM   11  C6  UNL     1       7.465 -22.593   0.222  1.00  0.00     0.035 A 
HETATM   12 CL1  UNL     1       7.611 -23.154   1.878  1.00  0.00    -0.084 Cl
HETATM   13  C7  UNL     1       7.273 -21.254  -0.041  1.00  0.00     0.041 A 
HETATM   14  C8  UNL     1       7.157 -20.808  -1.343  1.00  0.00     0.037 A 
ENDROOT
BRANCH   1  15
HETATM   15  N1  UNL     1       6.893 -18.631  -0.611  1.00  0.00    -0.255 N 
ATOM     16  H1  UNL     1       7.000 -18.976   0.343  1.00  0.00     0.181 HD
BRANCH  15  17
HETATM   17  S1  UNL     1       6.622 -16.954  -0.871  1.00  0.00     0.360 S 
HETATM   18  O1  UNL     1       7.578 -16.495  -1.962  1.00  0.00    -0.187 OA
HETATM   19  O2  UNL     1       5.207 -16.720  -1.323  1.00  0.00    -0.187 OA
ENDBRANCH  15  17
ENDBRANCH   1  15
TORSDOF 2
ENDMDL
MODEL 4
REMARK VINA RESULT: -6.735766089      3.250      4.101
REMARK  2 active torsions:
REMARK  status: ('A' for Active; 'I' for Inactive)
REMARK    1  A    between atoms: S1_2  and  N1_4 
REMARK    2  A    between atoms: N1_4  and  C1_6 
ROOT
HETATM    1  C1  UNL     1       7.149 -21.474  -1.774  1.00  0.00     0.130 A 
HETATM    2  N2  UNL     1       7.299 -21.611  -0.445  1.00  0.00    -0.318 N 
ATOM      3  H2  UNL     1       7.426 -20.789   0.147  1.00  0.00     0.170 HD
HETATM    4  C2  UNL     1       7.282 -22.853   0.104  1.00  0.00     0.177 A 
HETATM    5  S2  UNL     1       7.467 -22.981   1.719  1.00  0.00    -0.040 SA
HETATM    6  N3  UNL     1       7.120 -23.964  -0.624  1.00  0.00    -0.332 N 
ATOM      7  H3  UNL     1       7.115 -24.875  -0.164  1.00  0.00     0.168 HD
HETATM    8  C3  UNL     1       6.964 -23.888  -1.969  1.00  0.00     0.048 A 
HETATM    9  C4  UNL     1       6.797 -25.013  -2.731  1.00  0.00     0.032 A 
HETATM   10  C5  UNL     1       6.641 -24.927  -4.090  1.00  0.00     0.026 A 
HETATM   11  C6  UNL     1       6.658 -23.656  -4.658  1.00  0.00     0.035 A 
HETATM   12 CL1  UNL     1       6.458 -23.535  -6.397  1.00  0.00    -0.084 Cl
HETATM   13  C7  UNL     1       6.825 -22.517  -3.900  1.00  0.00     0.041 A 
HETATM   14  C8  UNL     1       6.983 -22.609  -2.531  1.00  0.00     0.037 A 
ENDROOT
BRANCH   1  15
HETATM   15  N1  UNL     1       7.157 -20.309  -2.364  1.00  0.00    -0.255 N 
ATOM     16  H1  UNL     1       6.688 -20.203  -3.263  1.00  0.00     0.181 HD
BRANCH  15  17
HETATM   17  S1  UNL     1       7.937 -18.950  -1.659  1.00  0.00     0.360 S 
HETATM   18  O1  UNL     1       7.108 -18.511  -0.461  1.00  0.00    -0.187 OA
HETATM   19  O2  UNL     1       9.317 -19.327  -1.194  1.00  0.00    -0.187 OA
ENDBRANCH  15  17
ENDBRANCH   1  15
TORSDOF 2
ENDMDL
MODEL 5
REMARK VINA RESULT: -6.688915248      3.224      4.166
REMARK  2 active torsions:
REMARK  status: ('A' for Active; 'I' for Inactive)
REMARK    1  A    between atoms: S1_2  and  N1_4 
REMARK    2  A    between atoms: N1_4  and  C1_6 
ROOT
HETATM    1  C1  UNL     1       8.201 -19.948  -2.307  1.00  0.00     0.130 A 
HETATM    2  N2  UNL     1       8.525 -19.824  -1.009  1.00  0.00    -0.318 N 
ATOM      3  H2  UNL     1       8.973 -18.973  -0.669  1.00  0.00     0.170 HD
HETATM    4  C2  UNL     1       8.252 -20.842  -0.153  1.00  0.00     0.177 A 
HETATM    5  S2  UNL     1       8.658 -20.656   1.416  1.00  0.00    -0.040 SA
HETATM    6  N3  UNL     1       7.666 -21.980  -0.544  1.00  0.00    -0.332 N 
ATOM      7  H3  UNL     1       7.482 -22.716   0.138  1.00  0.00     0.168 HD
HETATM    8  C3  UNL     1       7.317 -22.161  -1.842  1.00  0.00     0.048 A 
HETATM    9  C4  UNL     1       6.717 -23.319  -2.262  1.00  0.00     0.032 A 
HETATM   10  C5  UNL     1       6.368 -23.495  -3.575  1.00  0.00     0.026 A 
HETATM   11  C6  UNL     1       6.646 -22.454  -4.458  1.00  0.00     0.035 A 
HETATM   12 CL1  UNL     1       6.203 -22.669  -6.142  1.00  0.00    -0.084 Cl
HETATM   13  C7  UNL     1       7.249 -21.286  -4.045  1.00  0.00     0.041 A 
HETATM   14  C8  UNL     1       7.600 -21.113  -2.721  1.00  0.00     0.037 A 
ENDROOT
BRANCH   1  15
HETATM   15  N1  UNL     1       8.437 -19.007  -3.182  1.00  0.00    -0.255 N 
ATOM     16  H1  UNL     1       7.794 -18.880  -3.963  1.00  0.00     0.181 HD
BRANCH  15  17
HETATM   17  S1  UNL     1       9.807 -17.978  -3.046  1.00  0.00     0.360 S 
HETATM   18  O1  UNL     1       9.431 -16.829  -2.122  1.00  0.00    -0.187 OA
HETATM   19  O2  UNL     1      10.966 -18.731  -2.454  1.00  0.00    -0.187 OA
ENDBRANCH  15  17
ENDBRANCH   1  15
TORSDOF 2
ENDMDL
