MODEL 1
REMARK VINA RESULT: -6.850333690      0.000      0.000
REMARK  3 active torsions:
REMARK  status: ('A' for Active; 'I' for Inactive)
REMARK       I    between atoms: C1_2  and  N1_4 
REMARK    1  A    between atoms: N1_4  and  C2_6 
REMARK    2  A    between atoms: C2_6  and  C3_7 
REMARK    3  A    between atoms: C6_11  and  C7_12 
ROOT
HETATM    1  C3  UNL     1       8.612 -18.619  -1.770  1.00  0.00     0.013 A 
HETATM    2  S1  UNL     1       7.859 -17.299  -2.558  1.00  0.00    -0.104 SA
HETATM    3  C4  UNL     1       6.394 -17.213  -1.693  1.00  0.00     0.051 A 
HETATM    4  C5  UNL     1       6.521 -18.238  -0.789  1.00  0.00     0.022 A 
HETATM    5  C6  UNL     1       7.651 -18.967  -0.815  1.00  0.00     0.014 A 
ENDROOT
BRANCH   5   6
HETATM    6  C7  UNL     1       7.907 -20.094   0.128  1.00  0.00     0.105 A 
HETATM    7  N2  UNL     1       8.701 -20.118   1.181  1.00  0.00    -0.290 N 
HETATM    8  N3  UNL     1       8.730 -21.147   1.935  1.00  0.00    -0.259 N 
ATOM      9  H2  UNL     1       9.292 -19.314   1.394  1.00  0.00     0.188 HD
HETATM   10  C8  UNL     1       7.947 -22.184   1.626  1.00  0.00     0.304 A 
ATOM     11  H3  UNL     1       9.337 -21.178   2.754  1.00  0.00     0.191 HD
HETATM   12  O2  UNL     1       7.838 -23.302   2.244  1.00  0.00    -0.258 OA
HETATM   13  S2  UNL     1       7.159 -21.624   0.210  1.00  0.00    -0.008 SA
ENDBRANCH   5   6
BRANCH   1  14
HETATM   14  C2  UNL     1       9.993 -19.117  -1.961  1.00  0.00     0.170 C 
BRANCH  14  15
HETATM   15  N1  UNL     1      10.826 -18.160  -2.616  1.00  0.00    -0.343 N 
HETATM   16  C1  UNL     1      11.559 -18.276  -3.798  1.00  0.00     0.314 C 
HETATM   17  O1  UNL     1      11.608 -19.290  -4.532  1.00  0.00    -0.254 OA
HETATM   18 CL1  UNL     1      12.533 -16.912  -4.361  1.00  0.00    -0.020 Cl
ATOM     19  H1  UNL     1      10.896 -17.256  -2.150  1.00  0.00     0.164 HD
ENDBRANCH  14  15
ENDBRANCH   1  14
TORSDOF 3
ENDMDL
MODEL 2
REMARK VINA RESULT: -6.677355140      3.269      3.465
REMARK  3 active torsions:
REMARK  status: ('A' for Active; 'I' for Inactive)
REMARK       I    between atoms: C1_2  and  N1_4 
REMARK    1  A    between atoms: N1_4  and  C2_6 
REMARK    2  A    between atoms: C2_6  and  C3_7 
REMARK    3  A    between atoms: C6_11  and  C7_12 
ROOT
HETATM    1  C3  UNL     1       7.689 -18.909  -2.201  1.00  0.00     0.013 A 
HETATM    2  S1  UNL     1       7.422 -17.323  -2.788  1.00  0.00    -0.104 SA
HETATM    3  C4  UNL     1       6.616 -16.629  -1.456  1.00  0.00     0.051 A 
HETATM    4  C5  UNL     1       6.568 -17.670  -0.562  1.00  0.00     0.022 A 
HETATM    5  C6  UNL     1       7.113 -18.843  -0.928  1.00  0.00     0.014 A 
ENDROOT
BRANCH   5   6
HETATM    6  C7  UNL     1       7.134 -20.038  -0.036  1.00  0.00     0.105 A 
HETATM    7  N2  UNL     1       6.225 -20.987   0.086  1.00  0.00    -0.290 N 
HETATM    8  N3  UNL     1       6.450 -21.992   0.839  1.00  0.00    -0.259 N 
ATOM      9  H2  UNL     1       5.343 -20.918  -0.421  1.00  0.00     0.188 HD
HETATM   10  C8  UNL     1       7.614 -22.050   1.493  1.00  0.00     0.304 A 
ATOM     11  H3  UNL     1       5.758 -22.735   0.940  1.00  0.00     0.191 HD
HETATM   12  O2  UNL     1       8.023 -22.961   2.296  1.00  0.00    -0.258 OA
HETATM   13  S2  UNL     1       8.380 -20.604   0.981  1.00  0.00    -0.008 SA
ENDBRANCH   5   6
BRANCH   1  14
HETATM   14  C2  UNL     1       8.483 -19.985  -2.836  1.00  0.00     0.170 C 
BRANCH  14  15
HETATM   15  N1  UNL     1       7.663 -20.914  -3.546  1.00  0.00    -0.343 N 
HETATM   16  C1  UNL     1       7.216 -22.180  -3.168  1.00  0.00     0.314 C 
HETATM   17  O1  UNL     1       7.463 -22.748  -2.078  1.00  0.00    -0.254 OA
HETATM   18 CL1  UNL     1       6.219 -23.125  -4.280  1.00  0.00    -0.020 Cl
ATOM     19  H1  UNL     1       7.359 -20.605  -4.469  1.00  0.00     0.164 HD
ENDBRANCH  14  15
ENDBRANCH   1  14
TORSDOF 3
ENDMDL
MODEL 3
REMARK VINA RESULT: -6.668154571      4.404      5.924
REMARK  3 active torsions:
REMARK  status: ('A' for Active; 'I' for Inactive)
REMARK       I    between atoms: C1_2  and  N1_4 
REMARK    1  A    between atoms: N1_4  and  C2_6 
REMARK    2  A    between atoms: C2_6  and  C3_7 
REMARK    3  A    between atoms: C6_11  and  C7_12 
ROOT
HETATM    1  C3  UNL     1       7.436 -20.031  -3.004  1.00  0.00     0.013 A 
HETATM    2  S1  UNL     1       7.259 -21.090  -4.337  1.00  0.00    -0.104 SA
HETATM    3  C4  UNL     1       6.502 -20.055  -5.459  1.00  0.00     0.051 A 
HETATM    4  C5  UNL     1       6.398 -18.879  -4.757  1.00  0.00     0.022 A 
HETATM    5  C6  UNL     1       6.872 -18.851  -3.499  1.00  0.00     0.014 A 
ENDROOT
BRANCH   5   6
HETATM    6  C7  UNL     1       6.828 -17.628  -2.647  1.00  0.00     0.105 A 
HETATM    7  N2  UNL     1       6.018 -17.357  -1.640  1.00  0.00    -0.290 N 
HETATM    8  N3  UNL     1       6.182 -16.292  -0.958  1.00  0.00    -0.259 N 
ATOM      9  H2  UNL     1       5.261 -18.000  -1.407  1.00  0.00     0.188 HD
HETATM   10  C8  UNL     1       7.180 -15.469  -1.293  1.00  0.00     0.304 A 
ATOM     11  H3  UNL     1       5.566 -16.072  -0.176  1.00  0.00     0.191 HD
HETATM   12  O2  UNL     1       7.503 -14.357  -0.744  1.00  0.00    -0.258 OA
HETATM   13  S2  UNL     1       7.883 -16.288  -2.626  1.00  0.00    -0.008 SA
ENDBRANCH   5   6
BRANCH   1  14
HETATM   14  C2  UNL     1       8.163 -20.285  -1.739  1.00  0.00     0.170 C 
BRANCH  14  15
HETATM   15  N1  UNL     1       7.449 -21.171  -0.875  1.00  0.00    -0.343 N 
HETATM   16  C1  UNL     1       6.267 -20.963  -0.164  1.00  0.00     0.314 C 
HETATM   17  O1  UNL     1       5.586 -19.910  -0.166  1.00  0.00    -0.254 OA
HETATM   18 CL1  UNL     1       5.623 -22.253   0.859  1.00  0.00    -0.020 Cl
ATOM     19  H1  UNL     1       7.867 -22.094  -0.761  1.00  0.00     0.164 HD
ENDBRANCH  14  15
ENDBRANCH   1  14
TORSDOF 3
ENDMDL
MODEL 4
REMARK VINA RESULT: -6.634708116      3.192      3.318
REMARK  3 active torsions:
REMARK  status: ('A' for Active; 'I' for Inactive)
REMARK       I    between atoms: C1_2  and  N1_4 
REMARK    1  A    between atoms: N1_4  and  C2_6 
REMARK    2  A    between atoms: C2_6  and  C3_7 
REMARK    3  A    between atoms: C6_11  and  C7_12 
ROOT
HETATM    1  C3  UNL     1       7.236 -19.374  -2.318  1.00  0.00     0.013 A 
HETATM    2  S1  UNL     1       6.614 -17.912  -2.956  1.00  0.00    -0.104 SA
HETATM    3  C4  UNL     1       6.215 -17.089  -1.518  1.00  0.00     0.051 A 
HETATM    4  C5  UNL     1       6.580 -17.989  -0.548  1.00  0.00     0.022 A 
HETATM    5  C6  UNL     1       7.105 -19.163  -0.941  1.00  0.00     0.014 A 
ENDROOT
BRANCH   5   6
HETATM    6  C7  UNL     1       7.552 -20.211   0.022  1.00  0.00     0.105 A 
HETATM    7  N2  UNL     1       8.567 -20.173   0.863  1.00  0.00    -0.290 N 
HETATM    8  N3  UNL     1       8.751 -21.131   1.685  1.00  0.00    -0.259 N 
ATOM      9  H2  UNL     1       9.206 -19.377   0.857  1.00  0.00     0.188 HD
HETATM   10  C8  UNL     1       7.899 -22.160   1.664  1.00  0.00     0.304 A 
ATOM     11  H3  UNL     1       9.530 -21.113   2.343  1.00  0.00     0.191 HD
HETATM   12  O2  UNL     1       7.916 -23.213   2.395  1.00  0.00    -0.258 OA
HETATM   13  S2  UNL     1       6.815 -21.697   0.419  1.00  0.00    -0.008 SA
ENDBRANCH   5   6
BRANCH   1  14
HETATM   14  C2  UNL     1       7.896 -20.474  -3.057  1.00  0.00     0.170 C 
BRANCH  14  15
HETATM   15  N1  UNL     1       7.060 -21.013  -4.082  1.00  0.00    -0.343 N 
HETATM   16  C1  UNL     1       7.216 -22.172  -4.843  1.00  0.00     0.314 C 
HETATM   17  O1  UNL     1       8.163 -22.988  -4.748  1.00  0.00    -0.254 OA
HETATM   18 CL1  UNL     1       6.015 -22.579  -6.074  1.00  0.00    -0.020 Cl
ATOM     19  H1  UNL     1       6.223 -20.469  -4.288  1.00  0.00     0.164 HD
ENDBRANCH  14  15
ENDBRANCH   1  14
TORSDOF 3
ENDMDL
MODEL 5
REMARK VINA RESULT: -6.592084159      4.049      5.841
REMARK  3 active torsions:
REMARK  status: ('A' for Active; 'I' for Inactive)
REMARK       I    between atoms: C1_2  and  N1_4 
REMARK    1  A    between atoms: N1_4  and  C2_6 
REMARK    2  A    between atoms: C2_6  and  C3_7 
REMARK    3  A    between atoms: C6_11  and  C7_12 
ROOT
HETATM    1  C3  UNL     1       7.732 -20.115  -2.246  1.00  0.00     0.013 A 
HETATM    2  S1  UNL     1       7.440 -21.359  -3.385  1.00  0.00    -0.104 SA
HETATM    3  C4  UNL     1       6.776 -20.457  -4.669  1.00  0.00     0.051 A 
HETATM    4  C5  UNL     1       6.792 -19.176  -4.173  1.00  0.00     0.022 A 
HETATM    5  C6  UNL     1       7.279 -18.985  -2.935  1.00  0.00     0.014 A 
ENDROOT
BRANCH   5   6
HETATM    6  C7  UNL     1       7.362 -17.638  -2.298  1.00  0.00     0.105 A 
HETATM    7  N2  UNL     1       6.536 -17.090  -1.427  1.00  0.00    -0.290 N 
HETATM    8  N3  UNL     1       6.812 -15.955  -0.914  1.00  0.00    -0.259 N 
ATOM      9  H2  UNL     1       5.677 -17.573  -1.164  1.00  0.00     0.188 HD
HETATM   10  C8  UNL     1       7.943 -15.348  -1.283  1.00  0.00     0.304 A 
ATOM     11  H3  UNL     1       6.184 -15.522  -0.237  1.00  0.00     0.191 HD
HETATM   12  O2  UNL     1       8.391 -14.212  -0.894  1.00  0.00    -0.258 OA
HETATM   13  S2  UNL     1       8.603 -16.473  -2.396  1.00  0.00    -0.008 SA
ENDBRANCH   5   6
BRANCH   1  14
HETATM   14  C2  UNL     1       8.443 -20.224  -0.952  1.00  0.00     0.170 C 
BRANCH  14  15
HETATM   15  N1  UNL     1       7.990 -21.336  -0.179  1.00  0.00    -0.343 N 
HETATM   16  C1  UNL     1       8.079 -21.563   1.195  1.00  0.00     0.314 C 
HETATM   17  O1  UNL     1       8.591 -20.785   2.034  1.00  0.00    -0.254 OA
HETATM   18 CL1  UNL     1       7.443 -23.065   1.877  1.00  0.00    -0.020 Cl
ATOM     19  H1  UNL     1       7.534 -22.076  -0.712  1.00  0.00     0.164 HD
ENDBRANCH  14  15
ENDBRANCH   1  14
TORSDOF 3
ENDMDL
