MODEL 1
REMARK VINA RESULT: -6.868047492      0.000      0.000
REMARK  5 active torsions:
REMARK  status: ('A' for Active; 'I' for Inactive)
REMARK    1  A    between atoms: O1_1  and  S1_3 
REMARK    2  A    between atoms: S1_3  and  C1_4 
REMARK    3  A    between atoms: C2_7  and  C3_8 
REMARK    4  A    between atoms: C5_10  and  O2_11 
REMARK    5  A    between atoms: C8_15  and  S2_16 
ROOT
HETATM    1  C1  UNL     1      11.161 -15.497  -3.828  1.00  0.00     0.188 A 
HETATM    2  N1  UNL     1       9.834 -15.642  -3.980  1.00  0.00    -0.318 N 
ATOM      3  H1  UNL     1       9.243 -15.100  -4.610  1.00  0.00     0.169 HD
HETATM    4  C2  UNL     1       9.416 -16.622  -3.160  1.00  0.00     0.133 A 
HETATM    5  N2  UNL     1      10.497 -17.067  -2.514  1.00  0.00    -0.283 N 
ATOM      6  H2  UNL     1      10.500 -17.814  -1.820  1.00  0.00     0.188 HD
HETATM    7  N3  UNL     1      11.568 -16.390  -2.912  1.00  0.00    -0.276 N 
ATOM      8  H3  UNL     1      12.524 -16.525  -2.582  1.00  0.00     0.189 HD
ENDROOT
BRANCH   4   9
HETATM    9  C3  UNL     1       8.025 -17.072  -3.042  1.00  0.00     0.030 A 
HETATM   10  C4  UNL     1       7.178 -16.571  -2.077  1.00  0.00     0.053 A 
HETATM   11  C5  UNL     1       5.858 -16.995  -1.960  1.00  0.00     0.066 A 
HETATM   12  C6  UNL     1       5.366 -17.947  -2.830  1.00  0.00     0.038 A 
HETATM   13  C7  UNL     1       6.201 -18.461  -3.806  1.00  0.00     0.023 A 
HETATM   14  C8  UNL     1       7.514 -18.020  -3.900  1.00  0.00     0.030 A 
BRANCH  11  15
HETATM   15  O2  UNL     1       5.073 -16.430  -0.950  1.00  0.00    -0.361 OA
ATOM     16  H2  UNL     1       4.157 -16.676  -0.907  1.00  0.00     0.217 HD
ENDBRANCH  11  15
BRANCH  14  17
HETATM   17  S2  UNL     1       8.614 -18.670  -5.152  1.00  0.00    -0.018 SA
HETATM   18 CL1  UNL     1       7.586 -19.002  -6.953  1.00  0.00    -0.038 Cl
ENDBRANCH  14  17
ENDBRANCH   4   9
BRANCH   1  19
HETATM   19  S1  UNL     1      12.218 -14.320  -4.694  1.00  0.00     0.065 SA
BRANCH  19  20
HETATM   20  O1  UNL     1      11.225 -12.970  -5.096  1.00  0.00    -0.323 OA
ATOM     21  H1  UNL     1      11.403 -12.299  -4.448  1.00  0.00     0.228 HD
ENDBRANCH  19  20
ENDBRANCH   1  19
TORSDOF 5
ENDMDL
MODEL 2
REMARK VINA RESULT: -6.605010652      4.449      4.695
REMARK  5 active torsions:
REMARK  status: ('A' for Active; 'I' for Inactive)
REMARK    1  A    between atoms: O1_1  and  S1_3 
REMARK    2  A    between atoms: S1_3  and  C1_4 
REMARK    3  A    between atoms: C2_7  and  C3_8 
REMARK    4  A    between atoms: C5_10  and  O2_11 
REMARK    5  A    between atoms: C8_15  and  S2_16 
ROOT
HETATM    1  C1  UNL     1       9.272 -17.628  -2.219  1.00  0.00     0.188 A 
HETATM    2  N1  UNL     1       8.380 -18.555  -1.828  1.00  0.00    -0.318 N 
ATOM      3  H1  UNL     1       7.365 -18.458  -1.863  1.00  0.00     0.169 HD
HETATM    4  C2  UNL     1       9.052 -19.631  -1.383  1.00  0.00     0.133 A 
HETATM    5  N2  UNL     1      10.351 -19.349  -1.507  1.00  0.00    -0.283 N 
ATOM      6  H2  UNL     1      11.114 -19.975  -1.250  1.00  0.00     0.188 HD
HETATM    7  N3  UNL     1      10.500 -18.132  -2.016  1.00  0.00    -0.276 N 
ATOM      8  H3  UNL     1      11.385 -17.666  -2.216  1.00  0.00     0.189 HD
ENDROOT
BRANCH   4   9
HETATM    9  C3  UNL     1       8.421 -20.852  -0.870  1.00  0.00     0.030 A 
HETATM   10  C4  UNL     1       8.533 -21.228   0.451  1.00  0.00     0.053 A 
HETATM   11  C5  UNL     1       7.938 -22.386   0.943  1.00  0.00     0.066 A 
HETATM   12  C6  UNL     1       7.208 -23.193   0.093  1.00  0.00     0.038 A 
HETATM   13  C7  UNL     1       7.083 -22.831  -1.236  1.00  0.00     0.023 A 
HETATM   14  C8  UNL     1       7.688 -21.671  -1.700  1.00  0.00     0.030 A 
BRANCH  11  15
HETATM   15  O2  UNL     1       8.106 -22.688   2.297  1.00  0.00    -0.361 OA
ATOM     16  H2  UNL     1       7.391 -23.117   2.751  1.00  0.00     0.217 HD
ENDBRANCH  11  15
BRANCH  14  17
HETATM   17  S2  UNL     1       7.543 -21.181  -3.414  1.00  0.00    -0.018 SA
HETATM   18 CL1  UNL     1       6.445 -22.599  -4.507  1.00  0.00    -0.038 Cl
ENDBRANCH  14  17
ENDBRANCH   4   9
BRANCH   1  19
HETATM   19  S1  UNL     1       8.900 -16.000  -2.897  1.00  0.00     0.065 SA
BRANCH  19  20
HETATM   20  O1  UNL     1       8.908 -14.900  -1.571  1.00  0.00    -0.323 OA
ATOM     21  H1  UNL     1       8.965 -14.027  -1.942  1.00  0.00     0.228 HD
ENDBRANCH  19  20
ENDBRANCH   1  19
TORSDOF 5
ENDMDL
MODEL 3
REMARK VINA RESULT: -6.509234042      3.803      4.322
REMARK  5 active torsions:
REMARK  status: ('A' for Active; 'I' for Inactive)
REMARK    1  A    between atoms: O1_1  and  S1_3 
REMARK    2  A    between atoms: S1_3  and  C1_4 
REMARK    3  A    between atoms: C2_7  and  C3_8 
REMARK    4  A    between atoms: C5_10  and  O2_11 
REMARK    5  A    between atoms: C8_15  and  S2_16 
ROOT
HETATM    1  C1  UNL     1      12.722 -16.573  -4.039  1.00  0.00     0.188 A 
HETATM    2  N1  UNL     1      11.457 -16.688  -4.478  1.00  0.00    -0.318 N 
ATOM      3  H1  UNL     1      10.737 -15.968  -4.417  1.00  0.00     0.169 HD
HETATM    4  C2  UNL     1      11.301 -17.912  -5.011  1.00  0.00     0.133 A 
HETATM    5  N2  UNL     1      12.476 -18.534  -4.891  1.00  0.00    -0.283 N 
ATOM      6  H2  UNL     1      12.672 -19.485  -5.205  1.00  0.00     0.188 HD
HETATM    7  N3  UNL     1      13.352 -17.730  -4.301  1.00  0.00    -0.276 N 
ATOM      8  H3  UNL     1      14.324 -17.950  -4.086  1.00  0.00     0.189 HD
ENDROOT
BRANCH   4   9
HETATM    9  C3  UNL     1      10.051 -18.412  -5.596  1.00  0.00     0.030 A 
HETATM   10  C4  UNL     1       9.827 -18.393  -6.955  1.00  0.00     0.053 A 
HETATM   11  C5  UNL     1       8.643 -18.865  -7.516  1.00  0.00     0.066 A 
HETATM   12  C6  UNL     1       7.654 -19.372  -6.697  1.00  0.00     0.038 A 
HETATM   13  C7  UNL     1       7.863 -19.400  -5.330  1.00  0.00     0.023 A 
HETATM   14  C8  UNL     1       9.052 -18.922  -4.798  1.00  0.00     0.030 A 
BRANCH  11  15
HETATM   15  O2  UNL     1       8.504 -18.805  -8.905  1.00  0.00    -0.361 OA
ATOM     16  H2  UNL     1       8.931 -19.474  -9.426  1.00  0.00     0.217 HD
ENDBRANCH  11  15
BRANCH  14  17
HETATM   17  S2  UNL     1       9.346 -18.947  -3.033  1.00  0.00    -0.018 SA
HETATM   18 CL1  UNL     1       8.749 -17.137  -2.150  1.00  0.00    -0.038 Cl
ENDBRANCH  14  17
ENDBRANCH   4   9
BRANCH   1  19
HETATM   19  S1  UNL     1      13.454 -15.131  -3.243  1.00  0.00     0.065 SA
BRANCH  19  20
HETATM   20  O1  UNL     1      13.723 -15.562  -1.595  1.00  0.00    -0.323 OA
ATOM     21  H1  UNL     1      14.440 -16.185  -1.592  1.00  0.00     0.228 HD
ENDBRANCH  19  20
ENDBRANCH   1  19
TORSDOF 5
ENDMDL
MODEL 4
REMARK VINA RESULT: -6.447464419      2.835      3.018
REMARK  5 active torsions:
REMARK  status: ('A' for Active; 'I' for Inactive)
REMARK    1  A    between atoms: O1_1  and  S1_3 
REMARK    2  A    between atoms: S1_3  and  C1_4 
REMARK    3  A    between atoms: C2_7  and  C3_8 
REMARK    4  A    between atoms: C5_10  and  O2_11 
REMARK    5  A    between atoms: C8_15  and  S2_16 
ROOT
HETATM    1  C1  UNL     1      11.718 -16.391  -3.211  1.00  0.00     0.188 A 
HETATM    2  N1  UNL     1      11.298 -17.664  -3.107  1.00  0.00    -0.318 N 
ATOM      3  H1  UNL     1      11.852 -18.494  -3.318  1.00  0.00     0.169 HD
HETATM    4  C2  UNL     1      10.024 -17.657  -2.680  1.00  0.00     0.133 A 
HETATM    5  N2  UNL     1       9.678 -16.377  -2.527  1.00  0.00    -0.283 N 
ATOM      6  H2  UNL     1       8.764 -16.050  -2.211  1.00  0.00     0.188 HD
HETATM    7  N3  UNL     1      10.701 -15.594  -2.846  1.00  0.00    -0.276 N 
ATOM      8  H3  UNL     1      10.712 -14.574  -2.819  1.00  0.00     0.189 HD
ENDROOT
BRANCH   4   9
HETATM    9  C3  UNL     1       9.218 -18.862  -2.446  1.00  0.00     0.030 A 
HETATM   10  C4  UNL     1       9.224 -19.516  -1.234  1.00  0.00     0.053 A 
HETATM   11  C5  UNL     1       8.464 -20.659  -1.007  1.00  0.00     0.066 A 
HETATM   12  C6  UNL     1       7.672 -21.165  -2.019  1.00  0.00     0.038 A 
HETATM   13  C7  UNL     1       7.652 -20.520  -3.242  1.00  0.00     0.023 A 
HETATM   14  C8  UNL     1       8.422 -19.382  -3.441  1.00  0.00     0.030 A 
BRANCH  11  15
HETATM   15  O2  UNL     1       8.533 -21.256   0.255  1.00  0.00    -0.361 OA
ATOM     16  H2  UNL     1       9.204 -20.955   0.855  1.00  0.00     0.217 HD
ENDBRANCH  11  15
BRANCH  14  17
HETATM   17  S2  UNL     1       8.415 -18.531  -5.014  1.00  0.00    -0.018 SA
HETATM   18 CL1  UNL     1       6.485 -18.506  -5.843  1.00  0.00    -0.038 Cl
ENDBRANCH  14  17
ENDBRANCH   4   9
BRANCH   1  19
HETATM   19  S1  UNL     1      13.351 -15.840  -3.741  1.00  0.00     0.065 SA
BRANCH  19  20
HETATM   20  O1  UNL     1      14.254 -15.526  -2.307  1.00  0.00    -0.323 OA
ATOM     21  H1  UNL     1      13.988 -14.666  -2.002  1.00  0.00     0.228 HD
ENDBRANCH  19  20
ENDBRANCH   1  19
TORSDOF 5
ENDMDL
MODEL 5
REMARK VINA RESULT: -6.382711897      1.944      2.105
REMARK  5 active torsions:
REMARK  status: ('A' for Active; 'I' for Inactive)
REMARK    1  A    between atoms: O1_1  and  S1_3 
REMARK    2  A    between atoms: S1_3  and  C1_4 
REMARK    3  A    between atoms: C2_7  and  C3_8 
REMARK    4  A    between atoms: C5_10  and  O2_11 
REMARK    5  A    between atoms: C8_15  and  S2_16 
ROOT
HETATM    1  C1  UNL     1      12.038 -15.831  -3.244  1.00  0.00     0.188 A 
HETATM    2  N1  UNL     1      11.217 -16.699  -2.628  1.00  0.00    -0.318 N 
ATOM      3  H1  UNL     1      11.469 -17.306  -1.848  1.00  0.00     0.169 HD
HETATM    4  C2  UNL     1      10.009 -16.634  -3.215  1.00  0.00     0.133 A 
HETATM    5  N2  UNL     1      10.105 -15.723  -4.186  1.00  0.00    -0.283 N 
ATOM      6  H2  UNL     1       9.347 -15.450  -4.812  1.00  0.00     0.188 HD
HETATM    7  N3  UNL     1      11.335 -15.225  -4.216  1.00  0.00    -0.276 N 
ATOM      8  H3  UNL     1      11.683 -14.513  -4.858  1.00  0.00     0.189 HD
ENDROOT
BRANCH   4   9
HETATM    9  C3  UNL     1       8.847 -17.436  -2.818  1.00  0.00     0.030 A 
HETATM   10  C4  UNL     1       7.908 -16.966  -1.927  1.00  0.00     0.053 A 
HETATM   11  C5  UNL     1       6.805 -17.723  -1.546  1.00  0.00     0.066 A 
HETATM   12  C6  UNL     1       6.630 -18.988  -2.072  1.00  0.00     0.038 A 
HETATM   13  C7  UNL     1       7.562 -19.477  -2.969  1.00  0.00     0.023 A 
HETATM   14  C8  UNL     1       8.654 -18.700  -3.330  1.00  0.00     0.030 A 
BRANCH  11  15
HETATM   15  O2  UNL     1       5.904 -17.163  -0.636  1.00  0.00    -0.361 OA
ATOM     16  H2  UNL     1       5.527 -16.317  -0.844  1.00  0.00     0.217 HD
ENDBRANCH  11  15
BRANCH  14  17
HETATM   17  S2  UNL     1       9.874 -19.310  -4.488  1.00  0.00    -0.018 SA
HETATM   18 CL1  UNL     1       9.530 -18.540  -6.412  1.00  0.00    -0.038 Cl
ENDBRANCH  14  17
ENDBRANCH   4   9
BRANCH   1  19
HETATM   19  S1  UNL     1      13.769 -15.524  -2.847  1.00  0.00     0.065 SA
BRANCH  19  20
HETATM   20  O1  UNL     1      13.881 -15.489  -1.128  1.00  0.00    -0.323 OA
ATOM     21  H1  UNL     1      13.260 -16.130  -0.802  1.00  0.00     0.228 HD
ENDBRANCH  19  20
ENDBRANCH   1  19
TORSDOF 5
ENDMDL
