MODEL 1
REMARK VINA RESULT: -6.623312603      0.000      0.000
REMARK  3 active torsions:
REMARK  status: ('A' for Active; 'I' for Inactive)
REMARK    1  A    between atoms: S1_2  and  N1_4 
REMARK    2  A    between atoms: S1_2  and  C5_11 
REMARK    3  A    between atoms: N1_4  and  C1_6 
ROOT
HETATM    1  O1  UNL     1       6.133 -17.403  -0.046  1.00  0.00    -0.200 OA
HETATM    2  S1  UNL     1       6.370 -17.942  -1.430  1.00  0.00     0.266 S 
HETATM    3  O2  UNL     1       5.302 -17.416  -2.351  1.00  0.00    -0.200 OA
ENDROOT
BRANCH   2   4
HETATM    4  N1  UNL     1       6.314 -19.631  -1.399  1.00  0.00    -0.274 N 
ATOM      5  H1  UNL     1       5.985 -20.121  -2.231  1.00  0.00     0.179 HD
BRANCH   4   6
HETATM    6  C1  UNL     1       6.705 -20.402  -0.270  1.00  0.00     0.083 A 
HETATM    7  C2  UNL     1       7.933 -20.356   0.372  1.00  0.00     0.038 A 
HETATM    8  C3  UNL     1       8.095 -21.168   1.430  1.00  0.00     0.010 A 
HETATM    9  C4  UNL     1       7.052 -21.970   1.791  1.00  0.00     0.052 A 
HETATM   10  S2  UNL     1       5.872 -21.564   0.639  1.00  0.00    -0.084 SA
ENDBRANCH   4   6
ENDBRANCH   2   4
BRANCH   2  11
HETATM   11  C5  UNL     1       7.900 -17.330  -2.026  1.00  0.00     0.117 C 
HETATM   12  C6  UNL     1       8.747 -18.191  -2.543  1.00  0.00     0.023 C 
HETATM   13  C7  UNL     1      10.049 -17.791  -3.072  1.00  0.00     0.168 C 
HETATM   14  N2  UNL     1      10.356 -16.433  -2.779  1.00  0.00    -0.332 N 
HETATM   15  N3  UNL     1       9.415 -15.586  -2.241  1.00  0.00    -0.293 N 
ATOM     16  H2  UNL     1      11.294 -16.080  -2.971  1.00  0.00     0.180 HD
HETATM   17  C8  UNL     1       8.232 -15.922  -1.857  1.00  0.00     0.141 C 
ATOM     18  H3  UNL     1       9.676 -14.605  -2.138  1.00  0.00     0.187 HD
HETATM   19 CL1  UNL     1       7.079 -14.742  -1.259  1.00  0.00    -0.061 Cl
ENDBRANCH   2  11
TORSDOF 3
ENDMDL
MODEL 2
REMARK VINA RESULT: -6.618189399      4.887      6.325
REMARK  3 active torsions:
REMARK  status: ('A' for Active; 'I' for Inactive)
REMARK    1  A    between atoms: S1_2  and  N1_4 
REMARK    2  A    between atoms: S1_2  and  C5_11 
REMARK    3  A    between atoms: N1_4  and  C1_6 
ROOT
HETATM    1  O1  UNL     1       7.378 -24.862  -0.918  1.00  0.00    -0.200 OA
HETATM    2  S1  UNL     1       7.211 -23.429  -1.346  1.00  0.00     0.266 S 
HETATM    3  O2  UNL     1       5.742 -23.108  -1.420  1.00  0.00    -0.200 OA
ENDROOT
BRANCH   2   4
HETATM    4  N1  UNL     1       7.921 -23.203  -2.864  1.00  0.00    -0.274 N 
ATOM      5  H1  UNL     1       8.810 -23.664  -3.057  1.00  0.00     0.179 HD
BRANCH   4   6
HETATM    6  C1  UNL     1       7.338 -22.402  -3.884  1.00  0.00     0.083 A 
HETATM    7  C2  UNL     1       6.497 -22.841  -4.894  1.00  0.00     0.038 A 
HETATM    8  C3  UNL     1       6.050 -21.913  -5.757  1.00  0.00     0.010 A 
HETATM    9  C4  UNL     1       6.451 -20.622  -5.578  1.00  0.00     0.052 A 
HETATM   10  S2  UNL     1       7.444 -20.742  -4.206  1.00  0.00    -0.084 SA
ENDBRANCH   4   6
ENDBRANCH   2   4
BRANCH   2  11
HETATM   11  C5  UNL     1       7.897 -22.384  -0.119  1.00  0.00     0.117 C 
HETATM   12  C6  UNL     1       8.866 -21.571  -0.476  1.00  0.00     0.023 C 
HETATM   13  C7  UNL     1       9.509 -20.656   0.462  1.00  0.00     0.168 C 
HETATM   14  N2  UNL     1       9.110 -20.893   1.807  1.00  0.00    -0.332 N 
HETATM   15  N3  UNL     1       8.081 -21.756   2.106  1.00  0.00    -0.293 N 
ATOM     16  H2  UNL     1       9.596 -20.413   2.565  1.00  0.00     0.180 HD
HETATM   17  C8  UNL     1       7.452 -22.499   1.263  1.00  0.00     0.141 C 
ATOM     18  H3  UNL     1       7.790 -21.813   3.083  1.00  0.00     0.187 HD
HETATM   19 CL1  UNL     1       6.097 -23.506   1.740  1.00  0.00    -0.061 Cl
ENDBRANCH   2  11
TORSDOF 3
ENDMDL
MODEL 3
REMARK VINA RESULT: -6.506459037      3.658      4.368
REMARK  3 active torsions:
REMARK  status: ('A' for Active; 'I' for Inactive)
REMARK    1  A    between atoms: S1_2  and  N1_4 
REMARK    2  A    between atoms: S1_2  and  C5_11 
REMARK    3  A    between atoms: N1_4  and  C1_6 
ROOT
HETATM    1  O1  UNL     1       6.690 -22.061   1.503  1.00  0.00    -0.200 OA
HETATM    2  S1  UNL     1       6.599 -21.419   0.146  1.00  0.00     0.266 S 
HETATM    3  O2  UNL     1       5.653 -20.249   0.219  1.00  0.00    -0.200 OA
ENDROOT
BRANCH   2   4
HETATM    4  N1  UNL     1       6.025 -22.545  -0.978  1.00  0.00    -0.274 N 
ATOM      5  H1  UNL     1       5.027 -22.559  -1.184  1.00  0.00     0.179 HD
BRANCH   4   6
HETATM    6  C1  UNL     1       6.868 -23.473  -1.648  1.00  0.00     0.083 A 
HETATM    7  C2  UNL     1       7.373 -24.653  -1.123  1.00  0.00     0.038 A 
HETATM    8  C3  UNL     1       8.150 -25.392  -1.933  1.00  0.00     0.010 A 
HETATM    9  C4  UNL     1       8.384 -24.934  -3.196  1.00  0.00     0.052 A 
HETATM   10  S2  UNL     1       7.508 -23.479  -3.217  1.00  0.00    -0.084 SA
ENDBRANCH   4   6
ENDBRANCH   2   4
BRANCH   2  11
HETATM   11  C5  UNL     1       8.169 -20.774  -0.288  1.00  0.00     0.117 C 
HETATM   12  C6  UNL     1       9.164 -20.965   0.549  1.00  0.00     0.023 C 
HETATM   13  C7  UNL     1      10.514 -20.474   0.289  1.00  0.00     0.168 C 
HETATM   14  N2  UNL     1      10.568 -19.618  -0.847  1.00  0.00    -0.332 N 
HETATM   15  N3  UNL     1       9.486 -19.471  -1.684  1.00  0.00    -0.293 N 
ATOM     16  H2  UNL     1      11.426 -19.102  -1.044  1.00  0.00     0.180 HD
HETATM   17  C8  UNL     1       8.317 -19.980  -1.499  1.00  0.00     0.141 C 
ATOM     18  H3  UNL     1       9.622 -18.911  -2.526  1.00  0.00     0.187 HD
HETATM   19 CL1  UNL     1       7.028 -19.797  -2.675  1.00  0.00    -0.061 Cl
ENDBRANCH   2  11
TORSDOF 3
ENDMDL
MODEL 4
REMARK VINA RESULT: -6.506414446      4.762      5.379
REMARK  3 active torsions:
REMARK  status: ('A' for Active; 'I' for Inactive)
REMARK    1  A    between atoms: S1_2  and  N1_4 
REMARK    2  A    between atoms: S1_2  and  C5_11 
REMARK    3  A    between atoms: N1_4  and  C1_6 
ROOT
HETATM    1  O1  UNL     1      10.293 -18.387  -7.205  1.00  0.00    -0.200 OA
HETATM    2  S1  UNL     1       9.997 -18.718  -5.767  1.00  0.00     0.266 S 
HETATM    3  O2  UNL     1      10.700 -20.000  -5.405  1.00  0.00    -0.200 OA
ENDROOT
BRANCH   2   4
HETATM    4  N1  UNL     1       8.330 -18.904  -5.559  1.00  0.00    -0.274 N 
ATOM      5  H1  UNL     1       7.749 -18.066  -5.521  1.00  0.00     0.179 HD
BRANCH   4   6
HETATM    6  C1  UNL     1       7.698 -20.172  -5.434  1.00  0.00     0.083 A 
HETATM    7  C2  UNL     1       7.332 -21.013  -6.473  1.00  0.00     0.038 A 
HETATM    8  C3  UNL     1       6.748 -22.175  -6.134  1.00  0.00     0.010 A 
HETATM    9  C4  UNL     1       6.560 -22.439  -4.809  1.00  0.00     0.052 A 
HETATM   10  S2  UNL     1       7.206 -21.052  -4.072  1.00  0.00    -0.084 SA
ENDBRANCH   4   6
ENDBRANCH   2   4
BRANCH   2  11
HETATM   11  C5  UNL     1      10.669 -17.465  -4.743  1.00  0.00     0.117 C 
HETATM   12  C6  UNL     1      11.211 -16.420  -5.326  1.00  0.00     0.023 C 
HETATM   13  C7  UNL     1      11.798 -15.316  -4.572  1.00  0.00     0.168 C 
HETATM   14  N2  UNL     1      11.889 -15.601  -3.180  1.00  0.00    -0.332 N 
HETATM   15  N3  UNL     1      11.289 -16.715  -2.638  1.00  0.00    -0.293 N 
ATOM     16  H2  UNL     1      12.409 -14.968  -2.573  1.00  0.00     0.180 HD
HETATM   17  C8  UNL     1      10.692 -17.645  -3.298  1.00  0.00     0.141 C 
ATOM     18  H3  UNL     1      11.320 -16.811  -1.623  1.00  0.00     0.187 HD
HETATM   19 CL1  UNL     1       9.888 -18.984  -2.498  1.00  0.00    -0.061 Cl
ENDBRANCH   2  11
TORSDOF 3
ENDMDL
MODEL 5
REMARK VINA RESULT: -6.395953833      3.577      5.538
REMARK  3 active torsions:
REMARK  status: ('A' for Active; 'I' for Inactive)
REMARK    1  A    between atoms: S1_2  and  N1_4 
REMARK    2  A    between atoms: S1_2  and  C5_11 
REMARK    3  A    between atoms: N1_4  and  C1_6 
ROOT
HETATM    1  O1  UNL     1       5.650 -19.379  -1.244  1.00  0.00    -0.200 OA
HETATM    2  S1  UNL     1       7.111 -19.643  -1.003  1.00  0.00     0.266 S 
HETATM    3  O2  UNL     1       7.741 -18.410  -0.410  1.00  0.00    -0.200 OA
ENDROOT
BRANCH   2   4
HETATM    4  N1  UNL     1       7.869 -20.022  -2.466  1.00  0.00    -0.274 N 
ATOM      5  H1  UNL     1       8.773 -19.596  -2.669  1.00  0.00     0.179 HD
BRANCH   4   6
HETATM    6  C1  UNL     1       7.305 -20.905  -3.428  1.00  0.00     0.083 A 
HETATM    7  C2  UNL     1       6.812 -20.555  -4.675  1.00  0.00     0.038 A 
HETATM    8  C3  UNL     1       6.326 -21.551  -5.435  1.00  0.00     0.010 A 
HETATM    9  C4  UNL     1       6.353 -22.818  -4.930  1.00  0.00     0.052 A 
HETATM   10  S2  UNL     1       7.059 -22.581  -3.404  1.00  0.00    -0.084 SA
ENDBRANCH   4   6
ENDBRANCH   2   4
BRANCH   2  11
HETATM   11  C5  UNL     1       7.272 -20.918   0.188  1.00  0.00     0.117 C 
HETATM   12  C6  UNL     1       6.188 -21.575   0.535  1.00  0.00     0.023 C 
HETATM   13  C7  UNL     1       6.205 -22.656   1.516  1.00  0.00     0.168 C 
HETATM   14  N2  UNL     1       7.461 -22.767   2.175  1.00  0.00    -0.332 N 
HETATM   15  N3  UNL     1       8.557 -22.051   1.752  1.00  0.00    -0.293 N 
ATOM     16  H2  UNL     1       7.552 -23.391   2.978  1.00  0.00     0.180 HD
HETATM   17  C8  UNL     1       8.560 -21.158   0.823  1.00  0.00     0.141 C 
ATOM     18  H3  UNL     1       9.446 -22.243   2.214  1.00  0.00     0.187 HD
HETATM   19 CL1  UNL     1      10.034 -20.360   0.305  1.00  0.00    -0.061 Cl
ENDBRANCH   2  11
TORSDOF 3
ENDMDL
