MODEL 1
REMARK VINA RESULT: -6.438459500      0.000      0.000
REMARK  3 active torsions:
REMARK  status: ('A' for Active; 'I' for Inactive)
REMARK    1  A    between atoms: C4_4  and  N1_5 
REMARK    2  A    between atoms: N1_5  and  C5_7 
REMARK    3  A    between atoms: C5_7  and  C6_8 
ROOT
HETATM    1  N1  UNL     1       8.589 -19.500  -1.882  1.00  0.00    -0.381 N 
ATOM      2  H1  UNL     1       9.165 -19.944  -2.597  1.00  0.00     0.160 HD
ENDROOT
BRANCH   1   3
HETATM    3  C4  UNL     1       8.167 -20.273  -0.723  1.00  0.00     0.054 A 
HETATM    4  C3  UNL     1       6.882 -20.653  -0.522  1.00  0.00     0.045 A 
HETATM    5  C2  UNL     1       6.609 -21.376   0.603  1.00  0.00    -0.018 A 
HETATM    6  C1  UNL     1       5.270 -21.914   1.053  1.00  0.00     0.056 C 
HETATM    7  S2  UNL     1       8.130 -21.514   1.355  1.00  0.00    -0.085 SA
HETATM    8  C8  UNL     1       9.071 -20.658   0.234  1.00  0.00     0.079 A 
HETATM    9  S1  UNL     1      10.837 -20.361   0.337  1.00  0.00    -0.042 SA
ENDBRANCH   1   3
BRANCH   1  10
HETATM   10  C5  UNL     1       8.210 -18.128  -2.036  1.00  0.00     0.206 C 
BRANCH  10  11
HETATM   11  C6  UNL     1       9.326 -17.295  -2.470  1.00  0.00     0.161 A 
HETATM   12  N2  UNL     1      10.634 -17.551  -2.340  1.00  0.00    -0.277 N 
HETATM   13  N3  UNL     1      11.361 -16.561  -2.854  1.00  0.00    -0.243 N 
ATOM     14  H2  UNL     1      11.021 -18.389  -1.907  1.00  0.00     0.189 HD
HETATM   15  C7  UNL     1      10.462 -15.671  -3.313  1.00  0.00     0.385 A 
ATOM     16  H3  UNL     1      12.377 -16.492  -2.892  1.00  0.00     0.192 HD
HETATM   17  O1  UNL     1      10.793 -14.593  -3.872  1.00  0.00    -0.236 OA
HETATM   18  O2  UNL     1       9.246 -16.128  -3.074  1.00  0.00    -0.244 OA
ENDBRANCH  10  11
ENDBRANCH   1  10
TORSDOF 3
ENDMDL
MODEL 2
REMARK VINA RESULT: -6.433540053      4.821      6.084
REMARK  3 active torsions:
REMARK  status: ('A' for Active; 'I' for Inactive)
REMARK    1  A    between atoms: C4_4  and  N1_5 
REMARK    2  A    between atoms: N1_5  and  C5_7 
REMARK    3  A    between atoms: C5_7  and  C6_8 
ROOT
HETATM    1  N1  UNL     1       7.780 -20.352  -2.340  1.00  0.00    -0.381 N 
ATOM      2  H1  UNL     1       8.684 -19.895  -2.460  1.00  0.00     0.160 HD
ENDROOT
BRANCH   1   3
HETATM    3  C4  UNL     1       7.304 -21.272  -3.363  1.00  0.00     0.054 A 
HETATM    4  C3  UNL     1       7.296 -22.617  -3.194  1.00  0.00     0.045 A 
HETATM    5  C2  UNL     1       6.824 -23.376  -4.226  1.00  0.00    -0.018 A 
HETATM    6  C1  UNL     1       6.711 -24.882  -4.286  1.00  0.00     0.056 C 
HETATM    7  S2  UNL     1       6.405 -22.219  -5.401  1.00  0.00    -0.085 SA
HETATM    8  C8  UNL     1       6.833 -20.808  -4.563  1.00  0.00     0.079 A 
HETATM    9  S1  UNL     1       6.681 -19.126  -5.169  1.00  0.00    -0.042 SA
ENDBRANCH   1   3
BRANCH   1  10
HETATM   10  C5  UNL     1       7.003 -20.078  -1.169  1.00  0.00     0.206 C 
BRANCH  10  11
HETATM   11  C6  UNL     1       7.558 -20.716   0.020  1.00  0.00     0.161 A 
HETATM   12  N2  UNL     1       8.483 -20.224   0.854  1.00  0.00    -0.277 N 
HETATM   13  N3  UNL     1       8.744 -21.090   1.831  1.00  0.00    -0.243 N 
ATOM     14  H2  UNL     1       8.927 -19.311   0.754  1.00  0.00     0.189 HD
HETATM   15  C7  UNL     1       7.949 -22.146   1.582  1.00  0.00     0.385 A 
ATOM     16  H3  UNL     1       9.403 -20.977   2.601  1.00  0.00     0.192 HD
HETATM   17  O1  UNL     1       7.928 -23.171   2.312  1.00  0.00    -0.236 OA
HETATM   18  O2  UNL     1       7.244 -21.904   0.491  1.00  0.00    -0.244 OA
ENDBRANCH  10  11
ENDBRANCH   1  10
TORSDOF 3
ENDMDL
MODEL 3
REMARK VINA RESULT: -6.429506319      1.998      2.276
REMARK  3 active torsions:
REMARK  status: ('A' for Active; 'I' for Inactive)
REMARK    1  A    between atoms: C4_4  and  N1_5 
REMARK    2  A    between atoms: N1_5  and  C5_7 
REMARK    3  A    between atoms: C5_7  and  C6_8 
ROOT
HETATM    1  N1  UNL     1       8.448 -19.219  -1.674  1.00  0.00    -0.381 N 
ATOM      2  H1  UNL     1       9.426 -19.176  -1.962  1.00  0.00     0.160 HD
ENDROOT
BRANCH   1   3
HETATM    3  C4  UNL     1       8.059 -20.124  -0.602  1.00  0.00     0.054 A 
HETATM    4  C3  UNL     1       6.776 -20.509  -0.396  1.00  0.00     0.045 A 
HETATM    5  C2  UNL     1       6.536 -21.363   0.642  1.00  0.00    -0.018 A 
HETATM    6  C1  UNL     1       5.206 -21.934   1.077  1.00  0.00     0.056 C 
HETATM    7  S2  UNL     1       8.082 -21.611   1.308  1.00  0.00    -0.085 SA
HETATM    8  C8  UNL     1       8.993 -20.635   0.262  1.00  0.00     0.079 A 
HETATM    9  S1  UNL     1      10.766 -20.374   0.328  1.00  0.00    -0.042 SA
ENDBRANCH   1   3
BRANCH   1  10
HETATM   10  C5  UNL     1       7.483 -18.391  -2.331  1.00  0.00     0.206 C 
BRANCH  10  11
HETATM   11  C6  UNL     1       7.468 -17.033  -1.795  1.00  0.00     0.161 A 
HETATM   12  N2  UNL     1       6.425 -16.372  -1.279  1.00  0.00    -0.277 N 
HETATM   13  N3  UNL     1       6.788 -15.151  -0.890  1.00  0.00    -0.243 N 
ATOM     14  H2  UNL     1       5.481 -16.750  -1.196  1.00  0.00     0.189 HD
HETATM   15  C7  UNL     1       8.099 -15.069  -1.180  1.00  0.00     0.385 A 
ATOM     16  H3  UNL     1       6.199 -14.435  -0.465  1.00  0.00     0.192 HD
HETATM   17  O1  UNL     1       8.786 -14.040  -0.947  1.00  0.00    -0.236 OA
HETATM   18  O2  UNL     1       8.490 -16.207  -1.723  1.00  0.00    -0.244 OA
ENDBRANCH  10  11
ENDBRANCH   1  10
TORSDOF 3
ENDMDL
MODEL 4
REMARK VINA RESULT: -6.352939827      4.321      5.208
REMARK  3 active torsions:
REMARK  status: ('A' for Active; 'I' for Inactive)
REMARK    1  A    between atoms: C4_4  and  N1_5 
REMARK    2  A    between atoms: N1_5  and  C5_7 
REMARK    3  A    between atoms: C5_7  and  C6_8 
ROOT
HETATM    1  N1  UNL     1       6.578 -22.008  -0.218  1.00  0.00    -0.381 N 
ATOM      2  H1  UNL     1       5.785 -21.407   0.006  1.00  0.00     0.160 HD
ENDROOT
BRANCH   1   3
HETATM    3  C4  UNL     1       6.813 -22.396  -1.602  1.00  0.00     0.054 A 
HETATM    4  C3  UNL     1       6.611 -23.657  -2.055  1.00  0.00     0.045 A 
HETATM    5  C2  UNL     1       6.866 -23.899  -3.374  1.00  0.00    -0.018 A 
HETATM    6  C1  UNL     1       6.722 -25.207  -4.117  1.00  0.00     0.056 C 
HETATM    7  S2  UNL     1       7.376 -22.383  -3.955  1.00  0.00    -0.085 SA
HETATM    8  C8  UNL     1       7.256 -21.483  -2.524  1.00  0.00     0.079 A 
HETATM    9  S1  UNL     1       7.637 -19.741  -2.328  1.00  0.00    -0.042 SA
ENDBRANCH   1   3
BRANCH   1  10
HETATM   10  C5  UNL     1       7.441 -22.456   0.833  1.00  0.00     0.206 C 
BRANCH  10  11
HETATM   11  C6  UNL     1       8.547 -21.533   1.067  1.00  0.00     0.161 A 
HETATM   12  N2  UNL     1       8.742 -20.746   2.132  1.00  0.00    -0.277 N 
HETATM   13  N3  UNL     1       9.861 -20.038   1.996  1.00  0.00    -0.243 N 
ATOM     14  H2  UNL     1       8.118 -20.695   2.938  1.00  0.00     0.189 HD
HETATM   15  C7  UNL     1      10.365 -20.409   0.805  1.00  0.00     0.385 A 
ATOM     16  H3  UNL     1      10.252 -19.362   2.652  1.00  0.00     0.192 HD
HETATM   17  O1  UNL     1      11.434 -19.937   0.340  1.00  0.00    -0.236 OA
HETATM   18  O2  UNL     1       9.563 -21.306   0.262  1.00  0.00    -0.244 OA
ENDBRANCH  10  11
ENDBRANCH   1  10
TORSDOF 3
ENDMDL
MODEL 5
REMARK VINA RESULT: -6.219695850      4.857      6.505
REMARK  3 active torsions:
REMARK  status: ('A' for Active; 'I' for Inactive)
REMARK    1  A    between atoms: C4_4  and  N1_5 
REMARK    2  A    between atoms: N1_5  and  C5_7 
REMARK    3  A    between atoms: C5_7  and  C6_8 
ROOT
HETATM    1  N1  UNL     1       7.234 -21.537  -2.407  1.00  0.00    -0.381 N 
ATOM      2  H1  UNL     1       6.820 -22.362  -1.974  1.00  0.00     0.160 HD
ENDROOT
BRANCH   1   3
HETATM    3  C4  UNL     1       7.229 -21.413  -3.858  1.00  0.00     0.054 A 
HETATM    4  C3  UNL     1       7.390 -20.227  -4.493  1.00  0.00     0.045 A 
HETATM    5  C2  UNL     1       7.367 -20.237  -5.858  1.00  0.00    -0.018 A 
HETATM    6  C1  UNL     1       7.522 -19.059  -6.792  1.00  0.00     0.056 C 
HETATM    7  S2  UNL     1       7.123 -21.880  -6.230  1.00  0.00    -0.085 SA
HETATM    8  C8  UNL     1       7.057 -22.512  -4.659  1.00  0.00     0.079 A 
HETATM    9  S1  UNL     1       6.814 -24.234  -4.215  1.00  0.00    -0.042 SA
ENDBRANCH   1   3
BRANCH   1  10
HETATM   10  C5  UNL     1       7.812 -20.523  -1.579  1.00  0.00     0.206 C 
BRANCH  10  11
HETATM   11  C6  UNL     1       8.069 -21.000  -0.224  1.00  0.00     0.161 A 
HETATM   12  N2  UNL     1       8.769 -20.386   0.739  1.00  0.00    -0.277 N 
HETATM   13  N3  UNL     1       8.792 -21.123   1.847  1.00  0.00    -0.243 N 
ATOM     14  H2  UNL     1       9.222 -19.478   0.637  1.00  0.00     0.189 HD
HETATM   15  C7  UNL     1       8.082 -22.226   1.547  1.00  0.00     0.385 A 
ATOM     16  H3  UNL     1       9.250 -20.901   2.731  1.00  0.00     0.192 HD
HETATM   17  O1  UNL     1       7.890 -23.159   2.369  1.00  0.00    -0.236 OA
HETATM   18  O2  UNL     1       7.656 -22.134   0.300  1.00  0.00    -0.244 OA
ENDBRANCH  10  11
ENDBRANCH   1  10
TORSDOF 3
ENDMDL
