MODEL 1
REMARK VINA RESULT: -6.774159048      0.000      0.000
REMARK  15 active torsions:
REMARK  status: ('A' for Active; 'I' for Inactive)
REMARK    1  A    between atoms: C2_2  and  N1_3 
REMARK    2  A    between atoms: C2_2  and  C3_7 
REMARK    3  A    between atoms: C3_7  and  C4_8 
REMARK       I    between atoms: C4_8  and  N2_10 
REMARK    4  A    between atoms: N2_10  and  C5_12 
REMARK    5  A    between atoms: C5_12  and  C6_13 
REMARK    6  A    between atoms: C8_19  and  C9_20 
REMARK    7  A    between atoms: C9_20  and  N6_34 
REMARK    8  A    between atoms: N5_21  and  C10_23 
REMARK    9  A    between atoms: C13_26  and  P1_27 
REMARK   10  A    between atoms: P1_27  and  O2_28 
REMARK   11  A    between atoms: P1_27  and  O3_30 
REMARK       I    between atoms: N6_34  and  C16_36 
REMARK       I    between atoms: C16_36  and  N7_38 
REMARK   12  A    between atoms: N7_38  and  C17_40 
REMARK   13  A    between atoms: C17_40  and  C18_41 
REMARK   14  A    between atoms: C18_41  and  C19_42 
REMARK   15  A    between atoms: C19_42  and  O5_43 
ROOT
HETATM    1  C9  UNL     1      12.116 -33.061  11.841  1.00  0.00     0.138 C 
HETATM    2  N5  UNL     1      11.192 -32.895  12.760  1.00  0.00    -0.340 N 
ATOM      3  H5  UNL     1      10.248 -33.264  12.639  1.00  0.00     0.167 HD
ENDROOT
BRANCH   1   4
HETATM    4  C8  UNL     1      11.731 -33.793  10.647  1.00  0.00     0.095 A 
HETATM    5  C7  UNL     1      11.007 -34.939  10.769  1.00  0.00     0.140 A 
HETATM    6  N4  UNL     1      10.647 -35.610   9.655  1.00  0.00    -0.308 N 
HETATM    7  N3  UNL     1      11.003 -35.139   8.486  1.00  0.00    -0.288 N 
ATOM      8  H4  UNL     1      10.106 -36.471   9.723  1.00  0.00     0.186 HD
HETATM    9  C6  UNL     1      11.707 -34.024   8.342  1.00  0.00     0.114 A 
ATOM     10  H3  UNL     1      10.726 -35.651   7.649  1.00  0.00     0.188 HD
HETATM   11  N8  UNL     1      12.080 -33.334   9.442  1.00  0.00    -0.339 N 
ATOM     12  H8  UNL     1      12.620 -32.473   9.353  1.00  0.00     0.167 HD
BRANCH   9  13
HETATM   13  C5  UNL     1      12.131 -33.475   7.041  1.00  0.00     0.200 C 
BRANCH  13  14
HETATM   14  N2  UNL     1      13.146 -34.341   6.460  1.00  0.00    -0.354 N 
HETATM   15  C4  UNL     1      14.477 -33.904   6.263  1.00  0.00     0.219 C 
HETATM   16  O1  UNL     1      14.858 -32.748   6.574  1.00  0.00    -0.274 OA
ATOM     17  H2  UNL     1      12.891 -35.291   6.189  1.00  0.00     0.162 HD
BRANCH  15  18
HETATM   18  C3  UNL     1      15.458 -34.837   5.667  1.00  0.00     0.135 C 
BRANCH  18  19
HETATM   19  C2  UNL     1      15.246 -34.944   4.159  1.00  0.00     0.188 C 
HETATM   20  C1  UNL     1      16.165 -35.946   3.557  1.00  0.00     0.040 C 
BRANCH  19  21
HETATM   21  N1  UNL     1      15.405 -33.621   3.585  1.00  0.00    -0.075 N 
ATOM     22  H13 UNL     1      16.378 -33.445   3.336  1.00  0.00     0.274 HD
ATOM     23  H12 UNL     1      14.985 -33.573   2.657  1.00  0.00     0.274 HD
ATOM     24  H11 UNL     1      15.042 -32.883   4.189  1.00  0.00     0.274 HD
ENDBRANCH  19  21
ENDBRANCH  18  19
ENDBRANCH  15  18
ENDBRANCH  13  14
ENDBRANCH   9  13
ENDBRANCH   1   4
BRANCH   1  25
HETATM   25  N6  UNL     1      13.407 -32.550  12.025  1.00  0.00    -0.293 N 
HETATM   26  C16 UNL     1      13.845 -31.364  11.416  1.00  0.00     0.321 C 
HETATM   27  O4  UNL     1      13.086 -30.718  10.676  1.00  0.00    -0.247 OA
HETATM   28  N7  UNL     1      15.167 -30.868  11.628  1.00  0.00    -0.343 N 
ATOM     29  H7  UNL     1      15.790 -31.407  12.230  1.00  0.00     0.164 HD
ATOM     30  H6  UNL     1      14.055 -33.060  12.625  1.00  0.00     0.172 HD
BRANCH  28  31
HETATM   31  C17 UNL     1      15.668 -29.661  11.047  1.00  0.00     0.126 C 
BRANCH  31  32
HETATM   32  C18 UNL     1      16.955 -29.883  10.304  1.00  0.00     0.046 C 
BRANCH  32  33
HETATM   33  C19 UNL     1      16.635 -29.962   8.812  1.00  0.00     0.165 C 
BRANCH  33  34
HETATM   34  O5  UNL     1      15.498 -30.727   8.585  1.00  0.00    -0.401 OA
ATOM     35  H5  UNL     1      14.926 -30.308   7.954  1.00  0.00     0.209 HD
ENDBRANCH  33  34
ENDBRANCH  32  33
ENDBRANCH  31  32
ENDBRANCH  28  31
ENDBRANCH   1  25
BRANCH   2  36
HETATM   36  C10 UNL     1      11.564 -32.176  13.935  1.00  0.00     0.033 A 
HETATM   37  C11 UNL     1      12.295 -32.796  14.935  1.00  0.00     0.030 A 
HETATM   38  C12 UNL     1      12.657 -32.112  16.071  1.00  0.00     0.019 A 
HETATM   39  C13 UNL     1      12.299 -30.794  16.239  1.00  0.00     0.022 A 
HETATM   40  C14 UNL     1      11.567 -30.166  15.241  1.00  0.00     0.019 A 
HETATM   41  C15 UNL     1      11.199 -30.840  14.100  1.00  0.00     0.030 A 
BRANCH  39  42
HETATM   42  P1  UNL     1      12.782 -29.897  17.746  1.00  0.00     0.200 P 
BRANCH  42  43
HETATM   43  O2  UNL     1      11.353 -29.586  18.676  1.00  0.00    -0.346 OA
ATOM     44  H2  UNL     1      10.863 -30.396  18.750  1.00  0.00     0.217 HD
ENDBRANCH  42  43
BRANCH  42  45
HETATM   45  O3  UNL     1      13.533 -28.405  17.286  1.00  0.00    -0.346 OA
ATOM     46  H3  UNL     1      13.439 -27.784  17.999  1.00  0.00     0.217 HD
ENDBRANCH  42  45
ENDBRANCH  39  42
ENDBRANCH   2  36
TORSDOF 15
ENDMDL
MODEL 2
REMARK VINA RESULT: -6.727709096      2.293      2.760
REMARK  15 active torsions:
REMARK  status: ('A' for Active; 'I' for Inactive)
REMARK    1  A    between atoms: C2_2  and  N1_3 
REMARK    2  A    between atoms: C2_2  and  C3_7 
REMARK    3  A    between atoms: C3_7  and  C4_8 
REMARK       I    between atoms: C4_8  and  N2_10 
REMARK    4  A    between atoms: N2_10  and  C5_12 
REMARK    5  A    between atoms: C5_12  and  C6_13 
REMARK    6  A    between atoms: C8_19  and  C9_20 
REMARK    7  A    between atoms: C9_20  and  N6_34 
REMARK    8  A    between atoms: N5_21  and  C10_23 
REMARK    9  A    between atoms: C13_26  and  P1_27 
REMARK   10  A    between atoms: P1_27  and  O2_28 
REMARK   11  A    between atoms: P1_27  and  O3_30 
REMARK       I    between atoms: N6_34  and  C16_36 
REMARK       I    between atoms: C16_36  and  N7_38 
REMARK   12  A    between atoms: N7_38  and  C17_40 
REMARK   13  A    between atoms: C17_40  and  C18_41 
REMARK   14  A    between atoms: C18_41  and  C19_42 
REMARK   15  A    between atoms: C19_42  and  O5_43 
ROOT
HETATM    1  C9  UNL     1      12.500 -31.953  11.413  1.00  0.00     0.138 C 
HETATM    2  N5  UNL     1      12.809 -32.854  12.318  1.00  0.00    -0.340 N 
ATOM      3  H5  UNL     1      13.036 -33.814  12.058  1.00  0.00     0.167 HD
ENDROOT
BRANCH   1   4
HETATM    4  C8  UNL     1      12.496 -32.389  10.028  1.00  0.00     0.095 A 
HETATM    5  C7  UNL     1      11.568 -33.294   9.613  1.00  0.00     0.140 A 
HETATM    6  N4  UNL     1      11.566 -33.690   8.324  1.00  0.00    -0.308 N 
HETATM    7  N3  UNL     1      12.458 -33.190   7.504  1.00  0.00    -0.288 N 
ATOM      8  H4  UNL     1      10.881 -34.368   7.992  1.00  0.00     0.186 HD
HETATM    9  C6  UNL     1      13.371 -32.307   7.885  1.00  0.00     0.114 A 
ATOM     10  H3  UNL     1      12.449 -33.493   6.531  1.00  0.00     0.188 HD
HETATM   11  N8  UNL     1      13.394 -31.895   9.170  1.00  0.00    -0.339 N 
ATOM     12  H8  UNL     1      14.087 -31.215   9.483  1.00  0.00     0.167 HD
BRANCH   9  13
HETATM   13  C5  UNL     1      14.392 -31.735   6.988  1.00  0.00     0.200 C 
BRANCH  13  14
HETATM   14  N2  UNL     1      15.446 -32.715   6.771  1.00  0.00    -0.354 N 
HETATM   15  C4  UNL     1      15.340 -33.719   5.778  1.00  0.00     0.219 C 
HETATM   16  O1  UNL     1      14.335 -33.821   5.032  1.00  0.00    -0.274 OA
ATOM     17  H2  UNL     1      16.284 -32.678   7.351  1.00  0.00     0.162 HD
BRANCH  15  18
HETATM   18  C3  UNL     1      16.449 -34.683   5.613  1.00  0.00     0.135 C 
BRANCH  18  19
HETATM   19  C2  UNL     1      16.007 -35.862   4.749  1.00  0.00     0.188 C 
HETATM   20  C1  UNL     1      16.709 -37.112   5.146  1.00  0.00     0.040 C 
BRANCH  19  21
HETATM   21  N1  UNL     1      16.226 -35.513   3.359  1.00  0.00    -0.075 N 
ATOM     22  H13 UNL     1      15.926 -34.557   3.170  1.00  0.00     0.274 HD
ATOM     23  H12 UNL     1      17.222 -35.415   3.160  1.00  0.00     0.274 HD
ATOM     24  H11 UNL     1      15.787 -36.169   2.713  1.00  0.00     0.274 HD
ENDBRANCH  19  21
ENDBRANCH  18  19
ENDBRANCH  15  18
ENDBRANCH  13  14
ENDBRANCH   9  13
ENDBRANCH   1   4
BRANCH   1  25
HETATM   25  N6  UNL     1      12.193 -30.639  11.788  1.00  0.00    -0.293 N 
HETATM   26  C16 UNL     1      13.143 -29.605  11.767  1.00  0.00     0.321 C 
HETATM   27  O4  UNL     1      14.311 -29.829  11.411  1.00  0.00    -0.247 OA
HETATM   28  N7  UNL     1      12.796 -28.275  12.151  1.00  0.00    -0.343 N 
ATOM     29  H7  UNL     1      11.837 -28.097  12.451  1.00  0.00     0.164 HD
ATOM     30  H6  UNL     1      11.243 -30.424  12.088  1.00  0.00     0.172 HD
BRANCH  28  31
HETATM   31  C17 UNL     1      13.714 -27.177  12.139  1.00  0.00     0.126 C 
BRANCH  31  32
HETATM   32  C18 UNL     1      13.016 -25.855  12.298  1.00  0.00     0.046 C 
BRANCH  32  33
HETATM   33  C19 UNL     1      12.603 -25.368  10.910  1.00  0.00     0.165 C 
BRANCH  33  34
HETATM   34  O5  UNL     1      11.837 -26.321  10.253  1.00  0.00    -0.401 OA
ATOM     35  H5  UNL     1      11.528 -26.985  10.857  1.00  0.00     0.209 HD
ENDBRANCH  33  34
ENDBRANCH  32  33
ENDBRANCH  31  32
ENDBRANCH  28  31
ENDBRANCH   1  25
BRANCH   2  36
HETATM   36  C10 UNL     1      12.814 -32.432  13.681  1.00  0.00     0.033 A 
HETATM   37  C11 UNL     1      11.623 -32.237  14.359  1.00  0.00     0.030 A 
HETATM   38  C12 UNL     1      11.618 -31.829  15.672  1.00  0.00     0.019 A 
HETATM   39  C13 UNL     1      12.800 -31.603  16.340  1.00  0.00     0.022 A 
HETATM   40  C14 UNL     1      13.997 -31.795  15.666  1.00  0.00     0.019 A 
HETATM   41  C15 UNL     1      14.015 -32.204  14.353  1.00  0.00     0.030 A 
BRANCH  39  42
HETATM   42  P1  UNL     1      12.783 -31.061  18.077  1.00  0.00     0.200 P 
BRANCH  42  43
HETATM   43  O2  UNL     1      11.790 -32.158  18.979  1.00  0.00    -0.346 OA
ATOM     44  H2  UNL     1      12.222 -32.341  19.805  1.00  0.00     0.217 HD
ENDBRANCH  42  43
BRANCH  42  45
HETATM   45  O3  UNL     1      12.127 -29.460  18.152  1.00  0.00    -0.346 OA
ATOM     46  H3  UNL     1      11.636 -29.370  18.960  1.00  0.00     0.217 HD
ENDBRANCH  42  45
ENDBRANCH  39  42
ENDBRANCH   2  36
TORSDOF 15
ENDMDL
MODEL 3
REMARK VINA RESULT: -6.687577311      0.833      1.502
REMARK  15 active torsions:
REMARK  status: ('A' for Active; 'I' for Inactive)
REMARK    1  A    between atoms: C2_2  and  N1_3 
REMARK    2  A    between atoms: C2_2  and  C3_7 
REMARK    3  A    between atoms: C3_7  and  C4_8 
REMARK       I    between atoms: C4_8  and  N2_10 
REMARK    4  A    between atoms: N2_10  and  C5_12 
REMARK    5  A    between atoms: C5_12  and  C6_13 
REMARK    6  A    between atoms: C8_19  and  C9_20 
REMARK    7  A    between atoms: C9_20  and  N6_34 
REMARK    8  A    between atoms: N5_21  and  C10_23 
REMARK    9  A    between atoms: C13_26  and  P1_27 
REMARK   10  A    between atoms: P1_27  and  O2_28 
REMARK   11  A    between atoms: P1_27  and  O3_30 
REMARK       I    between atoms: N6_34  and  C16_36 
REMARK       I    between atoms: C16_36  and  N7_38 
REMARK   12  A    between atoms: N7_38  and  C17_40 
REMARK   13  A    between atoms: C17_40  and  C18_41 
REMARK   14  A    between atoms: C18_41  and  C19_42 
REMARK   15  A    between atoms: C19_42  and  O5_43 
ROOT
HETATM    1  C9  UNL     1      12.074 -33.159  11.741  1.00  0.00     0.138 C 
HETATM    2  N5  UNL     1      11.168 -33.021  12.683  1.00  0.00    -0.340 N 
ATOM      3  H5  UNL     1      10.231 -33.411  12.582  1.00  0.00     0.167 HD
ENDROOT
BRANCH   1   4
HETATM    4  C8  UNL     1      11.677 -33.891  10.551  1.00  0.00     0.095 A 
HETATM    5  C7  UNL     1      10.863 -34.975  10.672  1.00  0.00     0.140 A 
HETATM    6  N4  UNL     1      10.494 -35.646   9.562  1.00  0.00    -0.308 N 
HETATM    7  N3  UNL     1      10.928 -35.236   8.397  1.00  0.00    -0.288 N 
ATOM      8  H4  UNL     1       9.886 -36.462   9.630  1.00  0.00     0.186 HD
HETATM    9  C6  UNL     1      11.721 -34.182   8.253  1.00  0.00     0.114 A 
ATOM     10  H3  UNL     1      10.643 -35.748   7.562  1.00  0.00     0.188 HD
HETATM   11  N8  UNL     1      12.105 -33.493   9.349  1.00  0.00    -0.339 N 
ATOM     12  H8  UNL     1      12.713 -32.679   9.260  1.00  0.00     0.167 HD
BRANCH   9  13
HETATM   13  C5  UNL     1      12.233 -33.702   6.957  1.00  0.00     0.200 C 
BRANCH  13  14
HETATM   14  N2  UNL     1      13.318 -34.568   6.518  1.00  0.00    -0.354 N 
HETATM   15  C4  UNL     1      14.583 -34.052   6.148  1.00  0.00     0.219 C 
HETATM   16  O1  UNL     1      14.841 -32.823   6.176  1.00  0.00    -0.274 OA
ATOM     17  H2  UNL     1      13.162 -35.575   6.475  1.00  0.00     0.162 HD
BRANCH  15  18
HETATM   18  C3  UNL     1      15.640 -34.989   5.711  1.00  0.00     0.135 C 
BRANCH  18  19
HETATM   19  C2  UNL     1      15.572 -35.205   4.201  1.00  0.00     0.188 C 
HETATM   20  C1  UNL     1      16.291 -36.445   3.803  1.00  0.00     0.040 C 
BRANCH  19  21
HETATM   21  N1  UNL     1      16.096 -34.019   3.551  1.00  0.00    -0.075 N 
ATOM     22  H13 UNL     1      17.108 -33.957   3.663  1.00  0.00     0.274 HD
ATOM     23  H12 UNL     1      16.048 -34.108   2.536  1.00  0.00     0.274 HD
ATOM     24  H11 UNL     1      15.640 -33.163   3.865  1.00  0.00     0.274 HD
ENDBRANCH  19  21
ENDBRANCH  18  19
ENDBRANCH  15  18
ENDBRANCH  13  14
ENDBRANCH   9  13
ENDBRANCH   1   4
BRANCH   1  25
HETATM   25  N6  UNL     1      13.357 -32.619  11.898  1.00  0.00    -0.293 N 
HETATM   26  C16 UNL     1      13.708 -31.350  11.412  1.00  0.00     0.321 C 
HETATM   27  O4  UNL     1      12.875 -30.652  10.811  1.00  0.00    -0.247 OA
HETATM   28  N7  UNL     1      15.024 -30.827  11.593  1.00  0.00    -0.343 N 
ATOM     29  H7  UNL     1      15.708 -31.407  12.079  1.00  0.00     0.164 HD
ATOM     30  H6  UNL     1      14.064 -33.169  12.384  1.00  0.00     0.172 HD
BRANCH  28  31
HETATM   31  C17 UNL     1      15.439 -29.538  11.132  1.00  0.00     0.126 C 
BRANCH  31  32
HETATM   32  C18 UNL     1      15.423 -28.512  12.230  1.00  0.00     0.046 C 
BRANCH  32  33
HETATM   33  C19 UNL     1      14.422 -27.423  11.848  1.00  0.00     0.165 C 
BRANCH  33  34
HETATM   34  O5  UNL     1      13.213 -27.975  11.448  1.00  0.00    -0.401 OA
ATOM     35  H5  UNL     1      12.671 -27.328  11.010  1.00  0.00     0.209 HD
ENDBRANCH  33  34
ENDBRANCH  32  33
ENDBRANCH  31  32
ENDBRANCH  28  31
ENDBRANCH   1  25
BRANCH   2  36
HETATM   36  C10 UNL     1      11.552 -32.302  13.854  1.00  0.00     0.033 A 
HETATM   37  C11 UNL     1      11.182 -30.978  14.017  1.00  0.00     0.030 A 
HETATM   38  C12 UNL     1      11.549 -30.277  15.142  1.00  0.00     0.019 A 
HETATM   39  C13 UNL     1      12.295 -30.878  16.130  1.00  0.00     0.022 A 
HETATM   40  C14 UNL     1      12.670 -32.205  15.972  1.00  0.00     0.019 A 
HETATM   41  C15 UNL     1      12.308 -32.917  14.852  1.00  0.00     0.030 A 
BRANCH  39  42
HETATM   42  P1  UNL     1      12.777 -29.942  17.614  1.00  0.00     0.200 P 
BRANCH  42  43
HETATM   43  O2  UNL     1      11.349 -29.619  18.540  1.00  0.00    -0.346 OA
ATOM     44  H2  UNL     1      11.479 -29.959  19.417  1.00  0.00     0.217 HD
ENDBRANCH  42  43
BRANCH  42  45
HETATM   45  O3  UNL     1      13.517 -28.456  17.115  1.00  0.00    -0.346 OA
ATOM     46  H3  UNL     1      13.739 -27.953  17.890  1.00  0.00     0.217 HD
ENDBRANCH  42  45
ENDBRANCH  39  42
ENDBRANCH   2  36
TORSDOF 15
ENDMDL
MODEL 4
REMARK VINA RESULT: -6.681143598      3.141      5.372
REMARK  15 active torsions:
REMARK  status: ('A' for Active; 'I' for Inactive)
REMARK    1  A    between atoms: C2_2  and  N1_3 
REMARK    2  A    between atoms: C2_2  and  C3_7 
REMARK    3  A    between atoms: C3_7  and  C4_8 
REMARK       I    between atoms: C4_8  and  N2_10 
REMARK    4  A    between atoms: N2_10  and  C5_12 
REMARK    5  A    between atoms: C5_12  and  C6_13 
REMARK    6  A    between atoms: C8_19  and  C9_20 
REMARK    7  A    between atoms: C9_20  and  N6_34 
REMARK    8  A    between atoms: N5_21  and  C10_23 
REMARK    9  A    between atoms: C13_26  and  P1_27 
REMARK   10  A    between atoms: P1_27  and  O2_28 
REMARK   11  A    between atoms: P1_27  and  O3_30 
REMARK       I    between atoms: N6_34  and  C16_36 
REMARK       I    between atoms: C16_36  and  N7_38 
REMARK   12  A    between atoms: N7_38  and  C17_40 
REMARK   13  A    between atoms: C17_40  and  C18_41 
REMARK   14  A    between atoms: C18_41  and  C19_42 
REMARK   15  A    between atoms: C19_42  and  O5_43 
ROOT
HETATM    1  C9  UNL     1      12.853 -30.547  13.029  1.00  0.00     0.138 C 
HETATM    2  N5  UNL     1      12.651 -29.559  12.187  1.00  0.00    -0.340 N 
ATOM      3  H5  UNL     1      12.103 -29.688  11.337  1.00  0.00     0.167 HD
ENDROOT
BRANCH   1   4
HETATM    4  C8  UNL     1      12.261 -31.829  12.691  1.00  0.00     0.095 A 
HETATM    5  C7  UNL     1      12.020 -32.737  13.677  1.00  0.00     0.140 A 
HETATM    6  N4  UNL     1      11.464 -33.922  13.356  1.00  0.00    -0.308 N 
HETATM    7  N3  UNL     1      11.169 -34.169  12.104  1.00  0.00    -0.288 N 
ATOM      8  H4  UNL     1      11.276 -34.617  14.079  1.00  0.00     0.186 HD
HETATM    9  C6  UNL     1      11.394 -33.301  11.127  1.00  0.00     0.114 A 
ATOM     10  H3  UNL     1      10.748 -35.068  11.870  1.00  0.00     0.188 HD
HETATM   11  N8  UNL     1      11.949 -32.107  11.421  1.00  0.00    -0.339 N 
ATOM     12  H8  UNL     1      12.129 -31.425  10.684  1.00  0.00     0.167 HD
BRANCH   9  13
HETATM   13  C5  UNL     1      11.082 -33.554   9.708  1.00  0.00     0.200 C 
BRANCH  13  14
HETATM   14  N2  UNL     1      12.139 -32.998   8.876  1.00  0.00    -0.354 N 
HETATM   15  C4  UNL     1      12.580 -33.644   7.697  1.00  0.00     0.219 C 
HETATM   16  O1  UNL     1      12.089 -34.730   7.302  1.00  0.00    -0.274 OA
ATOM     17  H2  UNL     1      12.574 -32.117   9.151  1.00  0.00     0.162 HD
BRANCH  15  18
HETATM   18  C3  UNL     1      13.659 -33.021   6.899  1.00  0.00     0.135 C 
BRANCH  18  19
HETATM   19  C2  UNL     1      14.397 -34.080   6.082  1.00  0.00     0.188 C 
HETATM   20  C1  UNL     1      15.829 -33.719   5.905  1.00  0.00     0.040 C 
BRANCH  19  21
HETATM   21  N1  UNL     1      13.701 -34.245   4.820  1.00  0.00    -0.075 N 
ATOM     22  H13 UNL     1      13.265 -35.165   4.760  1.00  0.00     0.274 HD
ATOM     23  H12 UNL     1      12.864 -33.663   4.786  1.00  0.00     0.274 HD
ATOM     24  H11 UNL     1      14.300 -34.070   4.013  1.00  0.00     0.274 HD
ENDBRANCH  19  21
ENDBRANCH  18  19
ENDBRANCH  15  18
ENDBRANCH  13  14
ENDBRANCH   9  13
ENDBRANCH   1   4
BRANCH   1  25
HETATM   25  N6  UNL     1      13.606 -30.352  14.194  1.00  0.00    -0.293 N 
HETATM   26  C16 UNL     1      13.043 -29.878  15.388  1.00  0.00     0.321 C 
HETATM   27  O4  UNL     1      11.833 -29.607  15.451  1.00  0.00    -0.247 OA
HETATM   28  N7  UNL     1      13.839 -29.694  16.559  1.00  0.00    -0.343 N 
ATOM     29  H7  UNL     1      14.834 -29.909  16.502  1.00  0.00     0.164 HD
ATOM     30  H6  UNL     1      14.604 -30.563  14.173  1.00  0.00     0.172 HD
BRANCH  28  31
HETATM   31  C17 UNL     1      13.322 -29.226  17.809  1.00  0.00     0.126 C 
BRANCH  31  32
HETATM   32  C18 UNL     1      13.042 -30.353  18.763  1.00  0.00     0.046 C 
BRANCH  32  33
HETATM   33  C19 UNL     1      11.544 -30.362  19.060  1.00  0.00     0.165 C 
BRANCH  33  34
HETATM   34  O5  UNL     1      10.828 -29.757  18.036  1.00  0.00    -0.401 OA
ATOM     35  H5  UNL     1      10.092 -29.264  18.379  1.00  0.00     0.209 HD
ENDBRANCH  33  34
ENDBRANCH  32  33
ENDBRANCH  31  32
ENDBRANCH  28  31
ENDBRANCH   1  25
BRANCH   2  36
HETATM   36  C10 UNL     1      13.231 -28.298  12.514  1.00  0.00     0.033 A 
HETATM   37  C11 UNL     1      14.596 -28.100  12.390  1.00  0.00     0.030 A 
HETATM   38  C12 UNL     1      15.164 -26.888  12.705  1.00  0.00     0.019 A 
HETATM   39  C13 UNL     1      14.386 -25.844  13.151  1.00  0.00     0.022 A 
HETATM   40  C14 UNL     1      13.018 -26.035  13.278  1.00  0.00     0.019 A 
HETATM   41  C15 UNL     1      12.438 -27.243  12.966  1.00  0.00     0.030 A 
BRANCH  39  42
HETATM   42  P1  UNL     1      15.147 -24.244  13.566  1.00  0.00     0.200 P 
BRANCH  42  43
HETATM   43  O2  UNL     1      15.201 -24.098  15.292  1.00  0.00    -0.346 OA
ATOM     44  H2  UNL     1      16.112 -24.062  15.559  1.00  0.00     0.217 HD
ENDBRANCH  42  43
BRANCH  42  45
HETATM   45  O3  UNL     1      14.178 -22.978  12.888  1.00  0.00    -0.346 OA
ATOM     46  H3  UNL     1      14.216 -22.225  13.466  1.00  0.00     0.217 HD
ENDBRANCH  42  45
ENDBRANCH  39  42
ENDBRANCH   2  36
TORSDOF 15
ENDMDL
MODEL 5
REMARK VINA RESULT: -6.651428711      2.122      2.479
REMARK  15 active torsions:
REMARK  status: ('A' for Active; 'I' for Inactive)
REMARK    1  A    between atoms: C2_2  and  N1_3 
REMARK    2  A    between atoms: C2_2  and  C3_7 
REMARK    3  A    between atoms: C3_7  and  C4_8 
REMARK       I    between atoms: C4_8  and  N2_10 
REMARK    4  A    between atoms: N2_10  and  C5_12 
REMARK    5  A    between atoms: C5_12  and  C6_13 
REMARK    6  A    between atoms: C8_19  and  C9_20 
REMARK    7  A    between atoms: C9_20  and  N6_34 
REMARK    8  A    between atoms: N5_21  and  C10_23 
REMARK    9  A    between atoms: C13_26  and  P1_27 
REMARK   10  A    between atoms: P1_27  and  O2_28 
REMARK   11  A    between atoms: P1_27  and  O3_30 
REMARK       I    between atoms: N6_34  and  C16_36 
REMARK       I    between atoms: C16_36  and  N7_38 
REMARK   12  A    between atoms: N7_38  and  C17_40 
REMARK   13  A    between atoms: C17_40  and  C18_41 
REMARK   14  A    between atoms: C18_41  and  C19_42 
REMARK   15  A    between atoms: C19_42  and  O5_43 
ROOT
HETATM    1  C9  UNL     1      12.491 -31.539  12.467  1.00  0.00     0.138 C 
HETATM    2  N5  UNL     1      11.761 -32.047  13.435  1.00  0.00    -0.340 N 
ATOM      3  H5  UNL     1      11.085 -32.789  13.258  1.00  0.00     0.167 HD
ENDROOT
BRANCH   1   4
HETATM    4  C8  UNL     1      12.289 -32.085  11.137  1.00  0.00     0.095 A 
HETATM    5  C7  UNL     1      11.256 -32.944  10.915  1.00  0.00     0.140 A 
HETATM    6  N4  UNL     1      11.070 -33.441   9.676  1.00  0.00    -0.308 N 
HETATM    7  N3  UNL     1      11.888 -33.084   8.717  1.00  0.00    -0.288 N 
ATOM      8  H4  UNL     1      10.304 -34.087   9.487  1.00  0.00     0.186 HD
HETATM    9  C6  UNL     1      12.901 -32.249   8.909  1.00  0.00     0.114 A 
ATOM     10  H3  UNL     1      11.741 -33.464   7.783  1.00  0.00     0.188 HD
HETATM   11  N8  UNL     1      13.108 -31.736  10.140  1.00  0.00    -0.339 N 
ATOM     12  H8  UNL     1      13.881 -31.091  10.308  1.00  0.00     0.167 HD
BRANCH   9  13
HETATM   13  C5  UNL     1      13.843 -31.836   7.853  1.00  0.00     0.200 C 
BRANCH  13  14
HETATM   14  N2  UNL     1      14.056 -32.947   6.936  1.00  0.00    -0.354 N 
HETATM   15  C4  UNL     1      15.325 -33.216   6.370  1.00  0.00     0.219 C 
HETATM   16  O1  UNL     1      16.336 -32.515   6.623  1.00  0.00    -0.274 OA
ATOM     17  H2  UNL     1      13.268 -33.548   6.695  1.00  0.00     0.162 HD
BRANCH  15  18
HETATM   18  C3  UNL     1      15.469 -34.362   5.446  1.00  0.00     0.135 C 
BRANCH  18  19
HETATM   19  C2  UNL     1      14.908 -34.011   4.069  1.00  0.00     0.188 C 
HETATM   20  C1  UNL     1      15.063 -35.147   3.121  1.00  0.00     0.040 C 
BRANCH  19  21
HETATM   21  N1  UNL     1      15.562 -32.802   3.608  1.00  0.00    -0.075 N 
ATOM     22  H13 UNL     1      16.569 -32.849   3.764  1.00  0.00     0.274 HD
ATOM     23  H12 UNL     1      15.555 -32.749   2.589  1.00  0.00     0.274 HD
ATOM     24  H11 UNL     1      15.167 -31.957   4.021  1.00  0.00     0.274 HD
ENDBRANCH  19  21
ENDBRANCH  18  19
ENDBRANCH  15  18
ENDBRANCH  13  14
ENDBRANCH   9  13
ENDBRANCH   1   4
BRANCH   1  25
HETATM   25  N6  UNL     1      13.417 -30.521  12.728  1.00  0.00    -0.293 N 
HETATM   26  C16 UNL     1      13.097 -29.160  12.615  1.00  0.00     0.321 C 
HETATM   27  O4  UNL     1      11.958 -28.807  12.269  1.00  0.00    -0.247 OA
HETATM   28  N7  UNL     1      14.064 -28.147  12.894  1.00  0.00    -0.343 N 
ATOM     29  H7  UNL     1      15.000 -28.441  13.170  1.00  0.00     0.164 HD
ATOM     30  H6  UNL     1      14.362 -30.780  13.013  1.00  0.00     0.172 HD
BRANCH  28  31
HETATM   31  C17 UNL     1      13.795 -26.744  12.808  1.00  0.00     0.126 C 
BRANCH  31  32
HETATM   32  C18 UNL     1      14.024 -26.208  11.423  1.00  0.00     0.046 C 
BRANCH  32  33
HETATM   33  C19 UNL     1      12.731 -25.543  10.952  1.00  0.00     0.165 C 
BRANCH  33  34
HETATM   34  O5  UNL     1      11.841 -26.482  10.449  1.00  0.00    -0.401 OA
ATOM     35  H5  UNL     1      11.408 -26.157   9.669  1.00  0.00     0.209 HD
ENDBRANCH  33  34
ENDBRANCH  32  33
ENDBRANCH  31  32
ENDBRANCH  28  31
ENDBRANCH   1  25
BRANCH   2  36
HETATM   36  C10 UNL     1      11.956 -31.514  14.744  1.00  0.00     0.033 A 
HETATM   37  C11 UNL     1      12.872 -32.090  15.607  1.00  0.00     0.030 A 
HETATM   38  C12 UNL     1      13.065 -31.584  16.871  1.00  0.00     0.019 A 
HETATM   39  C13 UNL     1      12.347 -30.493  17.306  1.00  0.00     0.022 A 
HETATM   40  C14 UNL     1      11.427 -29.911  16.446  1.00  0.00     0.019 A 
HETATM   41  C15 UNL     1      11.226 -30.408  15.179  1.00  0.00     0.030 A 
BRANCH  39  42
HETATM   42  P1  UNL     1      12.608 -29.831  18.980  1.00  0.00     0.200 P 
BRANCH  42  43
HETATM   43  O2  UNL     1      11.102 -29.904  19.835  1.00  0.00    -0.346 OA
ATOM     44  H2  UNL     1      11.185 -29.391  20.629  1.00  0.00     0.217 HD
ENDBRANCH  42  43
BRANCH  42  45
HETATM   45  O3  UNL     1      13.143 -28.188  18.850  1.00  0.00    -0.346 OA
ATOM     46  H3  UNL     1      14.029 -28.184  18.509  1.00  0.00     0.217 HD
ENDBRANCH  42  45
ENDBRANCH  39  42
ENDBRANCH   2  36
TORSDOF 15
ENDMDL
