MODEL 1
REMARK VINA RESULT: -7.342449598      0.000      0.000
REMARK  15 active torsions:
REMARK  status: ('A' for Active; 'I' for Inactive)
REMARK    1  A    between atoms: C2_2  and  C4_4 
REMARK    2  A    between atoms: N1_6  and  C6_7 
REMARK    3  A    between atoms: C6_7  and  O1_8 
REMARK    4  A    between atoms: C6_7  and  N2_10 
REMARK    5  A    between atoms: C9_13  and  C11_15 
REMARK    6  A    between atoms: C11_15  and  C12_16 
REMARK    7  A    between atoms: C12_16  and  N3_17 
REMARK    8  A    between atoms: N3_17  and  C13_19 
REMARK    9  A    between atoms: C16_22  and  N4_23 
REMARK   10  A    between atoms: N4_23  and  N5_25 
REMARK   11  A    between atoms: N5_25  and  C17_26 
REMARK   12  A    between atoms: C17_26  and  C18_27 
REMARK   13  A    between atoms: C18_27  and  P1_28 
REMARK   14  A    between atoms: P1_28  and  O2_29 
REMARK   15  A    between atoms: P1_28  and  O3_31 
ROOT
HETATM    1  C12 UNL     1      10.371 -32.462  11.706  1.00  0.00     0.126 C 
ENDROOT
BRANCH   1   2
HETATM    2  C11 UNL     1      11.048 -32.245  13.044  1.00  0.00     0.081 C 
BRANCH   2   3
HETATM    3  C9  UNL     1      12.159 -31.233  12.999  1.00  0.00     0.147 C 
HETATM    4  N1  UNL     1      13.189 -31.440  14.040  1.00  0.00    -0.313 N 
HETATM    5  C5  UNL     1      14.532 -31.889  13.821  1.00  0.00     0.155 C 
HETATM    6  C4  UNL     1      15.450 -30.808  13.303  1.00  0.00     0.108 C 
HETATM    7  N8  UNL     1      15.099 -30.562  11.920  1.00  0.00    -0.330 N 
HETATM    8  C19 UNL     1      13.957 -30.953  11.212  1.00  0.00     0.363 C 
ATOM      9  H8  UNL     1      15.782 -30.027  11.385  1.00  0.00     0.165 HD
HETATM   10  O4  UNL     1      12.748 -31.384  11.712  1.00  0.00    -0.272 OA
HETATM   11  O5  UNL     1      14.056 -30.901   9.948  1.00  0.00    -0.238 OA
HETATM   12  C10 UNL     1      11.562 -29.860  13.058  1.00  0.00     0.072 C 
BRANCH   4  13
HETATM   13  C6  UNL     1      12.781 -31.143  15.317  1.00  0.00     0.218 C 
BRANCH  13  14
HETATM   14  O1  UNL     1      12.042 -32.107  15.856  1.00  0.00    -0.332 OA
ATOM     15  H1  UNL     1      12.557 -32.721  16.366  1.00  0.00     0.220 HD
ENDBRANCH  13  14
BRANCH  13  16
HETATM   16  N2  UNL     1      12.927 -30.098  16.217  1.00  0.00    -0.356 N 
HETATM   17  C7  UNL     1      12.173 -30.147  17.517  1.00  0.00     0.152 C 
HETATM   18  C8  UNL     1      13.718 -28.932  16.072  1.00  0.00     0.152 C 
ENDBRANCH  13  16
ENDBRANCH   4  13
BRANCH   6  19
HETATM   19  C2  UNL     1      16.868 -31.369  13.392  1.00  0.00     0.002 C 
HETATM   20  C1  UNL     1      16.853 -32.846  13.156  1.00  0.00     0.011 C 
HETATM   21  C3  UNL     1      17.546 -30.959  14.659  1.00  0.00     0.011 C 
ENDBRANCH   6  19
ENDBRANCH   2   3
ENDBRANCH   1   2
BRANCH   1  22
HETATM   22  N3  UNL     1      10.646 -33.739  11.110  1.00  0.00    -0.375 N 
ATOM     23  H3  UNL     1      10.399 -34.573  11.643  1.00  0.00     0.161 HD
BRANCH  22  24
HETATM   24  C13 UNL     1      11.239 -33.925   9.824  1.00  0.00     0.115 A 
HETATM   25  C14 UNL     1      11.118 -35.106   9.129  1.00  0.00     0.053 A 
HETATM   26  C15 UNL     1      11.703 -35.206   7.876  1.00  0.00     0.054 A 
HETATM   27  C16 UNL     1      12.387 -34.149   7.345  1.00  0.00     0.131 A 
HETATM   28  N6  UNL     1      12.472 -33.025   8.069  1.00  0.00    -0.283 N 
HETATM   29  N7  UNL     1      11.926 -32.921   9.245  1.00  0.00    -0.284 N 
ATOM     30  H6  UNL     1      12.980 -32.227   7.687  1.00  0.00     0.188 HD
ATOM     31  H7  UNL     1      12.021 -32.041   9.752  1.00  0.00     0.188 HD
BRANCH  27  32
HETATM   32  N4  UNL     1      13.002 -34.221   6.056  1.00  0.00    -0.288 N 
ATOM     33  H4  UNL     1      12.431 -34.402   5.229  1.00  0.00     0.184 HD
BRANCH  32  34
HETATM   34  N5  UNL     1      14.366 -34.046   5.927  1.00  0.00    -0.139 NA
BRANCH  34  35
HETATM   35  C17 UNL     1      14.784 -33.945   4.539  1.00  0.00     0.144 C 
BRANCH  35  36
HETATM   36  C18 UNL     1      15.625 -35.128   4.146  1.00  0.00     0.111 C 
BRANCH  36  37
HETATM   37  P1  UNL     1      16.308 -35.957   5.657  1.00  0.00     0.164 P 
BRANCH  37  38
HETATM   38  O2  UNL     1      15.072 -36.768   6.546  1.00  0.00    -0.350 OA
ATOM     39  H2  UNL     1      15.436 -37.283   7.257  1.00  0.00     0.217 HD
ENDBRANCH  37  38
BRANCH  37  40
HETATM   40  O3  UNL     1      17.532 -37.104   5.173  1.00  0.00    -0.350 OA
ATOM     41  H3  UNL     1      18.028 -37.370   5.939  1.00  0.00     0.217 HD
ENDBRANCH  37  40
ENDBRANCH  36  37
ENDBRANCH  35  36
ENDBRANCH  34  35
ENDBRANCH  32  34
ENDBRANCH  27  32
ENDBRANCH  22  24
ENDBRANCH   1  22
TORSDOF 15
ENDMDL
MODEL 2
REMARK VINA RESULT: -7.282090364      2.075      3.243
REMARK  15 active torsions:
REMARK  status: ('A' for Active; 'I' for Inactive)
REMARK    1  A    between atoms: C2_2  and  C4_4 
REMARK    2  A    between atoms: N1_6  and  C6_7 
REMARK    3  A    between atoms: C6_7  and  O1_8 
REMARK    4  A    between atoms: C6_7  and  N2_10 
REMARK    5  A    between atoms: C9_13  and  C11_15 
REMARK    6  A    between atoms: C11_15  and  C12_16 
REMARK    7  A    between atoms: C12_16  and  N3_17 
REMARK    8  A    between atoms: N3_17  and  C13_19 
REMARK    9  A    between atoms: C16_22  and  N4_23 
REMARK   10  A    between atoms: N4_23  and  N5_25 
REMARK   11  A    between atoms: N5_25  and  C17_26 
REMARK   12  A    between atoms: C17_26  and  C18_27 
REMARK   13  A    between atoms: C18_27  and  P1_28 
REMARK   14  A    between atoms: P1_28  and  O2_29 
REMARK   15  A    between atoms: P1_28  and  O3_31 
ROOT
HETATM    1  C12 UNL     1      11.297 -33.861  11.772  1.00  0.00     0.126 C 
ENDROOT
BRANCH   1   2
HETATM    2  C11 UNL     1      11.141 -32.478  12.371  1.00  0.00     0.081 C 
BRANCH   2   3
HETATM    3  C9  UNL     1      12.349 -32.014  13.136  1.00  0.00     0.147 C 
HETATM    4  N1  UNL     1      12.063 -30.913  14.081  1.00  0.00    -0.313 N 
HETATM    5  C5  UNL     1      12.059 -31.006  15.510  1.00  0.00     0.155 C 
HETATM    6  C4  UNL     1      13.443 -31.000  16.117  1.00  0.00     0.108 C 
HETATM    7  N8  UNL     1      14.047 -32.286  15.838  1.00  0.00    -0.330 N 
HETATM    8  C19 UNL     1      13.650 -33.275  14.932  1.00  0.00     0.363 C 
ATOM      9  H8  UNL     1      14.882 -32.502  16.382  1.00  0.00     0.165 HD
HETATM   10  O4  UNL     1      12.791 -33.157  13.860  1.00  0.00    -0.272 OA
HETATM   11  O5  UNL     1      14.148 -34.425  15.128  1.00  0.00    -0.238 OA
HETATM   12  C10 UNL     1      13.430 -31.659  12.161  1.00  0.00     0.072 C 
BRANCH   4  13
HETATM   13  C6  UNL     1      11.801 -29.703  13.487  1.00  0.00     0.218 C 
BRANCH  13  14
HETATM   14  O1  UNL     1      10.598 -29.657  12.924  1.00  0.00    -0.332 OA
ATOM     15  H1  UNL     1       9.908 -29.462  13.548  1.00  0.00     0.220 HD
ENDBRANCH  13  14
BRANCH  13  16
HETATM   16  N2  UNL     1      12.455 -28.493  13.307  1.00  0.00    -0.356 N 
HETATM   17  C7  UNL     1      11.651 -27.284  12.914  1.00  0.00     0.152 C 
HETATM   18  C8  UNL     1      13.839 -28.226  13.441  1.00  0.00     0.152 C 
ENDBRANCH  13  16
ENDBRANCH   4  13
BRANCH   6  19
HETATM   19  C2  UNL     1      13.252 -30.825  17.621  1.00  0.00     0.002 C 
HETATM   20  C1  UNL     1      13.157 -32.161  18.288  1.00  0.00     0.011 C 
HETATM   21  C3  UNL     1      12.116 -29.905  17.931  1.00  0.00     0.011 C 
ENDBRANCH   6  19
ENDBRANCH   2   3
ENDBRANCH   1   2
BRANCH   1  22
HETATM   22  N3  UNL     1      10.693 -34.011  10.478  1.00  0.00    -0.375 N 
ATOM     23  H3  UNL     1       9.682 -34.140  10.440  1.00  0.00     0.161 HD
BRANCH  22  24
HETATM   24  C13 UNL     1      11.406 -33.991   9.240  1.00  0.00     0.115 A 
HETATM   25  C14 UNL     1      12.133 -32.897   8.834  1.00  0.00     0.053 A 
HETATM   26  C15 UNL     1      12.818 -32.959   7.631  1.00  0.00     0.054 A 
HETATM   27  C16 UNL     1      12.767 -34.088   6.864  1.00  0.00     0.131 A 
HETATM   28  N6  UNL     1      12.041 -35.123   7.310  1.00  0.00    -0.283 N 
HETATM   29  N7  UNL     1      11.396 -35.074   8.439  1.00  0.00    -0.284 N 
ATOM     30  H6  UNL     1      11.992 -35.973   6.748  1.00  0.00     0.188 HD
ATOM     31  H7  UNL     1      10.860 -35.891   8.730  1.00  0.00     0.188 HD
BRANCH  27  32
HETATM   32  N4  UNL     1      13.462 -34.184   5.617  1.00  0.00    -0.288 N 
ATOM     33  H4  UNL     1      12.939 -34.332   4.753  1.00  0.00     0.184 HD
BRANCH  32  34
HETATM   34  N5  UNL     1      14.838 -34.076   5.580  1.00  0.00    -0.139 NA
BRANCH  34  35
HETATM   35  C17 UNL     1      15.365 -34.149   4.228  1.00  0.00     0.144 C 
BRANCH  35  36
HETATM   36  C18 UNL     1      15.672 -35.572   3.849  1.00  0.00     0.111 C 
BRANCH  36  37
HETATM   37  P1  UNL     1      16.429 -36.466   5.284  1.00  0.00     0.164 P 
BRANCH  37  38
HETATM   38  O2  UNL     1      17.662 -35.525   6.038  1.00  0.00    -0.350 OA
ATOM     39  H2  UNL     1      18.398 -35.384   5.454  1.00  0.00     0.217 HD
ENDBRANCH  37  38
BRANCH  37  40
HETATM   40  O3  UNL     1      15.180 -36.836   6.447  1.00  0.00    -0.350 OA
ATOM     41  H3  UNL     1      15.584 -37.021   7.288  1.00  0.00     0.217 HD
ENDBRANCH  37  40
ENDBRANCH  36  37
ENDBRANCH  35  36
ENDBRANCH  34  35
ENDBRANCH  32  34
ENDBRANCH  27  32
ENDBRANCH  22  24
ENDBRANCH   1  22
TORSDOF 15
ENDMDL
MODEL 3
REMARK VINA RESULT: -7.247887244      1.691      3.943
REMARK  15 active torsions:
REMARK  status: ('A' for Active; 'I' for Inactive)
REMARK    1  A    between atoms: C2_2  and  C4_4 
REMARK    2  A    between atoms: N1_6  and  C6_7 
REMARK    3  A    between atoms: C6_7  and  O1_8 
REMARK    4  A    between atoms: C6_7  and  N2_10 
REMARK    5  A    between atoms: C9_13  and  C11_15 
REMARK    6  A    between atoms: C11_15  and  C12_16 
REMARK    7  A    between atoms: C12_16  and  N3_17 
REMARK    8  A    between atoms: N3_17  and  C13_19 
REMARK    9  A    between atoms: C16_22  and  N4_23 
REMARK   10  A    between atoms: N4_23  and  N5_25 
REMARK   11  A    between atoms: N5_25  and  C17_26 
REMARK   12  A    between atoms: C17_26  and  C18_27 
REMARK   13  A    between atoms: C18_27  and  P1_28 
REMARK   14  A    between atoms: P1_28  and  O2_29 
REMARK   15  A    between atoms: P1_28  and  O3_31 
ROOT
HETATM    1  C12 UNL     1      11.045 -33.880  10.002  1.00  0.00     0.126 C 
ENDROOT
BRANCH   1   2
HETATM    2  C11 UNL     1      11.034 -32.623  10.848  1.00  0.00     0.081 C 
BRANCH   2   3
HETATM    3  C9  UNL     1      11.876 -32.726  12.089  1.00  0.00     0.147 C 
HETATM    4  N1  UNL     1      12.488 -31.442  12.496  1.00  0.00    -0.313 N 
HETATM    5  C5  UNL     1      12.132 -30.663  13.644  1.00  0.00     0.155 C 
HETATM    6  C4  UNL     1      12.702 -31.201  14.936  1.00  0.00     0.108 C 
HETATM    7  N8  UNL     1      11.962 -32.398  15.275  1.00  0.00    -0.330 N 
HETATM    8  C19 UNL     1      11.102 -33.164  14.480  1.00  0.00     0.363 C 
ATOM      9  H8  UNL     1      12.085 -32.732  16.231  1.00  0.00     0.165 HD
HETATM   10  O4  UNL     1      10.985 -33.169  13.107  1.00  0.00    -0.272 OA
HETATM   11  O5  UNL     1      10.333 -33.952  15.112  1.00  0.00    -0.238 OA
HETATM   12  C10 UNL     1      12.898 -33.804  11.891  1.00  0.00     0.072 C 
BRANCH   4  13
HETATM   13  C6  UNL     1      13.500 -31.006  11.677  1.00  0.00     0.218 C 
BRANCH  13  14
HETATM   14  O1  UNL     1      13.052 -30.323  10.629  1.00  0.00    -0.332 OA
ATOM     15  H1  UNL     1      13.204 -29.388  10.708  1.00  0.00     0.220 HD
ENDBRANCH  13  14
BRANCH  13  16
HETATM   16  N2  UNL     1      14.884 -31.081  11.639  1.00  0.00    -0.356 N 
HETATM   17  C7  UNL     1      15.602 -30.629  10.396  1.00  0.00     0.152 C 
HETATM   18  C8  UNL     1      15.756 -31.552  12.650  1.00  0.00     0.152 C 
ENDBRANCH  13  16
ENDBRANCH   4  13
BRANCH   6  19
HETATM   19  C2  UNL     1      12.467 -30.123  15.992  1.00  0.00     0.002 C 
HETATM   20  C1  UNL     1      13.496 -29.044  15.864  1.00  0.00     0.011 C 
HETATM   21  C3  UNL     1      12.360 -30.707  17.364  1.00  0.00     0.011 C 
ENDBRANCH   6  19
ENDBRANCH   2   3
ENDBRANCH   1   2
BRANCH   1  22
HETATM   22  N3  UNL     1      11.078 -33.634   8.588  1.00  0.00    -0.375 N 
ATOM     23  H3  UNL     1      10.185 -33.566   8.099  1.00  0.00     0.161 HD
BRANCH  22  24
HETATM   24  C13 UNL     1      12.270 -33.478   7.817  1.00  0.00     0.115 A 
HETATM   25  C14 UNL     1      13.110 -32.402   7.981  1.00  0.00     0.053 A 
HETATM   26  C15 UNL     1      14.261 -32.330   7.212  1.00  0.00     0.054 A 
HETATM   27  C16 UNL     1      14.552 -33.312   6.308  1.00  0.00     0.131 A 
HETATM   28  N6  UNL     1      13.696 -34.336   6.191  1.00  0.00    -0.283 N 
HETATM   29  N7  UNL     1      12.613 -34.413   6.909  1.00  0.00    -0.284 N 
ATOM     30  H6  UNL     1      13.898 -35.076   5.519  1.00  0.00     0.188 HD
ATOM     31  H7  UNL     1      11.998 -35.215   6.779  1.00  0.00     0.188 HD
BRANCH  27  32
HETATM   32  N4  UNL     1      15.731 -33.266   5.500  1.00  0.00    -0.288 N 
ATOM     33  H4  UNL     1      15.758 -32.671   4.671  1.00  0.00     0.184 HD
BRANCH  32  34
HETATM   34  N5  UNL     1      16.834 -34.026   5.838  1.00  0.00    -0.139 NA
BRANCH  34  35
HETATM   35  C17 UNL     1      17.687 -34.306   4.696  1.00  0.00     0.144 C 
BRANCH  35  36
HETATM   36  C18 UNL     1      17.872 -35.788   4.517  1.00  0.00     0.111 C 
BRANCH  36  37
HETATM   37  P1  UNL     1      16.231 -36.648   4.569  1.00  0.00     0.164 P 
BRANCH  37  38
HETATM   38  O2  UNL     1      15.694 -36.890   6.190  1.00  0.00    -0.350 OA
ATOM     39  H2  UNL     1      14.789 -36.625   6.301  1.00  0.00     0.217 HD
ENDBRANCH  37  38
BRANCH  37  40
HETATM   40  O3  UNL     1      15.058 -35.690   3.700  1.00  0.00    -0.350 OA
ATOM     41  H3  UNL     1      14.466 -35.284   4.323  1.00  0.00     0.217 HD
ENDBRANCH  37  40
ENDBRANCH  36  37
ENDBRANCH  35  36
ENDBRANCH  34  35
ENDBRANCH  32  34
ENDBRANCH  27  32
ENDBRANCH  22  24
ENDBRANCH   1  22
TORSDOF 15
ENDMDL
MODEL 4
REMARK VINA RESULT: -7.198470374      1.986      3.695
REMARK  15 active torsions:
REMARK  status: ('A' for Active; 'I' for Inactive)
REMARK    1  A    between atoms: C2_2  and  C4_4 
REMARK    2  A    between atoms: N1_6  and  C6_7 
REMARK    3  A    between atoms: C6_7  and  O1_8 
REMARK    4  A    between atoms: C6_7  and  N2_10 
REMARK    5  A    between atoms: C9_13  and  C11_15 
REMARK    6  A    between atoms: C11_15  and  C12_16 
REMARK    7  A    between atoms: C12_16  and  N3_17 
REMARK    8  A    between atoms: N3_17  and  C13_19 
REMARK    9  A    between atoms: C16_22  and  N4_23 
REMARK   10  A    between atoms: N4_23  and  N5_25 
REMARK   11  A    between atoms: N5_25  and  C17_26 
REMARK   12  A    between atoms: C17_26  and  C18_27 
REMARK   13  A    between atoms: C18_27  and  P1_28 
REMARK   14  A    between atoms: P1_28  and  O2_29 
REMARK   15  A    between atoms: P1_28  and  O3_31 
ROOT
HETATM    1  C12 UNL     1      13.052 -31.501  11.258  1.00  0.00     0.126 C 
ENDROOT
BRANCH   1   2
HETATM    2  C11 UNL     1      12.284 -31.227  12.535  1.00  0.00     0.081 C 
BRANCH   2   3
HETATM    3  C9  UNL     1      13.166 -31.032  13.737  1.00  0.00     0.147 C 
HETATM    4  N1  UNL     1      12.596 -30.112  14.745  1.00  0.00    -0.313 N 
HETATM    5  C5  UNL     1      12.100 -30.477  16.038  1.00  0.00     0.155 C 
HETATM    6  C4  UNL     1      13.191 -30.716  17.055  1.00  0.00     0.108 C 
HETATM    7  N8  UNL     1      13.827 -31.975  16.726  1.00  0.00    -0.330 N 
HETATM    8  C19 UNL     1      13.744 -32.730  15.552  1.00  0.00     0.363 C 
ATOM      9  H8  UNL     1      14.420 -32.368  17.457  1.00  0.00     0.165 HD
HETATM   10  O4  UNL     1      13.308 -32.329  14.307  1.00  0.00    -0.272 OA
HETATM   11  O5  UNL     1      14.121 -33.937  15.652  1.00  0.00    -0.238 OA
HETATM   12  C10 UNL     1      14.523 -30.597  13.275  1.00  0.00     0.072 C 
BRANCH   4  13
HETATM   13  C6  UNL     1      12.580 -28.791  14.369  1.00  0.00     0.218 C 
BRANCH  13  14
HETATM   14  O1  UNL     1      13.323 -28.024  15.159  1.00  0.00    -0.332 OA
ATOM     15  H1  UNL     1      12.954 -27.158  15.283  1.00  0.00     0.220 HD
ENDBRANCH  13  14
BRANCH  13  16
HETATM   16  N2  UNL     1      11.992 -28.021  13.377  1.00  0.00    -0.356 N 
HETATM   17  C7  UNL     1      12.858 -27.459  12.284  1.00  0.00     0.152 C 
HETATM   18  C8  UNL     1      10.627 -27.667  13.248  1.00  0.00     0.152 C 
ENDBRANCH  13  16
ENDBRANCH   4  13
BRANCH   6  19
HETATM   19  C2  UNL     1      12.499 -30.817  18.413  1.00  0.00     0.002 C 
HETATM   20  C1  UNL     1      12.830 -29.622  19.250  1.00  0.00     0.011 C 
HETATM   21  C3  UNL     1      12.776 -32.127  19.079  1.00  0.00     0.011 C 
ENDBRANCH   6  19
ENDBRANCH   2   3
ENDBRANCH   1   2
BRANCH   1  22
HETATM   22  N3  UNL     1      12.221 -31.656  10.097  1.00  0.00    -0.375 N 
ATOM     23  H3  UNL     1      11.299 -31.220  10.113  1.00  0.00     0.161 HD
BRANCH  22  24
HETATM   24  C13 UNL     1      12.593 -32.376   8.921  1.00  0.00     0.115 A 
HETATM   25  C14 UNL     1      11.833 -33.411   8.428  1.00  0.00     0.053 A 
HETATM   26  C15 UNL     1      12.246 -34.048   7.268  1.00  0.00     0.054 A 
HETATM   27  C16 UNL     1      13.388 -33.654   6.630  1.00  0.00     0.131 A 
HETATM   28  N6  UNL     1      14.088 -32.640   7.158  1.00  0.00    -0.283 N 
HETATM   29  N7  UNL     1      13.708 -32.035   8.245  1.00  0.00    -0.284 N 
ATOM     30  H6  UNL     1      14.943 -32.334   6.694  1.00  0.00     0.188 HD
ATOM     31  H7  UNL     1      14.278 -31.268   8.601  1.00  0.00     0.188 HD
BRANCH  27  32
HETATM   32  N4  UNL     1      13.840 -34.292   5.433  1.00  0.00    -0.288 N 
ATOM     33  H4  UNL     1      13.163 -34.626   4.746  1.00  0.00     0.184 HD
BRANCH  32  34
HETATM   34  N5  UNL     1      15.192 -34.456   5.203  1.00  0.00    -0.139 NA
BRANCH  34  35
HETATM   35  C17 UNL     1      15.486 -34.764   3.813  1.00  0.00     0.144 C 
BRANCH  35  36
HETATM   36  C18 UNL     1      15.926 -36.194   3.663  1.00  0.00     0.111 C 
BRANCH  36  37
HETATM   37  P1  UNL     1      16.553 -36.843   5.281  1.00  0.00     0.164 P 
BRANCH  37  38
HETATM   38  O2  UNL     1      17.695 -35.765   5.996  1.00  0.00    -0.350 OA
ATOM     39  H2  UNL     1      17.279 -35.181   6.620  1.00  0.00     0.217 HD
ENDBRANCH  37  38
BRANCH  37  40
HETATM   40  O3  UNL     1      15.204 -37.071   6.365  1.00  0.00    -0.350 OA
ATOM     41  H3  UNL     1      15.384 -36.624   7.184  1.00  0.00     0.217 HD
ENDBRANCH  37  40
ENDBRANCH  36  37
ENDBRANCH  35  36
ENDBRANCH  34  35
ENDBRANCH  32  34
ENDBRANCH  27  32
ENDBRANCH  22  24
ENDBRANCH   1  22
TORSDOF 15
ENDMDL
MODEL 5
REMARK VINA RESULT: -7.047692660      1.871      3.344
REMARK  15 active torsions:
REMARK  status: ('A' for Active; 'I' for Inactive)
REMARK    1  A    between atoms: C2_2  and  C4_4 
REMARK    2  A    between atoms: N1_6  and  C6_7 
REMARK    3  A    between atoms: C6_7  and  O1_8 
REMARK    4  A    between atoms: C6_7  and  N2_10 
REMARK    5  A    between atoms: C9_13  and  C11_15 
REMARK    6  A    between atoms: C11_15  and  C12_16 
REMARK    7  A    between atoms: C12_16  and  N3_17 
REMARK    8  A    between atoms: N3_17  and  C13_19 
REMARK    9  A    between atoms: C16_22  and  N4_23 
REMARK   10  A    between atoms: N4_23  and  N5_25 
REMARK   11  A    between atoms: N5_25  and  C17_26 
REMARK   12  A    between atoms: C17_26  and  C18_27 
REMARK   13  A    between atoms: C18_27  and  P1_28 
REMARK   14  A    between atoms: P1_28  and  O2_29 
REMARK   15  A    between atoms: P1_28  and  O3_31 
ROOT
HETATM    1  C12 UNL     1      11.559 -32.800  12.319  1.00  0.00     0.126 C 
ENDROOT
BRANCH   1   2
HETATM    2  C11 UNL     1      11.646 -31.400  12.892  1.00  0.00     0.081 C 
BRANCH   2   3
HETATM    3  C9  UNL     1      12.796 -31.210  13.842  1.00  0.00     0.147 C 
HETATM    4  N1  UNL     1      12.515 -30.241  14.924  1.00  0.00    -0.313 N 
HETATM    5  C5  UNL     1      12.330 -30.552  16.310  1.00  0.00     0.155 C 
HETATM    6  C4  UNL     1      13.625 -30.808  17.045  1.00  0.00     0.108 C 
HETATM    7  N8  UNL     1      14.122 -32.099  16.619  1.00  0.00    -0.330 N 
HETATM    8  C19 UNL     1      13.736 -32.881  15.525  1.00  0.00     0.363 C 
ATOM      9  H8  UNL     1      14.860 -32.496  17.200  1.00  0.00     0.165 HD
HETATM   10  O4  UNL     1      13.028 -32.496  14.407  1.00  0.00    -0.272 OA
HETATM   11  O5  UNL     1      14.086 -34.099  15.575  1.00  0.00    -0.238 OA
HETATM   12  C10 UNL     1      14.016 -30.842  13.054  1.00  0.00     0.072 C 
BRANCH   4  13
HETATM   13  C6  UNL     1      12.451 -28.931  14.517  1.00  0.00     0.218 C 
BRANCH  13  14
HETATM   14  O1  UNL     1      13.267 -28.140  15.206  1.00  0.00    -0.332 OA
ATOM     15  H1  UNL     1      14.129 -28.070  14.813  1.00  0.00     0.220 HD
ENDBRANCH  13  14
BRANCH  13  16
HETATM   16  N2  UNL     1      11.760 -28.190  13.569  1.00  0.00    -0.356 N 
HETATM   17  C7  UNL     1      12.534 -27.510  12.473  1.00  0.00     0.152 C 
HETATM   18  C8  UNL     1      10.364 -27.968  13.492  1.00  0.00     0.152 C 
ENDBRANCH  13  16
ENDBRANCH   4  13
BRANCH   6  19
HETATM   19  C2  UNL     1      13.275 -30.845  18.531  1.00  0.00     0.002 C 
HETATM   20  C1  UNL     1      12.527 -32.101  18.853  1.00  0.00     0.011 C 
HETATM   21  C3  UNL     1      12.586 -29.593  18.969  1.00  0.00     0.011 C 
ENDBRANCH   6  19
ENDBRANCH   2   3
ENDBRANCH   1   2
BRANCH   1  22
HETATM   22  N3  UNL     1      10.819 -32.886  11.092  1.00  0.00    -0.375 N 
ATOM     23  H3  UNL     1       9.829 -32.637  11.117  1.00  0.00     0.161 HD
BRANCH  22  24
HETATM   24  C13 UNL     1      11.367 -33.293   9.837  1.00  0.00     0.115 A 
HETATM   25  C14 UNL     1      10.993 -34.466   9.224  1.00  0.00     0.053 A 
HETATM   26  C15 UNL     1      11.552 -34.785   7.996  1.00  0.00     0.054 A 
HETATM   27  C16 UNL     1      12.458 -33.948   7.410  1.00  0.00     0.131 A 
HETATM   28  N6  UNL     1      12.785 -32.820   8.055  1.00  0.00    -0.283 N 
HETATM   29  N7  UNL     1      12.265 -32.511   9.207  1.00  0.00    -0.284 N 
ATOM     30  H6  UNL     1      13.461 -32.184   7.631  1.00  0.00     0.188 HD
ATOM     31  H7  UNL     1      12.549 -31.639   9.653  1.00  0.00     0.188 HD
BRANCH  27  32
HETATM   32  N4  UNL     1      13.053 -34.248   6.144  1.00  0.00    -0.288 N 
ATOM     33  H4  UNL     1      12.549 -34.824   5.469  1.00  0.00     0.184 HD
BRANCH  32  34
HETATM   34  N5  UNL     1      14.307 -33.760   5.834  1.00  0.00    -0.139 NA
BRANCH  34  35
HETATM   35  C17 UNL     1      14.785 -34.237   4.547  1.00  0.00     0.144 C 
BRANCH  35  36
HETATM   36  C18 UNL     1      16.269 -34.483   4.585  1.00  0.00     0.111 C 
BRANCH  36  37
HETATM   37  P1  UNL     1      16.656 -35.873   5.748  1.00  0.00     0.164 P 
BRANCH  37  38
HETATM   38  O2  UNL     1      15.220 -36.576   6.395  1.00  0.00    -0.350 OA
ATOM     39  H2  UNL     1      15.286 -36.700   7.335  1.00  0.00     0.217 HD
ENDBRANCH  37  38
BRANCH  37  40
HETATM   40  O3  UNL     1      17.573 -37.090   4.896  1.00  0.00    -0.350 OA
ATOM     41  H3  UNL     1      17.772 -37.802   5.492  1.00  0.00     0.217 HD
ENDBRANCH  37  40
ENDBRANCH  36  37
ENDBRANCH  35  36
ENDBRANCH  34  35
ENDBRANCH  32  34
ENDBRANCH  27  32
ENDBRANCH  22  24
ENDBRANCH   1  22
TORSDOF 15
ENDMDL
