MODEL 1
REMARK VINA RESULT: -7.227637092      0.000      0.000
REMARK  15 active torsions:
REMARK  status: ('A' for Active; 'I' for Inactive)
REMARK    1  A    between atoms: C2_2  and  C3_3 
REMARK    2  A    between atoms: C2_2  and  N8_31 
REMARK    3  A    between atoms: C3_3  and  C4_4 
REMARK    4  A    between atoms: C4_4  and  N1_5 
REMARK       I    between atoms: N1_5  and  C5_7 
REMARK    5  A    between atoms: C5_7  and  C6_9 
REMARK    6  A    between atoms: C6_9  and  O2_10 
REMARK    7  A    between atoms: C6_9  and  C7_12 
REMARK    8  A    between atoms: C7_12  and  N2_13 
REMARK    9  A    between atoms: C10_18  and  N4_19 
REMARK   10  A    between atoms: N8_31  and  C16_33 
REMARK   11  A    between atoms: C16_33  and  C17_34 
REMARK   12  A    between atoms: C17_34  and  C18_35 
REMARK   13  A    between atoms: C18_35  and  P1_36 
REMARK   14  A    between atoms: P1_36  and  O4_37 
REMARK   15  A    between atoms: P1_36  and  O5_39 
ROOT
HETATM    1  C6  UNL     1      14.180 -33.364  15.093  1.00  0.00     0.228 C 
ENDROOT
BRANCH   1   2
HETATM    2  C5  UNL     1      14.916 -32.844  13.927  1.00  0.00     0.248 C 
HETATM    3  N1  UNL     1      14.719 -31.516  13.497  1.00  0.00    -0.359 N 
ATOM      4  H1  UNL     1      14.069 -30.907  13.993  1.00  0.00     0.162 HD
HETATM    5  O1  UNL     1      15.714 -33.588  13.322  1.00  0.00    -0.271 OA
BRANCH   3   6
HETATM    6  C4  UNL     1      15.446 -31.024  12.347  1.00  0.00     0.124 C 
BRANCH   6   7
HETATM    7  C3  UNL     1      14.525 -30.423  11.322  1.00  0.00     0.044 C 
BRANCH   7   8
HETATM    8  C2  UNL     1      13.464 -31.402  10.820  1.00  0.00     0.078 C 
HETATM    9  C1  UNL     1      13.493 -31.588   9.348  1.00  0.00     0.032 C 
BRANCH   8  10
HETATM   10  N8  UNL     1      12.210 -30.999  11.323  1.00  0.00    -0.398 N 
ATOM     11  H8  UNL     1      11.950 -30.015  11.264  1.00  0.00     0.159 HD
BRANCH  10  12
HETATM   12  C16 UNL     1      11.315 -31.898  11.898  1.00  0.00     0.056 C 
BRANCH  12  13
HETATM   13  C17 UNL     1      10.579 -32.884  11.078  1.00  0.00     0.053 C 
BRANCH  13  14
HETATM   14  C18 UNL     1      11.291 -34.225  10.918  1.00  0.00     0.098 C 
BRANCH  14  15
HETATM   15  P1  UNL     1      10.296 -35.162   9.631  1.00  0.00     0.163 P 
BRANCH  15  16
HETATM   16  O4  UNL     1      11.388 -36.184   8.736  1.00  0.00    -0.350 OA
ATOM     17  H4  UNL     1      10.972 -36.414   7.914  1.00  0.00     0.217 HD
ENDBRANCH  15  16
BRANCH  15  18
HETATM   18  O5  UNL     1       9.126 -36.177  10.382  1.00  0.00    -0.350 OA
ATOM     19  H5  UNL     1       8.965 -36.953   9.858  1.00  0.00     0.217 HD
ENDBRANCH  15  18
ENDBRANCH  14  15
ENDBRANCH  13  14
ENDBRANCH  12  13
ENDBRANCH  10  12
ENDBRANCH   8  10
ENDBRANCH   7   8
ENDBRANCH   6   7
ENDBRANCH   3   6
ENDBRANCH   1   2
BRANCH   1  20
HETATM   20  O2  UNL     1      13.884 -34.723  14.842  1.00  0.00    -0.384 OA
ATOM     21  H2  UNL     1      13.166 -34.972  15.414  1.00  0.00     0.210 HD
ENDBRANCH   1  20
BRANCH   1  22
HETATM   22  C7  UNL     1      12.830 -32.689  15.235  1.00  0.00     0.172 C 
BRANCH  22  23
HETATM   23  N2  UNL     1      12.857 -31.888  16.448  1.00  0.00    -0.325 N 
HETATM   24  C8  UNL     1      13.236 -32.262  17.680  1.00  0.00     0.184 A 
HETATM   25  N3  UNL     1      13.126 -31.233  18.544  1.00  0.00    -0.358 N 
HETATM   26  C9  UNL     1      12.672 -30.181  17.877  1.00  0.00     0.138 A 
ATOM     27  H3  UNL     1      13.352 -31.259  19.538  1.00  0.00     0.166 HD
HETATM   28  C10 UNL     1      12.503 -30.584  16.569  1.00  0.00     0.135 A 
BRANCH  28  29
HETATM   29  N4  UNL     1      12.026 -29.770  15.497  1.00  0.00    -0.242 N 
HETATM   30  C11 UNL     1      10.688 -29.783  15.242  1.00  0.00     0.212 A 
HETATM   31  N5  UNL     1      10.196 -29.026  14.238  1.00  0.00    -0.186 N 
HETATM   32  C12 UNL     1      10.992 -28.255  13.476  1.00  0.00     0.693 A 
ATOM     33  H5  UNL     1       9.193 -29.040  14.051  1.00  0.00     0.185 HD
HETATM   34  N6  UNL     1      10.779 -27.421  12.436  1.00  0.00    -0.200 N 
HETATM   35  N7  UNL     1      12.332 -28.233  13.720  1.00  0.00    -0.105 N 
HETATM   36  C13 UNL     1      11.940 -26.875  12.018  1.00  0.00     0.124 A 
ATOM     37  H6  UNL     1       9.867 -27.230  12.023  1.00  0.00     0.183 HD
HETATM   38  C14 UNL     1      12.905 -27.400  12.839  1.00  0.00     0.137 A 
HETATM   39  C15 UNL     1      12.803 -29.001  14.733  1.00  0.00     0.354 A 
HETATM   40  O3  UNL     1      14.054 -28.989  14.973  1.00  0.00    -0.245 OA
ENDBRANCH  28  29
ENDBRANCH  22  23
ENDBRANCH   1  22
TORSDOF 15
ENDMDL
MODEL 2
REMARK VINA RESULT: -6.834434269      3.126      5.625
REMARK  15 active torsions:
REMARK  status: ('A' for Active; 'I' for Inactive)
REMARK    1  A    between atoms: C2_2  and  C3_3 
REMARK    2  A    between atoms: C2_2  and  N8_31 
REMARK    3  A    between atoms: C3_3  and  C4_4 
REMARK    4  A    between atoms: C4_4  and  N1_5 
REMARK       I    between atoms: N1_5  and  C5_7 
REMARK    5  A    between atoms: C5_7  and  C6_9 
REMARK    6  A    between atoms: C6_9  and  O2_10 
REMARK    7  A    between atoms: C6_9  and  C7_12 
REMARK    8  A    between atoms: C7_12  and  N2_13 
REMARK    9  A    between atoms: C10_18  and  N4_19 
REMARK   10  A    between atoms: N8_31  and  C16_33 
REMARK   11  A    between atoms: C16_33  and  C17_34 
REMARK   12  A    between atoms: C17_34  and  C18_35 
REMARK   13  A    between atoms: C18_35  and  P1_36 
REMARK   14  A    between atoms: P1_36  and  O4_37 
REMARK   15  A    between atoms: P1_36  and  O5_39 
ROOT
HETATM    1  C6  UNL     1      13.605 -33.783  14.409  1.00  0.00     0.228 C 
ENDROOT
BRANCH   1   2
HETATM    2  C5  UNL     1      14.459 -33.090  15.389  1.00  0.00     0.248 C 
HETATM    3  N1  UNL     1      15.356 -32.088  14.968  1.00  0.00    -0.359 N 
ATOM      4  H1  UNL     1      15.417 -31.835  13.982  1.00  0.00     0.162 HD
HETATM    5  O1  UNL     1      14.382 -33.397  16.597  1.00  0.00    -0.271 OA
BRANCH   3   6
HETATM    6  C4  UNL     1      16.190 -31.422  15.943  1.00  0.00     0.124 C 
BRANCH   6   7
HETATM    7  C3  UNL     1      16.846 -30.196  15.370  1.00  0.00     0.044 C 
BRANCH   7   8
HETATM    8  C2  UNL     1      16.055 -28.914  15.630  1.00  0.00     0.078 C 
HETATM    9  C1  UNL     1      16.821 -27.903  16.398  1.00  0.00     0.032 C 
BRANCH   8  10
HETATM   10  N8  UNL     1      14.819 -29.262  16.212  1.00  0.00    -0.398 N 
ATOM     11  H8  UNL     1      14.329 -30.088  15.868  1.00  0.00     0.159 HD
BRANCH  10  12
HETATM   12  C16 UNL     1      14.243 -28.519  17.239  1.00  0.00     0.056 C 
BRANCH  12  13
HETATM   13  C17 UNL     1      13.303 -29.133  18.201  1.00  0.00     0.053 C 
BRANCH  13  14
HETATM   14  C18 UNL     1      12.888 -30.561  17.851  1.00  0.00     0.098 C 
BRANCH  14  15
HETATM   15  P1  UNL     1      12.489 -31.376  19.495  1.00  0.00     0.163 P 
BRANCH  15  16
HETATM   16  O4  UNL     1      10.772 -31.243  19.765  1.00  0.00    -0.350 OA
ATOM     17  H4  UNL     1      10.594 -30.383  20.126  1.00  0.00     0.217 HD
ENDBRANCH  15  16
BRANCH  15  18
HETATM   18  O5  UNL     1      12.886 -33.050  19.460  1.00  0.00    -0.350 OA
ATOM     19  H5  UNL     1      12.212 -33.566  19.886  1.00  0.00     0.217 HD
ENDBRANCH  15  18
ENDBRANCH  14  15
ENDBRANCH  13  14
ENDBRANCH  12  13
ENDBRANCH  10  12
ENDBRANCH   8  10
ENDBRANCH   7   8
ENDBRANCH   6   7
ENDBRANCH   3   6
ENDBRANCH   1   2
BRANCH   1  20
HETATM   20  O2  UNL     1      14.034 -35.128  14.341  1.00  0.00    -0.384 OA
ATOM     21  H2  UNL     1      13.752 -35.561  15.138  1.00  0.00     0.210 HD
ENDBRANCH   1  20
BRANCH   1  22
HETATM   22  C7  UNL     1      13.817 -33.233  13.013  1.00  0.00     0.172 C 
BRANCH  22  23
HETATM   23  N2  UNL     1      12.522 -33.175  12.354  1.00  0.00    -0.325 N 
HETATM   24  C8  UNL     1      11.859 -34.166  11.739  1.00  0.00     0.184 A 
HETATM   25  N3  UNL     1      10.682 -33.722  11.254  1.00  0.00    -0.358 N 
HETATM   26  C9  UNL     1      10.572 -32.435  11.553  1.00  0.00     0.138 A 
ATOM     27  H3  UNL     1       9.995 -34.279  10.746  1.00  0.00     0.166 HD
HETATM   28  C10 UNL     1      11.717 -32.089  12.240  1.00  0.00     0.135 A 
BRANCH  28  29
HETATM   29  N4  UNL     1      12.026 -30.792  12.753  1.00  0.00    -0.242 N 
HETATM   30  C11 UNL     1      11.539 -30.470  13.985  1.00  0.00     0.212 A 
HETATM   31  N5  UNL     1      11.810 -29.254  14.507  1.00  0.00    -0.186 N 
HETATM   32  C12 UNL     1      12.549 -28.347  13.846  1.00  0.00     0.693 A 
ATOM     33  H5  UNL     1      11.442 -29.017  15.429  1.00  0.00     0.185 HD
HETATM   34  N6  UNL     1      12.966 -27.091  14.118  1.00  0.00    -0.200 N 
HETATM   35  N7  UNL     1      13.041 -28.657  12.613  1.00  0.00    -0.105 N 
HETATM   36  C13 UNL     1      13.703 -26.602  13.100  1.00  0.00     0.124 A 
ATOM     37  H6  UNL     1      12.751 -26.583  14.975  1.00  0.00     0.183 HD
HETATM   38  C14 UNL     1      13.738 -27.604  12.163  1.00  0.00     0.137 A 
HETATM   39  C15 UNL     1      12.757 -29.883  12.109  1.00  0.00     0.354 A 
HETATM   40  O3  UNL     1      13.212 -30.186  10.958  1.00  0.00    -0.245 OA
ENDBRANCH  28  29
ENDBRANCH  22  23
ENDBRANCH   1  22
TORSDOF 15
ENDMDL
MODEL 3
REMARK VINA RESULT: -6.758882322      3.812      5.006
REMARK  15 active torsions:
REMARK  status: ('A' for Active; 'I' for Inactive)
REMARK    1  A    between atoms: C2_2  and  C3_3 
REMARK    2  A    between atoms: C2_2  and  N8_31 
REMARK    3  A    between atoms: C3_3  and  C4_4 
REMARK    4  A    between atoms: C4_4  and  N1_5 
REMARK       I    between atoms: N1_5  and  C5_7 
REMARK    5  A    between atoms: C5_7  and  C6_9 
REMARK    6  A    between atoms: C6_9  and  O2_10 
REMARK    7  A    between atoms: C6_9  and  C7_12 
REMARK    8  A    between atoms: C7_12  and  N2_13 
REMARK    9  A    between atoms: C10_18  and  N4_19 
REMARK   10  A    between atoms: N8_31  and  C16_33 
REMARK   11  A    between atoms: C16_33  and  C17_34 
REMARK   12  A    between atoms: C17_34  and  C18_35 
REMARK   13  A    between atoms: C18_35  and  P1_36 
REMARK   14  A    between atoms: P1_36  and  O4_37 
REMARK   15  A    between atoms: P1_36  and  O5_39 
ROOT
HETATM    1  C6  UNL     1      11.692 -32.863  11.544  1.00  0.00     0.228 C 
ENDROOT
BRANCH   1   2
HETATM    2  C5  UNL     1      12.165 -32.409  10.224  1.00  0.00     0.248 C 
HETATM    3  N1  UNL     1      12.040 -33.247   9.097  1.00  0.00    -0.359 N 
ATOM      4  H1  UNL     1      11.618 -34.171   9.189  1.00  0.00     0.162 HD
HETATM    5  O1  UNL     1      12.677 -31.277  10.111  1.00  0.00    -0.271 OA
BRANCH   3   6
HETATM    6  C4  UNL     1      12.514 -32.787   7.811  1.00  0.00     0.124 C 
BRANCH   6   7
HETATM    7  C3  UNL     1      12.703 -33.927   6.848  1.00  0.00     0.044 C 
BRANCH   7   8
HETATM    8  C2  UNL     1      14.103 -33.970   6.236  1.00  0.00     0.078 C 
HETATM    9  C1  UNL     1      14.913 -32.767   6.548  1.00  0.00     0.032 C 
BRANCH   8  10
HETATM   10  N8  UNL     1      13.979 -34.237   4.857  1.00  0.00    -0.398 N 
ATOM     11  H8  UNL     1      13.142 -34.714   4.521  1.00  0.00     0.159 HD
BRANCH  10  12
HETATM   12  C16 UNL     1      14.959 -33.873   3.937  1.00  0.00     0.056 C 
BRANCH  12  13
HETATM   13  C17 UNL     1      16.167 -34.702   3.729  1.00  0.00     0.053 C 
BRANCH  13  14
HETATM   14  C18 UNL     1      15.889 -36.198   3.602  1.00  0.00     0.098 C 
BRANCH  14  15
HETATM   15  P1  UNL     1      16.579 -36.963   5.172  1.00  0.00     0.163 P 
BRANCH  15  16
HETATM   16  O4  UNL     1      17.516 -35.751   6.002  1.00  0.00    -0.350 OA
ATOM     17  H4  UNL     1      17.811 -36.118   6.827  1.00  0.00     0.217 HD
ENDBRANCH  15  16
BRANCH  15  18
HETATM   18  O5  UNL     1      15.307 -37.453   6.223  1.00  0.00    -0.350 OA
ATOM     19  H5  UNL     1      15.467 -37.152   7.110  1.00  0.00     0.217 HD
ENDBRANCH  15  18
ENDBRANCH  14  15
ENDBRANCH  13  14
ENDBRANCH  12  13
ENDBRANCH  10  12
ENDBRANCH   8  10
ENDBRANCH   7   8
ENDBRANCH   6   7
ENDBRANCH   3   6
ENDBRANCH   1   2
BRANCH   1  20
HETATM   20  O2  UNL     1      10.745 -33.890  11.330  1.00  0.00    -0.384 OA
ATOM     21  H2  UNL     1      10.427 -33.808  10.439  1.00  0.00     0.210 HD
ENDBRANCH   1  20
BRANCH   1  22
HETATM   22  C7  UNL     1      10.925 -31.767  12.257  1.00  0.00     0.172 C 
BRANCH  22  23
HETATM   23  N2  UNL     1      11.523 -31.587  13.570  1.00  0.00    -0.325 N 
HETATM   24  C8  UNL     1      11.679 -32.499  14.542  1.00  0.00     0.184 A 
HETATM   25  N3  UNL     1      12.283 -31.952  15.615  1.00  0.00    -0.358 N 
HETATM   26  C9  UNL     1      12.523 -30.676  15.347  1.00  0.00     0.138 A 
ATOM     27  H3  UNL     1      12.515 -32.435  16.483  1.00  0.00     0.166 HD
HETATM   28  C10 UNL     1      12.051 -30.443  14.073  1.00  0.00     0.135 A 
BRANCH  28  29
HETATM   29  N4  UNL     1      12.098 -29.197  13.376  1.00  0.00    -0.242 N 
HETATM   30  C11 UNL     1      10.958 -28.452  13.339  1.00  0.00     0.212 A 
HETATM   31  N5  UNL     1      10.961 -27.267  12.691  1.00  0.00    -0.186 N 
HETATM   32  C12 UNL     1      12.062 -26.796  12.080  1.00  0.00     0.693 A 
ATOM     33  H5  UNL     1      10.104 -26.714  12.665  1.00  0.00     0.185 HD
HETATM   34  N6  UNL     1      12.344 -25.677  11.379  1.00  0.00    -0.200 N 
HETATM   35  N7  UNL     1      13.208 -27.531  12.110  1.00  0.00    -0.105 N 
HETATM   36  C13 UNL     1      13.628 -25.683  10.968  1.00  0.00     0.124 A 
ATOM     37  H6  UNL     1      11.677 -24.930  11.186  1.00  0.00     0.183 HD
HETATM   38  C14 UNL     1      14.155 -26.859  11.439  1.00  0.00     0.137 A 
HETATM   39  C15 UNL     1      13.182 -28.717  12.765  1.00  0.00     0.354 A 
HETATM   40  O3  UNL     1      14.248 -29.414  12.803  1.00  0.00    -0.245 OA
ENDBRANCH  28  29
ENDBRANCH  22  23
ENDBRANCH   1  22
TORSDOF 15
ENDMDL
MODEL 4
REMARK VINA RESULT: -6.758634494      3.173      4.119
REMARK  15 active torsions:
REMARK  status: ('A' for Active; 'I' for Inactive)
REMARK    1  A    between atoms: C2_2  and  C3_3 
REMARK    2  A    between atoms: C2_2  and  N8_31 
REMARK    3  A    between atoms: C3_3  and  C4_4 
REMARK    4  A    between atoms: C4_4  and  N1_5 
REMARK       I    between atoms: N1_5  and  C5_7 
REMARK    5  A    between atoms: C5_7  and  C6_9 
REMARK    6  A    between atoms: C6_9  and  O2_10 
REMARK    7  A    between atoms: C6_9  and  C7_12 
REMARK    8  A    between atoms: C7_12  and  N2_13 
REMARK    9  A    between atoms: C10_18  and  N4_19 
REMARK   10  A    between atoms: N8_31  and  C16_33 
REMARK   11  A    between atoms: C16_33  and  C17_34 
REMARK   12  A    between atoms: C17_34  and  C18_35 
REMARK   13  A    between atoms: C18_35  and  P1_36 
REMARK   14  A    between atoms: P1_36  and  O4_37 
REMARK   15  A    between atoms: P1_36  and  O5_39 
ROOT
HETATM    1  C6  UNL     1      13.159 -33.453  12.838  1.00  0.00     0.228 C 
ENDROOT
BRANCH   1   2
HETATM    2  C5  UNL     1      12.318 -33.532  11.630  1.00  0.00     0.248 C 
HETATM    3  N1  UNL     1      12.544 -32.657  10.548  1.00  0.00    -0.359 N 
ATOM      4  H1  UNL     1      13.292 -31.966  10.594  1.00  0.00     0.162 HD
HETATM    5  O1  UNL     1      11.405 -34.380  11.572  1.00  0.00    -0.271 OA
BRANCH   3   6
HETATM    6  C4  UNL     1      11.706 -32.746   9.373  1.00  0.00     0.124 C 
BRANCH   6   7
HETATM    7  C3  UNL     1      12.521 -32.898   8.119  1.00  0.00     0.044 C 
BRANCH   7   8
HETATM    8  C2  UNL     1      12.150 -34.140   7.309  1.00  0.00     0.078 C 
HETATM    9  C1  UNL     1      11.517 -35.203   8.128  1.00  0.00     0.032 C 
BRANCH   8  10
HETATM   10  N8  UNL     1      13.290 -34.567   6.597  1.00  0.00    -0.398 N 
ATOM     11  H8  UNL     1      13.413 -35.563   6.416  1.00  0.00     0.159 HD
BRANCH  10  12
HETATM   12  C16 UNL     1      14.255 -33.676   6.133  1.00  0.00     0.056 C 
BRANCH  12  13
HETATM   13  C17 UNL     1      15.091 -33.992   4.955  1.00  0.00     0.053 C 
BRANCH  13  14
HETATM   14  C18 UNL     1      16.455 -34.590   5.294  1.00  0.00     0.098 C 
BRANCH  14  15
HETATM   15  P1  UNL     1      16.245 -36.444   5.088  1.00  0.00     0.163 P 
BRANCH  15  16
HETATM   16  O4  UNL     1      17.821 -37.182   5.166  1.00  0.00    -0.350 OA
ATOM     17  H4  UNL     1      18.458 -36.558   4.838  1.00  0.00     0.217 HD
ENDBRANCH  15  16
BRANCH  15  18
HETATM   18  O5  UNL     1      15.296 -37.098   6.367  1.00  0.00    -0.350 OA
ATOM     19  H5  UNL     1      15.240 -36.488   7.092  1.00  0.00     0.217 HD
ENDBRANCH  15  18
ENDBRANCH  14  15
ENDBRANCH  13  14
ENDBRANCH  12  13
ENDBRANCH  10  12
ENDBRANCH   8  10
ENDBRANCH   7   8
ENDBRANCH   6   7
ENDBRANCH   3   6
ENDBRANCH   1   2
BRANCH   1  20
HETATM   20  O2  UNL     1      13.754 -34.720  13.030  1.00  0.00    -0.384 OA
ATOM     21  H2  UNL     1      13.890 -34.837  13.963  1.00  0.00     0.210 HD
ENDBRANCH   1  20
BRANCH   1  22
HETATM   22  C7  UNL     1      12.317 -33.224  14.077  1.00  0.00     0.172 C 
BRANCH  22  23
HETATM   23  N2  UNL     1      13.174 -32.643  15.098  1.00  0.00    -0.325 N 
HETATM   24  C8  UNL     1      13.994 -33.276  15.951  1.00  0.00     0.184 A 
HETATM   25  N3  UNL     1      14.629 -32.391  16.745  1.00  0.00    -0.358 N 
HETATM   26  C9  UNL     1      14.224 -31.173  16.412  1.00  0.00     0.138 A 
ATOM     27  H3  UNL     1      15.303 -32.618  17.475  1.00  0.00     0.166 HD
HETATM   28  C10 UNL     1      13.317 -31.325  15.385  1.00  0.00     0.135 A 
BRANCH  28  29
HETATM   29  N4  UNL     1      12.623 -30.270  14.717  1.00  0.00    -0.242 N 
HETATM   30  C11 UNL     1      11.324 -30.050  15.067  1.00  0.00     0.212 A 
HETATM   31  N5  UNL     1      10.633 -29.060  14.461  1.00  0.00    -0.186 N 
HETATM   32  C12 UNL     1      11.190 -28.281  13.518  1.00  0.00     0.693 A 
ATOM     33  H5  UNL     1       9.661 -28.901  14.726  1.00  0.00     0.185 HD
HETATM   34  N6  UNL     1      10.748 -27.249  12.767  1.00  0.00    -0.200 N 
HETATM   35  N7  UNL     1      12.488 -28.491  13.160  1.00  0.00    -0.105 N 
HETATM   36  C13 UNL     1      11.724 -26.802  11.950  1.00  0.00     0.124 A 
ATOM     37  H6  UNL     1       9.807 -26.861  12.813  1.00  0.00     0.183 HD
HETATM   38  C14 UNL     1      12.810 -27.597  12.213  1.00  0.00     0.137 A 
HETATM   39  C15 UNL     1      13.162 -29.489  13.781  1.00  0.00     0.354 A 
HETATM   40  O3  UNL     1      14.376 -29.695  13.456  1.00  0.00    -0.245 OA
ENDBRANCH  28  29
ENDBRANCH  22  23
ENDBRANCH   1  22
TORSDOF 15
ENDMDL
MODEL 5
REMARK VINA RESULT: -6.701545573      3.196      5.491
REMARK  15 active torsions:
REMARK  status: ('A' for Active; 'I' for Inactive)
REMARK    1  A    between atoms: C2_2  and  C3_3 
REMARK    2  A    between atoms: C2_2  and  N8_31 
REMARK    3  A    between atoms: C3_3  and  C4_4 
REMARK    4  A    between atoms: C4_4  and  N1_5 
REMARK       I    between atoms: N1_5  and  C5_7 
REMARK    5  A    between atoms: C5_7  and  C6_9 
REMARK    6  A    between atoms: C6_9  and  O2_10 
REMARK    7  A    between atoms: C6_9  and  C7_12 
REMARK    8  A    between atoms: C7_12  and  N2_13 
REMARK    9  A    between atoms: C10_18  and  N4_19 
REMARK   10  A    between atoms: N8_31  and  C16_33 
REMARK   11  A    between atoms: C16_33  and  C17_34 
REMARK   12  A    between atoms: C17_34  and  C18_35 
REMARK   13  A    between atoms: C18_35  and  P1_36 
REMARK   14  A    between atoms: P1_36  and  O4_37 
REMARK   15  A    between atoms: P1_36  and  O5_39 
ROOT
HETATM    1  C6  UNL     1      12.166 -33.218  12.869  1.00  0.00     0.228 C 
ENDROOT
BRANCH   1   2
HETATM    2  C5  UNL     1      11.627 -33.641  11.564  1.00  0.00     0.248 C 
HETATM    3  N1  UNL     1      11.590 -32.738  10.483  1.00  0.00    -0.359 N 
ATOM      4  H1  UNL     1      11.940 -31.787  10.596  1.00  0.00     0.162 HD
HETATM    5  O1  UNL     1      11.202 -34.806  11.424  1.00  0.00    -0.271 OA
BRANCH   3   6
HETATM    6  C4  UNL     1      11.053 -33.170   9.212  1.00  0.00     0.124 C 
BRANCH   6   7
HETATM    7  C3  UNL     1      12.080 -33.087   8.116  1.00  0.00     0.044 C 
BRANCH   7   8
HETATM    8  C2  UNL     1      12.112 -34.329   7.227  1.00  0.00     0.078 C 
HETATM    9  C1  UNL     1      11.808 -35.580   7.962  1.00  0.00     0.032 C 
BRANCH   8  10
HETATM   10  N8  UNL     1      13.342 -34.353   6.537  1.00  0.00    -0.398 N 
ATOM     11  H8  UNL     1      13.582 -35.179   5.988  1.00  0.00     0.159 HD
BRANCH  10  12
HETATM   12  C16 UNL     1      14.240 -33.289   6.578  1.00  0.00     0.056 C 
BRANCH  12  13
HETATM   13  C17 UNL     1      15.607 -33.414   6.029  1.00  0.00     0.053 C 
BRANCH  13  14
HETATM   14  C18 UNL     1      15.703 -34.270   4.768  1.00  0.00     0.098 C 
BRANCH  14  15
HETATM   15  P1  UNL     1      16.522 -35.868   5.317  1.00  0.00     0.163 P 
BRANCH  15  16
HETATM   16  O4  UNL     1      17.971 -35.463   6.196  1.00  0.00    -0.350 OA
ATOM     17  H4  UNL     1      17.775 -34.734   6.772  1.00  0.00     0.217 HD
ENDBRANCH  15  16
BRANCH  15  18
HETATM   18  O5  UNL     1      15.494 -36.748   6.381  1.00  0.00    -0.350 OA
ATOM     19  H5  UNL     1      14.584 -36.514   6.242  1.00  0.00     0.217 HD
ENDBRANCH  15  18
ENDBRANCH  14  15
ENDBRANCH  13  14
ENDBRANCH  12  13
ENDBRANCH  10  12
ENDBRANCH   8  10
ENDBRANCH   7   8
ENDBRANCH   6   7
ENDBRANCH   3   6
ENDBRANCH   1   2
BRANCH   1  20
HETATM   20  O2  UNL     1      11.517 -33.976  13.868  1.00  0.00    -0.384 OA
ATOM     21  H2  UNL     1      12.183 -34.296  14.466  1.00  0.00     0.210 HD
ENDBRANCH   1  20
BRANCH   1  22
HETATM   22  C7  UNL     1      11.801 -31.778  13.171  1.00  0.00     0.172 C 
BRANCH  22  23
HETATM   23  N2  UNL     1      13.029 -31.000  13.185  1.00  0.00    -0.325 N 
HETATM   24  C8  UNL     1      13.682 -30.463  12.143  1.00  0.00     0.184 A 
HETATM   25  N3  UNL     1      14.782 -29.805  12.560  1.00  0.00    -0.358 N 
HETATM   26  C9  UNL     1      14.851 -29.911  13.879  1.00  0.00     0.138 A 
ATOM     27  H3  UNL     1      15.447 -29.311  11.964  1.00  0.00     0.166 HD
HETATM   28  C10 UNL     1      13.760 -30.655  14.274  1.00  0.00     0.135 A 
BRANCH  28  29
HETATM   29  N4  UNL     1      13.436 -31.019  15.617  1.00  0.00    -0.242 N 
HETATM   30  C11 UNL     1      13.998 -32.157  16.114  1.00  0.00     0.212 A 
HETATM   31  N5  UNL     1      13.719 -32.536  17.380  1.00  0.00    -0.186 N 
HETATM   32  C12 UNL     1      12.899 -31.821  18.169  1.00  0.00     0.693 A 
ATOM     33  H5  UNL     1      14.141 -33.389  17.747  1.00  0.00     0.185 HD
HETATM   34  N6  UNL     1      12.455 -31.959  19.438  1.00  0.00    -0.200 N 
HETATM   35  N7  UNL     1      12.330 -30.682  17.684  1.00  0.00    -0.105 N 
HETATM   36  C13 UNL     1      11.628 -30.946  19.766  1.00  0.00     0.124 A 
ATOM     37  H6  UNL     1      12.710 -32.725  20.061  1.00  0.00     0.183 HD
HETATM   38  C14 UNL     1      11.563 -30.153  18.648  1.00  0.00     0.137 A 
HETATM   39  C15 UNL     1      12.625 -30.321  16.412  1.00  0.00     0.354 A 
HETATM   40  O3  UNL     1      12.101 -29.257  15.945  1.00  0.00    -0.245 OA
ENDBRANCH  28  29
ENDBRANCH  22  23
ENDBRANCH   1  22
TORSDOF 15
ENDMDL
