MODEL 1
REMARK VINA RESULT: -6.584946978      0.000      0.000
REMARK  19 active torsions:
REMARK  status: ('A' for Active; 'I' for Inactive)
REMARK    1  A    between atoms: C2_2  and  C3_3 
REMARK    2  A    between atoms: C2_2  and  C5_10 
REMARK    3  A    between atoms: C3_3  and  C4_4 
REMARK    4  A    between atoms: C4_4  and  P1_5 
REMARK    5  A    between atoms: P1_5  and  O1_6 
REMARK    6  A    between atoms: P1_5  and  O2_8 
REMARK       I    between atoms: C5_10  and  N1_12 
REMARK    7  A    between atoms: N1_12  and  C6_14 
REMARK    8  A    between atoms: C6_14  and  C7_15 
REMARK    9  A    between atoms: C6_14  and  N8_35 
REMARK   10  A    between atoms: C7_15  and  C8_16 
REMARK   11  A    between atoms: C8_16  and  N2_17 
REMARK   12  A    between atoms: N2_17  and  C9_19 
REMARK   13  A    between atoms: C9_19  and  N7_31 
REMARK   14  A    between atoms: N7_31  and  C14_33 
REMARK   15  A    between atoms: N8_35  and  C15_36 
REMARK   16  A    between atoms: N8_35  and  C17_38 
REMARK   17  A    between atoms: C17_38  and  C18_39 
REMARK   18  A    between atoms: C18_39  and  C19_40 
REMARK   19  A    between atoms: C19_40  and  O5_41 
ROOT
HETATM    1  C6  UNL     1      13.458 -28.724  12.657  1.00  0.00     0.325 C 
ENDROOT
BRANCH   1   2
HETATM    2  N1  UNL     1      13.322 -29.899  11.714  1.00  0.00    -0.326 N 
HETATM    3  C5  UNL     1      12.355 -30.854  11.665  1.00  0.00     0.260 C 
HETATM    4  O3  UNL     1      11.357 -30.871  12.416  1.00  0.00    -0.267 OA
ATOM      5  H1  UNL     1      14.060 -29.987  11.016  1.00  0.00     0.165 HD
BRANCH   3   6
HETATM    6  C2  UNL     1      12.413 -31.968  10.699  1.00  0.00     0.068 C 
HETATM    7  C1  UNL     1      13.023 -31.722   9.478  1.00  0.00     0.038 C 
BRANCH   6   8
HETATM    8  C3  UNL     1      11.942 -33.240  10.834  1.00  0.00    -0.107 C 
BRANCH   8   9
HETATM    9  C4  UNL     1      11.529 -34.445  10.973  1.00  0.00     0.121 C 
BRANCH   9  10
HETATM   10  P1  UNL     1      10.484 -35.194   9.612  1.00  0.00     0.197 P 
BRANCH  10  11
HETATM   11  O1  UNL     1       9.224 -36.158  10.318  1.00  0.00    -0.346 OA
ATOM     12  H1  UNL     1       9.217 -36.027  11.259  1.00  0.00     0.217 HD
ENDBRANCH  10  11
BRANCH  10  13
HETATM   13  O2  UNL     1      11.429 -36.191   8.585  1.00  0.00    -0.346 OA
ATOM     14  H2  UNL     1      11.003 -37.026   8.433  1.00  0.00     0.217 HD
ENDBRANCH  10  13
ENDBRANCH   9  10
ENDBRANCH   8   9
ENDBRANCH   6   8
ENDBRANCH   3   6
ENDBRANCH   1   2
BRANCH   1  15
HETATM   15  C7  UNL     1      14.698 -28.893  13.398  1.00  0.00     0.077 C 
BRANCH  15  16
HETATM   16  C8  UNL     1      14.747 -28.713  14.890  1.00  0.00     0.125 C 
BRANCH  16  17
HETATM   17  N2  UNL     1      14.493 -29.924  15.604  1.00  0.00    -0.373 N 
ATOM     18  H2  UNL     1      15.273 -30.328  16.123  1.00  0.00     0.161 HD
BRANCH  17  19
HETATM   19  C9  UNL     1      13.227 -30.632  15.658  1.00  0.00     0.151 C 
HETATM   20  C10 UNL     1      13.220 -31.844  15.072  1.00  0.00     0.167 A 
HETATM   21  N3  UNL     1      12.070 -32.639  15.050  1.00  0.00    -0.268 N 
HETATM   22  N6  UNL     1      14.392 -32.418  14.492  1.00  0.00    -0.327 N 
HETATM   23  N4  UNL     1      12.077 -33.823  14.534  1.00  0.00    -0.240 N 
ATOM     24  H3  UNL     1      11.206 -32.275  15.450  1.00  0.00     0.190 HD
HETATM   25  N5  UNL     1      13.223 -34.362  13.980  1.00  0.00    -0.275 N 
ATOM     26  H4  UNL     1      11.218 -34.372  14.535  1.00  0.00     0.208 HD
HETATM   27  C11 UNL     1      14.350 -33.749  13.927  1.00  0.00     0.094 A 
ATOM     28  H5  UNL     1      13.170 -35.302  13.589  1.00  0.00     0.189 HD
HETATM   29  C12 UNL     1      15.521 -34.400  13.323  1.00  0.00     0.090 C 
ATOM     30  H6  UNL     1      15.263 -31.888  14.475  1.00  0.00     0.169 HD
BRANCH  19  31
HETATM   31  N7  UNL     1      12.074 -30.094  16.198  1.00  0.00    -0.313 N 
HETATM   32  C13 UNL     1      11.920 -30.092  17.680  1.00  0.00     0.160 C 
BRANCH  31  33
HETATM   33  C14 UNL     1      10.957 -29.580  15.526  1.00  0.00     0.356 C 
HETATM   34  O4  UNL     1       9.831 -29.401  16.149  1.00  0.00    -0.283 OA
ENDBRANCH  31  33
ENDBRANCH  19  31
ENDBRANCH  17  19
ENDBRANCH  16  17
ENDBRANCH  15  16
ENDBRANCH   1  15
BRANCH   1  35
HETATM   35  N8  UNL     1      13.189 -27.605  11.847  1.00  0.00     0.111 N 
BRANCH  35  36
HETATM   36  C15 UNL     1      11.916 -26.990  12.256  1.00  0.00     0.270 C 
HETATM   37  C16 UNL     1      11.891 -26.571  13.680  1.00  0.00     0.037 C 
ENDBRANCH  35  36
BRANCH  35  38
HETATM   38  C17 UNL     1      14.162 -26.636  11.561  1.00  0.00     0.277 C 
BRANCH  38  39
HETATM   39  C18 UNL     1      13.658 -25.459  10.737  1.00  0.00     0.056 C 
BRANCH  39  40
HETATM   40  C19 UNL     1      14.075 -24.168  11.446  1.00  0.00     0.165 C 
BRANCH  40  41
HETATM   41  O5  UNL     1      13.361 -23.106  10.832  1.00  0.00    -0.401 OA
ATOM     42  H5  UNL     1      13.726 -22.991   9.963  1.00  0.00     0.209 HD
ENDBRANCH  40  41
ENDBRANCH  39  40
ENDBRANCH  38  39
ENDBRANCH  35  38
ENDBRANCH   1  35
TORSDOF 19
ENDMDL
MODEL 2
REMARK VINA RESULT: -6.582594968      2.786      6.110
REMARK  19 active torsions:
REMARK  status: ('A' for Active; 'I' for Inactive)
REMARK    1  A    between atoms: C2_2  and  C3_3 
REMARK    2  A    between atoms: C2_2  and  C5_10 
REMARK    3  A    between atoms: C3_3  and  C4_4 
REMARK    4  A    between atoms: C4_4  and  P1_5 
REMARK    5  A    between atoms: P1_5  and  O1_6 
REMARK    6  A    between atoms: P1_5  and  O2_8 
REMARK       I    between atoms: C5_10  and  N1_12 
REMARK    7  A    between atoms: N1_12  and  C6_14 
REMARK    8  A    between atoms: C6_14  and  C7_15 
REMARK    9  A    between atoms: C6_14  and  N8_35 
REMARK   10  A    between atoms: C7_15  and  C8_16 
REMARK   11  A    between atoms: C8_16  and  N2_17 
REMARK   12  A    between atoms: N2_17  and  C9_19 
REMARK   13  A    between atoms: C9_19  and  N7_31 
REMARK   14  A    between atoms: N7_31  and  C14_33 
REMARK   15  A    between atoms: N8_35  and  C15_36 
REMARK   16  A    between atoms: N8_35  and  C17_38 
REMARK   17  A    between atoms: C17_38  and  C18_39 
REMARK   18  A    between atoms: C18_39  and  C19_40 
REMARK   19  A    between atoms: C19_40  and  O5_41 
ROOT
HETATM    1  C6  UNL     1      13.081 -30.265  12.605  1.00  0.00     0.325 C 
ENDROOT
BRANCH   1   2
HETATM    2  N1  UNL     1      12.611 -31.146  11.470  1.00  0.00    -0.326 N 
HETATM    3  C5  UNL     1      13.245 -31.467  10.310  1.00  0.00     0.260 C 
HETATM    4  O3  UNL     1      14.399 -31.086  10.022  1.00  0.00    -0.267 OA
ATOM      5  H1  UNL     1      11.686 -31.558  11.592  1.00  0.00     0.165 HD
BRANCH   3   6
HETATM    6  C2  UNL     1      12.604 -32.309   9.283  1.00  0.00     0.068 C 
HETATM    7  C1  UNL     1      13.152 -32.289   8.009  1.00  0.00     0.038 C 
BRANCH   6   8
HETATM    8  C3  UNL     1      11.521 -33.129   9.405  1.00  0.00    -0.107 C 
BRANCH   8   9
HETATM    9  C4  UNL     1      10.484 -33.872   9.520  1.00  0.00     0.121 C 
BRANCH   9  10
HETATM   10  P1  UNL     1      10.663 -35.711   9.215  1.00  0.00     0.197 P 
BRANCH  10  11
HETATM   11  O1  UNL     1      11.879 -35.978   8.004  1.00  0.00    -0.346 OA
ATOM     12  H1  UNL     1      11.803 -35.314   7.329  1.00  0.00     0.217 HD
ENDBRANCH  10  11
BRANCH  10  13
HETATM   13  O2  UNL     1       9.187 -36.394   8.672  1.00  0.00    -0.346 OA
ATOM     14  H2  UNL     1       8.959 -37.163   9.180  1.00  0.00     0.217 HD
ENDBRANCH  10  13
ENDBRANCH   9  10
ENDBRANCH   8   9
ENDBRANCH   6   8
ENDBRANCH   3   6
ENDBRANCH   1   2
BRANCH   1  15
HETATM   15  C7  UNL     1      13.327 -28.938  12.062  1.00  0.00     0.077 C 
BRANCH  15  16
HETATM   16  C8  UNL     1      14.633 -28.229  12.293  1.00  0.00     0.125 C 
BRANCH  16  17
HETATM   17  N2  UNL     1      14.494 -27.060  13.102  1.00  0.00    -0.373 N 
ATOM     18  H2  UNL     1      14.480 -27.194  14.113  1.00  0.00     0.161 HD
BRANCH  17  19
HETATM   19  C9  UNL     1      14.371 -25.698  12.615  1.00  0.00     0.151 C 
HETATM   20  C10 UNL     1      14.654 -24.737  13.516  1.00  0.00     0.167 A 
HETATM   21  N3  UNL     1      14.579 -23.381  13.185  1.00  0.00    -0.268 N 
HETATM   22  N6  UNL     1      15.101 -25.039  14.838  1.00  0.00    -0.327 N 
HETATM   23  N4  UNL     1      14.900 -22.460  14.033  1.00  0.00    -0.240 N 
ATOM     24  H3  UNL     1      14.264 -23.112  12.254  1.00  0.00     0.190 HD
HETATM   25  N5  UNL     1      15.333 -22.774  15.308  1.00  0.00    -0.275 N 
ATOM     26  H4  UNL     1      14.832 -21.482  13.756  1.00  0.00     0.208 HD
HETATM   27  C11 UNL     1      15.449 -23.973  15.751  1.00  0.00     0.094 A 
ATOM     28  H5  UNL     1      15.576 -22.006  15.934  1.00  0.00     0.189 HD
HETATM   29  C12 UNL     1      15.923 -24.215  17.121  1.00  0.00     0.090 C 
ATOM     30  H6  UNL     1      15.175 -26.010  15.141  1.00  0.00     0.169 HD
BRANCH  19  31
HETATM   31  N7  UNL     1      13.926 -25.377  11.346  1.00  0.00    -0.313 N 
HETATM   32  C13 UNL     1      14.933 -25.000  10.315  1.00  0.00     0.160 C 
BRANCH  31  33
HETATM   33  C14 UNL     1      12.606 -25.297  10.884  1.00  0.00     0.356 C 
HETATM   34  O4  UNL     1      11.730 -26.196  11.219  1.00  0.00    -0.283 OA
ENDBRANCH  31  33
ENDBRANCH  19  31
ENDBRANCH  17  19
ENDBRANCH  16  17
ENDBRANCH  15  16
ENDBRANCH   1  15
BRANCH   1  35
HETATM   35  N8  UNL     1      12.159 -30.518  13.638  1.00  0.00     0.111 N 
BRANCH  35  36
HETATM   36  C15 UNL     1      12.739 -30.120  14.930  1.00  0.00     0.270 C 
HETATM   37  C16 UNL     1      13.939 -30.907  15.309  1.00  0.00     0.037 C 
ENDBRANCH  35  36
BRANCH  35  38
HETATM   38  C17 UNL     1      10.809 -30.152  13.543  1.00  0.00     0.277 C 
BRANCH  38  39
HETATM   39  C18 UNL     1      10.342 -29.175  14.614  1.00  0.00     0.056 C 
BRANCH  39  40
HETATM   40  C19 UNL     1      10.010 -27.845  13.934  1.00  0.00     0.165 C 
BRANCH  40  41
HETATM   41  O5  UNL     1       9.856 -28.112  12.549  1.00  0.00    -0.401 OA
ATOM     42  H5  UNL     1       9.215 -28.808  12.469  1.00  0.00     0.209 HD
ENDBRANCH  40  41
ENDBRANCH  39  40
ENDBRANCH  38  39
ENDBRANCH  35  38
ENDBRANCH   1  35
TORSDOF 19
ENDMDL
MODEL 3
REMARK VINA RESULT: -6.574695233      2.509      6.455
REMARK  19 active torsions:
REMARK  status: ('A' for Active; 'I' for Inactive)
REMARK    1  A    between atoms: C2_2  and  C3_3 
REMARK    2  A    between atoms: C2_2  and  C5_10 
REMARK    3  A    between atoms: C3_3  and  C4_4 
REMARK    4  A    between atoms: C4_4  and  P1_5 
REMARK    5  A    between atoms: P1_5  and  O1_6 
REMARK    6  A    between atoms: P1_5  and  O2_8 
REMARK       I    between atoms: C5_10  and  N1_12 
REMARK    7  A    between atoms: N1_12  and  C6_14 
REMARK    8  A    between atoms: C6_14  and  C7_15 
REMARK    9  A    between atoms: C6_14  and  N8_35 
REMARK   10  A    between atoms: C7_15  and  C8_16 
REMARK   11  A    between atoms: C8_16  and  N2_17 
REMARK   12  A    between atoms: N2_17  and  C9_19 
REMARK   13  A    between atoms: C9_19  and  N7_31 
REMARK   14  A    between atoms: N7_31  and  C14_33 
REMARK   15  A    between atoms: N8_35  and  C15_36 
REMARK   16  A    between atoms: N8_35  and  C17_38 
REMARK   17  A    between atoms: C17_38  and  C18_39 
REMARK   18  A    between atoms: C18_39  and  C19_40 
REMARK   19  A    between atoms: C19_40  and  O5_41 
ROOT
HETATM    1  C6  UNL     1      12.020 -31.518  12.551  1.00  0.00     0.325 C 
ENDROOT
BRANCH   1   2
HETATM    2  N1  UNL     1      12.029 -30.011  12.430  1.00  0.00    -0.326 N 
HETATM    3  C5  UNL     1      13.024 -29.131  12.716  1.00  0.00     0.260 C 
HETATM    4  O3  UNL     1      14.161 -29.472  13.107  1.00  0.00    -0.267 OA
ATOM      5  H1  UNL     1      11.164 -29.596  12.083  1.00  0.00     0.165 HD
BRANCH   3   6
HETATM    6  C2  UNL     1      12.834 -27.674  12.584  1.00  0.00     0.068 C 
HETATM    7  C1  UNL     1      11.757 -27.108  13.250  1.00  0.00     0.038 C 
BRANCH   6   8
HETATM    8  C3  UNL     1      13.584 -26.776  11.883  1.00  0.00    -0.107 C 
BRANCH   8   9
HETATM    9  C4  UNL     1      14.307 -25.928  11.251  1.00  0.00     0.121 C 
BRANCH   9  10
HETATM   10  P1  UNL     1      13.453 -24.599  10.245  1.00  0.00     0.197 P 
BRANCH  10  11
HETATM   11  O1  UNL     1      13.534 -23.089  11.098  1.00  0.00    -0.346 OA
ATOM     12  H1  UNL     1      13.411 -22.374  10.486  1.00  0.00     0.217 HD
ENDBRANCH  10  11
BRANCH  10  13
HETATM   13  O2  UNL     1      11.806 -24.991   9.974  1.00  0.00    -0.346 OA
ATOM     14  H2  UNL     1      11.274 -24.207   9.910  1.00  0.00     0.217 HD
ENDBRANCH  10  13
ENDBRANCH   9  10
ENDBRANCH   8   9
ENDBRANCH   6   8
ENDBRANCH   3   6
ENDBRANCH   1   2
BRANCH   1  15
HETATM   15  C7  UNL     1      11.183 -31.866  13.690  1.00  0.00     0.077 C 
BRANCH  15  16
HETATM   16  C8  UNL     1      11.487 -33.064  14.545  1.00  0.00     0.125 C 
BRANCH  16  17
HETATM   17  N2  UNL     1      12.766 -32.985  15.177  1.00  0.00    -0.373 N 
ATOM     18  H2  UNL     1      13.336 -33.831  15.178  1.00  0.00     0.161 HD
BRANCH  17  19
HETATM   19  C9  UNL     1      13.328 -31.810  15.818  1.00  0.00     0.151 C 
HETATM   20  C10 UNL     1      14.563 -31.467  15.408  1.00  0.00     0.167 A 
HETATM   21  N3  UNL     1      15.227 -30.356  15.938  1.00  0.00    -0.268 N 
HETATM   22  N6  UNL     1      15.248 -32.173  14.373  1.00  0.00    -0.327 N 
HETATM   23  N4  UNL     1      16.391 -29.996  15.509  1.00  0.00    -0.240 N 
ATOM     24  H3  UNL     1      14.782 -29.818  16.681  1.00  0.00     0.190 HD
HETATM   25  N5  UNL     1      17.035 -30.692  14.504  1.00  0.00    -0.275 N 
ATOM     26  H4  UNL     1      16.844 -29.181  15.921  1.00  0.00     0.208 HD
HETATM   27  C11 UNL     1      16.550 -31.731  13.926  1.00  0.00     0.094 A 
ATOM     28  H5  UNL     1      17.952 -30.360  14.203  1.00  0.00     0.189 HD
HETATM   29  C12 UNL     1      17.303 -32.407  12.861  1.00  0.00     0.090 C 
ATOM     30  H6  UNL     1      14.818 -32.994  13.947  1.00  0.00     0.169 HD
BRANCH  19  31
HETATM   31  N7  UNL     1      12.694 -31.117  16.833  1.00  0.00    -0.313 N 
HETATM   32  C13 UNL     1      12.630 -31.741  18.184  1.00  0.00     0.160 C 
BRANCH  31  33
HETATM   33  C14 UNL     1      12.027 -29.888  16.760  1.00  0.00     0.356 C 
HETATM   34  O4  UNL     1      10.744 -29.839  16.562  1.00  0.00    -0.283 OA
ENDBRANCH  31  33
ENDBRANCH  19  31
ENDBRANCH  17  19
ENDBRANCH  16  17
ENDBRANCH  15  16
ENDBRANCH   1  15
BRANCH   1  35
HETATM   35  N8  UNL     1      11.765 -31.965  11.241  1.00  0.00     0.111 N 
BRANCH  35  36
HETATM   36  C15 UNL     1      13.035 -32.127  10.515  1.00  0.00     0.270 C 
HETATM   37  C16 UNL     1      12.932 -31.822   9.066  1.00  0.00     0.037 C 
ENDBRANCH  35  36
BRANCH  35  38
HETATM   38  C17 UNL     1      10.876 -33.014  10.967  1.00  0.00     0.277 C 
BRANCH  38  39
HETATM   39  C18 UNL     1      11.491 -34.404  11.056  1.00  0.00     0.056 C 
BRANCH  39  40
HETATM   40  C19 UNL     1      10.917 -35.253   9.919  1.00  0.00     0.165 C 
BRANCH  40  41
HETATM   41  O5  UNL     1       9.820 -35.977  10.453  1.00  0.00    -0.401 OA
ATOM     42  H5  UNL     1      10.180 -36.687  10.971  1.00  0.00     0.209 HD
ENDBRANCH  40  41
ENDBRANCH  39  40
ENDBRANCH  38  39
ENDBRANCH  35  38
ENDBRANCH   1  35
TORSDOF 19
ENDMDL
MODEL 4
REMARK VINA RESULT: -6.551624030      2.723      3.812
REMARK  19 active torsions:
REMARK  status: ('A' for Active; 'I' for Inactive)
REMARK    1  A    between atoms: C2_2  and  C3_3 
REMARK    2  A    between atoms: C2_2  and  C5_10 
REMARK    3  A    between atoms: C3_3  and  C4_4 
REMARK    4  A    between atoms: C4_4  and  P1_5 
REMARK    5  A    between atoms: P1_5  and  O1_6 
REMARK    6  A    between atoms: P1_5  and  O2_8 
REMARK       I    between atoms: C5_10  and  N1_12 
REMARK    7  A    between atoms: N1_12  and  C6_14 
REMARK    8  A    between atoms: C6_14  and  C7_15 
REMARK    9  A    between atoms: C6_14  and  N8_35 
REMARK   10  A    between atoms: C7_15  and  C8_16 
REMARK   11  A    between atoms: C8_16  and  N2_17 
REMARK   12  A    between atoms: N2_17  and  C9_19 
REMARK   13  A    between atoms: C9_19  and  N7_31 
REMARK   14  A    between atoms: N7_31  and  C14_33 
REMARK   15  A    between atoms: N8_35  and  C15_36 
REMARK   16  A    between atoms: N8_35  and  C17_38 
REMARK   17  A    between atoms: C17_38  and  C18_39 
REMARK   18  A    between atoms: C18_39  and  C19_40 
REMARK   19  A    between atoms: C19_40  and  O5_41 
ROOT
HETATM    1  C6  UNL     1      12.664 -26.938  12.017  1.00  0.00     0.325 C 
ENDROOT
BRANCH   1   2
HETATM    2  N1  UNL     1      13.697 -27.978  12.389  1.00  0.00    -0.326 N 
HETATM    3  C5  UNL     1      13.827 -29.257  11.947  1.00  0.00     0.260 C 
HETATM    4  O3  UNL     1      13.085 -29.772  11.083  1.00  0.00    -0.267 OA
ATOM      5  H1  UNL     1      14.395 -27.676  13.068  1.00  0.00     0.165 HD
BRANCH   3   6
HETATM    6  C2  UNL     1      14.877 -30.154  12.466  1.00  0.00     0.068 C 
HETATM    7  C1  UNL     1      16.091 -29.581  12.813  1.00  0.00     0.038 C 
BRANCH   6   8
HETATM    8  C3  UNL     1      14.827 -31.504  12.659  1.00  0.00    -0.107 C 
BRANCH   8   9
HETATM    9  C4  UNL     1      14.791 -32.775  12.810  1.00  0.00     0.121 C 
BRANCH   9  10
HETATM   10  P1  UNL     1      14.694 -33.467  14.548  1.00  0.00     0.197 P 
BRANCH  10  11
HETATM   11  O1  UNL     1      14.030 -35.071  14.492  1.00  0.00    -0.346 OA
ATOM     12  H1  UNL     1      14.717 -35.689  14.271  1.00  0.00     0.217 HD
ENDBRANCH  10  11
BRANCH  10  13
HETATM   13  O2  UNL     1      13.698 -32.493  15.546  1.00  0.00    -0.346 OA
ATOM     14  H2  UNL     1      13.199 -33.025  16.155  1.00  0.00     0.217 HD
ENDBRANCH  10  13
ENDBRANCH   9  10
ENDBRANCH   8   9
ENDBRANCH   6   8
ENDBRANCH   3   6
ENDBRANCH   1   2
BRANCH   1  15
HETATM   15  C7  UNL     1      11.685 -26.883  13.091  1.00  0.00     0.077 C 
BRANCH  15  16
HETATM   16  C8  UNL     1      10.380 -27.625  12.997  1.00  0.00     0.125 C 
BRANCH  16  17
HETATM   17  N2  UNL     1      10.554 -29.026  12.780  1.00  0.00    -0.373 N 
ATOM     18  H2  UNL     1      10.553 -29.349  11.812  1.00  0.00     0.161 HD
BRANCH  17  19
HETATM   19  C9  UNL     1      10.731 -30.033  13.810  1.00  0.00     0.151 C 
HETATM   20  C10 UNL     1      10.885 -31.293  13.363  1.00  0.00     0.167 A 
HETATM   21  N3  UNL     1      11.067 -32.364  14.243  1.00  0.00    -0.268 N 
HETATM   22  N6  UNL     1      10.932 -31.609  11.971  1.00  0.00    -0.327 N 
HETATM   23  N4  UNL     1      11.267 -33.566  13.814  1.00  0.00    -0.240 N 
ATOM     24  H3  UNL     1      11.041 -32.193  15.248  1.00  0.00     0.190 HD
HETATM   25  N5  UNL     1      11.312 -33.850  12.461  1.00  0.00    -0.275 N 
ATOM     26  H4  UNL     1      11.394 -34.321  14.486  1.00  0.00     0.208 HD
HETATM   27  C11 UNL     1      11.159 -32.970  11.539  1.00  0.00     0.094 A 
ATOM     28  H5  UNL     1      11.475 -34.816  12.180  1.00  0.00     0.189 HD
HETATM   29  C12 UNL     1      11.227 -33.360  10.124  1.00  0.00     0.090 C 
ATOM     30  H6  UNL     1      10.805 -30.871  11.278  1.00  0.00     0.169 HD
BRANCH  19  31
HETATM   31  N7  UNL     1      10.674 -29.758  15.164  1.00  0.00    -0.313 N 
HETATM   32  C13 UNL     1       9.392 -29.256  15.733  1.00  0.00     0.160 C 
BRANCH  31  33
HETATM   33  C14 UNL     1      11.706 -29.832  16.109  1.00  0.00     0.356 C 
HETATM   34  O4  UNL     1      11.832 -30.875  16.873  1.00  0.00    -0.283 OA
ENDBRANCH  31  33
ENDBRANCH  19  31
ENDBRANCH  17  19
ENDBRANCH  16  17
ENDBRANCH  15  16
ENDBRANCH   1  15
BRANCH   1  35
HETATM   35  N8  UNL     1      13.429 -25.828  11.612  1.00  0.00     0.111 N 
BRANCH  35  36
HETATM   36  C15 UNL     1      12.831 -25.225  10.409  1.00  0.00     0.270 C 
HETATM   37  C16 UNL     1      13.734 -24.275   9.712  1.00  0.00     0.037 C 
ENDBRANCH  35  36
BRANCH  35  38
HETATM   38  C17 UNL     1      13.867 -24.850  12.516  1.00  0.00     0.277 C 
BRANCH  38  39
HETATM   39  C18 UNL     1      15.335 -24.963  12.907  1.00  0.00     0.056 C 
BRANCH  39  40
HETATM   40  C19 UNL     1      15.825 -23.575  13.325  1.00  0.00     0.165 C 
BRANCH  40  41
HETATM   41  O5  UNL     1      15.566 -22.698  12.241  1.00  0.00    -0.401 OA
ATOM     42  H5  UNL     1      16.344 -22.689  11.696  1.00  0.00     0.209 HD
ENDBRANCH  40  41
ENDBRANCH  39  40
ENDBRANCH  38  39
ENDBRANCH  35  38
ENDBRANCH   1  35
TORSDOF 19
ENDMDL
MODEL 5
REMARK VINA RESULT: -6.519624778      4.735      7.020
REMARK  19 active torsions:
REMARK  status: ('A' for Active; 'I' for Inactive)
REMARK    1  A    between atoms: C2_2  and  C3_3 
REMARK    2  A    between atoms: C2_2  and  C5_10 
REMARK    3  A    between atoms: C3_3  and  C4_4 
REMARK    4  A    between atoms: C4_4  and  P1_5 
REMARK    5  A    between atoms: P1_5  and  O1_6 
REMARK    6  A    between atoms: P1_5  and  O2_8 
REMARK       I    between atoms: C5_10  and  N1_12 
REMARK    7  A    between atoms: N1_12  and  C6_14 
REMARK    8  A    between atoms: C6_14  and  C7_15 
REMARK    9  A    between atoms: C6_14  and  N8_35 
REMARK   10  A    between atoms: C7_15  and  C8_16 
REMARK   11  A    between atoms: C8_16  and  N2_17 
REMARK   12  A    between atoms: N2_17  and  C9_19 
REMARK   13  A    between atoms: C9_19  and  N7_31 
REMARK   14  A    between atoms: N7_31  and  C14_33 
REMARK   15  A    between atoms: N8_35  and  C15_36 
REMARK   16  A    between atoms: N8_35  and  C17_38 
REMARK   17  A    between atoms: C17_38  and  C18_39 
REMARK   18  A    between atoms: C18_39  and  C19_40 
REMARK   19  A    between atoms: C19_40  and  O5_41 
ROOT
HETATM    1  C6  UNL     1      16.398 -31.703  13.441  1.00  0.00     0.325 C 
ENDROOT
BRANCH   1   2
HETATM    2  N1  UNL     1      17.090 -33.032  13.241  1.00  0.00    -0.326 N 
HETATM    3  C5  UNL     1      18.304 -33.295  12.688  1.00  0.00     0.260 C 
HETATM    4  O3  UNL     1      19.087 -32.411  12.279  1.00  0.00    -0.267 OA
ATOM      5  H1  UNL     1      16.571 -33.847  13.567  1.00  0.00     0.165 HD
BRANCH   3   6
HETATM    6  C2  UNL     1      18.801 -34.674  12.527  1.00  0.00     0.068 C 
HETATM    7  C1  UNL     1      17.901 -35.706  12.747  1.00  0.00     0.038 C 
BRANCH   6   8
HETATM    8  C3  UNL     1      20.051 -35.097  12.183  1.00  0.00    -0.107 C 
BRANCH   8   9
HETATM    9  C4  UNL     1      21.224 -35.516  11.884  1.00  0.00     0.121 C 
BRANCH   9  10
HETATM   10  P1  UNL     1      22.472 -34.287  11.223  1.00  0.00     0.197 P 
BRANCH  10  11
HETATM   11  O1  UNL     1      21.819 -32.683  11.341  1.00  0.00    -0.346 OA
ATOM     12  H1  UNL     1      22.216 -32.235  12.079  1.00  0.00     0.217 HD
ENDBRANCH  10  11
BRANCH  10  13
HETATM   13  O2  UNL     1      22.846 -34.609   9.581  1.00  0.00    -0.346 OA
ATOM     14  H2  UNL     1      22.672 -33.851   9.035  1.00  0.00     0.217 HD
ENDBRANCH  10  13
ENDBRANCH   9  10
ENDBRANCH   8   9
ENDBRANCH   6   8
ENDBRANCH   3   6
ENDBRANCH   1   2
BRANCH   1  15
HETATM   15  C7  UNL     1      15.215 -31.688  12.594  1.00  0.00     0.077 C 
BRANCH  15  16
HETATM   16  C8  UNL     1      14.423 -30.428  12.381  1.00  0.00     0.125 C 
BRANCH  16  17
HETATM   17  N2  UNL     1      13.129 -30.672  11.829  1.00  0.00    -0.373 N 
ATOM     18  H2  UNL     1      12.844 -30.091  11.040  1.00  0.00     0.161 HD
BRANCH  17  19
HETATM   19  C9  UNL     1      12.182 -31.673  12.287  1.00  0.00     0.151 C 
HETATM   20  C10 UNL     1      11.727 -32.511  11.336  1.00  0.00     0.167 A 
HETATM   21  N3  UNL     1      10.812 -33.526  11.634  1.00  0.00    -0.268 N 
HETATM   22  N6  UNL     1      12.189 -32.458   9.986  1.00  0.00    -0.327 N 
HETATM   23  N4  UNL     1      10.414 -34.363  10.735  1.00  0.00    -0.240 N 
ATOM     24  H3  UNL     1      10.449 -33.606  12.584  1.00  0.00     0.190 HD
HETATM   25  N5  UNL     1      10.876 -34.296   9.433  1.00  0.00    -0.275 N 
ATOM     26  H4  UNL     1       9.745 -35.089  10.989  1.00  0.00     0.208 HD
HETATM   27  C11 UNL     1      11.715 -33.418   9.015  1.00  0.00     0.094 A 
ATOM     28  H5  UNL     1      10.530 -34.985   8.766  1.00  0.00     0.189 HD
HETATM   29  C12 UNL     1      12.156 -33.424   7.613  1.00  0.00     0.090 C 
ATOM     30  H6  UNL     1      12.856 -31.740   9.705  1.00  0.00     0.169 HD
BRANCH  19  31
HETATM   31  N7  UNL     1      11.706 -31.737  13.583  1.00  0.00    -0.313 N 
HETATM   32  C13 UNL     1      11.127 -30.505  14.188  1.00  0.00     0.160 C 
BRANCH  31  33
HETATM   33  C14 UNL     1      11.741 -32.823  14.467  1.00  0.00     0.356 C 
HETATM   34  O4  UNL     1      10.677 -33.537  14.685  1.00  0.00    -0.283 OA
ENDBRANCH  31  33
ENDBRANCH  19  31
ENDBRANCH  17  19
ENDBRANCH  16  17
ENDBRANCH  15  16
ENDBRANCH   1  15
BRANCH   1  35
HETATM   35  N8  UNL     1      16.348 -31.550  14.839  1.00  0.00     0.111 N 
BRANCH  35  36
HETATM   36  C15 UNL     1      16.649 -30.155  15.198  1.00  0.00     0.270 C 
HETATM   37  C16 UNL     1      18.051 -29.946  15.639  1.00  0.00     0.037 C 
ENDBRANCH  35  36
BRANCH  35  38
HETATM   38  C17 UNL     1      15.300 -32.068  15.613  1.00  0.00     0.277 C 
BRANCH  38  39
HETATM   39  C18 UNL     1      14.487 -31.019  16.360  1.00  0.00     0.056 C 
BRANCH  39  40
HETATM   40  C19 UNL     1      13.719 -31.721  17.482  1.00  0.00     0.165 C 
BRANCH  40  41
HETATM   41  O5  UNL     1      14.133 -33.079  17.484  1.00  0.00    -0.401 OA
ATOM     42  H5  UNL     1      15.071 -33.084  17.628  1.00  0.00     0.209 HD
ENDBRANCH  40  41
ENDBRANCH  39  40
ENDBRANCH  38  39
ENDBRANCH  35  38
ENDBRANCH   1  35
TORSDOF 19
ENDMDL
