MODEL 1
REMARK VINA RESULT: -10.578552455      0.000      0.000
REMARK  7 active torsions:
REMARK  status: ('A' for Active; 'I' for Inactive)
REMARK    1  A    between atoms: C12_12  and  O1_13 
REMARK    2  A    between atoms: O1_13  and  C13_14 
REMARK    3  A    between atoms: C13_14  and  C14_15 
REMARK    4  A    between atoms: C14_15  and  O2_16 
REMARK    5  A    between atoms: N1_18  and  C15_20 
REMARK    6  A    between atoms: C16_23  and  C17_24 
REMARK    7  A    between atoms: C17_24  and  N3_25 
ROOT
HETATM    1  C13 UNL     1      17.521  75.923  61.177  1.00  0.00     0.259 C 
ENDROOT
BRANCH   1   2
HETATM    2  O1  UNL     1      16.501  76.362  60.287  1.00  0.00    -0.342 OA
BRANCH   2   3
HETATM    3  C12 UNL     1      16.669  77.111  59.162  1.00  0.00     0.091 A 
HETATM    4  C11 UNL     1      17.782  77.871  58.882  1.00  0.00     0.039 A 
HETATM    5  C10 UNL     1      17.821  78.590  57.699  1.00  0.00     0.011 A 
HETATM    6  C9  UNL     1      16.800  78.579  56.792  1.00  0.00    -0.045 A 
HETATM    7  C8  UNL     1      16.844  79.374  55.508  1.00  0.00     0.078 C 
HETATM    8  C24 UNL     1      15.694  77.810  57.092  1.00  0.00    -0.023 A 
HETATM    9  C6  UNL     1      15.461  79.879  55.256  1.00  0.00    -0.047 A 
HETATM   10  C5  UNL     1      14.360  79.109  55.558  1.00  0.00    -0.047 A 
HETATM   11  C7  UNL     1      15.303  81.131  54.724  1.00  0.00     0.014 A 
HETATM   12  C4  UNL     1      13.079  79.584  55.333  1.00  0.00     0.008 A 
HETATM   13  C25 UNL     1      14.566  77.767  56.116  1.00  0.00     0.080 C 
HETATM   14  C3  UNL     1      12.949  80.855  54.794  1.00  0.00     0.007 A 
HETATM   15  C2  UNL     1      14.027  81.635  54.487  1.00  0.00    -0.061 A 
HETATM   16  C1  UNL     1      13.856  82.988  53.912  1.00  0.00     0.048 C 
HETATM   17  C23 UNL     1      15.618  77.091  58.243  1.00  0.00     0.074 A 
HETATM   18 CL1  UNL     1      14.180  76.141  58.549  1.00  0.00    -0.081 Cl
ENDBRANCH   2   3
ENDBRANCH   1   2
BRANCH   1  19
HETATM   19  C14 UNL     1      17.189  74.686  61.871  1.00  0.00     0.142 C 
HETATM   20  N1  UNL     1      17.075  73.424  61.361  1.00  0.00    -0.319 N 
ATOM     21  H1  UNL     1      16.811  72.693  62.021  1.00  0.00     0.169 HD
BRANCH  19  22
HETATM   22  O2  UNL     1      16.973  74.811  63.148  1.00  0.00    -0.348 OA
ATOM     23  H2  UNL     1      16.069  74.701  63.416  1.00  0.00     0.219 HD
ENDBRANCH  19  22
BRANCH  20  24
HETATM   24  C15 UNL     1      17.283  73.011  60.014  1.00  0.00     0.150 A 
HETATM   25  N2  UNL     1      16.508  72.539  59.063  1.00  0.00    -0.338 N 
HETATM   26  C16 UNL     1      17.014  72.232  57.890  1.00  0.00     0.046 A 
ATOM     27  H2  UNL     1      15.511  72.412  59.235  1.00  0.00     0.168 HD
HETATM   28  C22 UNL     1      18.352  72.419  57.704  1.00  0.00     0.080 A 
HETATM   29  S1  UNL     1      18.845  73.027  59.207  1.00  0.00    -0.064 SA
BRANCH  26  30
HETATM   30  C17 UNL     1      16.137  71.684  56.765  1.00  0.00     0.330 C 
BRANCH  30  31
HETATM   31  N3  UNL     1      16.883  71.652  55.550  1.00  0.00     0.098 N 
HETATM   32  C18 UNL     1      16.185  72.537  54.615  1.00  0.00     0.299 C 
HETATM   33  C19 UNL     1      16.786  72.369  53.254  1.00  0.00     0.198 C 
HETATM   34  O3  UNL     1      16.389  71.136  52.744  1.00  0.00    -0.388 OA
HETATM   35  C20 UNL     1      15.964  70.267  53.728  1.00  0.00     0.198 C 
HETATM   36  C21 UNL     1      16.818  70.318  54.978  1.00  0.00     0.299 C 
ENDBRANCH  30  31
ENDBRANCH  26  30
ENDBRANCH  20  24
ENDBRANCH   1  19
TORSDOF 7
ENDMDL
MODEL 2
REMARK VINA RESULT: -10.392199862      1.484      1.771
REMARK  7 active torsions:
REMARK  status: ('A' for Active; 'I' for Inactive)
REMARK    1  A    between atoms: C12_12  and  O1_13 
REMARK    2  A    between atoms: O1_13  and  C13_14 
REMARK    3  A    between atoms: C13_14  and  C14_15 
REMARK    4  A    between atoms: C14_15  and  O2_16 
REMARK    5  A    between atoms: N1_18  and  C15_20 
REMARK    6  A    between atoms: C16_23  and  C17_24 
REMARK    7  A    between atoms: C17_24  and  N3_25 
ROOT
HETATM    1  C13 UNL     1      17.811  76.010  61.514  1.00  0.00     0.259 C 
ENDROOT
BRANCH   1   2
HETATM    2  O1  UNL     1      16.779  76.401  60.615  1.00  0.00    -0.342 OA
BRANCH   2   3
HETATM    3  C12 UNL     1      16.929  77.108  59.462  1.00  0.00     0.091 A 
HETATM    4  C11 UNL     1      18.024  77.882  59.150  1.00  0.00     0.039 A 
HETATM    5  C10 UNL     1      18.045  78.554  57.939  1.00  0.00     0.011 A 
HETATM    6  C9  UNL     1      17.024  78.485  57.035  1.00  0.00    -0.045 A 
HETATM    7  C8  UNL     1      17.049  79.229  55.721  1.00  0.00     0.078 C 
HETATM    8  C24 UNL     1      15.936  77.703  57.368  1.00  0.00    -0.023 A 
HETATM    9  C6  UNL     1      15.655  79.692  55.452  1.00  0.00    -0.047 A 
HETATM   10  C5  UNL     1      14.571  78.911  55.787  1.00  0.00    -0.047 A 
HETATM   11  C7  UNL     1      15.468  80.918  54.872  1.00  0.00     0.014 A 
HETATM   12  C4  UNL     1      13.280  79.348  55.546  1.00  0.00     0.008 A 
HETATM   13  C25 UNL     1      14.808  77.597  56.396  1.00  0.00     0.080 C 
HETATM   14  C3  UNL     1      13.120  80.594  54.957  1.00  0.00     0.007 A 
HETATM   15  C2  UNL     1      14.180  81.385  54.618  1.00  0.00    -0.061 A 
HETATM   16  C1  UNL     1      13.978  82.710  53.991  1.00  0.00     0.048 C 
HETATM   17  C23 UNL     1      15.878  77.029  58.546  1.00  0.00     0.074 A 
HETATM   18 CL1  UNL     1      14.462  76.060  58.893  1.00  0.00    -0.081 Cl
ENDBRANCH   2   3
ENDBRANCH   1   2
BRANCH   1  19
HETATM   19  C14 UNL     1      17.534  74.757  62.203  1.00  0.00     0.142 C 
HETATM   20  N1  UNL     1      17.457  73.496  61.684  1.00  0.00    -0.319 N 
ATOM     21  H1  UNL     1      17.229  72.751  62.343  1.00  0.00     0.169 HD
BRANCH  19  22
HETATM   22  O2  UNL     1      17.333  74.864  63.484  1.00  0.00    -0.348 OA
ATOM     23  H2  UNL     1      16.901  74.121  63.887  1.00  0.00     0.219 HD
ENDBRANCH  19  22
BRANCH  20  24
HETATM   24  C15 UNL     1      17.659  73.100  60.332  1.00  0.00     0.150 A 
HETATM   25  N2  UNL     1      16.871  72.914  59.296  1.00  0.00    -0.338 N 
HETATM   26  C16 UNL     1      17.372  72.526  58.145  1.00  0.00     0.046 A 
ATOM     27  H2  UNL     1      15.867  73.071  59.387  1.00  0.00     0.168 HD
HETATM   28  C22 UNL     1      18.720  72.328  58.071  1.00  0.00     0.080 A 
HETATM   29  S1  UNL     1      19.227  72.702  59.643  1.00  0.00    -0.064 SA
BRANCH  26  30
HETATM   30  C17 UNL     1      16.481  72.303  56.925  1.00  0.00     0.330 C 
BRANCH  30  31
HETATM   31  N3  UNL     1      15.447  73.285  56.901  1.00  0.00     0.098 N 
HETATM   32  C18 UNL     1      14.181  72.551  56.864  1.00  0.00     0.299 C 
HETATM   33  C19 UNL     1      13.070  73.521  56.608  1.00  0.00     0.198 C 
HETATM   34  O3  UNL     1      13.138  73.931  55.279  1.00  0.00    -0.388 OA
HETATM   35  C20 UNL     1      14.381  73.713  54.720  1.00  0.00     0.198 C 
HETATM   36  C21 UNL     1      15.522  74.037  55.661  1.00  0.00     0.299 C 
ENDBRANCH  30  31
ENDBRANCH  26  30
ENDBRANCH  20  24
ENDBRANCH   1  19
TORSDOF 7
ENDMDL
MODEL 3
REMARK VINA RESULT: -10.139981429      1.708      2.090
REMARK  7 active torsions:
REMARK  status: ('A' for Active; 'I' for Inactive)
REMARK    1  A    between atoms: C12_12  and  O1_13 
REMARK    2  A    between atoms: O1_13  and  C13_14 
REMARK    3  A    between atoms: C13_14  and  C14_15 
REMARK    4  A    between atoms: C14_15  and  O2_16 
REMARK    5  A    between atoms: N1_18  and  C15_20 
REMARK    6  A    between atoms: C16_23  and  C17_24 
REMARK    7  A    between atoms: C17_24  and  N3_25 
ROOT
HETATM    1  C13 UNL     1      17.418  76.138  61.479  1.00  0.00     0.259 C 
ENDROOT
BRANCH   1   2
HETATM    2  O1  UNL     1      16.508  76.292  60.395  1.00  0.00    -0.342 OA
BRANCH   2   3
HETATM    3  C12 UNL     1      16.692  77.050  59.280  1.00  0.00     0.091 A 
HETATM    4  C11 UNL     1      17.795  77.838  59.036  1.00  0.00     0.039 A 
HETATM    5  C10 UNL     1      17.852  78.563  57.859  1.00  0.00     0.011 A 
HETATM    6  C9  UNL     1      16.860  78.534  56.921  1.00  0.00    -0.045 A 
HETATM    7  C8  UNL     1      16.923  79.337  55.643  1.00  0.00     0.078 C 
HETATM    8  C24 UNL     1      15.763  77.738  57.185  1.00  0.00    -0.023 A 
HETATM    9  C6  UNL     1      15.537  79.811  55.353  1.00  0.00    -0.047 A 
HETATM   10  C5  UNL     1      14.446  79.014  55.618  1.00  0.00    -0.047 A 
HETATM   11  C7  UNL     1      15.366  81.062  54.822  1.00  0.00     0.014 A 
HETATM   12  C4  UNL     1      13.161  79.461  55.357  1.00  0.00     0.008 A 
HETATM   13  C25 UNL     1      14.665  77.674  56.175  1.00  0.00     0.080 C 
HETATM   14  C3  UNL     1      13.017  80.732  54.821  1.00  0.00     0.007 A 
HETATM   15  C2  UNL     1      14.086  81.538  54.550  1.00  0.00    -0.061 A 
HETATM   16  C1  UNL     1      13.901  82.890  53.977  1.00  0.00     0.048 C 
HETATM   17  C23 UNL     1      15.670  77.011  58.329  1.00  0.00     0.074 A 
HETATM   18 CL1  UNL     1      14.246  76.027  58.588  1.00  0.00    -0.081 Cl
ENDBRANCH   2   3
ENDBRANCH   1   2
BRANCH   1  19
HETATM   19  C14 UNL     1      17.327  74.837  62.129  1.00  0.00     0.142 C 
HETATM   20  N1  UNL     1      17.551  73.599  61.599  1.00  0.00    -0.319 N 
ATOM     21  H1  UNL     1      17.411  72.808  62.227  1.00  0.00     0.169 HD
BRANCH  19  22
HETATM   22  O2  UNL     1      16.985  74.871  63.384  1.00  0.00    -0.348 OA
ATOM     23  H2  UNL     1      16.517  74.105  63.695  1.00  0.00     0.219 HD
ENDBRANCH  19  22
BRANCH  20  24
HETATM   24  C15 UNL     1      17.957  73.284  60.272  1.00  0.00     0.150 A 
HETATM   25  N2  UNL     1      17.431  73.456  59.079  1.00  0.00    -0.338 N 
HETATM   26  C16 UNL     1      18.067  73.034  58.009  1.00  0.00     0.046 A 
ATOM     27  H2  UNL     1      16.527  73.918  58.984  1.00  0.00     0.168 HD
HETATM   28  C22 UNL     1      19.273  72.422  58.184  1.00  0.00     0.080 A 
HETATM   29  S1  UNL     1      19.461  72.468  59.867  1.00  0.00    -0.064 SA
BRANCH  26  30
HETATM   30  C17 UNL     1      17.481  73.222  56.611  1.00  0.00     0.330 C 
BRANCH  30  31
HETATM   31  N3  UNL     1      18.412  73.928  55.793  1.00  0.00     0.098 N 
HETATM   32  C18 UNL     1      18.586  75.245  56.411  1.00  0.00     0.299 C 
HETATM   33  C19 UNL     1      19.372  76.113  55.478  1.00  0.00     0.198 C 
HETATM   34  O3  UNL     1      18.554  76.467  54.408  1.00  0.00    -0.388 OA
HETATM   35  C20 UNL     1      17.474  75.620  54.263  1.00  0.00     0.198 C 
HETATM   36  C21 UNL     1      17.825  74.163  54.485  1.00  0.00     0.299 C 
ENDBRANCH  30  31
ENDBRANCH  26  30
ENDBRANCH  20  24
ENDBRANCH   1  19
TORSDOF 7
ENDMDL
MODEL 4
REMARK VINA RESULT: -9.651347741      1.528      1.827
REMARK  7 active torsions:
REMARK  status: ('A' for Active; 'I' for Inactive)
REMARK    1  A    between atoms: C12_12  and  O1_13 
REMARK    2  A    between atoms: O1_13  and  C13_14 
REMARK    3  A    between atoms: C13_14  and  C14_15 
REMARK    4  A    between atoms: C14_15  and  O2_16 
REMARK    5  A    between atoms: N1_18  and  C15_20 
REMARK    6  A    between atoms: C16_23  and  C17_24 
REMARK    7  A    between atoms: C17_24  and  N3_25 
ROOT
HETATM    1  C13 UNL     1      17.720  75.491  61.118  1.00  0.00     0.259 C 
ENDROOT
BRANCH   1   2
HETATM    2  O1  UNL     1      16.860  76.505  60.611  1.00  0.00    -0.342 OA
BRANCH   2   3
HETATM    3  C12 UNL     1      17.003  77.184  59.440  1.00  0.00     0.091 A 
HETATM    4  C11 UNL     1      18.096  77.951  59.103  1.00  0.00     0.039 A 
HETATM    5  C10 UNL     1      18.111  78.592  57.876  1.00  0.00     0.011 A 
HETATM    6  C9  UNL     1      17.086  78.500  56.979  1.00  0.00    -0.045 A 
HETATM    7  C8  UNL     1      17.103  79.212  55.647  1.00  0.00     0.078 C 
HETATM    8  C24 UNL     1      16.000  77.726  57.336  1.00  0.00    -0.023 A 
HETATM    9  C6  UNL     1      15.707  79.667  55.373  1.00  0.00    -0.047 A 
HETATM   10  C5  UNL     1      14.626  78.893  55.733  1.00  0.00    -0.047 A 
HETATM   11  C7  UNL     1      15.516  80.878  54.763  1.00  0.00     0.014 A 
HETATM   12  C4  UNL     1      13.333  79.323  55.487  1.00  0.00     0.008 A 
HETATM   13  C25 UNL     1      14.866  77.594  56.373  1.00  0.00     0.080 C 
HETATM   14  C3  UNL     1      13.169  80.553  54.869  1.00  0.00     0.007 A 
HETATM   15  C2  UNL     1      14.227  81.337  54.504  1.00  0.00    -0.061 A 
HETATM   16  C1  UNL     1      14.020  82.646  53.846  1.00  0.00     0.048 C 
HETATM   17  C23 UNL     1      15.948  77.081  58.531  1.00  0.00     0.074 A 
HETATM   18 CL1  UNL     1      14.535  76.120  58.909  1.00  0.00    -0.081 Cl
ENDBRANCH   2   3
ENDBRANCH   1   2
BRANCH   1  19
HETATM   19  C14 UNL     1      17.124  74.163  61.096  1.00  0.00     0.142 C 
HETATM   20  N1  UNL     1      17.107  73.250  60.081  1.00  0.00    -0.319 N 
ATOM     21  H1  UNL     1      16.612  72.378  60.267  1.00  0.00     0.169 HD
BRANCH  19  22
HETATM   22  O2  UNL     1      16.528  73.808  62.197  1.00  0.00    -0.348 OA
ATOM     23  H2  UNL     1      16.809  74.275  62.976  1.00  0.00     0.219 HD
ENDBRANCH  19  22
BRANCH  20  24
HETATM   24  C15 UNL     1      17.701  73.373  58.793  1.00  0.00     0.150 A 
HETATM   25  N2  UNL     1      17.419  74.059  57.708  1.00  0.00    -0.338 N 
HETATM   26  C16 UNL     1      18.179  73.949  56.641  1.00  0.00     0.046 A 
ATOM     27  H2  UNL     1      16.609  74.678  57.693  1.00  0.00     0.168 HD
HETATM   28  C22 UNL     1      19.252  73.110  56.706  1.00  0.00     0.080 A 
HETATM   29  S1  UNL     1      19.143  72.505  58.284  1.00  0.00    -0.064 SA
BRANCH  26  30
HETATM   30  C17 UNL     1      17.877  74.736  55.366  1.00  0.00     0.330 C 
BRANCH  30  31
HETATM   31  N3  UNL     1      17.900  73.856  54.245  1.00  0.00     0.098 N 
HETATM   32  C18 UNL     1      18.772  74.482  53.248  1.00  0.00     0.299 C 
HETATM   33  C19 UNL     1      18.656  73.723  51.963  1.00  0.00     0.198 C 
HETATM   34  O3  UNL     1      17.417  74.002  51.394  1.00  0.00    -0.388 OA
HETATM   35  C20 UNL     1      16.512  74.497  52.311  1.00  0.00     0.198 C 
HETATM   36  C21 UNL     1      16.576  73.794  53.650  1.00  0.00     0.299 C 
ENDBRANCH  30  31
ENDBRANCH  26  30
ENDBRANCH  20  24
ENDBRANCH   1  19
TORSDOF 7
ENDMDL
MODEL 5
REMARK VINA RESULT: -9.611379988      2.127      2.579
REMARK  7 active torsions:
REMARK  status: ('A' for Active; 'I' for Inactive)
REMARK    1  A    between atoms: C12_12  and  O1_13 
REMARK    2  A    between atoms: O1_13  and  C13_14 
REMARK    3  A    between atoms: C13_14  and  C14_15 
REMARK    4  A    between atoms: C14_15  and  O2_16 
REMARK    5  A    between atoms: N1_18  and  C15_20 
REMARK    6  A    between atoms: C16_23  and  C17_24 
REMARK    7  A    between atoms: C17_24  and  N3_25 
ROOT
HETATM    1  C13 UNL     1      17.776  75.609  61.054  1.00  0.00     0.259 C 
ENDROOT
BRANCH   1   2
HETATM    2  O1  UNL     1      16.880  76.578  60.521  1.00  0.00    -0.342 OA
BRANCH   2   3
HETATM    3  C12 UNL     1      17.013  77.250  59.344  1.00  0.00     0.091 A 
HETATM    4  C11 UNL     1      18.110  78.000  58.986  1.00  0.00     0.039 A 
HETATM    5  C10 UNL     1      18.114  78.637  57.757  1.00  0.00     0.011 A 
HETATM    6  C9  UNL     1      17.072  78.554  56.877  1.00  0.00    -0.045 A 
HETATM    7  C8  UNL     1      17.077  79.261  55.542  1.00  0.00     0.078 C 
HETATM    8  C24 UNL     1      15.982  77.797  57.256  1.00  0.00    -0.023 A 
HETATM    9  C6  UNL     1      15.682  79.733  55.290  1.00  0.00    -0.047 A 
HETATM   10  C5  UNL     1      14.598  78.975  55.670  1.00  0.00    -0.047 A 
HETATM   11  C7  UNL     1      15.498  80.944  54.678  1.00  0.00     0.014 A 
HETATM   12  C4  UNL     1      13.307  79.421  55.444  1.00  0.00     0.008 A 
HETATM   13  C25 UNL     1      14.832  77.676  56.312  1.00  0.00     0.080 C 
HETATM   14  C3  UNL     1      13.149  80.651  54.823  1.00  0.00     0.007 A 
HETATM   15  C2  UNL     1      14.211  81.419  54.438  1.00  0.00    -0.061 A 
HETATM   16  C1  UNL     1      14.011  82.728  53.777  1.00  0.00     0.048 C 
HETATM   17  C23 UNL     1      15.942  77.157  58.454  1.00  0.00     0.074 A 
HETATM   18 CL1  UNL     1      14.522  76.217  58.859  1.00  0.00    -0.081 Cl
ENDBRANCH   2   3
ENDBRANCH   1   2
BRANCH   1  19
HETATM   19  C14 UNL     1      17.125  74.358  61.419  1.00  0.00     0.142 C 
HETATM   20  N1  UNL     1      16.936  73.239  60.660  1.00  0.00    -0.319 N 
ATOM     21  H1  UNL     1      16.432  72.472  61.105  1.00  0.00     0.169 HD
BRANCH  19  22
HETATM   22  O2  UNL     1      16.664  74.312  62.635  1.00  0.00    -0.348 OA
ATOM     23  H2  UNL     1      16.015  73.637  62.794  1.00  0.00     0.219 HD
ENDBRANCH  19  22
BRANCH  20  24
HETATM   24  C15 UNL     1      17.361  73.019  59.319  1.00  0.00     0.150 A 
HETATM   25  N2  UNL     1      18.522  73.041  58.702  1.00  0.00    -0.338 N 
HETATM   26  C16 UNL     1      18.590  72.796  57.413  1.00  0.00     0.046 A 
ATOM     27  H2  UNL     1      19.372  73.250  59.226  1.00  0.00     0.168 HD
HETATM   28  C22 UNL     1      17.428  72.522  56.754  1.00  0.00     0.080 A 
HETATM   29  S1  UNL     1      16.277  72.623  57.992  1.00  0.00    -0.064 SA
BRANCH  26  30
HETATM   30  C17 UNL     1      19.926  72.813  56.670  1.00  0.00     0.330 C 
BRANCH  30  31
HETATM   31  N3  UNL     1      19.772  73.493  55.427  1.00  0.00     0.098 N 
HETATM   32  C18 UNL     1      20.848  73.011  54.558  1.00  0.00     0.299 C 
HETATM   33  C19 UNL     1      20.881  73.852  53.320  1.00  0.00     0.198 C 
HETATM   34  O3  UNL     1      21.394  75.103  53.649  1.00  0.00    -0.388 OA
HETATM   35  C20 UNL     1      21.311  75.372  55.000  1.00  0.00     0.198 C 
HETATM   36  C21 UNL     1      20.007  74.914  55.620  1.00  0.00     0.299 C 
ENDBRANCH  30  31
ENDBRANCH  26  30
ENDBRANCH  20  24
ENDBRANCH   1  19
TORSDOF 7
ENDMDL
