MODEL 1
REMARK VINA RESULT: -8.164116838      0.000      0.000
REMARK  10 active torsions:
REMARK  status: ('A' for Active; 'I' for Inactive)
REMARK    1  A    between atoms: C2_2  and  C3_3 
REMARK    2  A    between atoms: C3_3  and  C4_4 
REMARK    3  A    between atoms: C7_11  and  O2_12 
REMARK    4  A    between atoms: O2_12  and  C8_13 
REMARK    5  A    between atoms: C8_13  and  C9_14 
REMARK    6  A    between atoms: C9_14  and  O3_15 
REMARK    7  A    between atoms: C9_14  and  C10_17 
REMARK    8  A    between atoms: C10_17  and  N3_18 
REMARK       I    between atoms: N3_18  and  C11_19 
REMARK       I    between atoms: C11_19  and  N4_21 
REMARK    9  A    between atoms: N4_21  and  C12_23 
REMARK   10  A    between atoms: C17_29  and  N6_30 
REMARK       I    between atoms: N6_30  and  C18_31 
ROOT
HETATM    1  C9  UNL     1      16.889  69.508  55.687  1.00  0.00     0.172 C 
ENDROOT
BRANCH   1   2
HETATM    2  C8  UNL     1      16.184  69.883  54.439  1.00  0.00     0.210 C 
BRANCH   2   3
HETATM    3  O2  UNL     1      15.089  70.710  54.863  1.00  0.00    -0.345 OA
BRANCH   3   4
HETATM    4  C7  UNL     1      15.097  72.087  54.670  1.00  0.00     0.112 A 
HETATM    5  C6  UNL     1      15.574  72.832  53.693  1.00  0.00     0.146 A 
HETATM    6  N2  UNL     1      15.301  74.120  53.989  1.00  0.00    -0.307 N 
HETATM    7  N1  UNL     1      14.686  74.190  55.097  1.00  0.00    -0.289 N 
ATOM      8  H2  UNL     1      15.551  74.919  53.407  1.00  0.00     0.186 HD
HETATM    9  C5  UNL     1      14.221  75.247  55.935  1.00  0.00     0.186 C 
HETATM   10  C19 UNL     1      14.491  72.909  55.641  1.00  0.00     0.087 A 
HETATM   11  C2  UNL     1      12.945  74.838  56.655  1.00  0.00     0.081 C 
HETATM   12  C1  UNL     1      11.759  75.324  55.845  1.00  0.00     0.048 C 
HETATM   13  O6  UNL     1      12.843  73.635  57.194  1.00  0.00    -0.372 OA
HETATM   14  C20 UNL     1      13.803  72.667  56.887  1.00  0.00     0.230 C 
BRANCH  11  15
HETATM   15  C3  UNL     1      12.971  75.827  57.908  1.00  0.00     0.108 C 
BRANCH  15  16
HETATM   16  C4  UNL     1      14.339  76.386  57.985  1.00  0.00     0.234 C 
HETATM   17  O1  UNL     1      14.914  76.403  59.075  1.00  0.00    -0.307 OA
ENDBRANCH  15  16
ENDBRANCH  11  15
ENDBRANCH   3   4
ENDBRANCH   2   3
ENDBRANCH   1   2
BRANCH   1  18
HETATM   18  O3  UNL     1      16.194  69.707  56.865  1.00  0.00    -0.391 OA
ATOM     19  H3  UNL     1      15.447  70.292  56.818  1.00  0.00     0.210 HD
ENDBRANCH   1  18
BRANCH   1  20
HETATM   20  C10 UNL     1      18.320  69.835  55.698  1.00  0.00     0.257 C 
BRANCH  20  21
HETATM   21  N3  UNL     1      18.812  71.012  56.337  1.00  0.00    -0.394 NA
HETATM   22  C11 UNL     1      19.313  72.144  56.899  1.00  0.00     0.393 C 
HETATM   23  O4  UNL     1      20.167  72.853  56.498  1.00  0.00    -0.230 OA
HETATM   24  N4  UNL     1      18.613  72.408  58.178  1.00  0.00    -0.294 N 
ATOM     25  H4  UNL     1      17.756  71.860  58.251  1.00  0.00     0.172 HD
BRANCH  24  26
HETATM   26  C12 UNL     1      18.797  73.176  59.273  1.00  0.00     0.078 A 
HETATM   27  C13 UNL     1      19.358  72.572  60.438  1.00  0.00     0.035 A 
HETATM   28  C14 UNL     1      19.134  73.145  61.631  1.00  0.00     0.029 A 
HETATM   29  C15 UNL     1      18.369  74.305  61.755  1.00  0.00     0.049 A 
HETATM   30  N5  UNL     1      18.127  74.788  63.053  1.00  0.00    -0.102 NA
HETATM   31  C16 UNL     1      17.831  74.906  60.627  1.00  0.00     0.073 A 
HETATM   32  C17 UNL     1      18.049  74.344  59.421  1.00  0.00     0.141 A 
BRANCH  32  33
HETATM   33  N6  UNL     1      18.005  75.208  58.267  1.00  0.00    -0.352 NA
HETATM   34  C18 UNL     1      18.027  76.081  57.392  1.00  0.00     0.406 C 
HETATM   35  N7  UNL     1      17.766  75.386  55.974  1.00  0.00    -0.025 NA
HETATM   36  O5  UNL     1      18.176  77.255  57.078  1.00  0.00    -0.234 OA
ENDBRANCH  32  33
ENDBRANCH  24  26
ENDBRANCH  20  21
ENDBRANCH   1  20
TORSDOF 10
ENDMDL
MODEL 2
REMARK VINA RESULT: -8.155101932      2.616      3.257
REMARK  10 active torsions:
REMARK  status: ('A' for Active; 'I' for Inactive)
REMARK    1  A    between atoms: C2_2  and  C3_3 
REMARK    2  A    between atoms: C3_3  and  C4_4 
REMARK    3  A    between atoms: C7_11  and  O2_12 
REMARK    4  A    between atoms: O2_12  and  C8_13 
REMARK    5  A    between atoms: C8_13  and  C9_14 
REMARK    6  A    between atoms: C9_14  and  O3_15 
REMARK    7  A    between atoms: C9_14  and  C10_17 
REMARK    8  A    between atoms: C10_17  and  N3_18 
REMARK       I    between atoms: N3_18  and  C11_19 
REMARK       I    between atoms: C11_19  and  N4_21 
REMARK    9  A    between atoms: N4_21  and  C12_23 
REMARK   10  A    between atoms: C17_29  and  N6_30 
REMARK       I    between atoms: N6_30  and  C18_31 
ROOT
HETATM    1  C9  UNL     1      15.453  71.861  56.219  1.00  0.00     0.172 C 
ENDROOT
BRANCH   1   2
HETATM    2  C8  UNL     1      14.701  72.967  55.582  1.00  0.00     0.210 C 
BRANCH   2   3
HETATM    3  O2  UNL     1      13.519  73.125  56.381  1.00  0.00    -0.345 OA
BRANCH   3   4
HETATM    4  C7  UNL     1      12.318  73.563  55.832  1.00  0.00     0.112 A 
HETATM    5  C6  UNL     1      11.676  73.208  54.737  1.00  0.00     0.146 A 
HETATM    6  N2  UNL     1      10.539  73.933  54.677  1.00  0.00    -0.307 N 
HETATM    7  N1  UNL     1      10.466  74.710  55.678  1.00  0.00    -0.289 N 
ATOM      8  H2  UNL     1       9.841  73.866  53.936  1.00  0.00     0.186 HD
HETATM    9  C5  UNL     1       9.569  75.735  56.105  1.00  0.00     0.186 C 
HETATM   10  C19 UNL     1      11.585  74.553  56.514  1.00  0.00     0.087 A 
HETATM   11  C2  UNL     1       9.480  75.771  57.622  1.00  0.00     0.081 C 
HETATM   12  C1  UNL     1       8.295  74.929  58.055  1.00  0.00     0.048 C 
HETATM   13  O6  UNL     1      10.576  75.672  58.354  1.00  0.00    -0.372 OA
HETATM   14  C20 UNL     1      11.773  75.289  57.742  1.00  0.00     0.230 C 
BRANCH  11  15
HETATM   15  C3  UNL     1       8.983  77.268  57.864  1.00  0.00     0.108 C 
BRANCH  15  16
HETATM   16  C4  UNL     1       8.054  77.230  59.015  1.00  0.00     0.234 C 
HETATM   17  O1  UNL     1       8.321  77.897  60.016  1.00  0.00    -0.307 OA
ENDBRANCH  15  16
ENDBRANCH  11  15
ENDBRANCH   3   4
ENDBRANCH   2   3
ENDBRANCH   1   2
BRANCH   1  18
HETATM   18  O3  UNL     1      15.040  71.491  57.485  1.00  0.00    -0.391 OA
ATOM     19  H3  UNL     1      14.979  72.188  58.127  1.00  0.00     0.210 HD
ENDBRANCH   1  18
BRANCH   1  20
HETATM   20  C10 UNL     1      16.899  71.891  55.976  1.00  0.00     0.257 C 
BRANCH  20  21
HETATM   21  N3  UNL     1      17.814  72.351  56.969  1.00  0.00    -0.394 NA
HETATM   22  C11 UNL     1      18.729  72.769  57.884  1.00  0.00     0.393 C 
HETATM   23  O4  UNL     1      19.891  72.564  57.914  1.00  0.00    -0.230 OA
HETATM   24  N4  UNL     1      18.049  73.574  58.926  1.00  0.00    -0.294 N 
ATOM     25  H4  UNL     1      17.118  73.859  58.624  1.00  0.00     0.172 HD
BRANCH  24  26
HETATM   26  C12 UNL     1      18.324  74.033  60.165  1.00  0.00     0.078 A 
HETATM   27  C13 UNL     1      18.901  73.133  61.110  1.00  0.00     0.035 A 
HETATM   28  C14 UNL     1      18.762  73.398  62.419  1.00  0.00     0.029 A 
HETATM   29  C15 UNL     1      18.069  74.520  62.870  1.00  0.00     0.049 A 
HETATM   30  N5  UNL     1      17.911  74.672  64.259  1.00  0.00    -0.102 NA
HETATM   31  C16 UNL     1      17.516  75.408  61.960  1.00  0.00     0.073 A 
HETATM   32  C17 UNL     1      17.649  75.158  60.640  1.00  0.00     0.141 A 
BRANCH  32  33
HETATM   33  N6  UNL     1      17.602  76.284  59.742  1.00  0.00    -0.352 NA
HETATM   34  C18 UNL     1      17.732  77.203  58.924  1.00  0.00     0.406 C 
HETATM   35  N7  UNL     1      16.317  77.927  58.742  1.00  0.00    -0.025 NA
HETATM   36  O5  UNL     1      18.442  77.829  58.148  1.00  0.00    -0.234 OA
ENDBRANCH  32  33
ENDBRANCH  24  26
ENDBRANCH  20  21
ENDBRANCH   1  20
TORSDOF 10
ENDMDL
MODEL 3
REMARK VINA RESULT: -8.074850635      2.012      5.983
REMARK  10 active torsions:
REMARK  status: ('A' for Active; 'I' for Inactive)
REMARK    1  A    between atoms: C2_2  and  C3_3 
REMARK    2  A    between atoms: C3_3  and  C4_4 
REMARK    3  A    between atoms: C7_11  and  O2_12 
REMARK    4  A    between atoms: O2_12  and  C8_13 
REMARK    5  A    between atoms: C8_13  and  C9_14 
REMARK    6  A    between atoms: C9_14  and  O3_15 
REMARK    7  A    between atoms: C9_14  and  C10_17 
REMARK    8  A    between atoms: C10_17  and  N3_18 
REMARK       I    between atoms: N3_18  and  C11_19 
REMARK       I    between atoms: C11_19  and  N4_21 
REMARK    9  A    between atoms: N4_21  and  C12_23 
REMARK   10  A    between atoms: C17_29  and  N6_30 
REMARK       I    between atoms: N6_30  and  C18_31 
ROOT
HETATM    1  C9  UNL     1      18.454  73.581  62.498  1.00  0.00     0.172 C 
ENDROOT
BRANCH   1   2
HETATM    2  C8  UNL     1      19.152  72.952  61.352  1.00  0.00     0.210 C 
BRANCH   2   3
HETATM    3  O2  UNL     1      18.214  73.006  60.267  1.00  0.00    -0.345 OA
BRANCH   3   4
HETATM    4  C7  UNL     1      18.584  72.684  58.965  1.00  0.00     0.112 A 
HETATM    5  C6  UNL     1      19.760  72.651  58.372  1.00  0.00     0.146 A 
HETATM    6  N2  UNL     1      19.565  72.251  57.098  1.00  0.00    -0.307 N 
HETATM    7  N1  UNL     1      18.329  72.046  56.892  1.00  0.00    -0.289 N 
ATOM      8  H2  UNL     1      20.301  72.132  56.403  1.00  0.00     0.186 HD
HETATM    9  C5  UNL     1      17.532  71.698  55.760  1.00  0.00     0.186 C 
HETATM   10  C19 UNL     1      17.581  72.296  58.055  1.00  0.00     0.087 A 
HETATM   11  C2  UNL     1      16.347  70.844  56.181  1.00  0.00     0.081 C 
HETATM   12  C1  UNL     1      16.724  69.384  56.024  1.00  0.00     0.048 C 
HETATM   13  O6  UNL     1      15.648  71.163  57.258  1.00  0.00    -0.372 OA
HETATM   14  C20 UNL     1      16.149  72.129  58.134  1.00  0.00     0.230 C 
BRANCH  11  15
HETATM   15  C3  UNL     1      15.338  71.102  54.971  1.00  0.00     0.108 C 
BRANCH  15  16
HETATM   16  C4  UNL     1      16.044  70.704  53.733  1.00  0.00     0.234 C 
HETATM   17  O1  UNL     1      15.432  70.057  52.881  1.00  0.00    -0.307 OA
ENDBRANCH  15  16
ENDBRANCH  11  15
ENDBRANCH   3   4
ENDBRANCH   2   3
ENDBRANCH   1   2
BRANCH   1  18
HETATM   18  O3  UNL     1      17.232  73.036  62.843  1.00  0.00    -0.391 OA
ATOM     19  H3  UNL     1      16.667  73.579  63.379  1.00  0.00     0.210 HD
ENDBRANCH   1  18
BRANCH   1  20
HETATM   20  C10 UNL     1      18.566  75.043  62.548  1.00  0.00     0.257 C 
BRANCH  20  21
HETATM   21  N3  UNL     1      18.029  75.869  61.515  1.00  0.00    -0.394 NA
HETATM   22  C11 UNL     1      17.540  76.701  60.558  1.00  0.00     0.393 C 
HETATM   23  O4  UNL     1      17.549  77.881  60.529  1.00  0.00    -0.230 OA
HETATM   24  N4  UNL     1      16.943  75.897  59.467  1.00  0.00    -0.294 N 
ATOM     25  H4  UNL     1      17.236  74.922  59.523  1.00  0.00     0.172 HD
BRANCH  24  26
HETATM   26  C12 UNL     1      16.117  76.100  58.417  1.00  0.00     0.078 A 
HETATM   27  C13 UNL     1      14.768  76.481  58.680  1.00  0.00     0.035 A 
HETATM   28  C14 UNL     1      13.839  76.246  57.740  1.00  0.00     0.029 A 
HETATM   29  C15 UNL     1      14.161  75.642  56.525  1.00  0.00     0.049 A 
HETATM   30  N5  UNL     1      13.108  75.369  55.635  1.00  0.00    -0.102 NA
HETATM   31  C16 UNL     1      15.472  75.280  56.256  1.00  0.00     0.073 A 
HETATM   32  C17 UNL     1      16.418  75.512  57.189  1.00  0.00     0.141 A 
BRANCH  32  33
HETATM   33  N6  UNL     1      17.776  75.676  56.733  1.00  0.00    -0.352 NA
HETATM   34  C18 UNL     1      18.931  75.639  56.293  1.00  0.00     0.406 C 
HETATM   35  N7  UNL     1      19.513  77.130  56.267  1.00  0.00    -0.025 NA
HETATM   36  O5  UNL     1      19.864  74.993  55.834  1.00  0.00    -0.234 OA
ENDBRANCH  32  33
ENDBRANCH  24  26
ENDBRANCH  20  21
ENDBRANCH   1  20
TORSDOF 10
ENDMDL
MODEL 4
REMARK VINA RESULT: -8.064642694      1.041      1.264
REMARK  10 active torsions:
REMARK  status: ('A' for Active; 'I' for Inactive)
REMARK    1  A    between atoms: C2_2  and  C3_3 
REMARK    2  A    between atoms: C3_3  and  C4_4 
REMARK    3  A    between atoms: C7_11  and  O2_12 
REMARK    4  A    between atoms: O2_12  and  C8_13 
REMARK    5  A    between atoms: C8_13  and  C9_14 
REMARK    6  A    between atoms: C9_14  and  O3_15 
REMARK    7  A    between atoms: C9_14  and  C10_17 
REMARK    8  A    between atoms: C10_17  and  N3_18 
REMARK       I    between atoms: N3_18  and  C11_19 
REMARK       I    between atoms: C11_19  and  N4_21 
REMARK    9  A    between atoms: N4_21  and  C12_23 
REMARK   10  A    between atoms: C17_29  and  N6_30 
REMARK       I    between atoms: N6_30  and  C18_31 
ROOT
HETATM    1  C9  UNL     1      16.929  69.568  55.827  1.00  0.00     0.172 C 
ENDROOT
BRANCH   1   2
HETATM    2  C8  UNL     1      16.199  69.963  54.600  1.00  0.00     0.210 C 
BRANCH   2   3
HETATM    3  O2  UNL     1      15.145  70.826  55.054  1.00  0.00    -0.345 OA
BRANCH   3   4
HETATM    4  C7  UNL     1      15.293  72.209  55.080  1.00  0.00     0.112 A 
HETATM    5  C6  UNL     1      16.154  73.008  54.483  1.00  0.00     0.146 A 
HETATM    6  N2  UNL     1      15.845  74.275  54.832  1.00  0.00    -0.307 N 
HETATM    7  N1  UNL     1      14.844  74.279  55.612  1.00  0.00    -0.289 N 
ATOM      8  H2  UNL     1      16.343  75.107  54.515  1.00  0.00     0.186 HD
HETATM    9  C5  UNL     1      14.133  75.274  56.348  1.00  0.00     0.186 C 
HETATM   10  C19 UNL     1      14.389  72.970  55.847  1.00  0.00     0.087 A 
HETATM   11  C2  UNL     1      12.659  74.916  56.449  1.00  0.00     0.081 C 
HETATM   12  C1  UNL     1      11.917  75.606  55.321  1.00  0.00     0.048 C 
HETATM   13  O6  UNL     1      12.295  73.675  56.726  1.00  0.00    -0.372 OA
HETATM   14  C20 UNL     1      13.251  72.657  56.679  1.00  0.00     0.230 C 
BRANCH  11  15
HETATM   15  C3  UNL     1      12.230  75.747  57.742  1.00  0.00     0.108 C 
BRANCH  15  16
HETATM   16  C4  UNL     1      10.754  75.684  57.821  1.00  0.00     0.234 C 
HETATM   17  O1  UNL     1      10.230  75.315  58.873  1.00  0.00    -0.307 OA
ENDBRANCH  15  16
ENDBRANCH  11  15
ENDBRANCH   3   4
ENDBRANCH   2   3
ENDBRANCH   1   2
BRANCH   1  18
HETATM   18  O3  UNL     1      16.221  69.648  57.011  1.00  0.00    -0.391 OA
ATOM     19  H3  UNL     1      16.527  69.096  57.722  1.00  0.00     0.210 HD
ENDBRANCH   1  18
BRANCH   1  20
HETATM   20  C10 UNL     1      18.333  69.994  55.863  1.00  0.00     0.257 C 
BRANCH  20  21
HETATM   21  N3  UNL     1      18.727  71.213  56.492  1.00  0.00    -0.394 NA
HETATM   22  C11 UNL     1      19.128  72.390  57.041  1.00  0.00     0.393 C 
HETATM   23  O4  UNL     1      19.833  73.218  56.582  1.00  0.00    -0.230 OA
HETATM   24  N4  UNL     1      18.535  72.528  58.392  1.00  0.00    -0.294 N 
ATOM     25  H4  UNL     1      17.771  71.867  58.530  1.00  0.00     0.172 HD
BRANCH  24  26
HETATM   26  C12 UNL     1      18.727  73.289  59.490  1.00  0.00     0.078 A 
HETATM   27  C13 UNL     1      19.388  72.707  60.612  1.00  0.00     0.035 A 
HETATM   28  C14 UNL     1      19.192  73.246  61.826  1.00  0.00     0.029 A 
HETATM   29  C15 UNL     1      18.361  74.350  62.012  1.00  0.00     0.049 A 
HETATM   30  N5  UNL     1      18.159  74.796  63.329  1.00  0.00    -0.102 NA
HETATM   31  C16 UNL     1      17.725  74.932  60.925  1.00  0.00     0.073 A 
HETATM   32  C17 UNL     1      17.915  74.404  59.698  1.00  0.00     0.141 A 
BRANCH  32  33
HETATM   33  N6  UNL     1      17.752  75.280  58.565  1.00  0.00    -0.352 NA
HETATM   34  C18 UNL     1      17.674  75.890  57.492  1.00  0.00     0.406 C 
HETATM   35  N7  UNL     1      16.921  77.278  57.751  1.00  0.00    -0.025 NA
HETATM   36  O5  UNL     1      17.885  75.934  56.288  1.00  0.00    -0.234 OA
ENDBRANCH  32  33
ENDBRANCH  24  26
ENDBRANCH  20  21
ENDBRANCH   1  20
TORSDOF 10
ENDMDL
MODEL 5
REMARK VINA RESULT: -8.018669687      2.385      3.126
REMARK  10 active torsions:
REMARK  status: ('A' for Active; 'I' for Inactive)
REMARK    1  A    between atoms: C2_2  and  C3_3 
REMARK    2  A    between atoms: C3_3  and  C4_4 
REMARK    3  A    between atoms: C7_11  and  O2_12 
REMARK    4  A    between atoms: O2_12  and  C8_13 
REMARK    5  A    between atoms: C8_13  and  C9_14 
REMARK    6  A    between atoms: C9_14  and  O3_15 
REMARK    7  A    between atoms: C9_14  and  C10_17 
REMARK    8  A    between atoms: C10_17  and  N3_18 
REMARK       I    between atoms: N3_18  and  C11_19 
REMARK       I    between atoms: C11_19  and  N4_21 
REMARK    9  A    between atoms: N4_21  and  C12_23 
REMARK   10  A    between atoms: C17_29  and  N6_30 
REMARK       I    between atoms: N6_30  and  C18_31 
ROOT
HETATM    1  C9  UNL     1      15.900  71.947  55.211  1.00  0.00     0.172 C 
ENDROOT
BRANCH   1   2
HETATM    2  C8  UNL     1      15.280  73.246  54.864  1.00  0.00     0.210 C 
BRANCH   2   3
HETATM    3  O2  UNL     1      14.006  73.241  55.527  1.00  0.00    -0.345 OA
BRANCH   3   4
HETATM    4  C7  UNL     1      13.691  74.175  56.509  1.00  0.00     0.112 A 
HETATM    5  C6  UNL     1      14.443  74.822  57.377  1.00  0.00     0.146 A 
HETATM    6  N2  UNL     1      13.636  75.631  58.094  1.00  0.00    -0.307 N 
HETATM    7  N1  UNL     1      12.435  75.502  57.706  1.00  0.00    -0.289 N 
ATOM      8  H2  UNL     1      13.946  76.255  58.839  1.00  0.00     0.186 HD
HETATM    9  C5  UNL     1      11.171  76.018  58.123  1.00  0.00     0.186 C 
HETATM   10  C19 UNL     1      12.346  74.568  56.659  1.00  0.00     0.087 A 
HETATM   11  C2  UNL     1      10.245  76.197  56.931  1.00  0.00     0.081 C 
HETATM   12  C1  UNL     1      10.362  77.627  56.439  1.00  0.00     0.048 C 
HETATM   13  O6  UNL     1      10.166  75.256  56.005  1.00  0.00    -0.372 OA
HETATM   14  C20 UNL     1      11.109  74.225  55.998  1.00  0.00     0.230 C 
BRANCH  11  15
HETATM   15  C3  UNL     1       8.817  76.163  57.645  1.00  0.00     0.108 C 
BRANCH  15  16
HETATM   16  C4  UNL     1       8.993  76.769  58.983  1.00  0.00     0.234 C 
HETATM   17  O1  UNL     1       8.328  77.765  59.276  1.00  0.00    -0.307 OA
ENDBRANCH  15  16
ENDBRANCH  11  15
ENDBRANCH   3   4
ENDBRANCH   2   3
ENDBRANCH   1   2
BRANCH   1  18
HETATM   18  O3  UNL     1      15.087  71.034  55.854  1.00  0.00    -0.391 OA
ATOM     19  H3  UNL     1      14.549  71.374  56.559  1.00  0.00     0.210 HD
ENDBRANCH   1  18
BRANCH   1  20
HETATM   20  C10 UNL     1      17.289  72.042  55.676  1.00  0.00     0.257 C 
BRANCH  20  21
HETATM   21  N3  UNL     1      17.714  73.091  56.546  1.00  0.00    -0.394 NA
HETATM   22  C11 UNL     1      18.134  74.120  57.328  1.00  0.00     0.393 C 
HETATM   23  O4  UNL     1      18.692  75.111  57.010  1.00  0.00    -0.230 OA
HETATM   24  N4  UNL     1      17.788  73.837  58.741  1.00  0.00    -0.294 N 
ATOM     25  H4  UNL     1      17.104  73.083  58.810  1.00  0.00     0.172 HD
BRANCH  24  26
HETATM   26  C12 UNL     1      18.129  74.302  59.961  1.00  0.00     0.078 A 
HETATM   27  C13 UNL     1      18.931  73.476  60.802  1.00  0.00     0.035 A 
HETATM   28  C14 UNL     1      18.901  73.685  62.128  1.00  0.00     0.029 A 
HETATM   29  C15 UNL     1      18.107  74.681  62.695  1.00  0.00     0.049 A 
HETATM   30  N5  UNL     1      18.084  74.774  64.097  1.00  0.00    -0.102 NA
HETATM   31  C16 UNL     1      17.334  75.498  61.885  1.00  0.00     0.073 A 
HETATM   32  C17 UNL     1      17.355  75.302  60.550  1.00  0.00     0.141 A 
BRANCH  32  33
HETATM   33  N6  UNL     1      17.046  76.431  59.708  1.00  0.00    -0.352 NA
HETATM   34  C18 UNL     1      16.605  77.370  59.034  1.00  0.00     0.406 C 
HETATM   35  N7  UNL     1      17.841  78.220  58.476  1.00  0.00    -0.025 NA
HETATM   36  O5  UNL     1      15.647  77.991  58.593  1.00  0.00    -0.234 OA
ENDBRANCH  32  33
ENDBRANCH  24  26
ENDBRANCH  20  21
ENDBRANCH   1  20
TORSDOF 10
ENDMDL
