MODEL 1
REMARK VINA RESULT: -8.839726092      0.000      0.000
REMARK  9 active torsions:
REMARK  status: ('A' for Active; 'I' for Inactive)
REMARK    1  A    between atoms: C3_4  and  C4_5 
REMARK    2  A    between atoms: C4_5  and  N1_6 
REMARK       I    between atoms: N1_6  and  C5_7 
REMARK    3  A    between atoms: C5_7  and  C6_9 
REMARK    4  A    between atoms: C6_9  and  C7_10 
REMARK    5  A    between atoms: C7_10  and  N2_11 
REMARK    6  A    between atoms: C10_14  and  N3_15 
REMARK       I    between atoms: N3_15  and  C11_17 
REMARK       I    between atoms: C11_17  and  N4_19 
REMARK    7  A    between atoms: N4_19  and  C12_21 
REMARK    8  A    between atoms: C16_29  and  N6_30 
REMARK    9  A    between atoms: C20_38  and  N7_39 
ROOT
HETATM    1  N2  UNL     1      15.213  76.173  55.772  1.00  0.00    -0.373 N 
HETATM    2  C8  UNL     1      15.125  75.659  57.048  1.00  0.00     0.065 C 
HETATM    3  C9  UNL     1      13.977  75.987  57.948  1.00  0.00     0.070 C 
HETATM    4  C10 UNL     1      12.697  76.185  57.229  1.00  0.00     0.092 C 
HETATM    5  C17 UNL     1      12.877  75.764  55.761  1.00  0.00     0.045 C 
HETATM    6  C18 UNL     1      14.012  76.658  55.209  1.00  0.00     0.129 C 
ENDROOT
BRANCH   4   7
HETATM    7  N3  UNL     1      11.612  75.444  57.828  1.00  0.00    -0.338 N 
HETATM    8  C11 UNL     1      10.318  76.018  57.881  1.00  0.00     0.320 C 
HETATM    9  O3  UNL     1      10.136  77.186  57.369  1.00  0.00    -0.247 OA
HETATM   10  N4  UNL     1       9.216  75.369  58.469  1.00  0.00    -0.310 N 
ATOM     11  H4  UNL     1       9.333  74.462  58.918  1.00  0.00     0.170 HD
ATOM     12  H3  UNL     1      11.777  74.513  58.212  1.00  0.00     0.164 HD
BRANCH  10  13
HETATM   13  C12 UNL     1       7.918  76.000  58.432  1.00  0.00     0.058 C 
HETATM   14  C13 UNL     1       7.415  76.605  59.488  1.00  0.00     0.102 C 
HETATM   15  C14 UNL     1       6.148  77.279  59.556  1.00  0.00     0.249 C 
HETATM   16  O4  UNL     1       5.715  77.836  60.622  1.00  0.00    -0.268 OA
HETATM   17  N5  UNL     1       5.343  77.326  58.366  1.00  0.00    -0.292 N 
HETATM   18  C15 UNL     1       5.918  76.686  57.234  1.00  0.00     0.261 C 
ATOM     19  H5  UNL     1       4.431  77.782  58.335  1.00  0.00     0.172 HD
HETATM   20  O5  UNL     1       5.343  76.947  56.116  1.00  0.00    -0.270 OA
HETATM   21  C16 UNL     1       7.072  75.788  57.228  1.00  0.00     0.324 C 
BRANCH  21  22
HETATM   22  N6  UNL     1       7.793  75.712  55.996  1.00  0.00    -0.061 N 
ATOM     23  H63 UNL     1       8.784  75.892  56.155  1.00  0.00     0.275 HD
ATOM     24  H62 UNL     1       7.838  74.746  55.671  1.00  0.00     0.275 HD
ATOM     25  H61 UNL     1       7.438  76.318  55.256  1.00  0.00     0.275 HD
ENDBRANCH  21  22
ENDBRANCH  10  13
ENDBRANCH   4   7
BRANCH   1  26
HETATM   26  C7  UNL     1      16.353  76.754  55.226  1.00  0.00     0.073 C 
BRANCH  26  27
HETATM   27  C6  UNL     1      17.652  76.643  55.938  1.00  0.00     0.163 C 
BRANCH  27  28
HETATM   28  C5  UNL     1      17.944  77.899  56.754  1.00  0.00     0.291 C 
HETATM   29  N1  UNL     1      18.009  77.873  58.119  1.00  0.00    -0.412 NA
HETATM   30  O2  UNL     1      18.130  78.977  56.084  1.00  0.00    -0.257 OA
BRANCH  29  31
HETATM   31  C4  UNL     1      18.075  77.851  59.465  1.00  0.00     0.256 C 
BRANCH  31  32
HETATM   32  C3  UNL     1      17.191  76.680  60.031  1.00  0.00     0.183 C 
HETATM   33  O1  UNL     1      17.639  75.496  59.480  1.00  0.00    -0.338 OA
HETATM   34  C2  UNL     1      17.657  74.306  60.212  1.00  0.00     0.110 C 
HETATM   35  C1  UNL     1      18.046  73.237  59.531  1.00  0.00     0.055 C 
HETATM   36  C20 UNL     1      17.270  74.316  61.594  1.00  0.00     0.169 C 
HETATM   37  O6  UNL     1      16.882  75.560  62.139  1.00  0.00    -0.331 OA
HETATM   38  C19 UNL     1      17.539  76.675  61.534  1.00  0.00     0.212 C 
BRANCH  36  39
HETATM   39  N7  UNL     1      17.283  73.245  62.299  1.00  0.00    -0.378 N 
ATOM     40  H72 UNL     1      16.434  72.710  62.477  1.00  0.00     0.158 HD
ATOM     41  H71 UNL     1      18.146  72.892  62.713  1.00  0.00     0.158 HD
ENDBRANCH  36  39
ENDBRANCH  31  32
ENDBRANCH  29  31
ENDBRANCH  27  28
ENDBRANCH  26  27
ENDBRANCH   1  26
TORSDOF 9
ENDMDL
MODEL 2
REMARK VINA RESULT: -8.775957765      0.869      1.715
REMARK  9 active torsions:
REMARK  status: ('A' for Active; 'I' for Inactive)
REMARK    1  A    between atoms: C3_4  and  C4_5 
REMARK    2  A    between atoms: C4_5  and  N1_6 
REMARK       I    between atoms: N1_6  and  C5_7 
REMARK    3  A    between atoms: C5_7  and  C6_9 
REMARK    4  A    between atoms: C6_9  and  C7_10 
REMARK    5  A    between atoms: C7_10  and  N2_11 
REMARK    6  A    between atoms: C10_14  and  N3_15 
REMARK       I    between atoms: N3_15  and  C11_17 
REMARK       I    between atoms: C11_17  and  N4_19 
REMARK    7  A    between atoms: N4_19  and  C12_21 
REMARK    8  A    between atoms: C16_29  and  N6_30 
REMARK    9  A    between atoms: C20_38  and  N7_39 
ROOT
HETATM    1  N2  UNL     1      15.362  76.467  55.774  1.00  0.00    -0.373 N 
HETATM    2  C8  UNL     1      15.354  75.947  57.051  1.00  0.00     0.065 C 
HETATM    3  C9  UNL     1      14.243  76.236  58.008  1.00  0.00     0.070 C 
HETATM    4  C10 UNL     1      12.923  76.396  57.355  1.00  0.00     0.092 C 
HETATM    5  C17 UNL     1      13.042  75.985  55.878  1.00  0.00     0.045 C 
HETATM    6  C18 UNL     1      14.120  76.916  55.275  1.00  0.00     0.129 C 
ENDROOT
BRANCH   4   7
HETATM    7  N3  UNL     1      11.893  75.620  58.004  1.00  0.00    -0.338 N 
HETATM    8  C11 UNL     1      10.539  76.021  57.890  1.00  0.00     0.320 C 
HETATM    9  O3  UNL     1      10.258  77.063  57.188  1.00  0.00    -0.247 OA
HETATM   10  N4  UNL     1       9.481  75.332  58.513  1.00  0.00    -0.310 N 
ATOM     11  H4  UNL     1       9.672  74.526  59.108  1.00  0.00     0.170 HD
ATOM     12  H3  UNL     1      12.138  74.788  58.541  1.00  0.00     0.164 HD
BRANCH  10  13
HETATM   13  C12 UNL     1       8.123  75.774  58.302  1.00  0.00     0.058 C 
HETATM   14  C13 UNL     1       7.370  75.259  57.354  1.00  0.00     0.102 C 
HETATM   15  C14 UNL     1       6.005  75.609  57.069  1.00  0.00     0.249 C 
HETATM   16  O4  UNL     1       5.336  75.075  56.120  1.00  0.00    -0.268 OA
HETATM   17  N5  UNL     1       5.376  76.601  57.898  1.00  0.00    -0.292 N 
HETATM   18  C15 UNL     1       6.202  77.125  58.930  1.00  0.00     0.261 C 
ATOM     19  H5  UNL     1       4.413  76.906  57.758  1.00  0.00     0.172 HD
HETATM   20  O5  UNL     1       5.583  77.802  59.827  1.00  0.00    -0.270 OA
HETATM   21  C16 UNL     1       7.650  76.964  59.059  1.00  0.00     0.324 C 
BRANCH  21  22
HETATM   22  N6  UNL     1       8.171  77.076  60.385  1.00  0.00    -0.061 N 
ATOM     23  H63 UNL     1       7.602  77.719  60.935  1.00  0.00     0.275 HD
ATOM     24  H62 UNL     1       8.011  76.212  60.902  1.00  0.00     0.275 HD
ATOM     25  H61 UNL     1       9.155  77.342  60.436  1.00  0.00     0.275 HD
ENDBRANCH  21  22
ENDBRANCH  10  13
ENDBRANCH   4   7
BRANCH   1  26
HETATM   26  C7  UNL     1      16.456  77.084  55.175  1.00  0.00     0.073 C 
BRANCH  26  27
HETATM   27  C6  UNL     1      17.143  78.204  55.867  1.00  0.00     0.163 C 
BRANCH  27  28
HETATM   28  C5  UNL     1      18.276  77.694  56.754  1.00  0.00     0.291 C 
HETATM   29  N1  UNL     1      18.227  77.797  58.116  1.00  0.00    -0.412 NA
HETATM   30  O2  UNL     1      19.270  77.158  56.147  1.00  0.00    -0.257 OA
BRANCH  29  31
HETATM   31  C4  UNL     1      18.182  77.896  59.459  1.00  0.00     0.256 C 
BRANCH  31  32
HETATM   32  C3  UNL     1      17.275  76.758  60.057  1.00  0.00     0.183 C 
HETATM   33  O1  UNL     1      17.668  75.557  59.502  1.00  0.00    -0.338 OA
HETATM   34  C2  UNL     1      17.666  74.371  60.241  1.00  0.00     0.110 C 
HETATM   35  C1  UNL     1      18.001  73.286  59.557  1.00  0.00     0.055 C 
HETATM   36  C20 UNL     1      17.317  74.401  61.632  1.00  0.00     0.169 C 
HETATM   37  O6  UNL     1      16.985  75.660  62.179  1.00  0.00    -0.331 OA
HETATM   38  C19 UNL     1      17.663  76.750  61.550  1.00  0.00     0.212 C 
BRANCH  36  39
HETATM   39  N7  UNL     1      17.313  73.335  62.343  1.00  0.00    -0.378 N 
ATOM     40  H72 UNL     1      16.524  72.689  62.338  1.00  0.00     0.158 HD
ATOM     41  H71 UNL     1      18.099  73.096  62.947  1.00  0.00     0.158 HD
ENDBRANCH  36  39
ENDBRANCH  31  32
ENDBRANCH  29  31
ENDBRANCH  27  28
ENDBRANCH  26  27
ENDBRANCH   1  26
TORSDOF 9
ENDMDL
MODEL 3
REMARK VINA RESULT: -8.594988048      1.434      2.433
REMARK  9 active torsions:
REMARK  status: ('A' for Active; 'I' for Inactive)
REMARK    1  A    between atoms: C3_4  and  C4_5 
REMARK    2  A    between atoms: C4_5  and  N1_6 
REMARK       I    between atoms: N1_6  and  C5_7 
REMARK    3  A    between atoms: C5_7  and  C6_9 
REMARK    4  A    between atoms: C6_9  and  C7_10 
REMARK    5  A    between atoms: C7_10  and  N2_11 
REMARK    6  A    between atoms: C10_14  and  N3_15 
REMARK       I    between atoms: N3_15  and  C11_17 
REMARK       I    between atoms: C11_17  and  N4_19 
REMARK    7  A    between atoms: N4_19  and  C12_21 
REMARK    8  A    between atoms: C16_29  and  N6_30 
REMARK    9  A    between atoms: C20_38  and  N7_39 
ROOT
HETATM    1  N2  UNL     1      15.697  76.699  55.718  1.00  0.00    -0.373 N 
HETATM    2  C8  UNL     1      15.169  77.410  56.774  1.00  0.00     0.065 C 
HETATM    3  C9  UNL     1      13.697  77.446  57.037  1.00  0.00     0.070 C 
HETATM    4  C10 UNL     1      12.998  76.191  56.674  1.00  0.00     0.092 C 
HETATM    5  C17 UNL     1      14.044  75.115  56.338  1.00  0.00     0.045 C 
HETATM    6  C18 UNL     1      14.873  75.694  55.167  1.00  0.00     0.129 C 
ENDROOT
BRANCH   4   7
HETATM    7  N3  UNL     1      12.128  75.725  57.727  1.00  0.00    -0.338 N 
HETATM    8  C11 UNL     1      10.735  75.966  57.641  1.00  0.00     0.320 C 
HETATM    9  O3  UNL     1      10.274  76.580  56.606  1.00  0.00    -0.247 OA
HETATM   10  N4  UNL     1       9.824  75.565  58.637  1.00  0.00    -0.310 N 
ATOM     11  H4  UNL     1      10.159  75.112  59.487  1.00  0.00     0.170 HD
ATOM     12  H3  UNL     1      12.513  75.225  58.529  1.00  0.00     0.164 HD
BRANCH  10  13
HETATM   13  C12 UNL     1       8.413  75.800  58.446  1.00  0.00     0.058 C 
HETATM   14  C13 UNL     1       7.719  75.135  57.547  1.00  0.00     0.102 C 
HETATM   15  C14 UNL     1       6.312  75.274  57.287  1.00  0.00     0.249 C 
HETATM   16  O4  UNL     1       5.704  74.603  56.386  1.00  0.00    -0.268 OA
HETATM   17  N5  UNL     1       5.567  76.210  58.086  1.00  0.00    -0.292 N 
HETATM   18  C15 UNL     1       6.335  76.897  59.065  1.00  0.00     0.261 C 
ATOM     19  H5  UNL     1       4.568  76.367  57.960  1.00  0.00     0.172 HD
HETATM   20  O5  UNL     1       5.645  77.526  59.947  1.00  0.00    -0.270 OA
HETATM   21  C16 UNL     1       7.793  76.949  59.158  1.00  0.00     0.324 C 
BRANCH  21  22
HETATM   22  N6  UNL     1       8.323  77.203  60.461  1.00  0.00    -0.061 N 
ATOM     23  H63 UNL     1       9.183  77.747  60.393  1.00  0.00     0.275 HD
ATOM     24  H62 UNL     1       7.732  77.867  60.960  1.00  0.00     0.275 HD
ATOM     25  H61 UNL     1       8.476  76.369  61.029  1.00  0.00     0.275 HD
ENDBRANCH  21  22
ENDBRANCH  10  13
ENDBRANCH   4   7
BRANCH   1  26
HETATM   26  C7  UNL     1      16.644  77.190  54.824  1.00  0.00     0.073 C 
BRANCH  26  27
HETATM   27  C6  UNL     1      17.969  76.529  54.714  1.00  0.00     0.163 C 
BRANCH  27  28
HETATM   28  C5  UNL     1      18.555  76.234  56.093  1.00  0.00     0.291 C 
HETATM   29  N1  UNL     1      18.154  75.155  56.830  1.00  0.00    -0.412 NA
HETATM   30  O2  UNL     1      19.449  77.051  56.513  1.00  0.00    -0.257 OA
BRANCH  29  31
HETATM   31  C4  UNL     1      17.761  74.093  57.560  1.00  0.00     0.256 C 
BRANCH  31  32
HETATM   32  C3  UNL     1      18.246  74.249  59.049  1.00  0.00     0.183 C 
HETATM   33  O1  UNL     1      17.976  75.540  59.457  1.00  0.00    -0.338 OA
HETATM   34  C2  UNL     1      17.571  75.828  60.763  1.00  0.00     0.110 C 
HETATM   35  C1  UNL     1      17.416  77.117  61.029  1.00  0.00     0.055 C 
HETATM   36  C20 UNL     1      17.359  74.755  61.694  1.00  0.00     0.169 C 
HETATM   37  O6  UNL     1      17.581  73.444  61.217  1.00  0.00    -0.331 OA
HETATM   38  C19 UNL     1      17.314  73.293  59.822  1.00  0.00     0.212 C 
BRANCH  36  39
HETATM   39  N7  UNL     1      16.979  74.980  62.897  1.00  0.00    -0.378 N 
ATOM     40  H72 UNL     1      16.385  74.325  63.404  1.00  0.00     0.158 HD
ATOM     41  H71 UNL     1      17.253  75.830  63.391  1.00  0.00     0.158 HD
ENDBRANCH  36  39
ENDBRANCH  31  32
ENDBRANCH  29  31
ENDBRANCH  27  28
ENDBRANCH  26  27
ENDBRANCH   1  26
TORSDOF 9
ENDMDL
MODEL 4
REMARK VINA RESULT: -8.593216298      2.007      2.659
REMARK  9 active torsions:
REMARK  status: ('A' for Active; 'I' for Inactive)
REMARK    1  A    between atoms: C3_4  and  C4_5 
REMARK    2  A    between atoms: C4_5  and  N1_6 
REMARK       I    between atoms: N1_6  and  C5_7 
REMARK    3  A    between atoms: C5_7  and  C6_9 
REMARK    4  A    between atoms: C6_9  and  C7_10 
REMARK    5  A    between atoms: C7_10  and  N2_11 
REMARK    6  A    between atoms: C10_14  and  N3_15 
REMARK       I    between atoms: N3_15  and  C11_17 
REMARK       I    between atoms: C11_17  and  N4_19 
REMARK    7  A    between atoms: N4_19  and  C12_21 
REMARK    8  A    between atoms: C16_29  and  N6_30 
REMARK    9  A    between atoms: C20_38  and  N7_39 
ROOT
HETATM    1  N2  UNL     1      16.098  79.140  55.865  1.00  0.00    -0.373 N 
HETATM    2  C8  UNL     1      15.290  79.252  54.754  1.00  0.00     0.065 C 
HETATM    3  C9  UNL     1      13.996  78.512  54.649  1.00  0.00     0.070 C 
HETATM    4  C10 UNL     1      13.306  78.333  55.948  1.00  0.00     0.092 C 
HETATM    5  C17 UNL     1      14.025  79.174  57.015  1.00  0.00     0.045 C 
HETATM    6  C18 UNL     1      15.482  78.657  57.040  1.00  0.00     0.129 C 
ENDROOT
BRANCH   4   7
HETATM    7  N3  UNL     1      11.912  78.699  55.883  1.00  0.00    -0.338 N 
HETATM    8  C11 UNL     1      10.938  77.851  56.465  1.00  0.00     0.320 C 
HETATM    9  O3  UNL     1      11.327  76.778  57.061  1.00  0.00    -0.247 OA
HETATM   10  N4  UNL     1       9.557  78.127  56.422  1.00  0.00    -0.310 N 
ATOM     11  H4  UNL     1       9.212  78.947  55.925  1.00  0.00     0.170 HD
ATOM     12  H3  UNL     1      11.629  79.564  55.420  1.00  0.00     0.164 HD
BRANCH  10  13
HETATM   13  C12 UNL     1       8.635  77.239  57.088  1.00  0.00     0.058 C 
HETATM   14  C13 UNL     1       8.303  77.410  58.351  1.00  0.00     0.102 C 
HETATM   15  C14 UNL     1       7.384  76.602  59.104  1.00  0.00     0.249 C 
HETATM   16  O4  UNL     1       7.118  76.819  60.335  1.00  0.00    -0.268 OA
HETATM   17  N5  UNL     1       6.739  75.508  58.431  1.00  0.00    -0.292 N 
HETATM   18  C15 UNL     1       7.096  75.358  57.063  1.00  0.00     0.261 C 
ATOM     19  H5  UNL     1       6.077  74.887  58.897  1.00  0.00     0.172 HD
HETATM   20  O5  UNL     1       6.341  74.566  56.391  1.00  0.00    -0.270 OA
HETATM   21  C16 UNL     1       8.209  76.007  56.372  1.00  0.00     0.324 C 
BRANCH  21  22
HETATM   22  N6  UNL     1       8.059  76.158  54.959  1.00  0.00    -0.061 N 
ATOM     23  H63 UNL     1       8.664  75.500  54.467  1.00  0.00     0.275 HD
ATOM     24  H62 UNL     1       7.146  75.816  54.661  1.00  0.00     0.275 HD
ATOM     25  H61 UNL     1       8.212  77.106  54.613  1.00  0.00     0.275 HD
ENDBRANCH  21  22
ENDBRANCH  10  13
ENDBRANCH   4   7
BRANCH   1  26
HETATM   26  C7  UNL     1      17.472  78.919  55.829  1.00  0.00     0.073 C 
BRANCH  26  27
HETATM   27  C6  UNL     1      18.114  78.088  56.879  1.00  0.00     0.163 C 
BRANCH  27  28
HETATM   28  C5  UNL     1      18.599  76.757  56.311  1.00  0.00     0.291 C 
HETATM   29  N1  UNL     1      18.274  75.564  56.893  1.00  0.00    -0.412 NA
HETATM   30  O2  UNL     1      19.321  76.824  55.253  1.00  0.00    -0.257 OA
BRANCH  29  31
HETATM   31  C4  UNL     1      17.956  74.385  57.464  1.00  0.00     0.256 C 
BRANCH  31  32
HETATM   32  C3  UNL     1      18.327  74.406  58.993  1.00  0.00     0.183 C 
HETATM   33  O1  UNL     1      18.063  75.669  59.483  1.00  0.00    -0.338 OA
HETATM   34  C2  UNL     1      17.565  75.866  60.774  1.00  0.00     0.110 C 
HETATM   35  C1  UNL     1      17.426  77.135  61.132  1.00  0.00     0.055 C 
HETATM   36  C20 UNL     1      17.250  74.732  61.595  1.00  0.00     0.169 C 
HETATM   37  O6  UNL     1      17.472  73.456  61.032  1.00  0.00    -0.331 OA
HETATM   38  C19 UNL     1      17.311  73.425  59.612  1.00  0.00     0.212 C 
BRANCH  36  39
HETATM   39  N7  UNL     1      16.784  74.874  62.780  1.00  0.00    -0.378 N 
ATOM     40  H72 UNL     1      17.295  75.383  63.500  1.00  0.00     0.158 HD
ATOM     41  H71 UNL     1      15.884  74.476  63.048  1.00  0.00     0.158 HD
ENDBRANCH  36  39
ENDBRANCH  31  32
ENDBRANCH  29  31
ENDBRANCH  27  28
ENDBRANCH  26  27
ENDBRANCH   1  26
TORSDOF 9
ENDMDL
MODEL 5
REMARK VINA RESULT: -8.501028424      4.951      6.351
REMARK  9 active torsions:
REMARK  status: ('A' for Active; 'I' for Inactive)
REMARK    1  A    between atoms: C3_4  and  C4_5 
REMARK    2  A    between atoms: C4_5  and  N1_6 
REMARK       I    between atoms: N1_6  and  C5_7 
REMARK    3  A    between atoms: C5_7  and  C6_9 
REMARK    4  A    between atoms: C6_9  and  C7_10 
REMARK    5  A    between atoms: C7_10  and  N2_11 
REMARK    6  A    between atoms: C10_14  and  N3_15 
REMARK       I    between atoms: N3_15  and  C11_17 
REMARK       I    between atoms: C11_17  and  N4_19 
REMARK    7  A    between atoms: N4_19  and  C12_21 
REMARK    8  A    between atoms: C16_29  and  N6_30 
REMARK    9  A    between atoms: C20_38  and  N7_39 
ROOT
HETATM    1  N2  UNL     1      17.032  76.391  57.641  1.00  0.00    -0.373 N 
HETATM    2  C8  UNL     1      17.407  77.709  57.488  1.00  0.00     0.065 C 
HETATM    3  C9  UNL     1      16.606  78.659  56.657  1.00  0.00     0.070 C 
HETATM    4  C10 UNL     1      15.150  78.388  56.682  1.00  0.00     0.092 C 
HETATM    5  C17 UNL     1      14.856  77.327  57.755  1.00  0.00     0.045 C 
HETATM    6  C18 UNL     1      15.685  76.086  57.348  1.00  0.00     0.129 C 
ENDROOT
BRANCH   4   7
HETATM    7  N3  UNL     1      14.375  79.580  56.937  1.00  0.00    -0.338 N 
HETATM    8  C11 UNL     1      13.971  80.396  55.852  1.00  0.00     0.320 C 
HETATM    9  O3  UNL     1      14.288  80.040  54.656  1.00  0.00    -0.247 OA
HETATM   10  N4  UNL     1      13.235  81.585  56.021  1.00  0.00    -0.310 N 
ATOM     11  H4  UNL     1      13.001  81.916  56.957  1.00  0.00     0.170 HD
ATOM     12  H3  UNL     1      14.120  79.832  57.892  1.00  0.00     0.164 HD
BRANCH  10  13
HETATM   13  C12 UNL     1      12.814  82.331  54.859  1.00  0.00     0.058 C 
HETATM   14  C13 UNL     1      13.628  83.161  54.241  1.00  0.00     0.102 C 
HETATM   15  C14 UNL     1      13.321  83.935  53.070  1.00  0.00     0.249 C 
HETATM   16  O4  UNL     1      14.159  84.735  52.529  1.00  0.00    -0.268 OA
HETATM   17  N5  UNL     1      12.013  83.793  52.489  1.00  0.00    -0.292 N 
HETATM   18  C15 UNL     1      11.162  82.873  53.161  1.00  0.00     0.261 C 
ATOM     19  H5  UNL     1      11.720  84.310  51.661  1.00  0.00     0.172 HD
HETATM   20  O5  UNL     1      10.106  82.541  52.511  1.00  0.00    -0.270 OA
HETATM   21  C16 UNL     1      11.376  82.287  54.483  1.00  0.00     0.324 C 
BRANCH  21  22
HETATM   22  N6  UNL     1      10.734  81.031  54.716  1.00  0.00    -0.061 N 
ATOM     23  H63 UNL     1      10.503  80.583  53.830  1.00  0.00     0.275 HD
ATOM     24  H62 UNL     1      11.403  80.356  55.086  1.00  0.00     0.275 HD
ATOM     25  H61 UNL     1       9.910  81.078  55.316  1.00  0.00     0.275 HD
ENDBRANCH  21  22
ENDBRANCH  10  13
ENDBRANCH   4   7
BRANCH   1  26
HETATM   26  C7  UNL     1      17.888  75.301  57.507  1.00  0.00     0.073 C 
BRANCH  26  27
HETATM   27  C6  UNL     1      17.361  74.005  57.010  1.00  0.00     0.163 C 
BRANCH  27  28
HETATM   28  C5  UNL     1      17.413  72.934  58.096  1.00  0.00     0.291 C 
HETATM   29  N1  UNL     1      18.541  72.709  58.834  1.00  0.00    -0.412 NA
HETATM   30  O2  UNL     1      16.335  72.264  58.281  1.00  0.00    -0.257 OA
BRANCH  29  31
HETATM   31  C4  UNL     1      19.652  72.485  59.563  1.00  0.00     0.256 C 
BRANCH  31  32
HETATM   32  C3  UNL     1      19.601  73.317  60.898  1.00  0.00     0.183 C 
HETATM   33  O1  UNL     1      18.891  74.476  60.656  1.00  0.00    -0.338 OA
HETATM   34  C2  UNL     1      18.047  75.034  61.619  1.00  0.00     0.110 C 
HETATM   35  C1  UNL     1      17.486  76.184  61.272  1.00  0.00     0.055 C 
HETATM   36  C20 UNL     1      17.848  74.357  62.869  1.00  0.00     0.169 C 
HETATM   37  O6  UNL     1      18.540  73.139  63.051  1.00  0.00    -0.331 OA
HETATM   38  C19 UNL     1      18.762  72.423  61.834  1.00  0.00     0.212 C 
BRANCH  36  39
HETATM   39  N7  UNL     1      17.074  74.834  63.772  1.00  0.00    -0.378 N 
ATOM     40  H72 UNL     1      17.401  75.521  64.451  1.00  0.00     0.158 HD
ATOM     41  H71 UNL     1      16.101  74.538  63.848  1.00  0.00     0.158 HD
ENDBRANCH  36  39
ENDBRANCH  31  32
ENDBRANCH  29  31
ENDBRANCH  27  28
ENDBRANCH  26  27
ENDBRANCH   1  26
TORSDOF 9
ENDMDL
