MODEL 1
REMARK VINA RESULT: -8.389784196      0.000      0.000
REMARK  9 active torsions:
REMARK  status: ('A' for Active; 'I' for Inactive)
REMARK    1  A    between atoms: C2_2  and  N1_3 
REMARK    2  A    between atoms: N1_3  and  N2_4 
REMARK       I    between atoms: N2_4  and  C3_6 
REMARK    3  A    between atoms: C3_6  and  C4_8 
REMARK    4  A    between atoms: C7_11  and  O2_12 
REMARK       I    between atoms: N3_15  and  C9_16 
REMARK    5  A    between atoms: C9_16  and  C10_18 
REMARK    6  A    between atoms: C10_18  and  C11_19 
REMARK    7  A    between atoms: C11_19  and  O4_20 
REMARK    8  A    between atoms: O4_20  and  C12_21 
REMARK    9  A    between atoms: C13_24  and  C14_25 
ROOT
HETATM    1  C11 UNL     1      14.433  74.536  55.524  1.00  0.00     0.186 C 
ENDROOT
BRANCH   1   2
HETATM    2  C10 UNL     1      14.105  75.704  56.395  1.00  0.00     0.129 C 
BRANCH   2   3
HETATM    3  C9  UNL     1      14.396  77.004  55.685  1.00  0.00     0.222 C 
HETATM    4  N3  UNL     1      15.136  78.019  56.287  1.00  0.00    -0.336 N 
HETATM    5  C4  UNL     1      15.488  79.311  55.826  1.00  0.00     0.180 C 
HETATM    6  C8  UNL     1      15.739  77.717  57.633  1.00  0.00     0.158 C 
HETATM    7  C5  UNL     1      16.951  79.201  55.389  1.00  0.00     0.038 C 
HETATM    8  C6  UNL     1      17.732  78.944  56.654  1.00  0.00     0.036 C 
HETATM    9  C7  UNL     1      17.240  77.845  57.516  1.00  0.00     0.136 C 
HETATM   10  O3  UNL     1      13.932  77.099  54.539  1.00  0.00    -0.273 OA
BRANCH   5  11
HETATM   11  C3  UNL     1      14.623  80.046  54.943  1.00  0.00     0.256 C 
HETATM   12  N2  UNL     1      13.412  80.613  55.500  1.00  0.00    -0.272 N 
ATOM     13  H2  UNL     1      13.206  80.476  56.490  1.00  0.00     0.185 HD
HETATM   14  O1  UNL     1      14.779  80.271  53.708  1.00  0.00    -0.270 OA
BRANCH  12  15
HETATM   15  N1  UNL     1      12.520  81.343  54.712  1.00  0.00    -0.139 NA
BRANCH  15  16
HETATM   16  C2  UNL     1      12.652  82.767  54.912  1.00  0.00     0.130 C 
HETATM   17  C1  UNL     1      13.273  83.486  53.778  1.00  0.00     0.024 C 
ENDBRANCH  15  16
ENDBRANCH  12  15
ENDBRANCH   5  11
BRANCH   9  18
HETATM   18  O2  UNL     1      17.733  78.050  58.809  1.00  0.00    -0.394 OA
ATOM     19  H2  UNL     1      17.980  78.964  58.891  1.00  0.00     0.210 HD
ENDBRANCH   9  18
ENDBRANCH   2   3
ENDBRANCH   1   2
BRANCH   1  20
HETATM   20  O4  UNL     1      15.454  73.721  55.954  1.00  0.00    -0.334 OA
BRANCH  20  21
HETATM   21  C12 UNL     1      16.405  73.964  56.924  1.00  0.00     0.167 A 
HETATM   22  N4  UNL     1      16.284  73.876  58.257  1.00  0.00    -0.334 N 
HETATM   23  C13 UNL     1      17.456  74.200  58.886  1.00  0.00     0.053 A 
ATOM     24  H4  UNL     1      15.429  73.603  58.741  1.00  0.00     0.168 HD
HETATM   25  C19 UNL     1      18.376  74.510  57.914  1.00  0.00     0.061 A 
HETATM   26  C20 UNL     1      17.693  74.355  56.689  1.00  0.00     0.099 A 
HETATM   27  N7  UNL     1      18.236  74.564  55.411  1.00  0.00    -0.098 NA
BRANCH  23  28
HETATM   28  C14 UNL     1      17.667  74.304  60.315  1.00  0.00     0.081 A 
HETATM   29  C15 UNL     1      18.558  73.567  61.012  1.00  0.00     0.028 A 
HETATM   30  C16 UNL     1      19.312  72.444  60.423  1.00  0.00     0.069 C 
HETATM   31  N5  UNL     1      18.776  73.779  62.339  1.00  0.00    -0.312 N 
HETATM   32  C17 UNL     1      18.118  74.723  63.008  1.00  0.00     0.327 A 
ATOM     33  H5  UNL     1      19.459  73.203  62.831  1.00  0.00     0.170 HD
HETATM   34  O5  UNL     1      18.309  74.934  64.247  1.00  0.00    -0.247 OA
HETATM   35  N6  UNL     1      17.227  75.464  62.335  1.00  0.00    -0.275 N 
HETATM   36  C18 UNL     1      16.967  75.304  61.021  1.00  0.00     0.263 A 
ATOM     37  H6  UNL     1      16.719  76.187  62.844  1.00  0.00     0.173 HD
HETATM   38  O6  UNL     1      16.127  76.041  60.486  1.00  0.00    -0.267 OA
ENDBRANCH  23  28
ENDBRANCH  20  21
ENDBRANCH   1  20
TORSDOF 9
ENDMDL
MODEL 2
REMARK VINA RESULT: -8.344136250      3.865      7.708
REMARK  9 active torsions:
REMARK  status: ('A' for Active; 'I' for Inactive)
REMARK    1  A    between atoms: C2_2  and  N1_3 
REMARK    2  A    between atoms: N1_3  and  N2_4 
REMARK       I    between atoms: N2_4  and  C3_6 
REMARK    3  A    between atoms: C3_6  and  C4_8 
REMARK    4  A    between atoms: C7_11  and  O2_12 
REMARK       I    between atoms: N3_15  and  C9_16 
REMARK    5  A    between atoms: C9_16  and  C10_18 
REMARK    6  A    between atoms: C10_18  and  C11_19 
REMARK    7  A    between atoms: C11_19  and  O4_20 
REMARK    8  A    between atoms: O4_20  and  C12_21 
REMARK    9  A    between atoms: C13_24  and  C14_25 
ROOT
HETATM    1  C11 UNL     1      18.196  75.254  54.264  1.00  0.00     0.186 C 
ENDROOT
BRANCH   1   2
HETATM    2  C10 UNL     1      17.235  74.120  54.130  1.00  0.00     0.129 C 
BRANCH   2   3
HETATM    3  C9  UNL     1      17.966  72.805  54.006  1.00  0.00     0.222 C 
HETATM    4  N3  UNL     1      18.044  71.907  55.068  1.00  0.00    -0.336 N 
HETATM    5  C4  UNL     1      18.701  70.657  55.181  1.00  0.00     0.180 C 
HETATM    6  C8  UNL     1      17.263  72.248  56.309  1.00  0.00     0.158 C 
HETATM    7  C5  UNL     1      17.598  69.605  55.039  1.00  0.00     0.038 C 
HETATM    8  C6  UNL     1      16.725  69.769  56.258  1.00  0.00     0.036 C 
HETATM    9  C7  UNL     1      16.260  71.144  56.551  1.00  0.00     0.136 C 
HETATM   10  O3  UNL     1      18.486  72.588  52.902  1.00  0.00    -0.273 OA
BRANCH   5  11
HETATM   11  C3  UNL     1      19.919  70.390  54.464  1.00  0.00     0.256 C 
HETATM   12  N2  UNL     1      19.824  69.648  53.223  1.00  0.00    -0.272 N 
ATOM     13  H2  UNL     1      18.909  69.337  52.897  1.00  0.00     0.185 HD
HETATM   14  O1  UNL     1      21.097  70.723  54.779  1.00  0.00    -0.270 OA
BRANCH  12  15
HETATM   15  N1  UNL     1      20.957  69.349  52.465  1.00  0.00    -0.139 NA
BRANCH  15  16
HETATM   16  C2  UNL     1      21.533  68.074  52.821  1.00  0.00     0.130 C 
HETATM   17  C1  UNL     1      21.522  67.076  51.729  1.00  0.00     0.024 C 
ENDBRANCH  15  16
ENDBRANCH  12  15
ENDBRANCH   5  11
BRANCH   9  18
HETATM   18  O2  UNL     1      15.905  71.207  57.903  1.00  0.00    -0.394 OA
ATOM     19  H2  UNL     1      16.262  72.009  58.267  1.00  0.00     0.210 HD
ENDBRANCH   9  18
ENDBRANCH   2   3
ENDBRANCH   1   2
BRANCH   1  20
HETATM   20  O4  UNL     1      17.836  76.261  55.129  1.00  0.00    -0.334 OA
BRANCH  20  21
HETATM   21  C12 UNL     1      17.304  76.163  56.398  1.00  0.00     0.167 A 
HETATM   22  N4  UNL     1      17.931  75.890  57.552  1.00  0.00    -0.334 N 
HETATM   23  C13 UNL     1      17.056  75.878  58.604  1.00  0.00     0.053 A 
ATOM     24  H4  UNL     1      18.933  75.713  57.635  1.00  0.00     0.168 HD
HETATM   25  C19 UNL     1      15.806  76.156  58.106  1.00  0.00     0.061 A 
HETATM   26  C20 UNL     1      15.986  76.332  56.718  1.00  0.00     0.099 A 
HETATM   27  N7  UNL     1      14.978  76.636  55.790  1.00  0.00    -0.098 NA
BRANCH  23  28
HETATM   28  C14 UNL     1      17.363  75.529  59.976  1.00  0.00     0.081 A 
HETATM   29  C15 UNL     1      17.540  76.425  60.971  1.00  0.00     0.028 A 
HETATM   30  C16 UNL     1      17.605  77.880  60.743  1.00  0.00     0.069 C 
HETATM   31  N5  UNL     1      17.732  76.030  62.260  1.00  0.00    -0.312 N 
HETATM   32  C17 UNL     1      17.756  74.742  62.594  1.00  0.00     0.327 A 
ATOM     33  H5  UNL     1      17.861  76.736  62.984  1.00  0.00     0.170 HD
HETATM   34  O5  UNL     1      17.935  74.356  63.793  1.00  0.00    -0.247 OA
HETATM   35  N6  UNL     1      17.585  73.837  61.622  1.00  0.00    -0.275 N 
HETATM   36  C18 UNL     1      17.389  74.164  60.327  1.00  0.00     0.263 A 
ATOM     37  H6  UNL     1      17.604  72.849  61.873  1.00  0.00     0.173 HD
HETATM   38  O6  UNL     1      17.237  73.254  59.499  1.00  0.00    -0.267 OA
ENDBRANCH  23  28
ENDBRANCH  20  21
ENDBRANCH   1  20
TORSDOF 9
ENDMDL
MODEL 3
REMARK VINA RESULT: -8.331448009      3.596      5.680
REMARK  9 active torsions:
REMARK  status: ('A' for Active; 'I' for Inactive)
REMARK    1  A    between atoms: C2_2  and  N1_3 
REMARK    2  A    between atoms: N1_3  and  N2_4 
REMARK       I    between atoms: N2_4  and  C3_6 
REMARK    3  A    between atoms: C3_6  and  C4_8 
REMARK    4  A    between atoms: C7_11  and  O2_12 
REMARK       I    between atoms: N3_15  and  C9_16 
REMARK    5  A    between atoms: C9_16  and  C10_18 
REMARK    6  A    between atoms: C10_18  and  C11_19 
REMARK    7  A    between atoms: C11_19  and  O4_20 
REMARK    8  A    between atoms: O4_20  and  C12_21 
REMARK    9  A    between atoms: C13_24  and  C14_25 
ROOT
HETATM    1  C11 UNL     1      18.199  74.493  54.085  1.00  0.00     0.186 C 
ENDROOT
BRANCH   1   2
HETATM    2  C10 UNL     1      17.756  73.134  54.519  1.00  0.00     0.129 C 
BRANCH   2   3
HETATM    3  C9  UNL     1      16.289  72.929  54.235  1.00  0.00     0.222 C 
HETATM    4  N3  UNL     1      15.467  72.209  55.099  1.00  0.00    -0.336 N 
HETATM    5  C4  UNL     1      14.096  71.868  55.008  1.00  0.00     0.180 C 
HETATM    6  C8  UNL     1      16.079  71.745  56.394  1.00  0.00     0.158 C 
HETATM    7  C5  UNL     1      13.374  72.837  55.949  1.00  0.00     0.038 C 
HETATM    8  C6  UNL     1      13.840  72.473  57.337  1.00  0.00     0.036 C 
HETATM    9  C7  UNL     1      15.305  72.370  57.530  1.00  0.00     0.136 C 
HETATM   10  O3  UNL     1      15.874  73.444  53.185  1.00  0.00    -0.273 OA
BRANCH   5  11
HETATM   11  C3  UNL     1      13.467  71.646  53.734  1.00  0.00     0.256 C 
HETATM   12  N2  UNL     1      12.726  72.743  53.146  1.00  0.00    -0.272 N 
ATOM     13  H2  UNL     1      12.668  73.630  53.645  1.00  0.00     0.185 HD
HETATM   14  O1  UNL     1      13.472  70.592  53.036  1.00  0.00    -0.270 OA
BRANCH  12  15
HETATM   15  N1  UNL     1      12.089  72.611  51.910  1.00  0.00    -0.139 NA
BRANCH  15  16
HETATM   16  C2  UNL     1      10.909  73.437  51.812  1.00  0.00     0.130 C 
HETATM   17  C1  UNL     1      10.029  73.108  50.669  1.00  0.00     0.024 C 
ENDBRANCH  15  16
ENDBRANCH  12  15
ENDBRANCH   5  11
BRANCH   9  18
HETATM   18  O2  UNL     1      15.541  71.583  58.664  1.00  0.00    -0.394 OA
ATOM     19  H2  UNL     1      15.229  72.059  59.425  1.00  0.00     0.210 HD
ENDBRANCH   9  18
ENDBRANCH   2   3
ENDBRANCH   1   2
BRANCH   1  20
HETATM   20  O4  UNL     1      18.384  75.423  55.082  1.00  0.00    -0.334 OA
BRANCH  20  21
HETATM   21  C12 UNL     1      17.764  75.507  56.312  1.00  0.00     0.167 A 
HETATM   22  N4  UNL     1      18.292  75.322  57.531  1.00  0.00    -0.334 N 
HETATM   23  C13 UNL     1      17.352  75.493  58.511  1.00  0.00     0.053 A 
ATOM     24  H4  UNL     1      19.269  75.084  57.705  1.00  0.00     0.168 HD
HETATM   25  C19 UNL     1      16.164  75.803  57.897  1.00  0.00     0.061 A 
HETATM   26  C20 UNL     1      16.447  75.807  56.514  1.00  0.00     0.099 A 
HETATM   27  N7  UNL     1      15.529  76.077  55.487  1.00  0.00    -0.098 NA
BRANCH  23  28
HETATM   28  C14 UNL     1      17.541  75.280  59.932  1.00  0.00     0.081 A 
HETATM   29  C15 UNL     1      17.457  76.251  60.867  1.00  0.00     0.028 A 
HETATM   30  C16 UNL     1      17.326  77.681  60.535  1.00  0.00     0.069 C 
HETATM   31  N5  UNL     1      17.551  75.969  62.196  1.00  0.00    -0.312 N 
HETATM   32  C17 UNL     1      17.731  74.724  62.631  1.00  0.00     0.327 A 
ATOM     33  H5  UNL     1      17.481  76.729  62.874  1.00  0.00     0.170 HD
HETATM   34  O5  UNL     1      17.821  74.444  63.868  1.00  0.00    -0.247 OA
HETATM   35  N6  UNL     1      17.819  73.747  61.719  1.00  0.00    -0.275 N 
HETATM   36  C18 UNL     1      17.733  73.960  60.389  1.00  0.00     0.263 A 
ATOM     37  H6  UNL     1      17.959  72.791  62.046  1.00  0.00     0.173 HD
HETATM   38  O6  UNL     1      17.823  72.991  59.623  1.00  0.00    -0.267 OA
ENDBRANCH  23  28
ENDBRANCH  20  21
ENDBRANCH   1  20
TORSDOF 9
ENDMDL
MODEL 4
REMARK VINA RESULT: -8.253541659      3.411      5.667
REMARK  9 active torsions:
REMARK  status: ('A' for Active; 'I' for Inactive)
REMARK    1  A    between atoms: C2_2  and  N1_3 
REMARK    2  A    between atoms: N1_3  and  N2_4 
REMARK       I    between atoms: N2_4  and  C3_6 
REMARK    3  A    between atoms: C3_6  and  C4_8 
REMARK    4  A    between atoms: C7_11  and  O2_12 
REMARK       I    between atoms: N3_15  and  C9_16 
REMARK    5  A    between atoms: C9_16  and  C10_18 
REMARK    6  A    between atoms: C10_18  and  C11_19 
REMARK    7  A    between atoms: C11_19  and  O4_20 
REMARK    8  A    between atoms: O4_20  and  C12_21 
REMARK    9  A    between atoms: C13_24  and  C14_25 
ROOT
HETATM    1  C11 UNL     1      17.408  75.831  54.416  1.00  0.00     0.186 C 
ENDROOT
BRANCH   1   2
HETATM    2  C10 UNL     1      15.976  76.103  54.741  1.00  0.00     0.129 C 
BRANCH   2   3
HETATM    3  C9  UNL     1      15.103  74.937  54.346  1.00  0.00     0.222 C 
HETATM    4  N3  UNL     1      14.291  74.281  55.270  1.00  0.00    -0.336 N 
HETATM    5  C4  UNL     1      13.438  73.160  55.126  1.00  0.00     0.180 C 
HETATM    6  C8  UNL     1      14.229  74.863  56.656  1.00  0.00     0.158 C 
HETATM    7  C5  UNL     1      12.021  73.736  55.056  1.00  0.00     0.038 C 
HETATM    8  C6  UNL     1      11.760  74.331  56.417  1.00  0.00     0.036 C 
HETATM    9  C7  UNL     1      12.797  75.251  56.939  1.00  0.00     0.136 C 
HETATM   10  O3  UNL     1      15.162  74.609  53.151  1.00  0.00    -0.273 OA
BRANCH   5  11
HETATM   11  C3  UNL     1      13.737  72.114  54.185  1.00  0.00     0.256 C 
HETATM   12  N2  UNL     1      15.045  71.494  54.257  1.00  0.00    -0.272 N 
ATOM     13  H2  UNL     1      15.710  71.813  54.961  1.00  0.00     0.185 HD
HETATM   14  O1  UNL     1      12.992  71.648  53.276  1.00  0.00    -0.270 OA
BRANCH  12  15
HETATM   15  N1  UNL     1      15.413  70.470  53.383  1.00  0.00    -0.139 NA
BRANCH  15  16
HETATM   16  C2  UNL     1      16.542  69.713  53.871  1.00  0.00     0.130 C 
HETATM   17  C1  UNL     1      16.474  69.380  55.311  1.00  0.00     0.024 C 
ENDBRANCH  15  16
ENDBRANCH  12  15
ENDBRANCH   5  11
BRANCH   9  18
HETATM   18  O2  UNL     1      12.660  75.318  58.331  1.00  0.00    -0.394 OA
ATOM     19  H2  UNL     1      11.990  75.961  58.533  1.00  0.00     0.210 HD
ENDBRANCH   9  18
ENDBRANCH   2   3
ENDBRANCH   1   2
BRANCH   1  20
HETATM   20  O4  UNL     1      18.255  75.657  55.486  1.00  0.00    -0.334 OA
BRANCH  20  21
HETATM   21  C12 UNL     1      18.058  74.918  56.635  1.00  0.00     0.167 A 
HETATM   22  N4  UNL     1      18.093  75.328  57.911  1.00  0.00    -0.334 N 
HETATM   23  C13 UNL     1      17.848  74.293  58.773  1.00  0.00     0.053 A 
ATOM     24  H4  UNL     1      18.279  76.288  58.203  1.00  0.00     0.168 HD
HETATM   25  C19 UNL     1      17.645  73.164  58.018  1.00  0.00     0.061 A 
HETATM   26  C20 UNL     1      17.781  73.581  56.677  1.00  0.00     0.099 A 
HETATM   27  N7  UNL     1      17.655  72.762  55.544  1.00  0.00    -0.098 NA
BRANCH  23  28
HETATM   28  C14 UNL     1      17.899  74.346  60.220  1.00  0.00     0.081 A 
HETATM   29  C15 UNL     1      18.778  73.657  60.979  1.00  0.00     0.028 A 
HETATM   30  C16 UNL     1      19.688  72.634  60.431  1.00  0.00     0.069 C 
HETATM   31  N5  UNL     1      18.837  73.824  62.329  1.00  0.00    -0.312 N 
HETATM   32  C17 UNL     1      18.030  74.672  62.960  1.00  0.00     0.327 A 
ATOM     33  H5  UNL     1      19.516  73.286  62.869  1.00  0.00     0.170 HD
HETATM   34  O5  UNL     1      18.072  74.840  64.220  1.00  0.00    -0.247 OA
HETATM   35  N6  UNL     1      17.148  75.365  62.225  1.00  0.00    -0.275 N 
HETATM   36  C18 UNL     1      17.041  75.246  60.885  1.00  0.00     0.263 A 
ATOM     37  H6  UNL     1      16.526  76.015  62.704  1.00  0.00     0.173 HD
HETATM   38  O6  UNL     1      16.197  75.931  60.291  1.00  0.00    -0.267 OA
ENDBRANCH  23  28
ENDBRANCH  20  21
ENDBRANCH   1  20
TORSDOF 9
ENDMDL
MODEL 5
REMARK VINA RESULT: -8.195495526      3.059      4.058
REMARK  9 active torsions:
REMARK  status: ('A' for Active; 'I' for Inactive)
REMARK    1  A    between atoms: C2_2  and  N1_3 
REMARK    2  A    between atoms: N1_3  and  N2_4 
REMARK       I    between atoms: N2_4  and  C3_6 
REMARK    3  A    between atoms: C3_6  and  C4_8 
REMARK    4  A    between atoms: C7_11  and  O2_12 
REMARK       I    between atoms: N3_15  and  C9_16 
REMARK    5  A    between atoms: C9_16  and  C10_18 
REMARK    6  A    between atoms: C10_18  and  C11_19 
REMARK    7  A    between atoms: C11_19  and  O4_20 
REMARK    8  A    between atoms: O4_20  and  C12_21 
REMARK    9  A    between atoms: C13_24  and  C14_25 
ROOT
HETATM    1  C11 UNL     1      14.556  72.766  55.749  1.00  0.00     0.186 C 
ENDROOT
BRANCH   1   2
HETATM    2  C10 UNL     1      13.627  72.896  56.912  1.00  0.00     0.129 C 
BRANCH   2   3
HETATM    3  C9  UNL     1      12.543  73.905  56.625  1.00  0.00     0.222 C 
HETATM    4  N3  UNL     1      12.581  75.194  57.153  1.00  0.00    -0.336 N 
HETATM    5  C4  UNL     1      11.666  76.269  57.047  1.00  0.00     0.180 C 
HETATM    6  C8  UNL     1      13.815  75.578  57.925  1.00  0.00     0.158 C 
HETATM    7  C5  UNL     1      12.279  77.223  56.017  1.00  0.00     0.038 C 
HETATM    8  C6  UNL     1      13.533  77.759  56.660  1.00  0.00     0.036 C 
HETATM    9  C7  UNL     1      14.460  76.752  57.227  1.00  0.00     0.136 C 
HETATM   10  O3  UNL     1      11.625  73.506  55.892  1.00  0.00    -0.273 OA
BRANCH   5  11
HETATM   11  C3  UNL     1      10.253  76.033  56.920  1.00  0.00     0.256 C 
HETATM   12  N2  UNL     1       9.529  75.613  58.103  1.00  0.00    -0.272 N 
ATOM     13  H2  UNL     1      10.034  75.495  58.981  1.00  0.00     0.185 HD
HETATM   14  O1  UNL     1       9.534  76.145  55.886  1.00  0.00    -0.270 OA
BRANCH  12  15
HETATM   15  N1  UNL     1       8.155  75.366  58.066  1.00  0.00    -0.139 NA
BRANCH  15  16
HETATM   16  C2  UNL     1       7.387  76.463  58.606  1.00  0.00     0.130 C 
HETATM   17  C1  UNL     1       8.057  77.189  59.708  1.00  0.00     0.024 C 
ENDBRANCH  15  16
ENDBRANCH  12  15
ENDBRANCH   5  11
BRANCH   9  18
HETATM   18  O2  UNL     1      15.273  77.390  58.172  1.00  0.00    -0.394 OA
ATOM     19  H2  UNL     1      14.943  78.272  58.300  1.00  0.00     0.210 HD
ENDBRANCH   9  18
ENDBRANCH   2   3
ENDBRANCH   1   2
BRANCH   1  20
HETATM   20  O4  UNL     1      15.898  72.705  56.043  1.00  0.00    -0.334 OA
BRANCH  20  21
HETATM   21  C12 UNL     1      16.607  73.405  56.998  1.00  0.00     0.167 A 
HETATM   22  N4  UNL     1      16.663  73.196  58.322  1.00  0.00    -0.334 N 
HETATM   23  C13 UNL     1      17.479  74.107  58.935  1.00  0.00     0.053 A 
ATOM     24  H4  UNL     1      16.160  72.454  58.809  1.00  0.00     0.168 HD
HETATM   25  C19 UNL     1      17.974  74.941  57.963  1.00  0.00     0.061 A 
HETATM   26  C20 UNL     1      17.413  74.481  56.753  1.00  0.00     0.099 A 
HETATM   27  N7  UNL     1      17.637  75.030  55.481  1.00  0.00    -0.098 NA
BRANCH  23  28
HETATM   28  C14 UNL     1      17.701  74.242  60.361  1.00  0.00     0.081 A 
HETATM   29  C15 UNL     1      18.633  73.556  61.057  1.00  0.00     0.028 A 
HETATM   30  C16 UNL     1      19.431  72.461  60.475  1.00  0.00     0.069 C 
HETATM   31  N5  UNL     1      18.856  73.798  62.379  1.00  0.00    -0.312 N 
HETATM   32  C17 UNL     1      18.162  74.720  63.042  1.00  0.00     0.327 A 
ATOM     33  H5  UNL     1      19.570  73.262  62.871  1.00  0.00     0.170 HD
HETATM   34  O5  UNL     1      18.358  74.959  64.276  1.00  0.00    -0.247 OA
HETATM   35  N6  UNL     1      17.231  75.410  62.370  1.00  0.00    -0.275 N 
HETATM   36  C18 UNL     1      16.964  75.218  61.061  1.00  0.00     0.263 A 
ATOM     37  H6  UNL     1      16.695  76.116  62.874  1.00  0.00     0.173 HD
HETATM   38  O6  UNL     1      16.084  75.908  60.525  1.00  0.00    -0.267 OA
ENDBRANCH  23  28
ENDBRANCH  20  21
ENDBRANCH   1  20
TORSDOF 9
ENDMDL
