MODEL 1
REMARK VINA RESULT: -8.775337173      0.000      0.000
REMARK  8 active torsions:
REMARK  status: ('A' for Active; 'I' for Inactive)
REMARK    1  A    between atoms: O1_2  and  C2_3 
REMARK    2  A    between atoms: C2_3  and  C3_4 
REMARK    3  A    between atoms: C3_4  and  O2_5 
REMARK    4  A    between atoms: C3_4  and  C4_7 
REMARK    5  A    between atoms: C4_7  and  N1_8 
REMARK    6  A    between atoms: C8_12  and  C9_13 
REMARK       I    between atoms: C9_13  and  N2_15 
REMARK    7  A    between atoms: N3_18  and  C12_19 
REMARK    8  A    between atoms: C12_19  and  C13_20 
ROOT
HETATM    1  C9  UNL     1      19.012  72.228  55.749  1.00  0.00     0.258 C 
HETATM    2  O3  UNL     1      20.142  72.458  56.245  1.00  0.00    -0.271 OA
HETATM    3  N2  UNL     1      17.869  72.773  56.388  1.00  0.00    -0.310 N 
HETATM    4  C10 UNL     1      16.583  72.803  55.672  1.00  0.00     0.176 C 
HETATM    5  C11 UNL     1      15.734  73.958  56.156  1.00  0.00     0.084 C 
HETATM    6  N3  UNL     1      16.386  75.158  56.369  1.00  0.00    -0.363 N 
HETATM    7  C15 UNL     1      16.803  75.537  57.653  1.00  0.00     0.105 C 
HETATM    8  C16 UNL     1      17.622  74.461  58.319  1.00  0.00     0.018 A 
HETATM    9  C17 UNL     1      18.047  73.305  57.709  1.00  0.00     0.051 A 
HETATM   10  C18 UNL     1      18.821  72.388  58.446  1.00  0.00     0.055 A 
HETATM   11  C19 UNL     1      19.125  72.677  59.739  1.00  0.00     0.047 A 
HETATM   12 CL1  UNL     1      20.084  71.561  60.667  1.00  0.00    -0.083 Cl
HETATM   13  C20 UNL     1      18.688  73.839  60.327  1.00  0.00    -0.003 A 
HETATM   14  C21 UNL     1      18.992  74.142  61.651  1.00  0.00     0.014 A 
HETATM   15  C22 UNL     1      18.547  75.310  62.231  1.00  0.00     0.001 A 
HETATM   16  C23 UNL     1      17.790  76.205  61.508  1.00  0.00     0.001 A 
HETATM   17  C24 UNL     1      17.471  75.932  60.188  1.00  0.00     0.013 A 
HETATM   18  C25 UNL     1      17.921  74.772  59.635  1.00  0.00    -0.010 A 
ENDROOT
BRANCH   1  19
HETATM   19  C8  UNL     1      18.818  71.422  54.541  1.00  0.00     0.314 C 
HETATM   20  N1  UNL     1      19.564  71.869  53.379  1.00  0.00     0.104 N 
HETATM   21  C5  UNL     1      20.957  71.608  53.663  1.00  0.00     0.273 C 
HETATM   22  C6  UNL     1      20.991  70.316  54.431  1.00  0.00     0.033 C 
HETATM   23  C7  UNL     1      19.536  70.088  54.803  1.00  0.00     0.047 C 
BRANCH  20  24
HETATM   24  C4  UNL     1      19.292  73.198  52.988  1.00  0.00     0.307 C 
BRANCH  24  25
HETATM   25  C3  UNL     1      18.404  73.341  51.787  1.00  0.00     0.170 C 
BRANCH  25  26
HETATM   26  C2  UNL     1      18.905  74.206  50.690  1.00  0.00     0.200 C 
BRANCH  26  27
HETATM   27  O1  UNL     1      18.480  74.002  49.423  1.00  0.00    -0.393 OA
HETATM   28  C1  UNL     1      18.477  75.065  48.568  1.00  0.00     0.201 C 
ENDBRANCH  26  27
ENDBRANCH  25  26
BRANCH  25  29
HETATM   29  O2  UNL     1      17.105  73.513  52.178  1.00  0.00    -0.392 OA
ATOM     30  H2  UNL     1      16.930  73.530  53.111  1.00  0.00     0.210 HD
ENDBRANCH  25  29
ENDBRANCH  24  25
ENDBRANCH  20  24
ENDBRANCH   1  19
BRANCH   6  31
HETATM   31  C12 UNL     1      15.983  76.185  55.458  1.00  0.00     0.174 C 
BRANCH  31  32
HETATM   32  C13 UNL     1      16.937  77.290  55.288  1.00  0.00     0.007 A 
HETATM   33  C14 UNL     1      18.071  77.710  54.636  1.00  0.00     0.066 A 
HETATM   34  S1  UNL     1      17.423  78.944  55.757  1.00  0.00    -0.103 SA
ENDBRANCH  31  32
ENDBRANCH   6  31
TORSDOF 8
ENDMDL
MODEL 2
REMARK VINA RESULT: -8.710745279      4.198      6.926
REMARK  8 active torsions:
REMARK  status: ('A' for Active; 'I' for Inactive)
REMARK    1  A    between atoms: O1_2  and  C2_3 
REMARK    2  A    between atoms: C2_3  and  C3_4 
REMARK    3  A    between atoms: C3_4  and  O2_5 
REMARK    4  A    between atoms: C3_4  and  C4_7 
REMARK    5  A    between atoms: C4_7  and  N1_8 
REMARK    6  A    between atoms: C8_12  and  C9_13 
REMARK       I    between atoms: C9_13  and  N2_15 
REMARK    7  A    between atoms: N3_18  and  C12_19 
REMARK    8  A    between atoms: C12_19  and  C13_20 
ROOT
HETATM    1  C9  UNL     1      15.213  76.674  56.868  1.00  0.00     0.258 C 
HETATM    2  O3  UNL     1      14.716  77.093  57.942  1.00  0.00    -0.271 OA
HETATM    3  N2  UNL     1      16.232  75.690  56.933  1.00  0.00    -0.310 N 
HETATM    4  C10 UNL     1      16.603  74.948  55.716  1.00  0.00     0.176 C 
HETATM    5  C11 UNL     1      17.127  73.574  56.073  1.00  0.00     0.084 C 
HETATM    6  N3  UNL     1      16.451  72.893  57.067  1.00  0.00    -0.363 N 
HETATM    7  C15 UNL     1      16.912  72.899  58.390  1.00  0.00     0.105 C 
HETATM    8  C16 UNL     1      17.154  74.299  58.895  1.00  0.00     0.018 A 
HETATM    9  C17 UNL     1      16.830  75.448  58.215  1.00  0.00     0.051 A 
HETATM   10  C18 UNL     1      17.099  76.695  58.811  1.00  0.00     0.055 A 
HETATM   11  C19 UNL     1      17.671  76.722  60.044  1.00  0.00     0.047 A 
HETATM   12 CL1  UNL     1      18.009  78.251  60.801  1.00  0.00    -0.083 Cl
HETATM   13  C20 UNL     1      17.987  75.559  60.704  1.00  0.00    -0.003 A 
HETATM   14  C21 UNL     1      18.576  75.577  61.965  1.00  0.00     0.014 A 
HETATM   15  C22 UNL     1      18.891  74.405  62.618  1.00  0.00     0.001 A 
HETATM   16  C23 UNL     1      18.627  73.187  62.032  1.00  0.00     0.001 A 
HETATM   17  C24 UNL     1      18.041  73.136  60.778  1.00  0.00     0.013 A 
HETATM   18  C25 UNL     1      17.739  74.306  60.151  1.00  0.00    -0.010 A 
ENDROOT
BRANCH   1  19
HETATM   19  C8  UNL     1      14.789  77.154  55.550  1.00  0.00     0.314 C 
HETATM   20  N1  UNL     1      13.354  77.297  55.382  1.00  0.00     0.104 N 
HETATM   21  C5  UNL     1      12.954  78.404  56.219  1.00  0.00     0.273 C 
HETATM   22  C6  UNL     1      14.070  79.409  56.145  1.00  0.00     0.033 C 
HETATM   23  C7  UNL     1      15.198  78.635  55.488  1.00  0.00     0.047 C 
BRANCH  20  24
HETATM   24  C4  UNL     1      12.621  76.111  55.600  1.00  0.00     0.307 C 
BRANCH  24  25
HETATM   25  C3  UNL     1      11.381  76.272  56.432  1.00  0.00     0.170 C 
BRANCH  25  26
HETATM   26  C2  UNL     1      11.391  75.628  57.769  1.00  0.00     0.200 C 
BRANCH  26  27
HETATM   27  O1  UNL     1      10.234  75.196  58.316  1.00  0.00    -0.393 OA
HETATM   28  C1  UNL     1       9.463  76.101  58.986  1.00  0.00     0.201 C 
ENDBRANCH  26  27
ENDBRANCH  25  26
BRANCH  25  29
HETATM   29  O2  UNL     1      10.268  76.095  55.658  1.00  0.00    -0.392 OA
ATOM     30  H2  UNL     1      10.385  76.111  54.716  1.00  0.00     0.210 HD
ENDBRANCH  25  29
ENDBRANCH  24  25
ENDBRANCH  20  24
ENDBRANCH   1  19
BRANCH   6  31
HETATM   31  C12 UNL     1      15.782  71.722  56.589  1.00  0.00     0.174 C 
BRANCH  31  32
HETATM   32  C13 UNL     1      16.656  70.597  56.230  1.00  0.00     0.007 A 
HETATM   33  C14 UNL     1      16.792  69.230  56.233  1.00  0.00     0.066 A 
HETATM   34  S1  UNL     1      18.207  70.062  55.524  1.00  0.00    -0.103 SA
ENDBRANCH  31  32
ENDBRANCH   6  31
TORSDOF 8
ENDMDL
MODEL 3
REMARK VINA RESULT: -8.591528734      2.995      5.004
REMARK  8 active torsions:
REMARK  status: ('A' for Active; 'I' for Inactive)
REMARK    1  A    between atoms: O1_2  and  C2_3 
REMARK    2  A    between atoms: C2_3  and  C3_4 
REMARK    3  A    between atoms: C3_4  and  O2_5 
REMARK    4  A    between atoms: C3_4  and  C4_7 
REMARK    5  A    between atoms: C4_7  and  N1_8 
REMARK    6  A    between atoms: C8_12  and  C9_13 
REMARK       I    between atoms: C9_13  and  N2_15 
REMARK    7  A    between atoms: N3_18  and  C12_19 
REMARK    8  A    between atoms: C12_19  and  C13_20 
ROOT
HETATM    1  C9  UNL     1      16.814  75.856  56.079  1.00  0.00     0.258 C 
HETATM    2  O3  UNL     1      15.836  76.031  56.846  1.00  0.00    -0.271 OA
HETATM    3  N2  UNL     1      17.969  75.213  56.593  1.00  0.00    -0.310 N 
HETATM    4  C10 UNL     1      18.990  74.704  55.662  1.00  0.00     0.176 C 
HETATM    5  C11 UNL     1      19.716  73.523  56.267  1.00  0.00     0.084 C 
HETATM    6  N3  UNL     1      18.942  72.602  56.948  1.00  0.00    -0.363 N 
HETATM    7  C15 UNL     1      18.823  72.648  58.344  1.00  0.00     0.105 C 
HETATM    8  C16 UNL     1      18.418  74.016  58.830  1.00  0.00     0.018 A 
HETATM    9  C17 UNL     1      18.059  75.066  58.017  1.00  0.00     0.051 A 
HETATM   10  C18 UNL     1      17.688  76.290  58.605  1.00  0.00     0.055 A 
HETATM   11  C19 UNL     1      17.695  76.394  59.961  1.00  0.00     0.047 A 
HETATM   12 CL1  UNL     1      17.236  77.896  60.709  1.00  0.00    -0.083 Cl
HETATM   13  C20 UNL     1      18.058  75.332  60.752  1.00  0.00    -0.003 A 
HETATM   14  C21 UNL     1      18.072  75.431  62.140  1.00  0.00     0.014 A 
HETATM   15  C22 UNL     1      18.439  74.359  62.924  1.00  0.00     0.001 A 
HETATM   16  C23 UNL     1      18.802  73.163  62.346  1.00  0.00     0.001 A 
HETATM   17  C24 UNL     1      18.799  73.033  60.967  1.00  0.00     0.013 A 
HETATM   18  C25 UNL     1      18.432  74.105  60.212  1.00  0.00    -0.010 A 
ENDROOT
BRANCH   1  19
HETATM   19  C8  UNL     1      16.818  76.284  54.678  1.00  0.00     0.314 C 
HETATM   20  N1  UNL     1      15.638  75.911  53.919  1.00  0.00     0.104 N 
HETATM   21  C5  UNL     1      14.549  76.702  54.445  1.00  0.00     0.273 C 
HETATM   22  C6  UNL     1      15.132  78.046  54.781  1.00  0.00     0.033 C 
HETATM   23  C7  UNL     1      16.630  77.810  54.702  1.00  0.00     0.047 C 
BRANCH  20  24
HETATM   24  C4  UNL     1      15.382  74.524  53.884  1.00  0.00     0.307 C 
BRANCH  24  25
HETATM   25  C3  UNL     1      16.001  73.790  52.730  1.00  0.00     0.170 C 
BRANCH  25  26
HETATM   26  C2  UNL     1      16.978  72.726  53.068  1.00  0.00     0.200 C 
BRANCH  26  27
HETATM   27  O1  UNL     1      16.872  71.507  52.494  1.00  0.00    -0.393 OA
HETATM   28  C1  UNL     1      17.976  70.706  52.477  1.00  0.00     0.201 C 
ENDBRANCH  26  27
ENDBRANCH  25  26
BRANCH  25  29
HETATM   29  O2  UNL     1      16.348  74.671  51.743  1.00  0.00    -0.392 OA
ATOM     30  H2  UNL     1      17.110  75.218  51.896  1.00  0.00     0.210 HD
ENDBRANCH  25  29
ENDBRANCH  24  25
ENDBRANCH  20  24
ENDBRANCH   1  19
BRANCH   6  31
HETATM   31  C12 UNL     1      18.896  71.324  56.306  1.00  0.00     0.174 C 
BRANCH  31  32
HETATM   32  C13 UNL     1      17.559  70.726  56.185  1.00  0.00     0.007 A 
HETATM   33  C14 UNL     1      16.208  70.955  56.283  1.00  0.00     0.066 A 
HETATM   34  S1  UNL     1      16.590  69.267  55.831  1.00  0.00    -0.103 SA
ENDBRANCH  31  32
ENDBRANCH   6  31
TORSDOF 8
ENDMDL
MODEL 4
REMARK VINA RESULT: -8.586914604      3.929      6.058
REMARK  8 active torsions:
REMARK  status: ('A' for Active; 'I' for Inactive)
REMARK    1  A    between atoms: O1_2  and  C2_3 
REMARK    2  A    between atoms: C2_3  and  C3_4 
REMARK    3  A    between atoms: C3_4  and  O2_5 
REMARK    4  A    between atoms: C3_4  and  C4_7 
REMARK    5  A    between atoms: C4_7  and  N1_8 
REMARK    6  A    between atoms: C8_12  and  C9_13 
REMARK       I    between atoms: C9_13  and  N2_15 
REMARK    7  A    between atoms: N3_18  and  C12_19 
REMARK    8  A    between atoms: C12_19  and  C13_20 
ROOT
HETATM    1  C9  UNL     1      14.505  75.626  57.038  1.00  0.00     0.258 C 
HETATM    2  O3  UNL     1      14.014  75.956  58.145  1.00  0.00    -0.271 OA
HETATM    3  N2  UNL     1      15.758  74.960  57.026  1.00  0.00    -0.310 N 
HETATM    4  C10 UNL     1      16.204  74.278  55.800  1.00  0.00     0.176 C 
HETATM    5  C11 UNL     1      17.117  73.120  56.141  1.00  0.00     0.084 C 
HETATM    6  N3  UNL     1      16.749  72.339  57.221  1.00  0.00    -0.363 N 
HETATM    7  C15 UNL     1      17.311  72.547  58.488  1.00  0.00     0.105 C 
HETATM    8  C16 UNL     1      17.204  73.987  58.923  1.00  0.00     0.018 A 
HETATM    9  C17 UNL     1      16.514  74.964  58.245  1.00  0.00     0.051 A 
HETATM   10  C18 UNL     1      16.484  76.270  58.772  1.00  0.00     0.055 A 
HETATM   11  C19 UNL     1      17.138  76.521  59.937  1.00  0.00     0.047 A 
HETATM   12 CL1  UNL     1      17.109  78.126  60.608  1.00  0.00    -0.083 Cl
HETATM   13  C20 UNL     1      17.821  75.529  60.595  1.00  0.00    -0.003 A 
HETATM   14  C21 UNL     1      18.496  75.778  61.786  1.00  0.00     0.014 A 
HETATM   15  C22 UNL     1      19.180  74.775  62.438  1.00  0.00     0.001 A 
HETATM   16  C23 UNL     1      19.209  73.499  61.920  1.00  0.00     0.001 A 
HETATM   17  C24 UNL     1      18.547  73.219  60.736  1.00  0.00     0.013 A 
HETATM   18  C25 UNL     1      17.877  74.225  60.110  1.00  0.00    -0.010 A 
ENDROOT
BRANCH   1  19
HETATM   19  C8  UNL     1      13.845  75.896  55.758  1.00  0.00     0.314 C 
HETATM   20  N1  UNL     1      12.673  75.084  55.489  1.00  0.00     0.104 N 
HETATM   21  C5  UNL     1      11.655  75.516  56.418  1.00  0.00     0.273 C 
HETATM   22  C6  UNL     1      11.824  77.003  56.562  1.00  0.00     0.033 C 
HETATM   23  C7  UNL     1      13.171  77.269  55.912  1.00  0.00     0.047 C 
BRANCH  20  24
HETATM   24  C4  UNL     1      12.914  73.693  55.498  1.00  0.00     0.307 C 
BRANCH  24  25
HETATM   25  C3  UNL     1      12.231  72.920  54.407  1.00  0.00     0.170 C 
BRANCH  25  26
HETATM   26  C2  UNL     1      12.471  73.383  53.017  1.00  0.00     0.200 C 
BRANCH  26  27
HETATM   27  O1  UNL     1      12.064  72.624  51.975  1.00  0.00    -0.393 OA
HETATM   28  C1  UNL     1      11.011  73.068  51.230  1.00  0.00     0.201 C 
ENDBRANCH  26  27
ENDBRANCH  25  26
BRANCH  25  29
HETATM   29  O2  UNL     1      10.940  72.644  54.762  1.00  0.00    -0.392 OA
ATOM     30  H2  UNL     1      10.760  71.780  55.114  1.00  0.00     0.210 HD
ENDBRANCH  25  29
ENDBRANCH  24  25
ENDBRANCH  20  24
ENDBRANCH   1  19
BRANCH   6  31
HETATM   31  C12 UNL     1      16.387  71.006  56.851  1.00  0.00     0.174 C 
BRANCH  31  32
HETATM   32  C13 UNL     1      17.133  70.439  55.719  1.00  0.00     0.007 A 
HETATM   33  C14 UNL     1      17.034  69.915  54.453  1.00  0.00     0.066 A 
HETATM   34  S1  UNL     1      18.720  69.965  55.049  1.00  0.00    -0.103 SA
ENDBRANCH  31  32
ENDBRANCH   6  31
TORSDOF 8
ENDMDL
MODEL 5
REMARK VINA RESULT: -8.545373220      3.825      6.376
REMARK  8 active torsions:
REMARK  status: ('A' for Active; 'I' for Inactive)
REMARK    1  A    between atoms: O1_2  and  C2_3 
REMARK    2  A    between atoms: C2_3  and  C3_4 
REMARK    3  A    between atoms: C3_4  and  O2_5 
REMARK    4  A    between atoms: C3_4  and  C4_7 
REMARK    5  A    between atoms: C4_7  and  N1_8 
REMARK    6  A    between atoms: C8_12  and  C9_13 
REMARK       I    between atoms: C9_13  and  N2_15 
REMARK    7  A    between atoms: N3_18  and  C12_19 
REMARK    8  A    between atoms: C12_19  and  C13_20 
ROOT
HETATM    1  C9  UNL     1      15.489  76.884  56.730  1.00  0.00     0.258 C 
HETATM    2  O3  UNL     1      14.863  77.107  57.795  1.00  0.00    -0.271 OA
HETATM    3  N2  UNL     1      16.605  76.009  56.772  1.00  0.00    -0.310 N 
HETATM    4  C10 UNL     1      17.154  75.473  55.516  1.00  0.00     0.176 C 
HETATM    5  C11 UNL     1      17.800  74.126  55.753  1.00  0.00     0.084 C 
HETATM    6  N3  UNL     1      17.129  73.256  56.590  1.00  0.00    -0.363 N 
HETATM    7  C15 UNL     1      17.478  73.138  57.942  1.00  0.00     0.105 C 
HETATM    8  C16 UNL     1      17.519  74.478  58.632  1.00  0.00     0.018 A 
HETATM    9  C17 UNL     1      17.122  75.666  58.067  1.00  0.00     0.051 A 
HETATM   10  C18 UNL     1      17.199  76.847  58.830  1.00  0.00     0.055 A 
HETATM   11  C19 UNL     1      17.664  76.772  60.106  1.00  0.00     0.047 A 
HETATM   12 CL1  UNL     1      17.763  78.218  61.069  1.00  0.00    -0.083 Cl
HETATM   13  C20 UNL     1      18.056  75.573  60.649  1.00  0.00    -0.003 A 
HETATM   14  C21 UNL     1      18.536  75.488  61.952  1.00  0.00     0.014 A 
HETATM   15  C22 UNL     1      18.928  74.280  62.487  1.00  0.00     0.001 A 
HETATM   16  C23 UNL     1      18.852  73.128  61.737  1.00  0.00     0.001 A 
HETATM   17  C24 UNL     1      18.378  73.179  60.436  1.00  0.00     0.013 A 
HETATM   18  C25 UNL     1      17.996  74.384  59.929  1.00  0.00    -0.010 A 
ENDROOT
BRANCH   1  19
HETATM   19  C8  UNL     1      15.120  77.484  55.446  1.00  0.00     0.314 C 
HETATM   20  N1  UNL     1      13.721  77.349  55.085  1.00  0.00     0.104 N 
HETATM   21  C5  UNL     1      12.981  78.187  56.001  1.00  0.00     0.273 C 
HETATM   22  C6  UNL     1      13.835  79.401  56.240  1.00  0.00     0.033 C 
HETATM   23  C7  UNL     1      15.180  79.005  55.658  1.00  0.00     0.047 C 
BRANCH  20  24
HETATM   24  C4  UNL     1      13.261  76.016  55.019  1.00  0.00     0.307 C 
BRANCH  24  25
HETATM   25  C3  UNL     1      12.067  75.711  55.876  1.00  0.00     0.170 C 
BRANCH  25  26
HETATM   26  C2  UNL     1      12.308  74.872  57.076  1.00  0.00     0.200 C 
BRANCH  26  27
HETATM   27  O1  UNL     1      13.347  74.007  57.094  1.00  0.00    -0.393 OA
HETATM   28  C1  UNL     1      13.099  72.698  56.799  1.00  0.00     0.201 C 
ENDBRANCH  26  27
ENDBRANCH  25  26
BRANCH  25  29
HETATM   29  O2  UNL     1      10.994  75.390  55.091  1.00  0.00    -0.392 OA
ATOM     30  H2  UNL     1      10.337  76.063  54.955  1.00  0.00     0.210 HD
ENDBRANCH  25  29
ENDBRANCH  24  25
ENDBRANCH  20  24
ENDBRANCH   1  19
BRANCH   6  31
HETATM   31  C12 UNL     1      16.637  72.094  55.915  1.00  0.00     0.174 C 
BRANCH  31  32
HETATM   32  C13 UNL     1      17.629  71.038  55.671  1.00  0.00     0.007 A 
HETATM   33  C14 UNL     1      17.906  69.699  55.803  1.00  0.00     0.066 A 
HETATM   34  S1  UNL     1      19.241  70.605  55.032  1.00  0.00    -0.103 SA
ENDBRANCH  31  32
ENDBRANCH   6  31
TORSDOF 8
ENDMDL
