MODEL 1
REMARK VINA RESULT: -5.433570750      0.000      0.000
REMARK  5 active torsions:
REMARK  status: ('A' for Active; 'I' for Inactive)
REMARK    1  A    between atoms: C3_3  and  O1_4 
REMARK    2  A    between atoms: O1_4  and  C4_5 
REMARK    3  A    between atoms: C8_9  and  N1_10 
REMARK       I    between atoms: N1_10  and  C9_12 
REMARK       I    between atoms: C9_12  and  N2_14 
REMARK    4  A    between atoms: N2_14  and  C10_16 
REMARK    5  A    between atoms: C14_21  and  O4_22 
ROOT
HETATM    1  N1  UNL     1      30.440  -5.600 -11.444  1.00  0.00    -0.336 N 
ATOM      2  H1  UNL     1      30.191  -5.158 -10.559  1.00  0.00     0.164 HD
HETATM    3  C9  UNL     1      31.775  -5.980 -11.695  1.00  0.00     0.321 C 
HETATM    4  O2  UNL     1      32.067  -6.520 -12.786  1.00  0.00    -0.247 OA
HETATM    5  N2  UNL     1      32.755  -5.740 -10.706  1.00  0.00    -0.306 N 
ATOM      6  H2  UNL     1      32.504  -5.301  -9.821  1.00  0.00     0.170 HD
ENDROOT
BRANCH   1   7
HETATM    7  C8  UNL     1      29.430  -5.839 -12.444  1.00  0.00     0.115 C 
HETATM    8  C4  UNL     1      28.640  -7.093 -12.161  1.00  0.00     0.150 C 
HETATM    9  C5  UNL     1      27.264  -6.707 -12.665  1.00  0.00     0.034 C 
HETATM   10  C6  UNL     1      27.117  -5.344 -11.973  1.00  0.00     0.005 C 
HETATM   11  C7  UNL     1      28.425  -4.691 -12.422  1.00  0.00     0.028 C 
BRANCH   8  12
HETATM   12  O1  UNL     1      29.150  -8.232 -12.781  1.00  0.00    -0.356 OA
BRANCH  12  13
HETATM   13  C3  UNL     1      29.393  -8.338 -14.130  1.00  0.00     0.131 C 
HETATM   14  C2  UNL     1      30.001  -9.436 -14.585  1.00  0.00    -0.007 C 
HETATM   15  C1  UNL     1      30.408 -10.518 -13.671  1.00  0.00     0.038 C 
ENDBRANCH  12  13
ENDBRANCH   8  12
ENDBRANCH   1   7
BRANCH   5  16
HETATM   16  C10 UNL     1      34.098  -6.124 -10.971  1.00  0.00     0.069 A 
HETATM   17  C11 UNL     1      34.923  -5.232 -11.469  1.00  0.00     0.032 A 
HETATM   18  C12 UNL     1      36.325  -5.570 -11.764  1.00  0.00     0.204 A 
HETATM   19  O3  UNL     1      36.632  -6.883 -11.465  1.00  0.00    -0.356 OA
HETATM   20  C13 UNL     1      35.802  -7.814 -10.952  1.00  0.00     0.173 A 
HETATM   21  C14 UNL     1      34.532  -7.482 -10.692  1.00  0.00     0.114 A 
BRANCH  21  22
HETATM   22  O4  UNL     1      33.666  -8.429 -10.165  1.00  0.00    -0.357 OA
ATOM     23  H4  UNL     1      33.026  -8.204  -9.500  1.00  0.00     0.218 HD
ENDBRANCH  21  22
ENDBRANCH   5  16
TORSDOF 5
ENDMDL
MODEL 2
REMARK VINA RESULT: -5.346086884      2.046      3.160
REMARK  5 active torsions:
REMARK  status: ('A' for Active; 'I' for Inactive)
REMARK    1  A    between atoms: C3_3  and  O1_4 
REMARK    2  A    between atoms: O1_4  and  C4_5 
REMARK    3  A    between atoms: C8_9  and  N1_10 
REMARK       I    between atoms: N1_10  and  C9_12 
REMARK       I    between atoms: C9_12  and  N2_14 
REMARK    4  A    between atoms: N2_14  and  C10_16 
REMARK    5  A    between atoms: C14_21  and  O4_22 
ROOT
HETATM    1  N1  UNL     1      29.952  -6.914 -12.370  1.00  0.00    -0.336 N 
ATOM      2  H1  UNL     1      29.748  -7.766 -12.893  1.00  0.00     0.164 HD
HETATM    3  C9  UNL     1      31.285  -6.582 -12.050  1.00  0.00     0.321 C 
HETATM    4  O2  UNL     1      31.520  -5.533 -11.407  1.00  0.00    -0.247 OA
HETATM    5  N2  UNL     1      32.326  -7.442 -12.463  1.00  0.00    -0.306 N 
ATOM      6  H2  UNL     1      32.121  -8.292 -12.988  1.00  0.00     0.170 HD
ENDROOT
BRANCH   1   7
HETATM    7  C8  UNL     1      28.879  -6.045 -11.955  1.00  0.00     0.115 C 
HETATM    8  C4  UNL     1      28.411  -5.151 -13.077  1.00  0.00     0.150 C 
HETATM    9  C5  UNL     1      26.927  -5.048 -12.784  1.00  0.00     0.034 C 
HETATM   10  C6  UNL     1      26.606  -6.536 -12.592  1.00  0.00     0.005 C 
HETATM   11  C7  UNL     1      27.675  -6.894 -11.558  1.00  0.00     0.028 C 
BRANCH   8  12
HETATM   12  O1  UNL     1      29.049  -3.913 -13.114  1.00  0.00    -0.356 OA
BRANCH  12  13
HETATM   13  C3  UNL     1      29.984  -3.549 -14.054  1.00  0.00     0.131 C 
HETATM   14  C2  UNL     1      30.935  -2.680 -13.706  1.00  0.00    -0.007 C 
HETATM   15  C1  UNL     1      30.992  -2.114 -12.346  1.00  0.00     0.038 C 
ENDBRANCH  12  13
ENDBRANCH   8  12
ENDBRANCH   1   7
BRANCH   5  16
HETATM   16  C10 UNL     1      33.665  -7.099 -12.132  1.00  0.00     0.069 A 
HETATM   17  C11 UNL     1      34.332  -6.306 -12.939  1.00  0.00     0.032 A 
HETATM   18  C12 UNL     1      35.721  -5.917 -12.650  1.00  0.00     0.204 A 
HETATM   19  O3  UNL     1      36.200  -6.474 -11.480  1.00  0.00    -0.356 OA
HETATM   20  C13 UNL     1      35.533  -7.289 -10.638  1.00  0.00     0.173 A 
HETATM   21  C14 UNL     1      34.271  -7.627 -10.922  1.00  0.00     0.114 A 
BRANCH  21  22
HETATM   22  O4  UNL     1      33.572  -8.465 -10.065  1.00  0.00    -0.357 OA
ATOM     23  H4  UNL     1      33.958  -8.788  -9.259  1.00  0.00     0.218 HD
ENDBRANCH  21  22
ENDBRANCH   5  16
TORSDOF 5
ENDMDL
MODEL 3
REMARK VINA RESULT: -5.070790002      2.161      3.445
REMARK  5 active torsions:
REMARK  status: ('A' for Active; 'I' for Inactive)
REMARK    1  A    between atoms: C3_3  and  O1_4 
REMARK    2  A    between atoms: O1_4  and  C4_5 
REMARK    3  A    between atoms: C8_9  and  N1_10 
REMARK       I    between atoms: N1_10  and  C9_12 
REMARK       I    between atoms: C9_12  and  N2_14 
REMARK    4  A    between atoms: N2_14  and  C10_16 
REMARK    5  A    between atoms: C14_21  and  O4_22 
ROOT
HETATM    1  N1  UNL     1      32.352  -5.244 -11.296  1.00  0.00    -0.336 N 
ATOM      2  H1  UNL     1      31.859  -5.273 -10.403  1.00  0.00     0.164 HD
HETATM    3  C9  UNL     1      33.621  -5.846 -11.424  1.00  0.00     0.321 C 
HETATM    4  O2  UNL     1      34.215  -5.802 -12.526  1.00  0.00    -0.247 OA
HETATM    5  N2  UNL     1      34.194  -6.486 -10.304  1.00  0.00    -0.306 N 
ATOM      6  H2  UNL     1      33.700  -6.517  -9.412  1.00  0.00     0.170 HD
ENDROOT
BRANCH   1   7
HETATM    7  C8  UNL     1      31.754  -4.588 -12.432  1.00  0.00     0.115 C 
HETATM    8  C4  UNL     1      30.263  -4.425 -12.270  1.00  0.00     0.150 C 
HETATM    9  C5  UNL     1      30.024  -3.100 -12.966  1.00  0.00     0.034 C 
HETATM   10  C6  UNL     1      31.125  -2.264 -12.297  1.00  0.00     0.005 C 
HETATM   11  C7  UNL     1      32.325  -3.178 -12.550  1.00  0.00     0.028 C 
BRANCH   8  12
HETATM   12  O1  UNL     1      29.520  -5.471 -12.814  1.00  0.00    -0.356 OA
BRANCH  12  13
HETATM   13  C3  UNL     1      29.022  -6.529 -12.091  1.00  0.00     0.131 C 
HETATM   14  C2  UNL     1      27.752  -6.482 -11.683  1.00  0.00    -0.007 C 
HETATM   15  C1  UNL     1      26.891  -5.327 -11.994  1.00  0.00     0.038 C 
ENDBRANCH  12  13
ENDBRANCH   8  12
ENDBRANCH   1   7
BRANCH   5  16
HETATM   16  C10 UNL     1      35.475  -7.087 -10.443  1.00  0.00     0.069 A 
HETATM   17  C11 UNL     1      35.550  -8.312 -10.909  1.00  0.00     0.032 A 
HETATM   18  C12 UNL     1      36.848  -8.986 -11.075  1.00  0.00     0.204 A 
HETATM   19  O3  UNL     1      37.914  -8.197 -10.689  1.00  0.00    -0.356 OA
HETATM   20  C13 UNL     1      37.859  -6.939 -10.209  1.00  0.00     0.173 A 
HETATM   21  C14 UNL     1      36.668  -6.346 -10.069  1.00  0.00     0.114 A 
BRANCH  21  22
HETATM   22  O4  UNL     1      36.595  -5.052  -9.576  1.00  0.00    -0.357 OA
ATOM     23  H4  UNL     1      36.485  -4.304 -10.152  1.00  0.00     0.218 HD
ENDBRANCH  21  22
ENDBRANCH   5  16
TORSDOF 5
ENDMDL
MODEL 4
REMARK VINA RESULT: -5.022207862      5.250      6.975
REMARK  5 active torsions:
REMARK  status: ('A' for Active; 'I' for Inactive)
REMARK    1  A    between atoms: C3_3  and  O1_4 
REMARK    2  A    between atoms: O1_4  and  C4_5 
REMARK    3  A    between atoms: C8_9  and  N1_10 
REMARK       I    between atoms: N1_10  and  C9_12 
REMARK       I    between atoms: C9_12  and  N2_14 
REMARK    4  A    between atoms: N2_14  and  C10_16 
REMARK    5  A    between atoms: C14_21  and  O4_22 
ROOT
HETATM    1  N1  UNL     1      30.412 -13.141 -14.997  1.00  0.00    -0.336 N 
ATOM      2  H1  UNL     1      31.005 -13.729 -15.582  1.00  0.00     0.164 HD
HETATM    3  C9  UNL     1      30.743 -12.926 -13.643  1.00  0.00     0.321 C 
HETATM    4  O2  UNL     1      30.005 -12.202 -12.936  1.00  0.00    -0.247 OA
HETATM    5  N2  UNL     1      31.903 -13.534 -13.115  1.00  0.00    -0.306 N 
ATOM      6  H2  UNL     1      32.497 -14.120 -13.702  1.00  0.00     0.170 HD
ENDROOT
BRANCH   1   7
HETATM    7  C8  UNL     1      29.231 -12.526 -15.550  1.00  0.00     0.115 C 
HETATM    8  C4  UNL     1      29.540 -11.722 -16.788  1.00  0.00     0.150 C 
HETATM    9  C5  UNL     1      28.287 -11.938 -17.613  1.00  0.00     0.034 C 
HETATM   10  C6  UNL     1      28.177 -13.466 -17.504  1.00  0.00     0.005 C 
HETATM   11  C7  UNL     1      28.257 -13.618 -15.985  1.00  0.00     0.028 C 
BRANCH   8  12
HETATM   12  O1  UNL     1      29.803 -10.377 -16.536  1.00  0.00    -0.356 OA
BRANCH  12  13
HETATM   13  C3  UNL     1      29.168  -9.630 -15.572  1.00  0.00     0.131 C 
HETATM   14  C2  UNL     1      29.899  -9.100 -14.589  1.00  0.00    -0.007 C 
HETATM   15  C1  UNL     1      31.357  -9.306 -14.526  1.00  0.00     0.038 C 
ENDBRANCH  12  13
ENDBRANCH   8  12
ENDBRANCH   1   7
BRANCH   5  16
HETATM   16  C10 UNL     1      32.227 -13.313 -11.748  1.00  0.00     0.069 A 
HETATM   17  C11 UNL     1      33.282 -12.588 -11.458  1.00  0.00     0.032 A 
HETATM   18  C12 UNL     1      33.667 -12.325 -10.062  1.00  0.00     0.204 A 
HETATM   19  O3  UNL     1      32.814 -12.919  -9.152  1.00  0.00    -0.356 OA
HETATM   20  C13 UNL     1      31.726 -13.665  -9.428  1.00  0.00     0.173 A 
HETATM   21  C14 UNL     1      31.396 -13.889 -10.705  1.00  0.00     0.114 A 
BRANCH  21  22
HETATM   22  O4  UNL     1      30.279 -14.656 -11.004  1.00  0.00    -0.357 OA
ATOM     23  H4  UNL     1      29.668 -14.930 -10.331  1.00  0.00     0.218 HD
ENDBRANCH  21  22
ENDBRANCH   5  16
TORSDOF 5
ENDMDL
MODEL 5
REMARK VINA RESULT: -5.009215970      6.188      7.397
REMARK  5 active torsions:
REMARK  status: ('A' for Active; 'I' for Inactive)
REMARK    1  A    between atoms: C3_3  and  O1_4 
REMARK    2  A    between atoms: O1_4  and  C4_5 
REMARK    3  A    between atoms: C8_9  and  N1_10 
REMARK       I    between atoms: N1_10  and  C9_12 
REMARK       I    between atoms: C9_12  and  N2_14 
REMARK    4  A    between atoms: N2_14  and  C10_16 
REMARK    5  A    between atoms: C14_21  and  O4_22 
ROOT
HETATM    1  N1  UNL     1      29.973 -13.900 -14.056  1.00  0.00    -0.336 N 
ATOM      2  H1  UNL     1      29.714 -14.886 -14.099  1.00  0.00     0.164 HD
HETATM    3  C9  UNL     1      30.719 -13.411 -12.964  1.00  0.00     0.321 C 
HETATM    4  O2  UNL     1      31.029 -12.199 -12.924  1.00  0.00    -0.247 OA
HETATM    5  N2  UNL     1      31.098 -14.303 -11.936  1.00  0.00    -0.306 N 
ATOM      6  H2  UNL     1      30.840 -15.289 -11.981  1.00  0.00     0.170 HD
ENDROOT
BRANCH   1   7
HETATM    7  C8  UNL     1      29.580 -13.002 -15.112  1.00  0.00     0.115 C 
HETATM    8  C4  UNL     1      30.539 -13.044 -16.276  1.00  0.00     0.150 C 
HETATM    9  C5  UNL     1      29.604 -12.825 -17.449  1.00  0.00     0.034 C 
HETATM   10  C6  UNL     1      28.523 -13.859 -17.103  1.00  0.00     0.005 C 
HETATM   11  C7  UNL     1      28.225 -13.441 -15.662  1.00  0.00     0.028 C 
BRANCH   8  12
HETATM   12  O1  UNL     1      31.555 -12.093 -16.204  1.00  0.00    -0.356 OA
BRANCH  12  13
HETATM   13  C3  UNL     1      32.870 -12.382 -15.923  1.00  0.00     0.131 C 
HETATM   14  C2  UNL     1      33.615 -11.450 -15.325  1.00  0.00    -0.007 C 
HETATM   15  C1  UNL     1      33.054 -10.135 -14.970  1.00  0.00     0.038 C 
ENDBRANCH  12  13
ENDBRANCH   8  12
ENDBRANCH   1   7
BRANCH   5  16
HETATM   16  C10 UNL     1      31.846 -13.799 -10.838  1.00  0.00     0.069 A 
HETATM   17  C11 UNL     1      31.273 -13.739  -9.658  1.00  0.00     0.032 A 
HETATM   18  C12 UNL     1      31.998 -13.226  -8.484  1.00  0.00     0.204 A 
HETATM   19  O3  UNL     1      33.288 -12.834  -8.781  1.00  0.00    -0.356 OA
HETATM   20  C13 UNL     1      33.895 -12.888  -9.983  1.00  0.00     0.173 A 
HETATM   21  C14 UNL     1      33.217 -13.359 -11.035  1.00  0.00     0.114 A 
BRANCH  21  22
HETATM   22  O4  UNL     1      33.828 -13.419 -12.279  1.00  0.00    -0.357 OA
ATOM     23  H4  UNL     1      33.942 -12.644 -12.817  1.00  0.00     0.218 HD
ENDBRANCH  21  22
ENDBRANCH   5  16
TORSDOF 5
ENDMDL
