MODEL 1
REMARK VINA RESULT: -5.258541921      0.000      0.000
REMARK  5 active torsions:
REMARK  status: ('A' for Active; 'I' for Inactive)
REMARK    1  A    between atoms: N1_1  and  C1_5 
REMARK       I    between atoms: N2_7  and  C3_8 
REMARK    2  A    between atoms: C3_8  and  C4_10 
REMARK    3  A    between atoms: C12_19  and  C13_20 
REMARK    4  A    between atoms: C13_20  and  C14_21 
REMARK    5  A    between atoms: C14_21  and  O3_22 
ROOT
HETATM    1  C1  UNL     1      32.832 -12.270 -11.714  1.00  0.00     0.205 C 
HETATM    2  C2  UNL     1      32.303 -11.653 -12.977  1.00  0.00     0.159 C 
HETATM    3  N2  UNL     1      31.482 -12.720 -13.598  1.00  0.00    -0.344 N 
HETATM    4  C3  UNL     1      31.965 -13.285 -14.782  1.00  0.00     0.277 C 
HETATM    5  O1  UNL     1      33.086 -12.796 -15.195  1.00  0.00    -0.265 OA
HETATM    6  C10 UNL     1      30.301 -12.994 -12.857  1.00  0.00     0.127 C 
HETATM    7  C11 UNL     1      30.571 -13.404 -11.429  1.00  0.00     0.027 C 
HETATM    8  C12 UNL     1      31.767 -12.830 -10.817  1.00  0.00     0.021 C 
ENDROOT
BRANCH   4   9
HETATM    9  C4  UNL     1      31.378 -14.328 -15.584  1.00  0.00     0.142 C 
HETATM   10  C5  UNL     1      30.158 -14.071 -16.061  1.00  0.00     0.043 C 
HETATM   11  C6  UNL     1      29.293 -14.876 -16.884  1.00  0.00     0.003 C 
HETATM   12  C7  UNL     1      29.406 -16.157 -17.176  1.00  0.00     0.002 C 
HETATM   13  C8  UNL     1      30.426 -17.086 -16.749  1.00  0.00     0.025 C 
HETATM   14  C9  UNL     1      31.582 -16.751 -16.154  1.00  0.00     0.142 C 
HETATM   15  O2  UNL     1      32.056 -15.487 -15.821  1.00  0.00    -0.317 OA
ENDBRANCH   4   9
BRANCH   1  16
HETATM   16  N1  UNL     1      33.541 -11.266 -11.014  1.00  0.00    -0.073 N 
ATOM     17  H13 UNL     1      33.585 -11.437 -10.010  1.00  0.00     0.274 HD
ATOM     18  H12 UNL     1      34.544 -11.287 -11.197  1.00  0.00     0.274 HD
ATOM     19  H11 UNL     1      33.113 -10.369 -11.247  1.00  0.00     0.274 HD
ENDBRANCH   1  16
BRANCH   8  20
HETATM   20  C13 UNL     1      32.378 -13.760  -9.807  1.00  0.00     0.033 C 
BRANCH  20  21
HETATM   21  C14 UNL     1      32.240 -13.385  -8.381  1.00  0.00     0.164 C 
BRANCH  21  22
HETATM   22  O3  UNL     1      32.465 -12.062  -8.061  1.00  0.00    -0.401 OA
ATOM     23  H3  UNL     1      31.806 -11.631  -7.530  1.00  0.00     0.209 HD
ENDBRANCH  21  22
ENDBRANCH  20  21
ENDBRANCH   8  20
TORSDOF 5
ENDMDL
MODEL 2
REMARK VINA RESULT: -5.238218031      4.409      6.632
REMARK  5 active torsions:
REMARK  status: ('A' for Active; 'I' for Inactive)
REMARK    1  A    between atoms: N1_1  and  C1_5 
REMARK       I    between atoms: N2_7  and  C3_8 
REMARK    2  A    between atoms: C3_8  and  C4_10 
REMARK    3  A    between atoms: C12_19  and  C13_20 
REMARK    4  A    between atoms: C13_20  and  C14_21 
REMARK    5  A    between atoms: C14_21  and  O3_22 
ROOT
HETATM    1  C1  UNL     1      37.051  -8.829 -11.299  1.00  0.00     0.205 C 
HETATM    2  C2  UNL     1      36.706  -9.930 -12.260  1.00  0.00     0.159 C 
HETATM    3  N2  UNL     1      35.304 -10.287 -11.931  1.00  0.00    -0.344 N 
HETATM    4  C3  UNL     1      35.088 -11.538 -11.347  1.00  0.00     0.277 C 
HETATM    5  O1  UNL     1      36.155 -12.241 -11.166  1.00  0.00    -0.265 OA
HETATM    6  C10 UNL     1      34.388  -9.258 -12.280  1.00  0.00     0.127 C 
HETATM    7  C11 UNL     1      34.688  -7.937 -11.613  1.00  0.00     0.027 C 
HETATM    8  C12 UNL     1      36.096  -7.671 -11.330  1.00  0.00     0.021 C 
ENDROOT
BRANCH   4   9
HETATM    9  C4  UNL     1      33.843 -12.130 -10.928  1.00  0.00     0.142 C 
HETATM   10  C5  UNL     1      33.834 -12.642  -9.695  1.00  0.00     0.043 C 
HETATM   11  C6  UNL     1      32.778 -13.298  -8.968  1.00  0.00     0.003 C 
HETATM   12  C7  UNL     1      31.631 -13.755  -9.433  1.00  0.00     0.002 C 
HETATM   13  C8  UNL     1      31.135 -13.716 -10.788  1.00  0.00     0.025 C 
HETATM   14  C9  UNL     1      31.664 -12.994 -11.789  1.00  0.00     0.142 C 
HETATM   15  O2  UNL     1      32.766 -12.147 -11.764  1.00  0.00    -0.317 OA
ENDBRANCH   4   9
BRANCH   1  16
HETATM   16  N1  UNL     1      38.346  -8.365 -11.630  1.00  0.00    -0.073 N 
ATOM     17  H13 UNL     1      38.492  -8.280 -12.636  1.00  0.00     0.274 HD
ATOM     18  H12 UNL     1      38.490  -7.384 -11.391  1.00  0.00     0.274 HD
ATOM     19  H11 UNL     1      39.019  -8.987 -11.182  1.00  0.00     0.274 HD
ENDBRANCH   1  16
BRANCH   8  20
HETATM   20  C13 UNL     1      36.267  -6.827 -10.099  1.00  0.00     0.033 C 
BRANCH  20  21
HETATM   21  C14 UNL     1      35.662  -5.476 -10.123  1.00  0.00     0.164 C 
BRANCH  21  22
HETATM   22  O3  UNL     1      35.926  -4.656  -9.044  1.00  0.00    -0.401 OA
ATOM     23  H3  UNL     1      35.236  -4.059  -8.782  1.00  0.00     0.209 HD
ENDBRANCH  21  22
ENDBRANCH  20  21
ENDBRANCH   8  20
TORSDOF 5
ENDMDL
MODEL 3
REMARK VINA RESULT: -5.174145886      0.735      1.378
REMARK  5 active torsions:
REMARK  status: ('A' for Active; 'I' for Inactive)
REMARK    1  A    between atoms: N1_1  and  C1_5 
REMARK       I    between atoms: N2_7  and  C3_8 
REMARK    2  A    between atoms: C3_8  and  C4_10 
REMARK    3  A    between atoms: C12_19  and  C13_20 
REMARK    4  A    between atoms: C13_20  and  C14_21 
REMARK    5  A    between atoms: C14_21  and  O3_22 
ROOT
HETATM    1  C1  UNL     1      32.692 -12.402 -11.829  1.00  0.00     0.205 C 
HETATM    2  C2  UNL     1      32.157 -11.777 -13.086  1.00  0.00     0.159 C 
HETATM    3  N2  UNL     1      31.258 -12.807 -13.662  1.00  0.00    -0.344 N 
HETATM    4  C3  UNL     1      31.671 -13.416 -14.850  1.00  0.00     0.277 C 
HETATM    5  O1  UNL     1      32.803 -12.995 -15.308  1.00  0.00    -0.265 OA
HETATM    6  C10 UNL     1      30.089 -13.004 -12.879  1.00  0.00     0.127 C 
HETATM    7  C11 UNL     1      30.384 -13.406 -11.453  1.00  0.00     0.027 C 
HETATM    8  C12 UNL     1      31.628 -12.889 -10.890  1.00  0.00     0.021 C 
ENDROOT
BRANCH   4   9
HETATM    9  C4  UNL     1      31.003 -14.438 -15.615  1.00  0.00     0.142 C 
HETATM   10  C5  UNL     1      31.651 -15.601 -15.714  1.00  0.00     0.043 C 
HETATM   11  C6  UNL     1      31.280 -16.817 -16.390  1.00  0.00     0.003 C 
HETATM   12  C7  UNL     1      30.314 -16.998 -17.270  1.00  0.00     0.002 C 
HETATM   13  C8  UNL     1      29.375 -16.028 -17.781  1.00  0.00     0.025 C 
HETATM   14  C9  UNL     1      29.173 -14.801 -17.274  1.00  0.00     0.142 C 
HETATM   15  O2  UNL     1      29.788 -14.195 -16.184  1.00  0.00    -0.317 OA
ENDBRANCH   4   9
BRANCH   1  16
HETATM   16  N1  UNL     1      33.477 -11.427 -11.170  1.00  0.00    -0.073 N 
ATOM     17  H13 UNL     1      34.474 -11.638 -11.192  1.00  0.00     0.274 HD
ATOM     18  H12 UNL     1      33.517 -10.541 -11.674  1.00  0.00     0.274 HD
ATOM     19  H11 UNL     1      33.112 -11.329 -10.222  1.00  0.00     0.274 HD
ENDBRANCH   1  16
BRANCH   8  20
HETATM   20  C13 UNL     1      32.220 -13.835  -9.884  1.00  0.00     0.033 C 
BRANCH  20  21
HETATM   21  C14 UNL     1      32.213 -13.399  -8.468  1.00  0.00     0.164 C 
BRANCH  21  22
HETATM   22  O3  UNL     1      32.488 -12.069  -8.226  1.00  0.00    -0.401 OA
ATOM     23  H3  UNL     1      31.745 -11.480  -8.176  1.00  0.00     0.209 HD
ENDBRANCH  21  22
ENDBRANCH  20  21
ENDBRANCH   8  20
TORSDOF 5
ENDMDL
MODEL 4
REMARK VINA RESULT: -5.138529512      3.463      6.373
REMARK  5 active torsions:
REMARK  status: ('A' for Active; 'I' for Inactive)
REMARK    1  A    between atoms: N1_1  and  C1_5 
REMARK       I    between atoms: N2_7  and  C3_8 
REMARK    2  A    between atoms: C3_8  and  C4_10 
REMARK    3  A    between atoms: C12_19  and  C13_20 
REMARK    4  A    between atoms: C13_20  and  C14_21 
REMARK    5  A    between atoms: C14_21  and  O3_22 
ROOT
HETATM    1  C1  UNL     1      31.785 -13.237 -11.537  1.00  0.00     0.205 C 
HETATM    2  C2  UNL     1      32.551 -12.890 -12.782  1.00  0.00     0.159 C 
HETATM    3  N2  UNL     1      33.499 -11.832 -12.354  1.00  0.00    -0.344 N 
HETATM    4  C3  UNL     1      33.277 -10.544 -12.847  1.00  0.00     0.277 C 
HETATM    5  O1  UNL     1      32.257 -10.434 -13.631  1.00  0.00    -0.265 OA
HETATM    6  C10 UNL     1      34.508 -12.329 -11.485  1.00  0.00     0.127 C 
HETATM    7  C11 UNL     1      33.957 -12.977 -10.237  1.00  0.00     0.027 C 
HETATM    8  C12 UNL     1      32.653 -13.619 -10.374  1.00  0.00     0.021 C 
ENDROOT
BRANCH   4   9
HETATM    9  C4  UNL     1      34.032  -9.343 -12.594  1.00  0.00     0.142 C 
HETATM   10  C5  UNL     1      34.621  -8.797 -13.661  1.00  0.00     0.043 C 
HETATM   11  C6  UNL     1      35.437  -7.615 -13.770  1.00  0.00     0.003 C 
HETATM   12  C7  UNL     1      35.988  -6.914 -12.798  1.00  0.00     0.002 C 
HETATM   13  C8  UNL     1      35.917  -7.147 -11.375  1.00  0.00     0.025 C 
HETATM   14  C9  UNL     1      35.076  -7.999 -10.768  1.00  0.00     0.142 C 
HETATM   15  O2  UNL     1      34.114  -8.827 -11.336  1.00  0.00    -0.317 OA
ENDBRANCH   4   9
BRANCH   1  16
HETATM   16  N1  UNL     1      30.932 -14.321 -11.851  1.00  0.00    -0.073 N 
ATOM     17  H13 UNL     1      30.180 -14.064 -12.489  1.00  0.00     0.274 HD
ATOM     18  H12 UNL     1      31.379 -15.019 -12.446  1.00  0.00     0.274 HD
ATOM     19  H11 UNL     1      30.592 -14.709 -10.970  1.00  0.00     0.274 HD
ENDBRANCH   1  16
BRANCH   8  20
HETATM   20  C13 UNL     1      31.863 -13.557  -9.097  1.00  0.00     0.033 C 
BRANCH  20  21
HETATM   21  C14 UNL     1      32.527 -12.937  -7.927  1.00  0.00     0.164 C 
BRANCH  21  22
HETATM   22  O3  UNL     1      32.234 -11.613  -7.676  1.00  0.00    -0.401 OA
ATOM     23  H3  UNL     1      32.297 -11.324  -6.774  1.00  0.00     0.209 HD
ENDBRANCH  21  22
ENDBRANCH  20  21
ENDBRANCH   8  20
TORSDOF 5
ENDMDL
MODEL 5
REMARK VINA RESULT: -5.138319389      3.312      6.103
REMARK  5 active torsions:
REMARK  status: ('A' for Active; 'I' for Inactive)
REMARK    1  A    between atoms: N1_1  and  C1_5 
REMARK       I    between atoms: N2_7  and  C3_8 
REMARK    2  A    between atoms: C3_8  and  C4_10 
REMARK    3  A    between atoms: C12_19  and  C13_20 
REMARK    4  A    between atoms: C13_20  and  C14_21 
REMARK    5  A    between atoms: C14_21  and  O3_22 
ROOT
HETATM    1  C1  UNL     1      30.915 -12.900 -11.671  1.00  0.00     0.205 C 
HETATM    2  C2  UNL     1      31.453 -12.581 -13.037  1.00  0.00     0.159 C 
HETATM    3  N2  UNL     1      32.738 -11.886 -12.779  1.00  0.00    -0.344 N 
HETATM    4  C3  UNL     1      32.798 -10.525 -13.090  1.00  0.00     0.277 C 
HETATM    5  O1  UNL     1      31.707 -10.034 -13.575  1.00  0.00    -0.265 OA
HETATM    6  C10 UNL     1      33.725 -12.756 -12.241  1.00  0.00     0.127 C 
HETATM    7  C11 UNL     1      33.301 -13.419 -10.952  1.00  0.00     0.027 C 
HETATM    8  C12 UNL     1      31.869 -13.668 -10.804  1.00  0.00     0.021 C 
ENDROOT
BRANCH   4   9
HETATM    9  C4  UNL     1      33.906  -9.617 -12.939  1.00  0.00     0.142 C 
HETATM   10  C5  UNL     1      34.214  -9.287 -11.683  1.00  0.00     0.043 C 
HETATM   11  C6  UNL     1      35.246  -8.420 -11.176  1.00  0.00     0.003 C 
HETATM   12  C7  UNL     1      35.990  -7.561 -11.845  1.00  0.00     0.002 C 
HETATM   13  C8  UNL     1      35.967  -7.268 -13.259  1.00  0.00     0.025 C 
HETATM   14  C9  UNL     1      35.330  -7.993 -14.192  1.00  0.00     0.142 C 
HETATM   15  O2  UNL     1      34.573  -9.148 -14.032  1.00  0.00    -0.317 OA
ENDBRANCH   4   9
BRANCH   1  16
HETATM   16  N1  UNL     1      29.736 -13.662 -11.846  1.00  0.00    -0.073 N 
ATOM     17  H13 UNL     1      29.041 -13.191 -12.425  1.00  0.00     0.274 HD
ATOM     18  H12 UNL     1      29.875 -14.478 -12.442  1.00  0.00     0.274 HD
ATOM     19  H11 UNL     1      29.385 -13.901 -10.918  1.00  0.00     0.274 HD
ENDBRANCH   1  16
BRANCH   8  20
HETATM   20  C13 UNL     1      31.435 -13.596  -9.368  1.00  0.00     0.033 C 
BRANCH  20  21
HETATM   21  C14 UNL     1      32.462 -13.203  -8.376  1.00  0.00     0.164 C 
BRANCH  21  22
HETATM   22  O3  UNL     1      32.334 -11.951  -7.810  1.00  0.00    -0.401 OA
ATOM     23  H3  UNL     1      31.956 -11.911  -6.940  1.00  0.00     0.209 HD
ENDBRANCH  21  22
ENDBRANCH  20  21
ENDBRANCH   8  20
TORSDOF 5
ENDMDL
