MODEL 1
REMARK VINA RESULT: -5.551787859      0.000      0.000
REMARK  5 active torsions:
REMARK  status: ('A' for Active; 'I' for Inactive)
REMARK       I    between atoms: C2_2  and  N1_4 
REMARK    1  A    between atoms: N1_4  and  C3_6 
REMARK    2  A    between atoms: C3_6  and  C4_7 
REMARK    3  A    between atoms: C6_9  and  N2_11 
REMARK       I    between atoms: N2_11  and  C8_13 
REMARK    4  A    between atoms: C8_13  and  C9_15 
REMARK    5  A    between atoms: C13_19  and  O3_20 
ROOT
HETATM    1  C4  UNL     1      36.244  -7.229 -11.084  1.00  0.00     0.141 C 
HETATM    2  C5  UNL     1      34.812  -7.674 -10.734  1.00  0.00     0.066 C 
HETATM    3  C6  UNL     1      34.814  -9.049 -11.355  1.00  0.00     0.053 C 
HETATM    4  C7  UNL     1      34.403  -8.955 -12.806  1.00  0.00     0.041 C 
HETATM    5  C14 UNL     1      36.265  -9.445 -11.216  1.00  0.00     0.198 C 
HETATM    6  O4  UNL     1      36.934  -8.387 -10.651  1.00  0.00    -0.382 OA
ENDROOT
BRANCH   3   7
HETATM    7  N2  UNL     1      33.995  -9.989 -10.675  1.00  0.00    -0.346 N 
HETATM    8  C8  UNL     1      33.900 -11.359 -11.090  1.00  0.00     0.254 C 
HETATM    9  O2  UNL     1      34.567 -11.754 -12.096  1.00  0.00    -0.268 OA
ATOM     10  H2  UNL     1      33.457  -9.680  -9.866  1.00  0.00     0.163 HD
BRANCH   8  11
HETATM   11  C9  UNL     1      33.067 -12.333 -10.407  1.00  0.00     0.061 A 
HETATM   12  C10 UNL     1      32.991 -12.465  -9.077  1.00  0.00    -0.003 A 
HETATM   13  C11 UNL     1      32.052 -13.550  -8.715  1.00  0.00     0.058 A 
HETATM   14  C12 UNL     1      31.577 -14.046 -10.019  1.00  0.00     0.014 A 
HETATM   15  C13 UNL     1      32.179 -13.327 -10.981  1.00  0.00     0.077 A 
BRANCH  15  16
HETATM   16  O3  UNL     1      31.906 -13.594 -12.314  1.00  0.00    -0.360 OA
ATOM     17  H3  UNL     1      31.189 -14.089 -12.693  1.00  0.00     0.217 HD
ENDBRANCH  15  16
ENDBRANCH   8  11
ENDBRANCH   3   7
BRANCH   1  18
HETATM   18  C3  UNL     1      36.647  -6.031 -10.300  1.00  0.00     0.154 C 
BRANCH  18  19
HETATM   19  N1  UNL     1      37.966  -6.225  -9.759  1.00  0.00    -0.359 N 
HETATM   20  C2  UNL     1      39.050  -5.362  -9.977  1.00  0.00     0.213 C 
HETATM   21  C1  UNL     1      40.374  -5.648  -9.378  1.00  0.00     0.117 C 
HETATM   22  O1  UNL     1      38.922  -4.339 -10.680  1.00  0.00    -0.274 OA
ATOM     23  H1  UNL     1      38.123  -7.047  -9.176  1.00  0.00     0.162 HD
ENDBRANCH  18  19
ENDBRANCH   1  18
TORSDOF 5
ENDMDL
MODEL 2
REMARK VINA RESULT: -5.530598112      5.484      7.323
REMARK  5 active torsions:
REMARK  status: ('A' for Active; 'I' for Inactive)
REMARK       I    between atoms: C2_2  and  N1_4 
REMARK    1  A    between atoms: N1_4  and  C3_6 
REMARK    2  A    between atoms: C3_6  and  C4_7 
REMARK    3  A    between atoms: C6_9  and  N2_11 
REMARK       I    between atoms: N2_11  and  C8_13 
REMARK    4  A    between atoms: C8_13  and  C9_15 
REMARK    5  A    between atoms: C13_19  and  O3_20 
ROOT
HETATM    1  C4  UNL     1      34.740 -14.267 -15.960  1.00  0.00     0.141 C 
HETATM    2  C5  UNL     1      34.699 -13.768 -14.504  1.00  0.00     0.066 C 
HETATM    3  C6  UNL     1      33.260 -13.320 -14.430  1.00  0.00     0.053 C 
HETATM    4  C7  UNL     1      33.146 -11.887 -14.897  1.00  0.00     0.041 C 
HETATM    5  C14 UNL     1      32.593 -14.272 -15.395  1.00  0.00     0.198 C 
HETATM    6  O4  UNL     1      33.572 -15.066 -15.940  1.00  0.00    -0.382 OA
ENDROOT
BRANCH   3   7
HETATM    7  N2  UNL     1      32.679 -13.461 -13.142  1.00  0.00    -0.346 N 
HETATM    8  C8  UNL     1      33.346 -13.022 -11.951  1.00  0.00     0.254 C 
HETATM    9  O2  UNL     1      34.494 -12.489 -12.039  1.00  0.00    -0.268 OA
ATOM     10  H2  UNL     1      31.756 -13.889 -13.062  1.00  0.00     0.163 HD
BRANCH   8  11
HETATM   11  C9  UNL     1      32.766 -13.160 -10.627  1.00  0.00     0.061 A 
HETATM   12  C10 UNL     1      33.321 -12.688  -9.503  1.00  0.00    -0.003 A 
HETATM   13  C11 UNL     1      32.471 -12.999  -8.332  1.00  0.00     0.058 A 
HETATM   14  C12 UNL     1      31.328 -13.722  -8.917  1.00  0.00     0.014 A 
HETATM   15  C13 UNL     1      31.522 -13.802 -10.243  1.00  0.00     0.077 A 
BRANCH  15  16
HETATM   16  O3  UNL     1      30.583 -14.441 -11.040  1.00  0.00    -0.360 OA
ATOM     17  H3  UNL     1      30.211 -15.311 -10.950  1.00  0.00     0.217 HD
ENDBRANCH  15  16
ENDBRANCH   8  11
ENDBRANCH   3   7
BRANCH   1  18
HETATM   18  C3  UNL     1      35.955 -15.086 -16.219  1.00  0.00     0.154 C 
BRANCH  18  19
HETATM   19  N1  UNL     1      35.895 -16.301 -15.453  1.00  0.00    -0.359 N 
HETATM   20  C2  UNL     1      36.693 -16.577 -14.333  1.00  0.00     0.213 C 
HETATM   21  C1  UNL     1      36.560 -17.860 -13.608  1.00  0.00     0.117 C 
HETATM   22  O1  UNL     1      37.532 -15.746 -13.926  1.00  0.00    -0.274 OA
ATOM     23  H1  UNL     1      35.224 -17.013 -15.744  1.00  0.00     0.162 HD
ENDBRANCH  18  19
ENDBRANCH   1  18
TORSDOF 5
ENDMDL
MODEL 3
REMARK VINA RESULT: -5.498242480      2.422      7.725
REMARK  5 active torsions:
REMARK  status: ('A' for Active; 'I' for Inactive)
REMARK       I    between atoms: C2_2  and  N1_4 
REMARK    1  A    between atoms: N1_4  and  C3_6 
REMARK    2  A    between atoms: C3_6  and  C4_7 
REMARK    3  A    between atoms: C6_9  and  N2_11 
REMARK       I    between atoms: N2_11  and  C8_13 
REMARK    4  A    between atoms: C8_13  and  C9_15 
REMARK    5  A    between atoms: C13_19  and  O3_20 
ROOT
HETATM    1  C4  UNL     1      32.875 -13.353 -11.225  1.00  0.00     0.141 C 
HETATM    2  C5  UNL     1      33.001 -12.147 -10.276  1.00  0.00     0.066 C 
HETATM    3  C6  UNL     1      34.293 -11.558 -10.785  1.00  0.00     0.053 C 
HETATM    4  C7  UNL     1      35.463 -12.204 -10.078  1.00  0.00     0.041 C 
HETATM    5  C14 UNL     1      34.250 -11.940 -12.245  1.00  0.00     0.198 C 
HETATM    6  O4  UNL     1      33.112 -12.682 -12.448  1.00  0.00    -0.382 OA
ENDROOT
BRANCH   3   7
HETATM    7  N2  UNL     1      34.370 -10.145 -10.663  1.00  0.00    -0.346 N 
HETATM    8  C8  UNL     1      35.548  -9.411 -11.024  1.00  0.00     0.254 C 
HETATM    9  O2  UNL     1      36.560 -10.034 -11.469  1.00  0.00    -0.268 OA
ATOM     10  H2  UNL     1      33.561  -9.636 -10.307  1.00  0.00     0.163 HD
BRANCH   8  11
HETATM   11  C9  UNL     1      35.643  -7.966 -10.906  1.00  0.00     0.061 A 
HETATM   12  C10 UNL     1      36.786  -7.273 -10.988  1.00  0.00    -0.003 A 
HETATM   13  C11 UNL     1      36.529  -5.825 -10.824  1.00  0.00     0.058 A 
HETATM   14  C12 UNL     1      35.069  -5.752 -10.634  1.00  0.00     0.014 A 
HETATM   15  C13 UNL     1      34.581  -7.002 -10.684  1.00  0.00     0.077 A 
BRANCH  15  16
HETATM   16  O3  UNL     1      33.219  -7.218 -10.531  1.00  0.00    -0.360 OA
ATOM     17  H3  UNL     1      32.490  -6.687 -10.830  1.00  0.00     0.217 HD
ENDBRANCH  15  16
ENDBRANCH   8  11
ENDBRANCH   3   7
BRANCH   1  18
HETATM   18  C3  UNL     1      31.507 -13.937 -11.182  1.00  0.00     0.154 C 
BRANCH  18  19
HETATM   19  N1  UNL     1      30.984 -14.050 -12.517  1.00  0.00    -0.359 N 
HETATM   20  C2  UNL     1      30.119 -13.122 -13.115  1.00  0.00     0.213 C 
HETATM   21  C1  UNL     1      29.631 -13.327 -14.497  1.00  0.00     0.117 C 
HETATM   22  O1  UNL     1      29.742 -12.108 -12.493  1.00  0.00    -0.274 OA
ATOM     23  H1  UNL     1      31.263 -14.862 -13.068  1.00  0.00     0.162 HD
ENDBRANCH  18  19
ENDBRANCH   1  18
TORSDOF 5
ENDMDL
MODEL 4
REMARK VINA RESULT: -5.395673334      5.469      8.475
REMARK  5 active torsions:
REMARK  status: ('A' for Active; 'I' for Inactive)
REMARK       I    between atoms: C2_2  and  N1_4 
REMARK    1  A    between atoms: N1_4  and  C3_6 
REMARK    2  A    between atoms: C3_6  and  C4_7 
REMARK    3  A    between atoms: C6_9  and  N2_11 
REMARK       I    between atoms: N2_11  and  C8_13 
REMARK    4  A    between atoms: C8_13  and  C9_15 
REMARK    5  A    between atoms: C13_19  and  O3_20 
ROOT
HETATM    1  C4  UNL     1      32.273 -13.299 -16.811  1.00  0.00     0.141 C 
HETATM    2  C5  UNL     1      32.253 -14.258 -15.607  1.00  0.00     0.066 C 
HETATM    3  C6  UNL     1      32.979 -13.408 -14.593  1.00  0.00     0.053 C 
HETATM    4  C7  UNL     1      34.469 -13.629 -14.713  1.00  0.00     0.041 C 
HETATM    5  C14 UNL     1      32.590 -12.014 -15.028  1.00  0.00     0.198 C 
HETATM    6  O4  UNL     1      31.814 -12.131 -16.155  1.00  0.00    -0.382 OA
ENDROOT
BRANCH   3   7
HETATM    7  N2  UNL     1      32.560 -13.624 -13.254  1.00  0.00    -0.346 N 
HETATM    8  C8  UNL     1      33.061 -12.842 -12.161  1.00  0.00     0.254 C 
HETATM    9  O2  UNL     1      33.906 -11.922 -12.388  1.00  0.00    -0.268 OA
ATOM     10  H2  UNL     1      31.880 -14.360 -13.062  1.00  0.00     0.163 HD
BRANCH   8  11
HETATM   11  C9  UNL     1      32.643 -13.050 -10.786  1.00  0.00     0.061 A 
HETATM   12  C10 UNL     1      33.281 -12.555  -9.718  1.00  0.00    -0.003 A 
HETATM   13  C11 UNL     1      32.593 -12.956  -8.470  1.00  0.00     0.058 A 
HETATM   14  C12 UNL     1      31.453 -13.760  -8.946  1.00  0.00     0.014 A 
HETATM   15  C13 UNL     1      31.505 -13.800 -10.287  1.00  0.00     0.077 A 
BRANCH  15  16
HETATM   16  O3  UNL     1      30.538 -14.500 -10.994  1.00  0.00    -0.360 OA
ATOM     17  H3  UNL     1      29.795 -14.994 -10.668  1.00  0.00     0.217 HD
ENDBRANCH  15  16
ENDBRANCH   8  11
ENDBRANCH   3   7
BRANCH   1  18
HETATM   18  C3  UNL     1      31.323 -13.736 -17.869  1.00  0.00     0.154 C 
BRANCH  18  19
HETATM   19  N1  UNL     1      30.006 -13.238 -17.576  1.00  0.00    -0.359 N 
HETATM   20  C2  UNL     1      28.948 -14.022 -17.091  1.00  0.00     0.213 C 
HETATM   21  C1  UNL     1      27.624 -13.420 -16.820  1.00  0.00     0.117 C 
HETATM   22  O1  UNL     1      29.103 -15.243 -16.879  1.00  0.00    -0.274 OA
ATOM     23  H1  UNL     1      29.828 -12.246 -17.732  1.00  0.00     0.162 HD
ENDBRANCH  18  19
ENDBRANCH   1  18
TORSDOF 5
ENDMDL
MODEL 5
REMARK VINA RESULT: -5.337819652      3.587      4.678
REMARK  5 active torsions:
REMARK  status: ('A' for Active; 'I' for Inactive)
REMARK       I    between atoms: C2_2  and  N1_4 
REMARK    1  A    between atoms: N1_4  and  C3_6 
REMARK    2  A    between atoms: C3_6  and  C4_7 
REMARK    3  A    between atoms: C6_9  and  N2_11 
REMARK       I    between atoms: N2_11  and  C8_13 
REMARK    4  A    between atoms: C8_13  and  C9_15 
REMARK    5  A    between atoms: C13_19  and  O3_20 
ROOT
HETATM    1  C4  UNL     1      36.664 -12.581 -14.851  1.00  0.00     0.141 C 
HETATM    2  C5  UNL     1      35.321 -12.193 -14.206  1.00  0.00     0.066 C 
HETATM    3  C6  UNL     1      34.683 -13.556 -14.108  1.00  0.00     0.053 C 
HETATM    4  C7  UNL     1      33.948 -13.870 -15.390  1.00  0.00     0.041 C 
HETATM    5  C14 UNL     1      35.890 -14.447 -13.931  1.00  0.00     0.198 C 
HETATM    6  O4  UNL     1      37.008 -13.651 -13.991  1.00  0.00    -0.382 OA
ENDROOT
BRANCH   3   7
HETATM    7  N2  UNL     1      33.812 -13.707 -12.996  1.00  0.00    -0.346 N 
HETATM    8  C8  UNL     1      34.066 -13.073 -11.735  1.00  0.00     0.254 C 
HETATM    9  O2  UNL     1      35.101 -12.351 -11.597  1.00  0.00    -0.268 OA
ATOM     10  H2  UNL     1      32.978 -14.285 -13.098  1.00  0.00     0.163 HD
BRANCH   8  11
HETATM   11  C9  UNL     1      33.186 -13.217 -10.589  1.00  0.00     0.061 A 
HETATM   12  C10 UNL     1      33.479 -12.796  -9.352  1.00  0.00    -0.003 A 
HETATM   13  C11 UNL     1      32.366 -13.099  -8.423  1.00  0.00     0.058 A 
HETATM   14  C12 UNL     1      31.368 -13.759  -9.283  1.00  0.00     0.014 A 
HETATM   15  C13 UNL     1      31.866 -13.816 -10.529  1.00  0.00     0.077 A 
BRANCH  15  16
HETATM   16  O3  UNL     1      31.120 -14.397 -11.544  1.00  0.00    -0.360 OA
ATOM     17  H3  UNL     1      30.228 -14.726 -11.522  1.00  0.00     0.217 HD
ENDBRANCH  15  16
ENDBRANCH   8  11
ENDBRANCH   3   7
BRANCH   1  18
HETATM   18  C3  UNL     1      37.651 -11.471 -14.759  1.00  0.00     0.154 C 
BRANCH  18  19
HETATM   19  N1  UNL     1      37.425 -10.717 -13.555  1.00  0.00    -0.359 N 
HETATM   20  C2  UNL     1      38.246 -10.768 -12.419  1.00  0.00     0.213 C 
HETATM   21  C1  UNL     1      37.931  -9.955 -11.223  1.00  0.00     0.117 C 
HETATM   22  O1  UNL     1      39.258 -11.499 -12.393  1.00  0.00    -0.274 OA
ATOM     23  H1  UNL     1      36.611 -10.104 -13.525  1.00  0.00     0.162 HD
ENDBRANCH  18  19
ENDBRANCH   1  18
TORSDOF 5
ENDMDL
