MODEL 1
REMARK VINA RESULT: -5.245500359      0.000      0.000
REMARK  11 active torsions:
REMARK  status: ('A' for Active; 'I' for Inactive)
REMARK    1  A    between atoms: C2_2  and  O1_3 
REMARK    2  A    between atoms: O1_3  and  C3_4 
REMARK    3  A    between atoms: C3_4  and  C4_5 
REMARK    4  A    between atoms: C4_5  and  C5_6 
REMARK    5  A    between atoms: C5_6  and  C6_7 
REMARK    6  A    between atoms: C6_7  and  C7_8 
REMARK    7  A    between atoms: C7_8  and  N1_9 
REMARK    8  A    between atoms: N1_9  and  C8_11 
REMARK    9  A    between atoms: C8_11  and  O2_12 
REMARK   10  A    between atoms: C8_11  and  C9_14 
REMARK   11  A    between atoms: C10_17  and  O3_18 
ROOT
HETATM    1  C8  UNL     1      30.155 -13.583 -12.533  1.00  0.00     0.164 C 
ENDROOT
BRANCH   1   2
HETATM    2  N1  UNL     1      30.377 -13.732 -13.899  1.00  0.00    -0.369 N 
ATOM      3  H1  UNL     1      31.049 -14.414 -14.250  1.00  0.00     0.161 HD
BRANCH   2   4
HETATM    4  C7  UNL     1      29.614 -12.875 -14.825  1.00  0.00     0.121 C 
BRANCH   4   5
HETATM    5  C6  UNL     1      30.491 -11.794 -15.426  1.00  0.00     0.020 C 
BRANCH   5   6
HETATM    6  C5  UNL     1      29.895 -10.453 -15.110  1.00  0.00     0.004 C 
BRANCH   6   7
HETATM    7  C4  UNL     1      30.313  -9.955 -13.714  1.00  0.00     0.026 C 
BRANCH   7   8
HETATM    8  C3  UNL     1      30.074  -8.499 -13.556  1.00  0.00     0.167 C 
BRANCH   8   9
HETATM    9  O1  UNL     1      29.254  -8.133 -12.569  1.00  0.00    -0.391 OA
BRANCH   9  10
HETATM   10  C2  UNL     1      29.030  -6.871 -12.187  1.00  0.00     0.163 C 
HETATM   11  C1  UNL     1      27.695  -6.489 -11.661  1.00  0.00     0.033 C 
ENDBRANCH   9  10
ENDBRANCH   8   9
ENDBRANCH   7   8
ENDBRANCH   6   7
ENDBRANCH   5   6
ENDBRANCH   4   5
ENDBRANCH   2   4
ENDBRANCH   1   2
BRANCH   1  12
HETATM   12  O2  UNL     1      28.910 -13.548 -12.145  1.00  0.00    -0.345 OA
ATOM     13  H2  UNL     1      28.662 -12.828 -11.576  1.00  0.00     0.219 HD
ENDBRANCH   1  12
BRANCH   1  14
HETATM   14  C9  UNL     1      31.161 -13.460 -11.502  1.00  0.00     0.091 A 
HETATM   15  N2  UNL     1      30.964 -13.920 -10.212  1.00  0.00    -0.333 N 
HETATM   16  C10 UNL     1      32.056 -13.683  -9.507  1.00  0.00     0.147 A 
ATOM     17  H2  UNL     1      30.117 -14.368  -9.862  1.00  0.00     0.168 HD
HETATM   18  C11 UNL     1      32.976 -13.068 -10.319  1.00  0.00    -0.003 A 
HETATM   19  C12 UNL     1      34.338 -12.618  -9.961  1.00  0.00     0.053 C 
HETATM   20  C13 UNL     1      32.404 -12.927 -11.598  1.00  0.00    -0.021 A 
HETATM   21  C14 UNL     1      33.101 -12.316 -12.754  1.00  0.00     0.051 C 
BRANCH  16  22
HETATM   22  O3  UNL     1      32.253 -14.004  -8.146  1.00  0.00    -0.346 OA
ATOM     23  H3  UNL     1      32.468 -14.861  -7.800  1.00  0.00     0.219 HD
ENDBRANCH  16  22
ENDBRANCH   1  14
TORSDOF 11
ENDMDL
MODEL 2
REMARK VINA RESULT: -5.164105142      3.049      4.803
REMARK  11 active torsions:
REMARK  status: ('A' for Active; 'I' for Inactive)
REMARK    1  A    between atoms: C2_2  and  O1_3 
REMARK    2  A    between atoms: O1_3  and  C3_4 
REMARK    3  A    between atoms: C3_4  and  C4_5 
REMARK    4  A    between atoms: C4_5  and  C5_6 
REMARK    5  A    between atoms: C5_6  and  C6_7 
REMARK    6  A    between atoms: C6_7  and  C7_8 
REMARK    7  A    between atoms: C7_8  and  N1_9 
REMARK    8  A    between atoms: N1_9  and  C8_11 
REMARK    9  A    between atoms: C8_11  and  O2_12 
REMARK   10  A    between atoms: C8_11  and  C9_14 
REMARK   11  A    between atoms: C10_17  and  O3_18 
ROOT
HETATM    1  C8  UNL     1      30.166 -13.637 -12.550  1.00  0.00     0.164 C 
ENDROOT
BRANCH   1   2
HETATM    2  N1  UNL     1      30.399 -13.862 -13.904  1.00  0.00    -0.369 N 
ATOM      3  H1  UNL     1      31.074 -14.562 -14.211  1.00  0.00     0.161 HD
BRANCH   2   4
HETATM    4  C7  UNL     1      29.642 -13.059 -14.883  1.00  0.00     0.121 C 
BRANCH   4   5
HETATM    5  C6  UNL     1      28.738 -13.933 -15.730  1.00  0.00     0.020 C 
BRANCH   5   6
HETATM    6  C5  UNL     1      29.552 -14.556 -16.827  1.00  0.00     0.004 C 
BRANCH   6   7
HETATM    7  C4  UNL     1      29.595 -16.090 -16.707  1.00  0.00     0.026 C 
BRANCH   7   8
HETATM    8  C3  UNL     1      30.983 -16.589 -16.541  1.00  0.00     0.167 C 
BRANCH   8   9
HETATM    9  O1  UNL     1      31.765 -15.909 -15.700  1.00  0.00    -0.391 OA
BRANCH   9  10
HETATM   10  C2  UNL     1      32.991 -15.459 -15.987  1.00  0.00     0.163 C 
HETATM   11  C1  UNL     1      33.203 -14.009 -16.225  1.00  0.00     0.033 C 
ENDBRANCH   9  10
ENDBRANCH   8   9
ENDBRANCH   7   8
ENDBRANCH   6   7
ENDBRANCH   5   6
ENDBRANCH   4   5
ENDBRANCH   2   4
ENDBRANCH   1   2
BRANCH   1  12
HETATM   12  O2  UNL     1      28.918 -13.545 -12.181  1.00  0.00    -0.345 OA
ATOM     13  H2  UNL     1      28.752 -13.534 -11.245  1.00  0.00     0.219 HD
ENDBRANCH   1  12
BRANCH   1  14
HETATM   14  C9  UNL     1      31.163 -13.493 -11.514  1.00  0.00     0.091 A 
HETATM   15  N2  UNL     1      30.958 -13.932 -10.218  1.00  0.00    -0.333 N 
HETATM   16  C10 UNL     1      32.044 -13.678  -9.509  1.00  0.00     0.147 A 
ATOM     17  H2  UNL     1      30.110 -14.377  -9.867  1.00  0.00     0.168 HD
HETATM   18  C11 UNL     1      32.968 -13.074 -10.324  1.00  0.00    -0.003 A 
HETATM   19  C12 UNL     1      34.325 -12.611  -9.963  1.00  0.00     0.053 C 
HETATM   20  C13 UNL     1      32.405 -12.956 -11.609  1.00  0.00    -0.021 A 
HETATM   21  C14 UNL     1      33.109 -12.363 -12.770  1.00  0.00     0.051 C 
BRANCH  16  22
HETATM   22  O3  UNL     1      32.231 -13.974  -8.141  1.00  0.00    -0.346 OA
ATOM     23  H3  UNL     1      32.741 -13.464  -7.523  1.00  0.00     0.219 HD
ENDBRANCH  16  22
ENDBRANCH   1  14
TORSDOF 11
ENDMDL
MODEL 3
REMARK VINA RESULT: -5.082684759      1.059      1.366
REMARK  11 active torsions:
REMARK  status: ('A' for Active; 'I' for Inactive)
REMARK    1  A    between atoms: C2_2  and  O1_3 
REMARK    2  A    between atoms: O1_3  and  C3_4 
REMARK    3  A    between atoms: C3_4  and  C4_5 
REMARK    4  A    between atoms: C4_5  and  C5_6 
REMARK    5  A    between atoms: C5_6  and  C6_7 
REMARK    6  A    between atoms: C6_7  and  C7_8 
REMARK    7  A    between atoms: C7_8  and  N1_9 
REMARK    8  A    between atoms: N1_9  and  C8_11 
REMARK    9  A    between atoms: C8_11  and  O2_12 
REMARK   10  A    between atoms: C8_11  and  C9_14 
REMARK   11  A    between atoms: C10_17  and  O3_18 
ROOT
HETATM    1  C8  UNL     1      30.055 -13.002 -12.434  1.00  0.00     0.164 C 
ENDROOT
BRANCH   1   2
HETATM    2  N1  UNL     1      30.069 -12.204 -13.574  1.00  0.00    -0.369 N 
ATOM      3  H1  UNL     1      30.011 -12.618 -14.504  1.00  0.00     0.161 HD
BRANCH   2   4
HETATM    4  C7  UNL     1      30.170 -10.743 -13.400  1.00  0.00     0.121 C 
BRANCH   4   5
HETATM    5  C6  UNL     1      29.888 -10.013 -14.698  1.00  0.00     0.020 C 
BRANCH   5   6
HETATM    6  C5  UNL     1      29.905  -8.534 -14.438  1.00  0.00     0.004 C 
BRANCH   6   7
HETATM    7  C4  UNL     1      29.435  -8.199 -13.011  1.00  0.00     0.026 C 
BRANCH   7   8
HETATM    8  C3  UNL     1      30.027  -6.929 -12.522  1.00  0.00     0.167 C 
BRANCH   8   9
HETATM    9  O1  UNL     1      29.206  -6.097 -11.879  1.00  0.00    -0.391 OA
BRANCH   9  10
HETATM   10  C2  UNL     1      27.891  -6.286 -11.721  1.00  0.00     0.163 C 
HETATM   11  C1  UNL     1      26.948  -5.183 -12.035  1.00  0.00     0.033 C 
ENDBRANCH   9  10
ENDBRANCH   8   9
ENDBRANCH   7   8
ENDBRANCH   6   7
ENDBRANCH   5   6
ENDBRANCH   4   5
ENDBRANCH   2   4
ENDBRANCH   1   2
BRANCH   1  12
HETATM   12  O2  UNL     1      28.995 -13.741 -12.251  1.00  0.00    -0.345 OA
ATOM     13  H2  UNL     1      28.970 -14.569 -12.716  1.00  0.00     0.219 HD
ENDBRANCH   1  12
BRANCH   1  14
HETATM   14  C9  UNL     1      31.092 -13.094 -11.431  1.00  0.00     0.091 A 
HETATM   15  N2  UNL     1      30.833 -13.471 -10.125  1.00  0.00    -0.333 N 
HETATM   16  C10 UNL     1      31.971 -13.477  -9.453  1.00  0.00     0.147 A 
ATOM     17  H2  UNL     1      29.916 -13.704  -9.743  1.00  0.00     0.168 HD
HETATM   18  C11 UNL     1      32.983 -13.108 -10.302  1.00  0.00    -0.003 A 
HETATM   19  C12 UNL     1      34.422 -12.976  -9.990  1.00  0.00     0.053 C 
HETATM   20  C13 UNL     1      32.421 -12.864 -11.571  1.00  0.00    -0.021 A 
HETATM   21  C14 UNL     1      33.206 -12.454 -12.759  1.00  0.00     0.051 C 
BRANCH  16  22
HETATM   22  O3  UNL     1      32.129 -13.808  -8.089  1.00  0.00    -0.346 OA
ATOM     23  H3  UNL     1      32.833 -14.324  -7.717  1.00  0.00     0.219 HD
ENDBRANCH  16  22
ENDBRANCH   1  14
TORSDOF 11
ENDMDL
MODEL 4
REMARK VINA RESULT: -5.016713644      2.577      4.807
REMARK  11 active torsions:
REMARK  status: ('A' for Active; 'I' for Inactive)
REMARK    1  A    between atoms: C2_2  and  O1_3 
REMARK    2  A    between atoms: O1_3  and  C3_4 
REMARK    3  A    between atoms: C3_4  and  C4_5 
REMARK    4  A    between atoms: C4_5  and  C5_6 
REMARK    5  A    between atoms: C5_6  and  C6_7 
REMARK    6  A    between atoms: C6_7  and  C7_8 
REMARK    7  A    between atoms: C7_8  and  N1_9 
REMARK    8  A    between atoms: N1_9  and  C8_11 
REMARK    9  A    between atoms: C8_11  and  O2_12 
REMARK   10  A    between atoms: C8_11  and  C9_14 
REMARK   11  A    between atoms: C10_17  and  O3_18 
ROOT
HETATM    1  C8  UNL     1      32.987 -12.900  -9.837  1.00  0.00     0.164 C 
ENDROOT
BRANCH   1   2
HETATM    2  N1  UNL     1      33.948 -11.899  -9.723  1.00  0.00    -0.369 N 
ATOM      3  H1  UNL     1      33.685 -10.945  -9.474  1.00  0.00     0.161 HD
BRANCH   2   4
HETATM    4  C7  UNL     1      35.357 -12.255  -9.974  1.00  0.00     0.121 C 
BRANCH   4   5
HETATM    5  C6  UNL     1      36.082 -11.147 -10.712  1.00  0.00     0.020 C 
BRANCH   5   6
HETATM    6  C5  UNL     1      35.096 -10.075 -11.072  1.00  0.00     0.004 C 
BRANCH   6   7
HETATM    7  C4  UNL     1      35.764  -8.690 -11.166  1.00  0.00     0.026 C 
BRANCH   7   8
HETATM    8  C3  UNL     1      34.912  -7.629 -10.574  1.00  0.00     0.167 C 
BRANCH   8   9
HETATM    9  O1  UNL     1      33.653  -7.562 -11.010  1.00  0.00    -0.391 OA
BRANCH   9  10
HETATM   10  C2  UNL     1      32.915  -6.448 -11.055  1.00  0.00     0.163 C 
HETATM   11  C1  UNL     1      31.657  -6.432 -11.844  1.00  0.00     0.033 C 
ENDBRANCH   9  10
ENDBRANCH   8   9
ENDBRANCH   7   8
ENDBRANCH   6   7
ENDBRANCH   5   6
ENDBRANCH   4   5
ENDBRANCH   2   4
ENDBRANCH   1   2
BRANCH   1  12
HETATM   12  O2  UNL     1      32.924 -13.761  -8.859  1.00  0.00    -0.345 OA
ATOM     13  H2  UNL     1      32.982 -13.408  -7.978  1.00  0.00     0.219 HD
ENDBRANCH   1  12
BRANCH   1  14
HETATM   14  C9  UNL     1      32.056 -13.084 -10.926  1.00  0.00     0.091 A 
HETATM   15  N2  UNL     1      30.699 -13.266 -10.723  1.00  0.00    -0.333 N 
HETATM   16  C10 UNL     1      30.108 -13.391 -11.898  1.00  0.00     0.147 A 
ATOM     17  H2  UNL     1      30.232 -13.298  -9.816  1.00  0.00     0.168 HD
HETATM   18  C11 UNL     1      31.061 -13.295 -12.880  1.00  0.00    -0.003 A 
HETATM   19  C12 UNL     1      30.863 -13.377 -14.342  1.00  0.00     0.053 C 
HETATM   20  C13 UNL     1      32.310 -13.096 -12.258  1.00  0.00    -0.021 A 
HETATM   21  C14 UNL     1      33.584 -12.933 -12.995  1.00  0.00     0.051 C 
BRANCH  16  22
HETATM   22  O3  UNL     1      28.727 -13.592 -12.116  1.00  0.00    -0.346 OA
ATOM     23  H3  UNL     1      28.342 -14.219 -12.716  1.00  0.00     0.219 HD
ENDBRANCH  16  22
ENDBRANCH   1  14
TORSDOF 11
ENDMDL
MODEL 5
REMARK VINA RESULT: -4.998919676      1.053      1.363
REMARK  11 active torsions:
REMARK  status: ('A' for Active; 'I' for Inactive)
REMARK    1  A    between atoms: C2_2  and  O1_3 
REMARK    2  A    between atoms: O1_3  and  C3_4 
REMARK    3  A    between atoms: C3_4  and  C4_5 
REMARK    4  A    between atoms: C4_5  and  C5_6 
REMARK    5  A    between atoms: C5_6  and  C6_7 
REMARK    6  A    between atoms: C6_7  and  C7_8 
REMARK    7  A    between atoms: C7_8  and  N1_9 
REMARK    8  A    between atoms: N1_9  and  C8_11 
REMARK    9  A    between atoms: C8_11  and  O2_12 
REMARK   10  A    between atoms: C8_11  and  C9_14 
REMARK   11  A    between atoms: C10_17  and  O3_18 
ROOT
HETATM    1  C8  UNL     1      30.214 -13.355 -12.515  1.00  0.00     0.164 C 
ENDROOT
BRANCH   1   2
HETATM    2  N1  UNL     1      30.436 -13.117 -13.868  1.00  0.00    -0.369 N 
ATOM      3  H1  UNL     1      30.981 -13.768 -14.433  1.00  0.00     0.161 HD
BRANCH   2   4
HETATM    4  C7  UNL     1      29.861 -11.896 -14.463  1.00  0.00     0.121 C 
BRANCH   4   5
HETATM    5  C6  UNL     1      30.301 -10.656 -13.711  1.00  0.00     0.020 C 
BRANCH   5   6
HETATM    6  C5  UNL     1      29.860  -9.441 -14.476  1.00  0.00     0.004 C 
BRANCH   6   7
HETATM    7  C4  UNL     1      30.313  -8.138 -13.792  1.00  0.00     0.026 C 
BRANCH   7   8
HETATM    8  C3  UNL     1      29.347  -7.698 -12.756  1.00  0.00     0.167 C 
BRANCH   8   9
HETATM    9  O1  UNL     1      29.751  -6.723 -11.939  1.00  0.00    -0.391 OA
BRANCH   9  10
HETATM   10  C2  UNL     1      31.007  -6.272 -11.847  1.00  0.00     0.163 C 
HETATM   11  C1  UNL     1      31.269  -4.811 -11.914  1.00  0.00     0.033 C 
ENDBRANCH   9  10
ENDBRANCH   8   9
ENDBRANCH   7   8
ENDBRANCH   6   7
ENDBRANCH   5   6
ENDBRANCH   4   5
ENDBRANCH   2   4
ENDBRANCH   1   2
BRANCH   1  12
HETATM   12  O2  UNL     1      28.988 -13.631 -12.165  1.00  0.00    -0.345 OA
ATOM     13  H2  UNL     1      28.737 -14.548 -12.182  1.00  0.00     0.219 HD
ENDBRANCH   1  12
BRANCH   1  14
HETATM   14  C9  UNL     1      31.200 -13.325 -11.459  1.00  0.00     0.091 A 
HETATM   15  N2  UNL     1      30.920 -13.734 -10.167  1.00  0.00    -0.333 N 
HETATM   16  C10 UNL     1      32.014 -13.606  -9.437  1.00  0.00     0.147 A 
ATOM     17  H2  UNL     1      30.020 -14.076  -9.833  1.00  0.00     0.168 HD
HETATM   18  C11 UNL     1      33.018 -13.115 -10.233  1.00  0.00    -0.003 A 
HETATM   19  C12 UNL     1      34.412 -12.813  -9.847  1.00  0.00     0.053 C 
HETATM   20  C13 UNL     1      32.498 -12.936 -11.530  1.00  0.00    -0.021 A 
HETATM   21  C14 UNL     1      33.289 -12.432 -12.677  1.00  0.00     0.051 C 
BRANCH  16  22
HETATM   22  O3  UNL     1      32.139 -13.919  -8.065  1.00  0.00    -0.346 OA
ATOM     23  H3  UNL     1      32.930 -13.847  -7.545  1.00  0.00     0.219 HD
ENDBRANCH  16  22
ENDBRANCH   1  14
TORSDOF 11
ENDMDL
