MODEL 1
REMARK VINA RESULT: -5.656386195      0.000      0.000
REMARK  4 active torsions:
REMARK  status: ('A' for Active; 'I' for Inactive)
REMARK    1  A    between atoms: C5_5  and  O1_6 
REMARK    2  A    between atoms: C5_5  and  C6_8 
REMARK    3  A    between atoms: C6_8  and  N1_9 
REMARK       I    between atoms: N1_9  and  C7_11 
REMARK    4  A    between atoms: C7_11  and  C8_13 
ROOT
HETATM    1  N1  UNL     1      34.547  -9.851 -10.801  1.00  0.00    -0.356 N 
ATOM      2  H1  UNL     1      35.255  -9.994 -10.082  1.00  0.00     0.162 HD
HETATM    3  C7  UNL     1      34.146 -10.927 -11.626  1.00  0.00     0.247 C 
HETATM    4  O2  UNL     1      33.274 -10.728 -12.505  1.00  0.00    -0.271 OA
ENDROOT
BRANCH   1   5
HETATM    5  C6  UNL     1      33.954  -8.561 -10.981  1.00  0.00     0.162 C 
BRANCH   5   6
HETATM    6  C5  UNL     1      35.017  -7.501 -10.891  1.00  0.00     0.098 C 
HETATM    7  C4  UNL     1      36.409  -8.114 -11.022  1.00  0.00     0.079 C 
HETATM    8  C2  UNL     1      37.164  -6.871 -11.511  1.00  0.00     0.056 C 
HETATM    9  C1  UNL     1      37.485  -5.995 -10.302  1.00  0.00     0.045 C 
HETATM   10  C3  UNL     1      38.432  -7.308 -12.166  1.00  0.00     0.045 C 
HETATM   11  O4  UNL     1      36.307  -6.176 -12.315  1.00  0.00    -0.378 OA
HETATM   12  C14 UNL     1      35.019  -6.569 -12.074  1.00  0.00     0.208 C 
BRANCH   6  13
HETATM   13  O1  UNL     1      34.928  -6.764  -9.738  1.00  0.00    -0.386 OA
ATOM     14  H1  UNL     1      34.925  -5.835  -9.940  1.00  0.00     0.210 HD
ENDBRANCH   6  13
ENDBRANCH   5   6
ENDBRANCH   1   5
BRANCH   3  15
HETATM   15  C8  UNL     1      34.744 -12.283 -11.464  1.00  0.00     0.225 C 
HETATM   16  C9  UNL     1      34.910 -12.552  -9.962  1.00  0.00     0.085 C 
HETATM   17  C10 UNL     1      33.507 -12.867  -9.595  1.00  0.00    -0.005 A 
HETATM   18  C11 UNL     1      32.581 -12.907  -8.580  1.00  0.00     0.097 A 
HETATM   19  C13 UNL     1      32.879 -13.293 -10.741  1.00  0.00     0.093 A 
HETATM   20  N2  UNL     1      31.412 -13.345  -9.080  1.00  0.00    -0.372 N 
HETATM   21  C12 UNL     1      31.569 -13.586 -10.391  1.00  0.00     0.124 A 
ATOM     22  H2  UNL     1      30.549 -13.473  -8.551  1.00  0.00     0.164 HD
HETATM   23  O3  UNL     1      33.789 -13.269 -11.810  1.00  0.00    -0.334 OA
ENDBRANCH   3  15
TORSDOF 4
ENDMDL
MODEL 2
REMARK VINA RESULT: -5.580536762      1.499      1.725
REMARK  4 active torsions:
REMARK  status: ('A' for Active; 'I' for Inactive)
REMARK    1  A    between atoms: C5_5  and  O1_6 
REMARK    2  A    between atoms: C5_5  and  C6_8 
REMARK    3  A    between atoms: C6_8  and  N1_9 
REMARK       I    between atoms: N1_9  and  C7_11 
REMARK    4  A    between atoms: C7_11  and  C8_13 
ROOT
HETATM    1  N1  UNL     1      34.182  -9.849 -11.711  1.00  0.00    -0.356 N 
ATOM      2  H1  UNL     1      34.966  -9.741 -11.067  1.00  0.00     0.162 HD
HETATM    3  C7  UNL     1      33.844 -11.129 -12.209  1.00  0.00     0.247 C 
HETATM    4  O2  UNL     1      32.878 -11.237 -13.001  1.00  0.00    -0.271 OA
ENDROOT
BRANCH   1   5
HETATM    5  C6  UNL     1      33.420  -8.707 -12.115  1.00  0.00     0.162 C 
BRANCH   5   6
HETATM    6  C5  UNL     1      33.852  -7.506 -11.320  1.00  0.00     0.098 C 
HETATM    7  C4  UNL     1      34.966  -6.749 -12.039  1.00  0.00     0.079 C 
HETATM    8  C2  UNL     1      34.758  -5.370 -11.399  1.00  0.00     0.056 C 
HETATM    9  C1  UNL     1      35.424  -5.372 -10.025  1.00  0.00     0.045 C 
HETATM   10  C3  UNL     1      35.399  -4.339 -12.267  1.00  0.00     0.045 C 
HETATM   11  O4  UNL     1      33.415  -5.216 -11.213  1.00  0.00    -0.378 OA
HETATM   12  C14 UNL     1      32.796  -6.435 -11.254  1.00  0.00     0.208 C 
BRANCH   6  13
HETATM   13  O1  UNL     1      34.242  -7.831 -10.046  1.00  0.00    -0.386 OA
ATOM     14  H1  UNL     1      33.997  -8.726  -9.845  1.00  0.00     0.210 HD
ENDBRANCH   6  13
ENDBRANCH   5   6
ENDBRANCH   1   5
BRANCH   3  15
HETATM   15  C8  UNL     1      34.619 -12.338 -11.808  1.00  0.00     0.225 C 
HETATM   16  C9  UNL     1      34.861 -12.265 -10.294  1.00  0.00     0.085 C 
HETATM   17  C10 UNL     1      33.523 -12.664  -9.794  1.00  0.00    -0.005 A 
HETATM   18  C11 UNL     1      32.638 -12.604  -8.743  1.00  0.00     0.097 A 
HETATM   19  C13 UNL     1      32.922 -13.393 -10.793  1.00  0.00     0.093 A 
HETATM   20  N2  UNL     1      31.523 -13.275  -9.078  1.00  0.00    -0.372 N 
HETATM   21  C12 UNL     1      31.672 -13.763 -10.319  1.00  0.00     0.124 A 
ATOM     22  H2  UNL     1      30.699 -13.394  -8.487  1.00  0.00     0.164 HD
HETATM   23  O3  UNL     1      33.791 -13.483 -11.893  1.00  0.00    -0.334 OA
ENDBRANCH   3  15
TORSDOF 4
ENDMDL
MODEL 3
REMARK VINA RESULT: -5.460707229      1.075      1.574
REMARK  4 active torsions:
REMARK  status: ('A' for Active; 'I' for Inactive)
REMARK    1  A    between atoms: C5_5  and  O1_6 
REMARK    2  A    between atoms: C5_5  and  C6_8 
REMARK    3  A    between atoms: C6_8  and  N1_9 
REMARK       I    between atoms: N1_9  and  C7_11 
REMARK    4  A    between atoms: C7_11  and  C8_13 
ROOT
HETATM    1  N1  UNL     1      34.878  -9.781 -10.739  1.00  0.00    -0.356 N 
ATOM      2  H1  UNL     1      35.593  -9.976 -10.039  1.00  0.00     0.162 HD
HETATM    3  C7  UNL     1      34.422 -10.811 -11.594  1.00  0.00     0.247 C 
HETATM    4  O2  UNL     1      33.543 -10.548 -12.447  1.00  0.00    -0.271 OA
ENDROOT
BRANCH   1   5
HETATM    5  C6  UNL     1      34.330  -8.465 -10.860  1.00  0.00     0.162 C 
BRANCH   5   6
HETATM    6  C5  UNL     1      35.441  -7.475 -11.078  1.00  0.00     0.098 C 
HETATM    7  C4  UNL     1      35.110  -6.530 -12.230  1.00  0.00     0.079 C 
HETATM    8  C2  UNL     1      36.007  -5.352 -11.828  1.00  0.00     0.056 C 
HETATM    9  C1  UNL     1      37.435  -5.660 -12.275  1.00  0.00     0.045 C 
HETATM   10  C3  UNL     1      35.519  -4.121 -12.516  1.00  0.00     0.045 C 
HETATM   11  O4  UNL     1      36.000  -5.294 -10.464  1.00  0.00    -0.378 OA
HETATM   12  C14 UNL     1      35.577  -6.488  -9.949  1.00  0.00     0.208 C 
BRANCH   6  13
HETATM   13  O1  UNL     1      36.652  -8.082 -11.293  1.00  0.00    -0.386 OA
ATOM     14  H1  UNL     1      37.108  -8.209 -10.469  1.00  0.00     0.210 HD
ENDBRANCH   6  13
ENDBRANCH   5   6
ENDBRANCH   1   5
BRANCH   3  15
HETATM   15  C8  UNL     1      34.973 -12.193 -11.492  1.00  0.00     0.225 C 
HETATM   16  C9  UNL     1      35.078 -12.554 -10.005  1.00  0.00     0.085 C 
HETATM   17  C10 UNL     1      33.654 -12.844  -9.704  1.00  0.00    -0.005 A 
HETATM   18  C11 UNL     1      32.691 -12.913  -8.724  1.00  0.00     0.097 A 
HETATM   19  C13 UNL     1      33.053 -13.182 -10.893  1.00  0.00     0.093 A 
HETATM   20  N2  UNL     1      31.528 -13.283  -9.288  1.00  0.00    -0.372 N 
HETATM   21  C12 UNL     1      31.723 -13.452 -10.605  1.00  0.00     0.124 A 
ATOM     22  H2  UNL     1      30.644 -13.413  -8.796  1.00  0.00     0.164 HD
HETATM   23  O3  UNL     1      34.001 -13.125 -11.928  1.00  0.00    -0.334 OA
ENDBRANCH   3  15
TORSDOF 4
ENDMDL
MODEL 4
REMARK VINA RESULT: -5.197258218      1.623      1.836
REMARK  4 active torsions:
REMARK  status: ('A' for Active; 'I' for Inactive)
REMARK    1  A    between atoms: C5_5  and  O1_6 
REMARK    2  A    between atoms: C5_5  and  C6_8 
REMARK    3  A    between atoms: C6_8  and  N1_9 
REMARK       I    between atoms: N1_9  and  C7_11 
REMARK    4  A    between atoms: C7_11  and  C8_13 
ROOT
HETATM    1  N1  UNL     1      33.642  -9.598 -12.511  1.00  0.00    -0.356 N 
ATOM      2  H1  UNL     1      34.597  -9.679 -12.163  1.00  0.00     0.162 HD
HETATM    3  C7  UNL     1      32.985 -10.727 -13.054  1.00  0.00     0.247 C 
HETATM    4  O2  UNL     1      31.812 -10.603 -13.476  1.00  0.00    -0.271 OA
ENDROOT
BRANCH   1   5
HETATM    5  C6  UNL     1      32.959  -8.342 -12.452  1.00  0.00     0.162 C 
BRANCH   5   6
HETATM    6  C5  UNL     1      33.666  -7.429 -11.487  1.00  0.00     0.098 C 
HETATM    7  C4  UNL     1      35.080  -7.117 -11.970  1.00  0.00     0.079 C 
HETATM    8  C2  UNL     1      35.290  -5.792 -11.227  1.00  0.00     0.056 C 
HETATM    9  C1  UNL     1      35.678  -6.106  -9.783  1.00  0.00     0.045 C 
HETATM   10  C3  UNL     1      36.396  -5.041 -11.892  1.00  0.00     0.045 C 
HETATM   11  O4  UNL     1      34.086  -5.151 -11.206  1.00  0.00    -0.378 OA
HETATM   12  C14 UNL     1      33.079  -6.043 -11.454  1.00  0.00     0.208 C 
BRANCH   6  13
HETATM   13  O1  UNL     1      33.698  -7.934 -10.213  1.00  0.00    -0.386 OA
ATOM     14  H1  UNL     1      34.528  -7.728  -9.798  1.00  0.00     0.210 HD
ENDBRANCH   6  13
ENDBRANCH   5   6
ENDBRANCH   1   5
BRANCH   3  15
HETATM   15  C8  UNL     1      33.670 -12.050 -13.130  1.00  0.00     0.225 C 
HETATM   16  C9  UNL     1      34.421 -12.272 -11.810  1.00  0.00     0.085 C 
HETATM   17  C10 UNL     1      33.290 -12.640 -10.923  1.00  0.00    -0.005 A 
HETATM   18  C11 UNL     1      32.835 -12.697  -9.627  1.00  0.00     0.097 A 
HETATM   19  C13 UNL     1      32.288 -13.124 -11.730  1.00  0.00     0.093 A 
HETATM   20  N2  UNL     1      31.588 -13.200  -9.628  1.00  0.00    -0.372 N 
HETATM   21  C12 UNL     1      31.234 -13.467 -10.895  1.00  0.00     0.124 A 
ATOM     22  H2  UNL     1      31.007 -13.353  -8.803  1.00  0.00     0.164 HD
HETATM   23  O3  UNL     1      32.708 -13.086 -13.070  1.00  0.00    -0.334 OA
ENDBRANCH   3  15
TORSDOF 4
ENDMDL
MODEL 5
REMARK VINA RESULT: -5.166486261      3.806      5.126
REMARK  4 active torsions:
REMARK  status: ('A' for Active; 'I' for Inactive)
REMARK    1  A    between atoms: C5_5  and  O1_6 
REMARK    2  A    between atoms: C5_5  and  C6_8 
REMARK    3  A    between atoms: C6_8  and  N1_9 
REMARK       I    between atoms: N1_9  and  C7_11 
REMARK    4  A    between atoms: C7_11  and  C8_13 
ROOT
HETATM    1  N1  UNL     1      32.127  -9.689 -13.914  1.00  0.00    -0.356 N 
ATOM      2  H1  UNL     1      31.543  -9.969 -14.702  1.00  0.00     0.162 HD
HETATM    3  C7  UNL     1      32.984 -10.629 -13.296  1.00  0.00     0.247 C 
HETATM    4  O2  UNL     1      33.691 -10.263 -12.329  1.00  0.00    -0.271 OA
ENDROOT
BRANCH   1   5
HETATM    5  C6  UNL     1      32.083  -8.344 -13.428  1.00  0.00     0.162 C 
BRANCH   5   6
HETATM    6  C5  UNL     1      30.652  -7.925 -13.231  1.00  0.00     0.098 C 
HETATM    7  C4  UNL     1      30.557  -6.750 -12.261  1.00  0.00     0.079 C 
HETATM    8  C2  UNL     1      29.211  -6.178 -12.722  1.00  0.00     0.056 C 
HETATM    9  C1  UNL     1      28.094  -7.003 -12.087  1.00  0.00     0.045 C 
HETATM   10  C3  UNL     1      29.112  -4.761 -12.265  1.00  0.00     0.045 C 
HETATM   11  O4  UNL     1      29.145  -6.356 -14.074  1.00  0.00    -0.378 OA
HETATM   12  C14 UNL     1      30.046  -7.309 -14.463  1.00  0.00     0.208 C 
BRANCH   6  13
HETATM   13  O1  UNL     1      29.856  -8.958 -12.807  1.00  0.00    -0.386 OA
ATOM     14  H1  UNL     1      29.753  -9.601 -13.498  1.00  0.00     0.210 HD
ENDBRANCH   6  13
ENDBRANCH   5   6
ENDBRANCH   1   5
BRANCH   3  15
HETATM   15  C8  UNL     1      33.052 -12.038 -13.779  1.00  0.00     0.225 C 
HETATM   16  C9  UNL     1      33.462 -12.926 -12.596  1.00  0.00     0.085 C 
HETATM   17  C10 UNL     1      32.178 -12.990 -11.857  1.00  0.00    -0.005 A 
HETATM   18  C11 UNL     1      31.578 -13.199 -10.637  1.00  0.00     0.097 A 
HETATM   19  C13 UNL     1      31.178 -12.738 -12.767  1.00  0.00     0.093 A 
HETATM   20  N2  UNL     1      30.247 -13.080 -10.784  1.00  0.00    -0.372 N 
HETATM   21  C12 UNL     1      29.980 -12.800 -12.070  1.00  0.00     0.124 A 
ATOM     22  H2  UNL     1      29.554 -13.185 -10.043  1.00  0.00     0.164 HD
HETATM   23  O3  UNL     1      31.744 -12.517 -14.033  1.00  0.00    -0.334 OA
ENDBRANCH   3  15
TORSDOF 4
ENDMDL
