MODEL 1
REMARK VINA RESULT: -5.685832012      0.000      0.000
REMARK  3 active torsions:
REMARK  status: ('A' for Active; 'I' for Inactive)
REMARK    1  A    between atoms: O1_2  and  C2_3 
REMARK    2  A    between atoms: C7_8  and  O2_9 
REMARK    3  A    between atoms: C11_15  and  C12_16 
ROOT
HETATM    1  C2  UNL     1      30.214 -12.607 -13.692  1.00  0.00     0.104 A 
HETATM    2  C3  UNL     1      31.392 -11.952 -14.056  1.00  0.00     0.052 A 
HETATM    3  C4  UNL     1      32.430 -11.793 -13.149  1.00  0.00    -0.014 A 
HETATM    4  C5  UNL     1      32.209 -12.315 -11.904  1.00  0.00    -0.006 A 
HETATM    5  C6  UNL     1      31.090 -12.964 -11.481  1.00  0.00     0.112 A 
HETATM    6  C7  UNL     1      30.082 -13.102 -12.408  1.00  0.00     0.133 A 
HETATM    7  O3  UNL     1      31.077 -13.414 -10.179  1.00  0.00    -0.348 OA
HETATM    8  C8  UNL     1      32.265 -13.718  -9.518  1.00  0.00     0.176 C 
HETATM    9  C9  UNL     1      33.528 -13.161 -10.050  1.00  0.00     0.037 C 
HETATM   10  C10 UNL     1      33.388 -12.060 -11.058  1.00  0.00     0.039 C 
HETATM   11  C11 UNL     1      34.486 -11.928 -12.059  1.00  0.00     0.092 C 
HETATM   12  C13 UNL     1      33.776 -11.198 -13.178  1.00  0.00     0.003 C 
HETATM   13  C14 UNL     1      34.166 -10.282 -13.992  1.00  0.00     0.136 C 
HETATM   14  N1  UNL     1      35.513  -9.803 -13.893  1.00  0.00    -0.086 NA
HETATM   15  N2  UNL     1      33.350  -9.709 -14.984  1.00  0.00    -0.086 NA
ENDROOT
BRANCH  11  16
HETATM   16  C12 UNL     1      34.886 -13.240 -12.617  1.00  0.00     0.241 C 
HETATM   17  O4  UNL     1      36.007 -13.436 -13.029  1.00  0.00    -0.306 OA
ENDBRANCH  11  16
BRANCH   1  18
HETATM   18  O1  UNL     1      29.179 -12.753 -14.631  1.00  0.00    -0.353 OA
HETATM   19  C1  UNL     1      29.255 -13.793 -15.569  1.00  0.00     0.210 C 
ENDBRANCH   1  18
BRANCH   6  20
HETATM   20  O2  UNL     1      28.930 -13.754 -12.018  1.00  0.00    -0.356 OA
ATOM     21  H2  UNL     1      28.882 -14.703 -12.028  1.00  0.00     0.218 HD
ENDBRANCH   6  20
TORSDOF 3
ENDMDL
MODEL 2
REMARK VINA RESULT: -5.398573105      1.878      3.978
REMARK  3 active torsions:
REMARK  status: ('A' for Active; 'I' for Inactive)
REMARK    1  A    between atoms: O1_2  and  C2_3 
REMARK    2  A    between atoms: C7_8  and  O2_9 
REMARK    3  A    between atoms: C11_15  and  C12_16 
ROOT
HETATM    1  C2  UNL     1      31.947 -13.530 -10.613  1.00  0.00     0.104 A 
HETATM    2  C3  UNL     1      33.117 -12.822 -10.891  1.00  0.00     0.052 A 
HETATM    3  C4  UNL     1      33.392 -12.372 -12.175  1.00  0.00    -0.014 A 
HETATM    4  C5  UNL     1      32.448 -12.674 -13.119  1.00  0.00    -0.006 A 
HETATM    5  C6  UNL     1      31.288 -13.357 -12.919  1.00  0.00     0.112 A 
HETATM    6  C7  UNL     1      31.051 -13.787 -11.634  1.00  0.00     0.133 A 
HETATM    7  O3  UNL     1      30.474 -13.549 -14.014  1.00  0.00    -0.348 OA
HETATM    8  C8  UNL     1      30.502 -12.661 -15.088  1.00  0.00     0.176 C 
HETATM    9  C9  UNL     1      31.682 -11.781 -15.242  1.00  0.00     0.037 C 
HETATM   10  C10 UNL     1      32.883 -12.144 -14.422  1.00  0.00     0.039 C 
HETATM   11  C11 UNL     1      33.788 -11.023 -14.034  1.00  0.00     0.092 C 
HETATM   12  C13 UNL     1      34.473 -11.608 -12.818  1.00  0.00     0.003 C 
HETATM   13  C14 UNL     1      35.679 -11.516 -12.382  1.00  0.00     0.136 C 
HETATM   14  N1  UNL     1      36.620 -10.730 -13.124  1.00  0.00    -0.086 NA
HETATM   15  N2  UNL     1      36.145 -12.143 -11.212  1.00  0.00    -0.086 NA
ENDROOT
BRANCH  11  16
HETATM   16  C12 UNL     1      33.032  -9.845 -13.550  1.00  0.00     0.241 C 
HETATM   17  O4  UNL     1      33.591  -8.810 -13.264  1.00  0.00    -0.306 OA
ENDBRANCH  11  16
BRANCH   1  18
HETATM   18  O1  UNL     1      31.694 -13.973  -9.304  1.00  0.00    -0.353 OA
HETATM   19  C1  UNL     1      32.207 -13.235  -8.227  1.00  0.00     0.210 C 
ENDBRANCH   1  18
BRANCH   6  20
HETATM   20  O2  UNL     1      29.885 -14.484 -11.390  1.00  0.00    -0.356 OA
ATOM     21  H2  UNL     1      29.382 -14.855 -12.107  1.00  0.00     0.218 HD
ENDBRANCH   6  20
TORSDOF 3
ENDMDL
MODEL 3
REMARK VINA RESULT: -5.259457198      2.809      5.013
REMARK  3 active torsions:
REMARK  status: ('A' for Active; 'I' for Inactive)
REMARK    1  A    between atoms: O1_2  and  C2_3 
REMARK    2  A    between atoms: C7_8  and  O2_9 
REMARK    3  A    between atoms: C11_15  and  C12_16 
ROOT
HETATM    1  C2  UNL     1      33.090 -12.620 -10.329  1.00  0.00     0.104 A 
HETATM    2  C3  UNL     1      32.038 -12.995 -11.166  1.00  0.00     0.052 A 
HETATM    3  C4  UNL     1      31.978 -12.551 -12.480  1.00  0.00    -0.014 A 
HETATM    4  C5  UNL     1      33.005 -11.738 -12.874  1.00  0.00    -0.006 A 
HETATM    5  C6  UNL     1      34.060 -11.334 -12.115  1.00  0.00     0.112 A 
HETATM    6  C7  UNL     1      34.085 -11.794 -10.818  1.00  0.00     0.133 A 
HETATM    7  O3  UNL     1      34.989 -10.513 -12.714  1.00  0.00    -0.348 OA
HETATM    8  C8  UNL     1      35.186 -10.545 -14.093  1.00  0.00     0.176 C 
HETATM    9  C9  UNL     1      34.125 -11.132 -14.941  1.00  0.00     0.037 C 
HETATM   10  C10 UNL     1      32.798 -11.344 -14.278  1.00  0.00     0.039 C 
HETATM   11  C11 UNL     1      31.958 -12.458 -14.809  1.00  0.00     0.092 C 
HETATM   12  C13 UNL     1      31.068 -12.746 -13.620  1.00  0.00     0.003 C 
HETATM   13  C14 UNL     1      29.829 -13.078 -13.533  1.00  0.00     0.136 C 
HETATM   14  N1  UNL     1      29.071 -13.229 -14.741  1.00  0.00    -0.086 NA
HETATM   15  N2  UNL     1      29.156 -13.306 -12.319  1.00  0.00    -0.086 NA
ENDROOT
BRANCH  11  16
HETATM   16  C12 UNL     1      32.751 -13.688 -15.033  1.00  0.00     0.241 C 
HETATM   17  O4  UNL     1      32.268 -14.662 -15.565  1.00  0.00    -0.306 OA
ENDBRANCH  11  16
BRANCH   1  18
HETATM   18  O1  UNL     1      33.125 -13.084  -9.003  1.00  0.00    -0.353 OA
HETATM   19  C1  UNL     1      31.962 -13.634  -8.445  1.00  0.00     0.210 C 
ENDBRANCH   1  18
BRANCH   6  20
HETATM   20  O2  UNL     1      35.138 -11.406 -10.015  1.00  0.00    -0.356 OA
ATOM     21  H2  UNL     1      35.838 -12.013  -9.806  1.00  0.00     0.218 HD
ENDBRANCH   6  20
TORSDOF 3
ENDMDL
MODEL 4
REMARK VINA RESULT: -5.220825860      2.203      4.730
REMARK  3 active torsions:
REMARK  status: ('A' for Active; 'I' for Inactive)
REMARK    1  A    between atoms: O1_2  and  C2_3 
REMARK    2  A    between atoms: C7_8  and  O2_9 
REMARK    3  A    between atoms: C11_15  and  C12_16 
ROOT
HETATM    1  C2  UNL     1      35.235 -11.738 -11.916  1.00  0.00     0.104 A 
HETATM    2  C3  UNL     1      34.360 -12.073 -12.950  1.00  0.00     0.052 A 
HETATM    3  C4  UNL     1      33.200 -12.793 -12.699  1.00  0.00    -0.014 A 
HETATM    4  C5  UNL     1      32.995 -13.140 -11.391  1.00  0.00    -0.006 A 
HETATM    5  C6  UNL     1      33.802 -12.848 -10.335  1.00  0.00     0.112 A 
HETATM    6  C7  UNL     1      34.942 -12.133 -10.624  1.00  0.00     0.133 A 
HETATM    7  O3  UNL     1      33.403 -13.293  -9.095  1.00  0.00    -0.348 OA
HETATM    8  C8  UNL     1      32.055 -13.503  -8.812  1.00  0.00     0.176 C 
HETATM    9  C9  UNL     1      31.116 -13.661  -9.945  1.00  0.00     0.037 C 
HETATM   10  C10 UNL     1      31.739 -13.903 -11.286  1.00  0.00     0.039 C 
HETATM   11  C11 UNL     1      30.970 -13.432 -12.475  1.00  0.00     0.092 C 
HETATM   12  C13 UNL     1      32.073 -13.294 -13.501  1.00  0.00     0.003 C 
HETATM   13  C14 UNL     1      32.107 -13.529 -14.765  1.00  0.00     0.136 C 
HETATM   14  N1  UNL     1      30.920 -14.017 -15.405  1.00  0.00    -0.086 NA
HETATM   15  N2  UNL     1      33.243 -13.341 -15.571  1.00  0.00    -0.086 NA
ENDROOT
BRANCH  11  16
HETATM   16  C12 UNL     1      30.425 -12.070 -12.274  1.00  0.00     0.241 C 
HETATM   17  O4  UNL     1      30.008 -11.414 -13.203  1.00  0.00    -0.306 OA
ENDBRANCH  11  16
BRANCH   1  18
HETATM   18  O1  UNL     1      36.402 -11.008 -12.199  1.00  0.00    -0.353 OA
HETATM   19  C1  UNL     1      36.309  -9.618 -12.368  1.00  0.00     0.210 C 
ENDBRANCH   1  18
BRANCH   6  20
HETATM   20  O2  UNL     1      35.789 -11.817  -9.580  1.00  0.00    -0.356 OA
ATOM     21  H2  UNL     1      35.632 -11.048  -9.044  1.00  0.00     0.218 HD
ENDBRANCH   6  20
TORSDOF 3
ENDMDL
MODEL 5
REMARK VINA RESULT: -4.894033849      2.387      4.551
REMARK  3 active torsions:
REMARK  status: ('A' for Active; 'I' for Inactive)
REMARK    1  A    between atoms: O1_2  and  C2_3 
REMARK    2  A    between atoms: C7_8  and  O2_9 
REMARK    3  A    between atoms: C11_15  and  C12_16 
ROOT
HETATM    1  C2  UNL     1      34.431 -12.379 -10.718  1.00  0.00     0.104 A 
HETATM    2  C3  UNL     1      34.796 -12.693 -12.028  1.00  0.00     0.052 A 
HETATM    3  C4  UNL     1      33.842 -13.061 -12.967  1.00  0.00    -0.014 A 
HETATM    4  C5  UNL     1      32.551 -13.090 -12.514  1.00  0.00    -0.006 A 
HETATM    5  C6  UNL     1      32.124 -12.796 -11.256  1.00  0.00     0.112 A 
HETATM    6  C7  UNL     1      33.098 -12.436 -10.353  1.00  0.00     0.133 A 
HETATM    7  O3  UNL     1      30.771 -12.886 -11.013  1.00  0.00    -0.348 OA
HETATM    8  C8  UNL     1      29.849 -12.717 -12.044  1.00  0.00     0.176 C 
HETATM    9  C9  UNL     1      30.318 -12.867 -13.439  1.00  0.00     0.037 C 
HETATM   10  C10 UNL     1      31.664 -13.503 -13.615  1.00  0.00     0.039 C 
HETATM   11  C11 UNL     1      32.437 -13.105 -14.827  1.00  0.00     0.092 C 
HETATM   12  C13 UNL     1      33.850 -13.429 -14.392  1.00  0.00     0.003 C 
HETATM   13  C14 UNL     1      34.859 -13.906 -15.031  1.00  0.00     0.136 C 
HETATM   14  N1  UNL     1      34.707 -14.217 -16.422  1.00  0.00    -0.086 NA
HETATM   15  N2  UNL     1      36.116 -14.149 -14.451  1.00  0.00    -0.086 NA
ENDROOT
BRANCH  11  16
HETATM   16  C12 UNL     1      32.403 -11.641 -15.046  1.00  0.00     0.241 C 
HETATM   17  O4  UNL     1      32.861 -11.142 -16.050  1.00  0.00    -0.306 OA
ENDBRANCH  11  16
BRANCH   1  18
HETATM   18  O1  UNL     1      35.418 -12.010  -9.789  1.00  0.00    -0.353 OA
HETATM   19  C1  UNL     1      36.604 -11.424 -10.254  1.00  0.00     0.210 C 
ENDBRANCH   1  18
BRANCH   6  20
HETATM   20  O2  UNL     1      32.706 -12.131  -9.066  1.00  0.00    -0.356 OA
ATOM     21  H2  UNL     1      32.492 -11.238  -8.823  1.00  0.00     0.218 HD
ENDBRANCH   6  20
TORSDOF 3
ENDMDL
