MODEL 1
REMARK VINA RESULT: -7.412249595      0.000      0.000
REMARK  11 active torsions:
REMARK  status: ('A' for Active; 'I' for Inactive)
REMARK    1  A    between atoms: C1_2  and  C2_4 
REMARK    2  A    between atoms: C3_5  and  N2_6 
REMARK    3  A    between atoms: C3_5  and  C8_15 
REMARK    4  A    between atoms: C4_8  and  C5_10 
REMARK    5  A    between atoms: C5_10  and  C6_11 
REMARK    6  A    between atoms: C6_11  and  C7_12 
REMARK    7  A    between atoms: C7_12  and  O2_13 
REMARK    8  A    between atoms: C8_15  and  O3_16 
REMARK    9  A    between atoms: C8_15  and  C9_18 
REMARK   10  A    between atoms: C9_18  and  O4_19 
REMARK   11  A    between atoms: O4_19  and  N4_20 
ROOT
HETATM    1  C2  UNL     1      18.078  -6.787  -3.275  1.00  0.00     0.098 C 
HETATM    2  C3  UNL     1      19.189  -6.666  -3.912  1.00  0.00     0.046 C 
ENDROOT
BRANCH   2   3
HETATM    3  N2  UNL     1      19.198  -7.010  -5.317  1.00  0.00    -0.349 N 
HETATM    4  C4  UNL     1      19.135  -6.143  -6.242  1.00  0.00     0.093 C 
HETATM    5  N3  UNL     1      19.050  -4.761  -5.925  1.00  0.00    -0.088 NA
ATOM      6  H2  UNL     1      19.258  -7.995  -5.577  1.00  0.00     0.166 HD
BRANCH   4   7
HETATM    7  C5  UNL     1      19.149  -6.581  -7.652  1.00  0.00     0.075 C 
BRANCH   7   8
HETATM    8  C6  UNL     1      20.166  -7.666  -7.911  1.00  0.00     0.033 C 
BRANCH   8   9
HETATM    9  C7  UNL     1      20.515  -7.629  -9.392  1.00  0.00     0.164 C 
BRANCH   9  10
HETATM   10  O2  UNL     1      21.243  -8.765  -9.759  1.00  0.00    -0.401 OA
ATOM     11  H2  UNL     1      20.915  -9.536  -9.310  1.00  0.00     0.209 HD
ENDBRANCH   9  10
ENDBRANCH   8   9
ENDBRANCH   7   8
ENDBRANCH   4   7
ENDBRANCH   2   3
BRANCH   2  12
HETATM   12  C8  UNL     1      20.455  -6.219  -3.370  1.00  0.00     0.194 C 
BRANCH  12  13
HETATM   13  O3  UNL     1      20.165  -5.514  -2.157  1.00  0.00    -0.387 OA
ATOM     14  H3  UNL     1      20.583  -4.664  -2.223  1.00  0.00     0.210 HD
ENDBRANCH  12  13
BRANCH  12  15
HETATM   15  C9  UNL     1      21.322  -7.387  -2.888  1.00  0.00     0.238 C 
BRANCH  15  16
HETATM   16  O4  UNL     1      21.789  -7.150  -1.599  1.00  0.00    -0.284 OA
BRANCH  16  17
HETATM   17  N4  UNL     1      20.989  -7.767  -0.710  1.00  0.00    -0.311 N 
ATOM     18  H42 UNL     1      19.992  -7.579  -0.604  1.00  0.00     0.184 HD
ATOM     19  H41 UNL     1      21.533  -8.440  -0.171  1.00  0.00     0.184 HD
ENDBRANCH  16  17
ENDBRANCH  15  16
ENDBRANCH  12  15
ENDBRANCH   2  12
BRANCH   1  20
HETATM   20  C1  UNL     1      17.775  -6.522  -1.889  1.00  0.00     0.256 C 
HETATM   21  N1  UNL     1      17.876  -7.539  -0.870  1.00  0.00    -0.058 NA
HETATM   22  O1  UNL     1      17.408  -5.409  -1.479  1.00  0.00    -0.272 OA
ENDBRANCH   1  20
TORSDOF 11
ENDMDL
MODEL 2
REMARK VINA RESULT: -7.376697174      3.293      6.569
REMARK  11 active torsions:
REMARK  status: ('A' for Active; 'I' for Inactive)
REMARK    1  A    between atoms: C1_2  and  C2_4 
REMARK    2  A    between atoms: C3_5  and  N2_6 
REMARK    3  A    between atoms: C3_5  and  C8_15 
REMARK    4  A    between atoms: C4_8  and  C5_10 
REMARK    5  A    between atoms: C5_10  and  C6_11 
REMARK    6  A    between atoms: C6_11  and  C7_12 
REMARK    7  A    between atoms: C7_12  and  O2_13 
REMARK    8  A    between atoms: C8_15  and  O3_16 
REMARK    9  A    between atoms: C8_15  and  C9_18 
REMARK   10  A    between atoms: C9_18  and  O4_19 
REMARK   11  A    between atoms: O4_19  and  N4_20 
ROOT
HETATM    1  C2  UNL     1      17.038  -7.340  -2.768  1.00  0.00     0.098 C 
HETATM    2  C3  UNL     1      18.076  -6.814  -2.220  1.00  0.00     0.046 C 
ENDROOT
BRANCH   2   3
HETATM    3  N2  UNL     1      18.342  -7.140  -0.835  1.00  0.00    -0.349 N 
HETATM    4  C4  UNL     1      17.730  -6.594   0.134  1.00  0.00     0.093 C 
HETATM    5  N3  UNL     1      16.731  -5.614  -0.110  1.00  0.00    -0.088 NA
ATOM      6  H2  UNL     1      19.054  -7.841  -0.628  1.00  0.00     0.166 HD
BRANCH   4   7
HETATM    7  C5  UNL     1      18.064  -6.986   1.518  1.00  0.00     0.075 C 
BRANCH   7   8
HETATM    8  C6  UNL     1      17.186  -8.101   2.032  1.00  0.00     0.033 C 
BRANCH   8   9
HETATM    9  C7  UNL     1      16.716  -7.714   3.426  1.00  0.00     0.164 C 
BRANCH   9  10
HETATM   10  O2  UNL     1      16.902  -6.345   3.650  1.00  0.00    -0.401 OA
ATOM     11  H2  UNL     1      17.124  -6.180   4.560  1.00  0.00     0.209 HD
ENDBRANCH   9  10
ENDBRANCH   8   9
ENDBRANCH   7   8
ENDBRANCH   4   7
ENDBRANCH   2   3
BRANCH   2  12
HETATM   12  C8  UNL     1      19.024  -5.914  -2.843  1.00  0.00     0.194 C 
BRANCH  12  13
HETATM   13  O3  UNL     1      19.554  -5.081  -1.805  1.00  0.00    -0.387 OA
ATOM     14  H3  UNL     1      19.890  -4.298  -2.224  1.00  0.00     0.210 HD
ENDBRANCH  12  13
BRANCH  12  15
HETATM   15  C9  UNL     1      20.265  -6.650  -3.358  1.00  0.00     0.238 C 
BRANCH  15  16
HETATM   16  O4  UNL     1      21.389  -6.289  -2.622  1.00  0.00    -0.284 OA
BRANCH  16  17
HETATM   17  N4  UNL     1      21.690  -7.271  -1.751  1.00  0.00    -0.311 N 
ATOM     18  H42 UNL     1      21.052  -8.020  -1.484  1.00  0.00     0.184 HD
ATOM     19  H41 UNL     1      22.643  -7.143  -1.411  1.00  0.00     0.184 HD
ENDBRANCH  16  17
ENDBRANCH  15  16
ENDBRANCH  12  15
ENDBRANCH   2  12
BRANCH   1  20
HETATM   20  C1  UNL     1      16.532  -7.197  -4.111  1.00  0.00     0.256 C 
HETATM   21  N1  UNL     1      16.834  -8.150  -5.154  1.00  0.00    -0.058 NA
HETATM   22  O1  UNL     1      15.807  -6.253  -4.463  1.00  0.00    -0.272 OA
ENDBRANCH   1  20
TORSDOF 11
ENDMDL
MODEL 3
REMARK VINA RESULT: -7.266144508      2.345      5.568
REMARK  11 active torsions:
REMARK  status: ('A' for Active; 'I' for Inactive)
REMARK    1  A    between atoms: C1_2  and  C2_4 
REMARK    2  A    between atoms: C3_5  and  N2_6 
REMARK    3  A    between atoms: C3_5  and  C8_15 
REMARK    4  A    between atoms: C4_8  and  C5_10 
REMARK    5  A    between atoms: C5_10  and  C6_11 
REMARK    6  A    between atoms: C6_11  and  C7_12 
REMARK    7  A    between atoms: C7_12  and  O2_13 
REMARK    8  A    between atoms: C8_15  and  O3_16 
REMARK    9  A    between atoms: C8_15  and  C9_18 
REMARK   10  A    between atoms: C9_18  and  O4_19 
REMARK   11  A    between atoms: O4_19  and  N4_20 
ROOT
HETATM    1  C2  UNL     1      18.459  -6.322  -4.860  1.00  0.00     0.098 C 
HETATM    2  C3  UNL     1      19.107  -6.739  -3.830  1.00  0.00     0.046 C 
ENDROOT
BRANCH   2   3
HETATM    3  N2  UNL     1      18.354  -7.403  -2.787  1.00  0.00    -0.349 N 
HETATM    4  C4  UNL     1      17.816  -6.781  -1.820  1.00  0.00     0.093 C 
HETATM    5  N3  UNL     1      17.935  -5.369  -1.720  1.00  0.00    -0.088 NA
ATOM      6  H2  UNL     1      18.251  -8.417  -2.831  1.00  0.00     0.166 HD
BRANCH   4   7
HETATM    7  C5  UNL     1      17.066  -7.537  -0.797  1.00  0.00     0.075 C 
BRANCH   7   8
HETATM    8  C6  UNL     1      17.951  -8.040   0.317  1.00  0.00     0.033 C 
BRANCH   8   9
HETATM    9  C7  UNL     1      17.872  -7.037   1.459  1.00  0.00     0.164 C 
BRANCH   9  10
HETATM   10  O2  UNL     1      18.861  -6.056   1.327  1.00  0.00    -0.401 OA
ATOM     11  H2  UNL     1      18.551  -5.219   1.650  1.00  0.00     0.209 HD
ENDBRANCH   9  10
ENDBRANCH   8   9
ENDBRANCH   7   8
ENDBRANCH   4   7
ENDBRANCH   2   3
BRANCH   2  12
HETATM   12  C8  UNL     1      20.529  -6.615  -3.592  1.00  0.00     0.194 C 
BRANCH  12  13
HETATM   13  O3  UNL     1      20.719  -5.439  -2.797  1.00  0.00    -0.387 OA
ATOM     14  H3  UNL     1      21.017  -5.726  -1.943  1.00  0.00     0.210 HD
ENDBRANCH  12  13
BRANCH  12  15
HETATM   15  C9  UNL     1      21.062  -7.730  -2.685  1.00  0.00     0.238 C 
BRANCH  15  16
HETATM   16  O4  UNL     1      21.830  -7.197  -1.655  1.00  0.00    -0.284 OA
BRANCH  16  17
HETATM   17  N4  UNL     1      21.242  -7.462  -0.473  1.00  0.00    -0.311 N 
ATOM     18  H42 UNL     1      21.460  -8.269   0.112  1.00  0.00     0.184 HD
ATOM     19  H41 UNL     1      20.557  -6.736  -0.263  1.00  0.00     0.184 HD
ENDBRANCH  16  17
ENDBRANCH  15  16
ENDBRANCH  12  15
ENDBRANCH   2  12
BRANCH   1  20
HETATM   20  C1  UNL     1      18.937  -5.637  -6.036  1.00  0.00     0.256 C 
HETATM   21  N1  UNL     1      19.235  -6.332  -7.266  1.00  0.00    -0.058 NA
HETATM   22  O1  UNL     1      19.126  -4.411  -6.073  1.00  0.00    -0.272 OA
ENDBRANCH   1  20
TORSDOF 11
ENDMDL
MODEL 4
REMARK VINA RESULT: -7.252116381      3.228      6.545
REMARK  11 active torsions:
REMARK  status: ('A' for Active; 'I' for Inactive)
REMARK    1  A    between atoms: C1_2  and  C2_4 
REMARK    2  A    between atoms: C3_5  and  N2_6 
REMARK    3  A    between atoms: C3_5  and  C8_15 
REMARK    4  A    between atoms: C4_8  and  C5_10 
REMARK    5  A    between atoms: C5_10  and  C6_11 
REMARK    6  A    between atoms: C6_11  and  C7_12 
REMARK    7  A    between atoms: C7_12  and  O2_13 
REMARK    8  A    between atoms: C8_15  and  O3_16 
REMARK    9  A    between atoms: C8_15  and  C9_18 
REMARK   10  A    between atoms: C9_18  and  O4_19 
REMARK   11  A    between atoms: O4_19  and  N4_20 
ROOT
HETATM    1  C2  UNL     1      17.020  -6.859  -2.740  1.00  0.00     0.098 C 
HETATM    2  C3  UNL     1      18.103  -6.341  -2.279  1.00  0.00     0.046 C 
ENDROOT
BRANCH   2   3
HETATM    3  N2  UNL     1      18.186  -6.118  -0.851  1.00  0.00    -0.349 N 
HETATM    4  C4  UNL     1      18.305  -7.061  -0.010  1.00  0.00     0.093 C 
HETATM    5  N3  UNL     1      18.363  -8.410  -0.449  1.00  0.00    -0.088 NA
ATOM      6  H2  UNL     1      18.147  -5.159  -0.505  1.00  0.00     0.166 HD
BRANCH   4   7
HETATM    7  C5  UNL     1      18.382  -6.745   1.431  1.00  0.00     0.075 C 
BRANCH   7   8
HETATM    8  C6  UNL     1      18.005  -7.920   2.302  1.00  0.00     0.033 C 
BRANCH   8   9
HETATM    9  C7  UNL     1      16.952  -7.442   3.291  1.00  0.00     0.164 C 
BRANCH   9  10
HETATM   10  O2  UNL     1      15.852  -8.306   3.300  1.00  0.00    -0.401 OA
ATOM     11  H2  UNL     1      15.570  -8.483   4.190  1.00  0.00     0.209 HD
ENDBRANCH   9  10
ENDBRANCH   8   9
ENDBRANCH   7   8
ENDBRANCH   4   7
ENDBRANCH   2   3
BRANCH   2  12
HETATM   12  C8  UNL     1      19.269  -5.946  -3.041  1.00  0.00     0.194 C 
BRANCH  12  13
HETATM   13  O3  UNL     1      19.958  -4.956  -2.269  1.00  0.00    -0.387 OA
ATOM     14  H3  UNL     1      19.307  -4.328  -1.980  1.00  0.00     0.210 HD
ENDBRANCH  12  13
BRANCH  12  15
HETATM   15  C9  UNL     1      20.299  -7.076  -3.146  1.00  0.00     0.238 C 
BRANCH  15  16
HETATM   16  O4  UNL     1      21.448  -6.758  -2.428  1.00  0.00    -0.284 OA
BRANCH  16  17
HETATM   17  N4  UNL     1      21.496  -7.500  -1.305  1.00  0.00    -0.311 N 
ATOM     18  H42 UNL     1      20.876  -8.284  -1.105  1.00  0.00     0.184 HD
ATOM     19  H41 UNL     1      22.242  -7.155  -0.701  1.00  0.00     0.184 HD
ENDBRANCH  16  17
ENDBRANCH  15  16
ENDBRANCH  12  15
ENDBRANCH   2  12
BRANCH   1  20
HETATM   20  C1  UNL     1      16.660  -7.189  -4.097  1.00  0.00     0.256 C 
HETATM   21  N1  UNL     1      15.816  -6.335  -4.900  1.00  0.00    -0.058 NA
HETATM   22  O1  UNL     1      17.047  -8.221  -4.667  1.00  0.00    -0.272 OA
ENDBRANCH   1  20
TORSDOF 11
ENDMDL
MODEL 5
REMARK VINA RESULT: -7.189115777      1.485      2.887
REMARK  11 active torsions:
REMARK  status: ('A' for Active; 'I' for Inactive)
REMARK    1  A    between atoms: C1_2  and  C2_4 
REMARK    2  A    between atoms: C3_5  and  N2_6 
REMARK    3  A    between atoms: C3_5  and  C8_15 
REMARK    4  A    between atoms: C4_8  and  C5_10 
REMARK    5  A    between atoms: C5_10  and  C6_11 
REMARK    6  A    between atoms: C6_11  and  C7_12 
REMARK    7  A    between atoms: C7_12  and  O2_13 
REMARK    8  A    between atoms: C8_15  and  O3_16 
REMARK    9  A    between atoms: C8_15  and  C9_18 
REMARK   10  A    between atoms: C9_18  and  O4_19 
REMARK   11  A    between atoms: O4_19  and  N4_20 
ROOT
HETATM    1  C2  UNL     1      19.818  -6.408  -3.631  1.00  0.00     0.098 C 
HETATM    2  C3  UNL     1      18.749  -6.495  -4.341  1.00  0.00     0.046 C 
ENDROOT
BRANCH   2   3
HETATM    3  N2  UNL     1      18.891  -6.903  -5.722  1.00  0.00    -0.349 N 
HETATM    4  C4  UNL     1      19.136  -6.087  -6.663  1.00  0.00     0.093 C 
HETATM    5  N3  UNL     1      19.284  -4.701  -6.389  1.00  0.00    -0.088 NA
ATOM      6  H2  UNL     1      18.790  -7.892  -5.950  1.00  0.00     0.166 HD
BRANCH   4   7
HETATM    7  C5  UNL     1      19.265  -6.588  -8.046  1.00  0.00     0.075 C 
BRANCH   7   8
HETATM    8  C6  UNL     1      20.235  -7.739  -8.156  1.00  0.00     0.033 C 
BRANCH   8   9
HETATM    9  C7  UNL     1      20.685  -7.827  -9.607  1.00  0.00     0.164 C 
BRANCH   9  10
HETATM   10  O2  UNL     1      21.362  -9.027  -9.845  1.00  0.00    -0.401 OA
ATOM     11  H2  UNL     1      21.617  -9.096 -10.758  1.00  0.00     0.209 HD
ENDBRANCH   9  10
ENDBRANCH   8   9
ENDBRANCH   7   8
ENDBRANCH   4   7
ENDBRANCH   2   3
BRANCH   2  12
HETATM   12  C8  UNL     1      17.396  -6.223  -3.906  1.00  0.00     0.194 C 
BRANCH  12  13
HETATM   13  O3  UNL     1      16.918  -5.122  -4.687  1.00  0.00    -0.387 OA
ATOM     14  H3  UNL     1      17.422  -5.114  -5.492  1.00  0.00     0.210 HD
ENDBRANCH  12  13
BRANCH  12  15
HETATM   15  C9  UNL     1      16.431  -7.353  -4.281  1.00  0.00     0.238 C 
BRANCH  15  16
HETATM   16  O4  UNL     1      15.687  -7.749  -3.174  1.00  0.00    -0.284 OA
BRANCH  16  17
HETATM   17  N4  UNL     1      16.108  -7.078  -2.086  1.00  0.00    -0.311 N 
ATOM     18  H42 UNL     1      16.477  -6.127  -2.101  1.00  0.00     0.184 HD
ATOM     19  H41 UNL     1      15.998  -7.666  -1.259  1.00  0.00     0.184 HD
ENDBRANCH  16  17
ENDBRANCH  15  16
ENDBRANCH  12  15
ENDBRANCH   2  12
BRANCH   1  20
HETATM   20  C1  UNL     1      19.980  -6.032  -2.248  1.00  0.00     0.256 C 
HETATM   21  N1  UNL     1      20.325  -6.990  -1.224  1.00  0.00    -0.058 NA
HETATM   22  O1  UNL     1      19.835  -4.868  -1.843  1.00  0.00    -0.272 OA
ENDBRANCH   1  20
TORSDOF 11
ENDMDL
