MODEL 1
REMARK VINA RESULT: -7.229646063      0.000      0.000
REMARK  8 active torsions:
REMARK  status: ('A' for Active; 'I' for Inactive)
REMARK    1  A    between atoms: O1_2  and  C2_3 
REMARK    2  A    between atoms: C2_3  and  C3_4 
REMARK    3  A    between atoms: C2_3  and  C9_16 
REMARK    4  A    between atoms: C3_4  and  O2_5 
REMARK    5  A    between atoms: O2_5  and  C4_6 
REMARK    6  A    between atoms: C4_6  and  C5_7 
REMARK       I    between atoms: C5_7  and  N1_9 
REMARK    7  A    between atoms: N1_9  and  C6_11 
REMARK    8  A    between atoms: C6_11  and  C7_12 
ROOT
HETATM    1  C4  UNL     1      19.972  -5.866  -2.688  1.00  0.00     0.270 C 
ENDROOT
BRANCH   1   2
HETATM    2  O2  UNL     1      20.015  -6.332  -3.957  1.00  0.00    -0.379 OA
BRANCH   2   3
HETATM    3  C3  UNL     1      19.135  -5.858  -4.870  1.00  0.00     0.209 C 
BRANCH   3   4
HETATM    4  C2  UNL     1      18.476  -6.926  -5.709  1.00  0.00     0.233 C 
BRANCH   4   5
HETATM    5  O1  UNL     1      18.454  -6.592  -7.049  1.00  0.00    -0.380 OA
HETATM    6  C1  UNL     1      19.582  -6.967  -7.731  1.00  0.00     0.202 C 
ENDBRANCH   4   5
BRANCH   4   7
HETATM    7  C9  UNL     1      17.113  -7.250  -5.272  1.00  0.00     0.262 C 
HETATM    8  N4  UNL     1      16.245  -6.199  -4.886  1.00  0.00    -0.060 NA
HETATM    9  O4  UNL     1      16.643  -8.416  -5.211  1.00  0.00    -0.274 OA
ENDBRANCH   4   7
ENDBRANCH   3   4
ENDBRANCH   2   3
ENDBRANCH   1   2
BRANCH   1  10
HETATM   10  C5  UNL     1      18.722  -6.098  -1.932  1.00  0.00     0.241 C 
HETATM   11  O3  UNL     1      17.741  -5.342  -1.884  1.00  0.00    -0.271 OA
HETATM   12  N1  UNL     1      18.636  -7.326  -1.179  1.00  0.00    -0.354 N 
ATOM     13  H1  UNL     1      19.418  -7.981  -1.188  1.00  0.00     0.162 HD
BRANCH  12  14
HETATM   14  C6  UNL     1      17.456  -7.631  -0.416  1.00  0.00     0.177 C 
BRANCH  14  15
HETATM   15  C7  UNL     1      17.766  -7.586   1.021  1.00  0.00     0.055 C 
HETATM   16  N2  UNL     1      17.358  -6.483   1.820  1.00  0.00    -0.104 NA
HETATM   17  C8  UNL     1      18.428  -8.576   1.586  1.00  0.00     0.123 C 
HETATM   18  N3  UNL     1      18.751  -8.578   2.978  1.00  0.00    -0.113 NA
ENDBRANCH  14  15
ENDBRANCH  12  14
ENDBRANCH   1  10
TORSDOF 8
ENDMDL
MODEL 2
REMARK VINA RESULT: -7.179671916      2.520      5.614
REMARK  8 active torsions:
REMARK  status: ('A' for Active; 'I' for Inactive)
REMARK    1  A    between atoms: O1_2  and  C2_3 
REMARK    2  A    between atoms: C2_3  and  C3_4 
REMARK    3  A    between atoms: C2_3  and  C9_16 
REMARK    4  A    between atoms: C3_4  and  O2_5 
REMARK    5  A    between atoms: O2_5  and  C4_6 
REMARK    6  A    between atoms: C4_6  and  C5_7 
REMARK       I    between atoms: C5_7  and  N1_9 
REMARK    7  A    between atoms: N1_9  and  C6_11 
REMARK    8  A    between atoms: C6_11  and  C7_12 
ROOT
HETATM    1  C4  UNL     1      21.113  -7.437  -2.162  1.00  0.00     0.270 C 
ENDROOT
BRANCH   1   2
HETATM    2  O2  UNL     1      20.741  -7.386  -0.862  1.00  0.00    -0.379 OA
BRANCH   2   3
HETATM    3  C3  UNL     1      19.492  -7.771  -0.511  1.00  0.00     0.209 C 
BRANCH   3   4
HETATM    4  C2  UNL     1      18.660  -6.679   0.118  1.00  0.00     0.233 C 
BRANCH   4   5
HETATM    5  O1  UNL     1      18.115  -7.074   1.324  1.00  0.00    -0.380 OA
HETATM    6  C1  UNL     1      18.458  -8.348   1.695  1.00  0.00     0.202 C 
ENDBRANCH   4   5
BRANCH   4   7
HETATM    7  C9  UNL     1      17.589  -6.187  -0.756  1.00  0.00     0.262 C 
HETATM    8  N4  UNL     1      16.369  -6.904  -0.821  1.00  0.00    -0.060 NA
HETATM    9  O4  UNL     1      17.670  -5.154  -1.470  1.00  0.00    -0.274 OA
ENDBRANCH   4   7
ENDBRANCH   3   4
ENDBRANCH   2   3
ENDBRANCH   1   2
BRANCH   1  10
HETATM   10  C5  UNL     1      20.510  -6.438  -3.071  1.00  0.00     0.241 C 
HETATM   11  O3  UNL     1      20.694  -5.212  -3.042  1.00  0.00    -0.271 OA
HETATM   12  N1  UNL     1      19.620  -6.941  -4.089  1.00  0.00    -0.354 N 
ATOM     13  H1  UNL     1      19.438  -7.942  -4.153  1.00  0.00     0.162 HD
BRANCH  12  14
HETATM   14  C6  UNL     1      18.990  -6.039  -5.015  1.00  0.00     0.177 C 
BRANCH  14  15
HETATM   15  C7  UNL     1      17.557  -5.928  -4.706  1.00  0.00     0.055 C 
HETATM   16  N2  UNL     1      16.903  -4.664  -4.721  1.00  0.00    -0.104 NA
HETATM   17  C8  UNL     1      16.858  -7.005  -4.412  1.00  0.00     0.123 C 
HETATM   18  N3  UNL     1      15.463  -6.948  -4.106  1.00  0.00    -0.113 NA
ENDBRANCH  14  15
ENDBRANCH  12  14
ENDBRANCH   1  10
TORSDOF 8
ENDMDL
MODEL 3
REMARK VINA RESULT: -7.152307009      2.741      6.349
REMARK  8 active torsions:
REMARK  status: ('A' for Active; 'I' for Inactive)
REMARK    1  A    between atoms: O1_2  and  C2_3 
REMARK    2  A    between atoms: C2_3  and  C3_4 
REMARK    3  A    between atoms: C2_3  and  C9_16 
REMARK    4  A    between atoms: C3_4  and  O2_5 
REMARK    5  A    between atoms: O2_5  and  C4_6 
REMARK    6  A    between atoms: C4_6  and  C5_7 
REMARK       I    between atoms: C5_7  and  N1_9 
REMARK    7  A    between atoms: N1_9  and  C6_11 
REMARK    8  A    between atoms: C6_11  and  C7_12 
ROOT
HETATM    1  C4  UNL     1      20.939  -7.384  -2.182  1.00  0.00     0.270 C 
ENDROOT
BRANCH   1   2
HETATM    2  O2  UNL     1      20.606  -7.412  -0.871  1.00  0.00    -0.379 OA
BRANCH   2   3
HETATM    3  C3  UNL     1      19.337  -7.720  -0.513  1.00  0.00     0.209 C 
BRANCH   3   4
HETATM    4  C2  UNL     1      18.598  -6.600   0.177  1.00  0.00     0.233 C 
BRANCH   4   5
HETATM    5  O1  UNL     1      18.415  -6.852   1.523  1.00  0.00    -0.380 OA
HETATM    6  C1  UNL     1      18.051  -8.144   1.799  1.00  0.00     0.202 C 
ENDBRANCH   4   5
BRANCH   4   7
HETATM    7  C9  UNL     1      17.300  -6.295  -0.435  1.00  0.00     0.262 C 
HETATM    8  N4  UNL     1      16.943  -6.935  -1.647  1.00  0.00    -0.060 NA
HETATM    9  O4  UNL     1      16.459  -5.489   0.043  1.00  0.00    -0.274 OA
ENDBRANCH   4   7
ENDBRANCH   3   4
ENDBRANCH   2   3
ENDBRANCH   1   2
BRANCH   1  10
HETATM   10  C5  UNL     1      20.260  -6.373  -3.023  1.00  0.00     0.241 C 
HETATM   11  O3  UNL     1      20.512  -5.160  -3.061  1.00  0.00    -0.271 OA
HETATM   12  N1  UNL     1      19.203  -6.848  -3.882  1.00  0.00    -0.354 N 
ATOM     13  H1  UNL     1      18.960  -7.838  -3.886  1.00  0.00     0.162 HD
BRANCH  12  14
HETATM   14  C6  UNL     1      18.491  -5.933  -4.733  1.00  0.00     0.177 C 
BRANCH  14  15
HETATM   15  C7  UNL     1      19.084  -5.938  -6.078  1.00  0.00     0.055 C 
HETATM   16  N2  UNL     1      19.315  -4.721  -6.777  1.00  0.00    -0.104 NA
HETATM   17  C8  UNL     1      19.410  -7.078  -6.654  1.00  0.00     0.123 C 
HETATM   18  N3  UNL     1      19.990  -7.133  -7.959  1.00  0.00    -0.113 NA
ENDBRANCH  14  15
ENDBRANCH  12  14
ENDBRANCH   1  10
TORSDOF 8
ENDMDL
MODEL 4
REMARK VINA RESULT: -7.028411815      1.498      1.770
REMARK  8 active torsions:
REMARK  status: ('A' for Active; 'I' for Inactive)
REMARK    1  A    between atoms: O1_2  and  C2_3 
REMARK    2  A    between atoms: C2_3  and  C3_4 
REMARK    3  A    between atoms: C2_3  and  C9_16 
REMARK    4  A    between atoms: C3_4  and  O2_5 
REMARK    5  A    between atoms: O2_5  and  C4_6 
REMARK    6  A    between atoms: C4_6  and  C5_7 
REMARK       I    between atoms: C5_7  and  N1_9 
REMARK    7  A    between atoms: N1_9  and  C6_11 
REMARK    8  A    between atoms: C6_11  and  C7_12 
ROOT
HETATM    1  C4  UNL     1      20.537  -6.696  -3.393  1.00  0.00     0.270 C 
ENDROOT
BRANCH   1   2
HETATM    2  O2  UNL     1      19.841  -5.585  -3.723  1.00  0.00    -0.379 OA
BRANCH   2   3
HETATM    3  C3  UNL     1      19.180  -5.538  -4.903  1.00  0.00     0.209 C 
BRANCH   3   4
HETATM    4  C2  UNL     1      18.352  -6.764  -5.200  1.00  0.00     0.233 C 
BRANCH   4   5
HETATM    5  O1  UNL     1      18.252  -7.006  -6.557  1.00  0.00    -0.380 OA
HETATM    6  C1  UNL     1      19.458  -7.012  -7.207  1.00  0.00     0.202 C 
ENDBRANCH   4   5
BRANCH   4   7
HETATM    7  C9  UNL     1      17.004  -6.711  -4.621  1.00  0.00     0.262 C 
HETATM    8  N4  UNL     1      16.570  -7.770  -3.787  1.00  0.00    -0.060 NA
HETATM    9  O4  UNL     1      16.184  -5.775  -4.811  1.00  0.00    -0.274 OA
ENDBRANCH   4   7
ENDBRANCH   3   4
ENDBRANCH   2   3
ENDBRANCH   1   2
BRANCH   1  10
HETATM   10  C5  UNL     1      20.270  -7.282  -2.061  1.00  0.00     0.241 C 
HETATM   11  O3  UNL     1      21.106  -7.501  -1.172  1.00  0.00    -0.271 OA
HETATM   12  N1  UNL     1      18.901  -7.633  -1.770  1.00  0.00    -0.354 N 
ATOM     13  H1  UNL     1      18.177  -7.472  -2.469  1.00  0.00     0.162 HD
BRANCH  12  14
HETATM   14  C6  UNL     1      18.552  -8.209  -0.499  1.00  0.00     0.177 C 
BRANCH  14  15
HETATM   15  C7  UNL     1      17.764  -7.247   0.286  1.00  0.00     0.055 C 
HETATM   16  N2  UNL     1      16.995  -6.238  -0.358  1.00  0.00    -0.104 NA
HETATM   17  C8  UNL     1      17.761  -7.312   1.602  1.00  0.00     0.123 C 
HETATM   18  N3  UNL     1      17.011  -6.400   2.407  1.00  0.00    -0.113 NA
ENDBRANCH  14  15
ENDBRANCH  12  14
ENDBRANCH   1  10
TORSDOF 8
ENDMDL
MODEL 5
REMARK VINA RESULT: -7.004735459      1.082      1.174
REMARK  8 active torsions:
REMARK  status: ('A' for Active; 'I' for Inactive)
REMARK    1  A    between atoms: O1_2  and  C2_3 
REMARK    2  A    between atoms: C2_3  and  C3_4 
REMARK    3  A    between atoms: C2_3  and  C9_16 
REMARK    4  A    between atoms: C3_4  and  O2_5 
REMARK    5  A    between atoms: O2_5  and  C4_6 
REMARK    6  A    between atoms: C4_6  and  C5_7 
REMARK       I    between atoms: C5_7  and  N1_9 
REMARK    7  A    between atoms: N1_9  and  C6_11 
REMARK    8  A    between atoms: C6_11  and  C7_12 
ROOT
HETATM    1  C4  UNL     1      19.411  -6.861  -2.917  1.00  0.00     0.270 C 
ENDROOT
BRANCH   1   2
HETATM    2  O2  UNL     1      19.800  -5.961  -3.848  1.00  0.00    -0.379 OA
BRANCH   2   3
HETATM    3  C3  UNL     1      18.976  -5.671  -4.882  1.00  0.00     0.209 C 
BRANCH   3   4
HETATM    4  C2  UNL     1      18.457  -6.881  -5.620  1.00  0.00     0.233 C 
BRANCH   4   5
HETATM    5  O1  UNL     1      18.534  -6.724  -6.990  1.00  0.00    -0.380 OA
HETATM    6  C1  UNL     1      19.721  -7.144  -7.529  1.00  0.00     0.202 C 
ENDBRANCH   4   5
BRANCH   4   7
HETATM    7  C9  UNL     1      17.082  -7.242  -5.254  1.00  0.00     0.262 C 
HETATM    8  N4  UNL     1      16.169  -6.215  -4.911  1.00  0.00    -0.060 NA
HETATM    9  O4  UNL     1      16.640  -8.419  -5.219  1.00  0.00    -0.274 OA
ENDBRANCH   4   7
ENDBRANCH   3   4
ENDBRANCH   2   3
ENDBRANCH   1   2
BRANCH   1  10
HETATM   10  C5  UNL     1      18.765  -6.325  -1.699  1.00  0.00     0.241 C 
HETATM   11  O3  UNL     1      17.863  -5.476  -1.657  1.00  0.00    -0.271 OA
HETATM   12  N1  UNL     1      19.230  -6.844  -0.436  1.00  0.00    -0.354 N 
ATOM     13  H1  UNL     1      19.970  -7.545  -0.418  1.00  0.00     0.162 HD
BRANCH  12  14
HETATM   14  C6  UNL     1      18.657  -6.379   0.798  1.00  0.00     0.177 C 
BRANCH  14  15
HETATM   15  C7  UNL     1      17.838  -7.440   1.400  1.00  0.00     0.055 C 
HETATM   16  N2  UNL     1      17.662  -8.689   0.741  1.00  0.00    -0.104 NA
HETATM   17  C8  UNL     1      17.254  -7.246   2.566  1.00  0.00     0.123 C 
HETATM   18  N3  UNL     1      16.449  -8.248   3.192  1.00  0.00    -0.113 NA
ENDBRANCH  14  15
ENDBRANCH  12  14
ENDBRANCH   1  10
TORSDOF 8
ENDMDL
