MODEL 1
REMARK VINA RESULT: -7.253816634      0.000      0.000
REMARK  10 active torsions:
REMARK  status: ('A' for Active; 'I' for Inactive)
REMARK    1  A    between atoms: C1_2  and  C2_4 
REMARK    2  A    between atoms: C2_4  and  O2_5 
REMARK    3  A    between atoms: O2_5  and  C3_6 
REMARK    4  A    between atoms: C3_6  and  C4_7 
REMARK    5  A    between atoms: C4_7  and  O3_8 
REMARK    6  A    between atoms: O3_8  and  C5_9 
REMARK    7  A    between atoms: C5_9  and  C6_10 
REMARK    8  A    between atoms: C5_9  and  C7_13 
REMARK    9  A    between atoms: C8_15  and  C9_16 
REMARK   10  A    between atoms: C9_16  and  N4_17 
ROOT
HETATM    1  C5  UNL     1      18.272  -6.169  -4.364  1.00  0.00     0.257 C 
ENDROOT
BRANCH   1   2
HETATM    2  O3  UNL     1      19.225  -6.827  -3.625  1.00  0.00    -0.369 OA
BRANCH   2   3
HETATM    3  C4  UNL     1      19.605  -6.238  -2.452  1.00  0.00     0.195 C 
BRANCH   3   4
HETATM    4  C3  UNL     1      19.692  -7.177  -1.267  1.00  0.00     0.194 C 
BRANCH   4   5
HETATM    5  O2  UNL     1      18.563  -7.927  -1.091  1.00  0.00    -0.380 OA
BRANCH   5   6
HETATM    6  C2  UNL     1      17.998  -7.949   0.147  1.00  0.00     0.267 C 
BRANCH   6   7
HETATM    7  C1  UNL     1      17.361  -6.710   0.589  1.00  0.00     0.254 C 
HETATM    8  N1  UNL     1      16.623  -5.894  -0.345  1.00  0.00    -0.060 NA
HETATM    9  O1  UNL     1      17.406  -6.284   1.752  1.00  0.00    -0.275 OA
ENDBRANCH   6   7
ENDBRANCH   5   6
ENDBRANCH   4   5
ENDBRANCH   3   4
ENDBRANCH   2   3
ENDBRANCH   1   2
BRANCH   1  10
HETATM   10  C6  UNL     1      17.012  -6.942  -4.407  1.00  0.00     0.265 C 
HETATM   11  N2  UNL     1      15.814  -6.339  -4.887  1.00  0.00    -0.059 NA
HETATM   12  O4  UNL     1      16.912  -8.109  -4.046  1.00  0.00    -0.274 OA
ENDBRANCH   1  10
BRANCH   1  13
HETATM   13  C7  UNL     1      18.819  -6.093  -5.769  1.00  0.00     0.059 C 
HETATM   14  N3  UNL     1      19.150  -4.809  -6.272  1.00  0.00    -0.104 NA
HETATM   15  C8  UNL     1      19.014  -7.143  -6.532  1.00  0.00     0.025 C 
BRANCH  15  16
HETATM   16  C9  UNL     1      19.557  -6.956  -7.902  1.00  0.00     0.258 C 
BRANCH  16  17
HETATM   17  N4  UNL     1      20.482  -8.023  -8.239  1.00  0.00    -0.076 N 
ATOM     18  H43 UNL     1      21.269  -7.680  -8.789  1.00  0.00     0.274 HD
ATOM     19  H42 UNL     1      20.996  -8.349  -7.421  1.00  0.00     0.274 HD
ATOM     20  H41 UNL     1      19.997  -8.787  -8.709  1.00  0.00     0.274 HD
ENDBRANCH  16  17
ENDBRANCH  15  16
ENDBRANCH   1  13
TORSDOF 10
ENDMDL
MODEL 2
REMARK VINA RESULT: -7.074078940      1.027      1.027
REMARK  10 active torsions:
REMARK  status: ('A' for Active; 'I' for Inactive)
REMARK    1  A    between atoms: C1_2  and  C2_4 
REMARK    2  A    between atoms: C2_4  and  O2_5 
REMARK    3  A    between atoms: O2_5  and  C3_6 
REMARK    4  A    between atoms: C3_6  and  C4_7 
REMARK    5  A    between atoms: C4_7  and  O3_8 
REMARK    6  A    between atoms: O3_8  and  C5_9 
REMARK    7  A    between atoms: C5_9  and  C6_10 
REMARK    8  A    between atoms: C5_9  and  C7_13 
REMARK    9  A    between atoms: C8_15  and  C9_16 
REMARK   10  A    between atoms: C9_16  and  N4_17 
ROOT
HETATM    1  C5  UNL     1      18.216  -6.162  -4.385  1.00  0.00     0.257 C 
ENDROOT
BRANCH   1   2
HETATM    2  O3  UNL     1      19.154  -6.801  -3.612  1.00  0.00    -0.369 OA
BRANCH   2   3
HETATM    3  C4  UNL     1      19.684  -6.085  -2.576  1.00  0.00     0.195 C 
BRANCH   3   4
HETATM    4  C3  UNL     1      18.896  -6.151  -1.285  1.00  0.00     0.194 C 
BRANCH   4   5
HETATM    5  O2  UNL     1      18.358  -7.386  -1.047  1.00  0.00    -0.380 OA
BRANCH   5   6
HETATM    6  C2  UNL     1      17.331  -7.472  -0.159  1.00  0.00     0.267 C 
BRANCH   6   7
HETATM    7  C1  UNL     1      17.703  -7.617   1.247  1.00  0.00     0.254 C 
HETATM    8  N1  UNL     1      17.273  -6.644   2.221  1.00  0.00    -0.060 NA
HETATM    9  O1  UNL     1      18.388  -8.550   1.690  1.00  0.00    -0.275 OA
ENDBRANCH   6   7
ENDBRANCH   5   6
ENDBRANCH   4   5
ENDBRANCH   3   4
ENDBRANCH   2   3
ENDBRANCH   1   2
BRANCH   1  10
HETATM   10  C6  UNL     1      16.969  -6.953  -4.462  1.00  0.00     0.265 C 
HETATM   11  N2  UNL     1      15.765  -6.355  -4.935  1.00  0.00    -0.059 NA
HETATM   12  O4  UNL     1      16.884  -8.132  -4.138  1.00  0.00    -0.274 OA
ENDBRANCH   1  10
BRANCH   1  13
HETATM   13  C7  UNL     1      18.807  -6.090  -5.773  1.00  0.00     0.059 C 
HETATM   14  N3  UNL     1      19.136  -4.805  -6.276  1.00  0.00    -0.104 NA
HETATM   15  C8  UNL     1      19.041  -7.142  -6.521  1.00  0.00     0.025 C 
BRANCH  15  16
HETATM   16  C9  UNL     1      19.626  -6.959  -7.874  1.00  0.00     0.258 C 
BRANCH  16  17
HETATM   17  N4  UNL     1      20.506  -8.063  -8.209  1.00  0.00    -0.076 N 
ATOM     18  H43 UNL     1      20.887  -7.969  -9.150  1.00  0.00     0.274 HD
ATOM     19  H42 UNL     1      21.380  -8.022  -7.684  1.00  0.00     0.274 HD
ATOM     20  H41 UNL     1      20.032  -8.956  -8.081  1.00  0.00     0.274 HD
ENDBRANCH  16  17
ENDBRANCH  15  16
ENDBRANCH   1  13
TORSDOF 10
ENDMDL
MODEL 3
REMARK VINA RESULT: -7.011678378      1.518      1.518
REMARK  10 active torsions:
REMARK  status: ('A' for Active; 'I' for Inactive)
REMARK    1  A    between atoms: C1_2  and  C2_4 
REMARK    2  A    between atoms: C2_4  and  O2_5 
REMARK    3  A    between atoms: O2_5  and  C3_6 
REMARK    4  A    between atoms: C3_6  and  C4_7 
REMARK    5  A    between atoms: C4_7  and  O3_8 
REMARK    6  A    between atoms: O3_8  and  C5_9 
REMARK    7  A    between atoms: C5_9  and  C6_10 
REMARK    8  A    between atoms: C5_9  and  C7_13 
REMARK    9  A    between atoms: C8_15  and  C9_16 
REMARK   10  A    between atoms: C9_16  and  N4_17 
ROOT
HETATM    1  C5  UNL     1      18.085  -6.093  -4.426  1.00  0.00     0.257 C 
ENDROOT
BRANCH   1   2
HETATM    2  O3  UNL     1      18.827  -6.813  -3.522  1.00  0.00    -0.369 OA
BRANCH   2   3
HETATM    3  C4  UNL     1      18.615  -6.539  -2.200  1.00  0.00     0.195 C 
BRANCH   3   4
HETATM    4  C3  UNL     1      18.350  -7.751  -1.332  1.00  0.00     0.194 C 
BRANCH   4   5
HETATM    5  O2  UNL     1      18.824  -7.613  -0.057  1.00  0.00    -0.380 OA
BRANCH   5   6
HETATM    6  C2  UNL     1      18.199  -8.307   0.934  1.00  0.00     0.267 C 
BRANCH   6   7
HETATM    7  C1  UNL     1      17.450  -7.512   1.905  1.00  0.00     0.254 C 
HETATM    8  N1  UNL     1      16.842  -8.142   3.052  1.00  0.00    -0.060 NA
HETATM    9  O1  UNL     1      17.287  -6.287   1.820  1.00  0.00    -0.275 OA
ENDBRANCH   6   7
ENDBRANCH   5   6
ENDBRANCH   4   5
ENDBRANCH   3   4
ENDBRANCH   2   3
ENDBRANCH   1   2
BRANCH   1  10
HETATM   10  C6  UNL     1      16.784  -6.748  -4.679  1.00  0.00     0.265 C 
HETATM   11  N2  UNL     1      16.678  -8.169  -4.664  1.00  0.00    -0.059 NA
HETATM   12  O4  UNL     1      15.744  -6.141  -4.910  1.00  0.00    -0.274 OA
ENDBRANCH   1  10
BRANCH   1  13
HETATM   13  C7  UNL     1      18.873  -6.112  -5.714  1.00  0.00     0.059 C 
HETATM   14  N3  UNL     1      19.211  -4.862  -6.291  1.00  0.00    -0.104 NA
HETATM   15  C8  UNL     1      19.267  -7.213  -6.310  1.00  0.00     0.025 C 
BRANCH  15  16
HETATM   16  C9  UNL     1      20.038  -7.119  -7.576  1.00  0.00     0.258 C 
BRANCH  16  17
HETATM   17  N4  UNL     1      19.207  -6.600  -8.648  1.00  0.00    -0.076 N 
ATOM     18  H43 UNL     1      18.891  -5.651  -8.454  1.00  0.00     0.274 HD
ATOM     19  H42 UNL     1      19.751  -6.413  -9.490  1.00  0.00     0.274 HD
ATOM     20  H41 UNL     1      18.426  -7.228  -8.836  1.00  0.00     0.274 HD
ENDBRANCH  16  17
ENDBRANCH  15  16
ENDBRANCH   1  13
TORSDOF 10
ENDMDL
MODEL 4
REMARK VINA RESULT: -6.851491597      2.274      6.248
REMARK  10 active torsions:
REMARK  status: ('A' for Active; 'I' for Inactive)
REMARK    1  A    between atoms: C1_2  and  C2_4 
REMARK    2  A    between atoms: C2_4  and  O2_5 
REMARK    3  A    between atoms: O2_5  and  C3_6 
REMARK    4  A    between atoms: C3_6  and  C4_7 
REMARK    5  A    between atoms: C4_7  and  O3_8 
REMARK    6  A    between atoms: O3_8  and  C5_9 
REMARK    7  A    between atoms: C5_9  and  C6_10 
REMARK    8  A    between atoms: C5_9  and  C7_13 
REMARK    9  A    between atoms: C8_15  and  C9_16 
REMARK   10  A    between atoms: C9_16  and  N4_17 
ROOT
HETATM    1  C5  UNL     1      18.214  -7.537  -0.628  1.00  0.00     0.257 C 
ENDROOT
BRANCH   1   2
HETATM    2  O3  UNL     1      19.479  -7.104  -0.940  1.00  0.00    -0.369 OA
BRANCH   2   3
HETATM    3  C4  UNL     1      20.009  -7.560  -2.115  1.00  0.00     0.195 C 
BRANCH   3   4
HETATM    4  C3  UNL     1      20.453  -6.478  -3.076  1.00  0.00     0.194 C 
BRANCH   4   5
HETATM    5  O2  UNL     1      19.411  -5.868  -3.718  1.00  0.00    -0.380 OA
BRANCH   5   6
HETATM    6  C2  UNL     1      18.867  -6.501  -4.793  1.00  0.00     0.267 C 
BRANCH   6   7
HETATM    7  C1  UNL     1      17.409  -6.604  -4.812  1.00  0.00     0.254 C 
HETATM    8  N1  UNL     1      16.769  -7.881  -5.012  1.00  0.00    -0.060 NA
HETATM    9  O1  UNL     1      16.644  -5.640  -4.664  1.00  0.00    -0.275 OA
ENDBRANCH   6   7
ENDBRANCH   5   6
ENDBRANCH   4   5
ENDBRANCH   3   4
ENDBRANCH   2   3
ENDBRANCH   1   2
BRANCH   1  10
HETATM   10  C6  UNL     1      17.192  -6.653  -1.229  1.00  0.00     0.265 C 
HETATM   11  N2  UNL     1      15.932  -7.182  -1.635  1.00  0.00    -0.059 NA
HETATM   12  O4  UNL     1      17.348  -5.451  -1.415  1.00  0.00    -0.274 OA
ENDBRANCH   1  10
BRANCH   1  13
HETATM   13  C7  UNL     1      18.099  -7.425   0.874  1.00  0.00     0.059 C 
HETATM   14  N3  UNL     1      18.695  -6.296   1.492  1.00  0.00    -0.104 NA
HETATM   15  C8  UNL     1      17.473  -8.301   1.624  1.00  0.00     0.025 C 
BRANCH  15  16
HETATM   16  C9  UNL     1      17.420  -8.096   3.094  1.00  0.00     0.258 C 
BRANCH  16  17
HETATM   17  N4  UNL     1      16.181  -7.447   3.479  1.00  0.00    -0.076 N 
ATOM     18  H43 UNL     1      16.043  -7.466   4.489  1.00  0.00     0.274 HD
ATOM     19  H42 UNL     1      16.228  -6.436   3.350  1.00  0.00     0.274 HD
ATOM     20  H41 UNL     1      15.389  -7.854   2.983  1.00  0.00     0.274 HD
ENDBRANCH  16  17
ENDBRANCH  15  16
ENDBRANCH   1  13
TORSDOF 10
ENDMDL
MODEL 5
REMARK VINA RESULT: -6.759281211      2.265      6.684
REMARK  10 active torsions:
REMARK  status: ('A' for Active; 'I' for Inactive)
REMARK    1  A    between atoms: C1_2  and  C2_4 
REMARK    2  A    between atoms: C2_4  and  O2_5 
REMARK    3  A    between atoms: O2_5  and  C3_6 
REMARK    4  A    between atoms: C3_6  and  C4_7 
REMARK    5  A    between atoms: C4_7  and  O3_8 
REMARK    6  A    between atoms: O3_8  and  C5_9 
REMARK    7  A    between atoms: C5_9  and  C6_10 
REMARK    8  A    between atoms: C5_9  and  C7_13 
REMARK    9  A    between atoms: C8_15  and  C9_16 
REMARK   10  A    between atoms: C9_16  and  N4_17 
ROOT
HETATM    1  C5  UNL     1      17.722  -7.041  -3.524  1.00  0.00     0.257 C 
ENDROOT
BRANCH   1   2
HETATM    2  O3  UNL     1      18.289  -5.952  -4.139  1.00  0.00    -0.369 OA
BRANCH   2   3
HETATM    3  C4  UNL     1      19.256  -6.209  -5.069  1.00  0.00     0.195 C 
BRANCH   3   4
HETATM    4  C3  UNL     1      18.738  -6.650  -6.422  1.00  0.00     0.194 C 
BRANCH   4   5
HETATM    5  O2  UNL     1      19.693  -6.617  -7.400  1.00  0.00    -0.380 OA
BRANCH   5   6
HETATM    6  C2  UNL     1      20.256  -7.795  -7.782  1.00  0.00     0.267 C 
BRANCH   6   7
HETATM    7  C1  UNL     1      20.634  -7.904  -9.190  1.00  0.00     0.254 C 
HETATM    8  N1  UNL     1      21.407  -9.031  -9.654  1.00  0.00    -0.060 NA
HETATM    9  O1  UNL     1      20.332  -7.070 -10.055  1.00  0.00    -0.275 OA
ENDBRANCH   6   7
ENDBRANCH   5   6
ENDBRANCH   4   5
ENDBRANCH   3   4
ENDBRANCH   2   3
ENDBRANCH   1   2
BRANCH   1  10
HETATM   10  C6  UNL     1      16.259  -7.066  -3.743  1.00  0.00     0.265 C 
HETATM   11  N2  UNL     1      15.690  -6.424  -4.880  1.00  0.00    -0.059 NA
HETATM   12  O4  UNL     1      15.463  -7.618  -2.991  1.00  0.00    -0.274 OA
ENDBRANCH   1  10
BRANCH   1  13
HETATM   13  C7  UNL     1      17.968  -6.855  -2.046  1.00  0.00     0.059 C 
HETATM   14  N3  UNL     1      17.772  -5.557  -1.510  1.00  0.00    -0.104 NA
HETATM   15  C8  UNL     1      18.334  -7.825  -1.241  1.00  0.00     0.025 C 
BRANCH  15  16
HETATM   16  C9  UNL     1      18.550  -7.533   0.199  1.00  0.00     0.258 C 
BRANCH  16  17
HETATM   17  N4  UNL     1      17.284  -7.339   0.881  1.00  0.00    -0.076 N 
ATOM     18  H43 UNL     1      17.123  -6.357   1.104  1.00  0.00     0.274 HD
ATOM     19  H42 UNL     1      16.492  -7.488   0.257  1.00  0.00     0.274 HD
ATOM     20  H41 UNL     1      17.226  -7.928   1.711  1.00  0.00     0.274 HD
ENDBRANCH  16  17
ENDBRANCH  15  16
ENDBRANCH   1  13
TORSDOF 10
ENDMDL
