MODEL 1
REMARK VINA RESULT: -6.254743859      0.000      0.000
REMARK  10 active torsions:
REMARK  status: ('A' for Active; 'I' for Inactive)
REMARK    1  A    between atoms: C2_2  and  C3_3 
REMARK    2  A    between atoms: C3_3  and  O1_4 
REMARK    3  A    between atoms: C3_3  and  C4_8 
REMARK    4  A    between atoms: O1_4  and  N1_5 
REMARK    5  A    between atoms: C4_8  and  C5_9 
REMARK    6  A    between atoms: C4_8  and  N2_12 
REMARK    7  A    between atoms: C4_8  and  C9_20 
REMARK    8  A    between atoms: C5_9  and  O2_10 
REMARK    9  A    between atoms: N2_12  and  C6_14 
REMARK   10  A    between atoms: C6_14  and  C7_15 
REMARK       I    between atoms: C7_15  and  N3_17 
ROOT
HETATM    1  C4  UNL     1      18.018  -6.505  -4.508  1.00  0.00     0.159 C 
ENDROOT
BRANCH   1   2
HETATM    2  C3  UNL     1      18.897  -6.627  -3.258  1.00  0.00     0.190 C 
BRANCH   2   3
HETATM    3  C2  UNL     1      20.356  -6.669  -3.428  1.00  0.00     0.033 C 
HETATM    4  C1  UNL     1      21.166  -7.446  -2.447  1.00  0.00     0.007 C 
ENDBRANCH   2   3
BRANCH   2   5
HETATM    5  O1  UNL     1      18.594  -5.484  -2.433  1.00  0.00    -0.279 OA
BRANCH   5   6
HETATM    6  N1  UNL     1      17.809  -5.788  -1.407  1.00  0.00    -0.311 N 
ATOM      7  H12 UNL     1      16.883  -6.198  -1.521  1.00  0.00     0.184 HD
ATOM      8  H11 UNL     1      18.236  -5.566  -0.506  1.00  0.00     0.184 HD
ENDBRANCH   5   6
ENDBRANCH   2   5
ENDBRANCH   1   2
BRANCH   1   9
HETATM    9  C5  UNL     1      17.635  -5.134  -4.881  1.00  0.00     0.207 C 
BRANCH   9  10
HETATM   10  O2  UNL     1      16.439  -4.700  -4.247  1.00  0.00    -0.398 OA
ATOM     11  H2  UNL     1      16.520  -4.644  -3.302  1.00  0.00     0.209 HD
ENDBRANCH   9  10
ENDBRANCH   1   9
BRANCH   1  12
HETATM   12  N2  UNL     1      18.920  -7.077  -5.532  1.00  0.00    -0.373 N 
ATOM     13  H2  UNL     1      19.409  -7.959  -5.376  1.00  0.00     0.160 HD
BRANCH  12  14
HETATM   14  C6  UNL     1      19.074  -6.362  -6.718  1.00  0.00     0.159 C 
BRANCH  14  15
HETATM   15  C7  UNL     1      19.925  -7.193  -7.657  1.00  0.00     0.256 C 
HETATM   16  O3  UNL     1      20.661  -8.078  -7.200  1.00  0.00    -0.267 OA
HETATM   17  N3  UNL     1      19.854  -6.928  -9.061  1.00  0.00    -0.361 N 
HETATM   18  C8  UNL     1      20.661  -7.718  -9.948  1.00  0.00     0.149 C 
ATOM     19  H3  UNL     1      19.245  -6.195  -9.423  1.00  0.00     0.162 HD
ENDBRANCH  14  15
ENDBRANCH  12  14
ENDBRANCH   1  12
BRANCH   1  20
HETATM   20  C9  UNL     1      16.908  -7.460  -4.371  1.00  0.00     0.264 C 
HETATM   21  N4  UNL     1      15.950  -7.463  -3.319  1.00  0.00    -0.060 NA
HETATM   22  O4  UNL     1      16.747  -8.363  -5.217  1.00  0.00    -0.274 OA
ENDBRANCH   1  20
TORSDOF 10
ENDMDL
MODEL 2
REMARK VINA RESULT: -6.022633476      2.582      4.142
REMARK  10 active torsions:
REMARK  status: ('A' for Active; 'I' for Inactive)
REMARK    1  A    between atoms: C2_2  and  C3_3 
REMARK    2  A    between atoms: C3_3  and  O1_4 
REMARK    3  A    between atoms: C3_3  and  C4_8 
REMARK    4  A    between atoms: O1_4  and  N1_5 
REMARK    5  A    between atoms: C4_8  and  C5_9 
REMARK    6  A    between atoms: C4_8  and  N2_12 
REMARK    7  A    between atoms: C4_8  and  C9_20 
REMARK    8  A    between atoms: C5_9  and  O2_10 
REMARK    9  A    between atoms: N2_12  and  C6_14 
REMARK   10  A    between atoms: C6_14  and  C7_15 
REMARK       I    between atoms: C7_15  and  N3_17 
ROOT
HETATM    1  C4  UNL     1      18.116  -6.721  -0.978  1.00  0.00     0.159 C 
ENDROOT
BRANCH   1   2
HETATM    2  C3  UNL     1      19.581  -6.454  -1.346  1.00  0.00     0.190 C 
BRANCH   2   3
HETATM    3  C2  UNL     1      20.530  -7.574  -1.297  1.00  0.00     0.033 C 
HETATM    4  C1  UNL     1      21.270  -7.936  -2.539  1.00  0.00     0.007 C 
ENDBRANCH   2   3
BRANCH   2   5
HETATM    5  O1  UNL     1      19.576  -5.954  -2.699  1.00  0.00    -0.279 OA
BRANCH   5   6
HETATM    6  N1  UNL     1      20.511  -5.035  -2.907  1.00  0.00    -0.311 N 
ATOM      7  H12 UNL     1      20.376  -4.049  -2.687  1.00  0.00     0.184 HD
ATOM      8  H11 UNL     1      21.364  -5.427  -3.307  1.00  0.00     0.184 HD
ENDBRANCH   5   6
ENDBRANCH   2   5
ENDBRANCH   1   2
BRANCH   1   9
HETATM    9  C5  UNL     1      17.253  -5.532  -0.911  1.00  0.00     0.207 C 
BRANCH   9  10
HETATM   10  O2  UNL     1      16.410  -5.521   0.234  1.00  0.00    -0.398 OA
ATOM     11  H2  UNL     1      15.749  -6.203   0.214  1.00  0.00     0.209 HD
ENDBRANCH   9  10
ENDBRANCH   1   9
BRANCH   1  12
HETATM   12  N2  UNL     1      17.705  -7.585  -2.106  1.00  0.00    -0.373 N 
ATOM     13  H2  UNL     1      18.318  -8.318  -2.465  1.00  0.00     0.160 HD
BRANCH  12  14
HETATM   14  C6  UNL     1      16.446  -7.357  -2.659  1.00  0.00     0.159 C 
BRANCH  14  15
HETATM   15  C7  UNL     1      16.637  -6.986  -4.116  1.00  0.00     0.256 C 
HETATM   16  O3  UNL     1      15.701  -6.482  -4.752  1.00  0.00    -0.267 OA
HETATM   17  N3  UNL     1      17.908  -7.231  -4.724  1.00  0.00    -0.361 N 
HETATM   18  C8  UNL     1      18.087  -6.878  -6.104  1.00  0.00     0.149 C 
ATOM     19  H3  UNL     1      18.670  -7.648  -4.189  1.00  0.00     0.162 HD
ENDBRANCH  14  15
ENDBRANCH  12  14
ENDBRANCH   1  12
BRANCH   1  20
HETATM   20  C9  UNL     1      18.104  -7.583   0.214  1.00  0.00     0.264 C 
HETATM   21  N4  UNL     1      18.423  -7.165   1.536  1.00  0.00    -0.060 NA
HETATM   22  O4  UNL     1      17.798  -8.789   0.115  1.00  0.00    -0.274 OA
ENDBRANCH   1  20
TORSDOF 10
ENDMDL
MODEL 3
REMARK VINA RESULT: -5.949860213      2.189      2.641
REMARK  10 active torsions:
REMARK  status: ('A' for Active; 'I' for Inactive)
REMARK    1  A    between atoms: C2_2  and  C3_3 
REMARK    2  A    between atoms: C3_3  and  O1_4 
REMARK    3  A    between atoms: C3_3  and  C4_8 
REMARK    4  A    between atoms: O1_4  and  N1_5 
REMARK    5  A    between atoms: C4_8  and  C5_9 
REMARK    6  A    between atoms: C4_8  and  N2_12 
REMARK    7  A    between atoms: C4_8  and  C9_20 
REMARK    8  A    between atoms: C5_9  and  O2_10 
REMARK    9  A    between atoms: N2_12  and  C6_14 
REMARK   10  A    between atoms: C6_14  and  C7_15 
REMARK       I    between atoms: C7_15  and  N3_17 
ROOT
HETATM    1  C4  UNL     1      17.894  -6.865  -2.394  1.00  0.00     0.159 C 
ENDROOT
BRANCH   1   2
HETATM    2  C3  UNL     1      18.458  -8.041  -1.588  1.00  0.00     0.190 C 
BRANCH   2   3
HETATM    3  C2  UNL     1      19.827  -8.491  -1.872  1.00  0.00     0.033 C 
HETATM    4  C1  UNL     1      20.966  -7.693  -1.335  1.00  0.00     0.007 C 
ENDBRANCH   2   3
BRANCH   2   5
HETATM    5  O1  UNL     1      18.416  -7.642  -0.202  1.00  0.00    -0.279 OA
BRANCH   5   6
HETATM    6  N1  UNL     1      17.482  -8.285   0.486  1.00  0.00    -0.311 N 
ATOM      7  H12 UNL     1      17.656  -9.169   0.964  1.00  0.00     0.184 HD
ATOM      8  H11 UNL     1      16.585  -7.798   0.480  1.00  0.00     0.184 HD
ENDBRANCH   5   6
ENDBRANCH   2   5
ENDBRANCH   1   2
BRANCH   1   9
HETATM    9  C5  UNL     1      18.154  -5.530  -1.833  1.00  0.00     0.207 C 
BRANCH   9  10
HETATM   10  O2  UNL     1      17.239  -5.171  -0.806  1.00  0.00    -0.398 OA
ATOM     11  H2  UNL     1      16.854  -5.924  -0.373  1.00  0.00     0.209 HD
ENDBRANCH   9  10
ENDBRANCH   1   9
BRANCH   1  12
HETATM   12  N2  UNL     1      18.625  -7.032  -3.669  1.00  0.00    -0.373 N 
ATOM     13  H2  UNL     1      18.631  -7.924  -4.164  1.00  0.00     0.160 HD
BRANCH  12  14
HETATM   14  C6  UNL     1      19.305  -5.922  -4.165  1.00  0.00     0.159 C 
BRANCH  14  15
HETATM   15  C7  UNL     1      19.386  -6.059  -5.672  1.00  0.00     0.256 C 
HETATM   16  O3  UNL     1      19.160  -5.078  -6.393  1.00  0.00    -0.267 OA
HETATM   17  N3  UNL     1      19.725  -7.334  -6.226  1.00  0.00    -0.361 N 
HETATM   18  C8  UNL     1      19.802  -7.461  -7.654  1.00  0.00     0.149 C 
ATOM     19  H3  UNL     1      19.908  -8.134  -5.620  1.00  0.00     0.162 HD
ENDBRANCH  14  15
ENDBRANCH  12  14
ENDBRANCH   1  12
BRANCH   1  20
HETATM   20  C9  UNL     1      16.485  -7.164  -2.696  1.00  0.00     0.264 C 
HETATM   21  N4  UNL     1      15.918  -7.228  -3.998  1.00  0.00    -0.060 NA
HETATM   22  O4  UNL     1      15.677  -7.386  -1.771  1.00  0.00    -0.274 OA
ENDBRANCH   1  20
TORSDOF 10
ENDMDL
MODEL 4
REMARK VINA RESULT: -5.914129372      2.004      2.580
REMARK  10 active torsions:
REMARK  status: ('A' for Active; 'I' for Inactive)
REMARK    1  A    between atoms: C2_2  and  C3_3 
REMARK    2  A    between atoms: C3_3  and  O1_4 
REMARK    3  A    between atoms: C3_3  and  C4_8 
REMARK    4  A    between atoms: O1_4  and  N1_5 
REMARK    5  A    between atoms: C4_8  and  C5_9 
REMARK    6  A    between atoms: C4_8  and  N2_12 
REMARK    7  A    between atoms: C4_8  and  C9_20 
REMARK    8  A    between atoms: C5_9  and  O2_10 
REMARK    9  A    between atoms: N2_12  and  C6_14 
REMARK   10  A    between atoms: C6_14  and  C7_15 
REMARK       I    between atoms: C7_15  and  N3_17 
ROOT
HETATM    1  C4  UNL     1      17.780  -6.760  -2.406  1.00  0.00     0.159 C 
ENDROOT
BRANCH   1   2
HETATM    2  C3  UNL     1      18.715  -7.815  -1.802  1.00  0.00     0.190 C 
BRANCH   2   3
HETATM    3  C2  UNL     1      20.057  -7.397  -1.375  1.00  0.00     0.033 C 
HETATM    4  C1  UNL     1      21.222  -7.759  -2.232  1.00  0.00     0.007 C 
ENDBRANCH   2   3
BRANCH   2   5
HETATM    5  O1  UNL     1      18.040  -8.342  -0.642  1.00  0.00    -0.279 OA
BRANCH   5   6
HETATM    6  N1  UNL     1      18.676  -8.064   0.489  1.00  0.00    -0.311 N 
ATOM      7  H12 UNL     1      19.162  -7.182   0.649  1.00  0.00     0.184 HD
ATOM      8  H11 UNL     1      18.622  -8.825   1.167  1.00  0.00     0.184 HD
ENDBRANCH   5   6
ENDBRANCH   2   5
ENDBRANCH   1   2
BRANCH   1   9
HETATM    9  C5  UNL     1      17.364  -5.685  -1.492  1.00  0.00     0.207 C 
BRANCH   9  10
HETATM   10  O2  UNL     1      16.461  -6.128  -0.488  1.00  0.00    -0.398 OA
ATOM     11  H2  UNL     1      16.776  -6.889  -0.015  1.00  0.00     0.209 HD
ENDBRANCH   9  10
ENDBRANCH   1   9
BRANCH   1  12
HETATM   12  N2  UNL     1      18.641  -6.213  -3.477  1.00  0.00    -0.373 N 
ATOM     13  H2  UNL     1      19.658  -6.283  -3.428  1.00  0.00     0.160 HD
BRANCH  12  14
HETATM   14  C6  UNL     1      18.007  -5.597  -4.554  1.00  0.00     0.159 C 
BRANCH  14  15
HETATM   15  C7  UNL     1      18.853  -5.830  -5.789  1.00  0.00     0.256 C 
HETATM   16  O3  UNL     1      19.277  -4.864  -6.438  1.00  0.00    -0.267 OA
HETATM   17  N3  UNL     1      19.143  -7.177  -6.176  1.00  0.00    -0.361 N 
HETATM   18  C8  UNL     1      19.947  -7.395  -7.346  1.00  0.00     0.149 C 
ATOM     19  H3  UNL     1      18.787  -7.963  -5.633  1.00  0.00     0.162 HD
ENDBRANCH  14  15
ENDBRANCH  12  14
ENDBRANCH   1  12
BRANCH   1  20
HETATM   20  C9  UNL     1      16.688  -7.470  -3.091  1.00  0.00     0.264 C 
HETATM   21  N4  UNL     1      15.325  -7.471  -2.685  1.00  0.00    -0.060 NA
HETATM   22  O4  UNL     1      16.921  -8.142  -4.116  1.00  0.00    -0.274 OA
ENDBRANCH   1  20
TORSDOF 10
ENDMDL
MODEL 5
REMARK VINA RESULT: -5.885188092      2.478      5.559
REMARK  10 active torsions:
REMARK  status: ('A' for Active; 'I' for Inactive)
REMARK    1  A    between atoms: C2_2  and  C3_3 
REMARK    2  A    between atoms: C3_3  and  O1_4 
REMARK    3  A    between atoms: C3_3  and  C4_8 
REMARK    4  A    between atoms: O1_4  and  N1_5 
REMARK    5  A    between atoms: C4_8  and  C5_9 
REMARK    6  A    between atoms: C4_8  and  N2_12 
REMARK    7  A    between atoms: C4_8  and  C9_20 
REMARK    8  A    between atoms: C5_9  and  O2_10 
REMARK    9  A    between atoms: N2_12  and  C6_14 
REMARK   10  A    between atoms: C6_14  and  C7_15 
REMARK       I    between atoms: C7_15  and  N3_17 
ROOT
HETATM    1  C4  UNL     1      17.753  -6.605  -3.583  1.00  0.00     0.159 C 
ENDROOT
BRANCH   1   2
HETATM    2  C3  UNL     1      19.081  -5.920  -3.930  1.00  0.00     0.190 C 
BRANCH   2   3
HETATM    3  C2  UNL     1      20.157  -5.934  -2.930  1.00  0.00     0.033 C 
HETATM    4  C1  UNL     1      21.135  -7.058  -2.951  1.00  0.00     0.007 C 
ENDBRANCH   2   3
BRANCH   2   5
HETATM    5  O1  UNL     1      19.583  -6.580  -5.110  1.00  0.00    -0.279 OA
BRANCH   5   6
HETATM    6  N1  UNL     1      19.418  -5.855  -6.209  1.00  0.00    -0.311 N 
ATOM      7  H12 UNL     1      19.839  -4.934  -6.333  1.00  0.00     0.184 HD
ATOM      8  H11 UNL     1      18.830  -6.320  -6.902  1.00  0.00     0.184 HD
ENDBRANCH   5   6
ENDBRANCH   2   5
ENDBRANCH   1   2
BRANCH   1   9
HETATM    9  C5  UNL     1      17.747  -8.071  -3.699  1.00  0.00     0.207 C 
BRANCH   9  10
HETATM   10  O2  UNL     1      17.193  -8.529  -4.926  1.00  0.00    -0.398 OA
ATOM     11  H2  UNL     1      16.460  -9.121  -4.804  1.00  0.00     0.209 HD
ENDBRANCH   9  10
ENDBRANCH   1   9
BRANCH   1  12
HETATM   12  N2  UNL     1      17.602  -6.206  -2.167  1.00  0.00    -0.373 N 
ATOM     13  H2  UNL     1      18.010  -5.340  -1.813  1.00  0.00     0.160 HD
BRANCH  12  14
HETATM   14  C6  UNL     1      16.880  -7.061  -1.337  1.00  0.00     0.159 C 
BRANCH  14  15
HETATM   15  C7  UNL     1      17.595  -7.129  -0.002  1.00  0.00     0.256 C 
HETATM   16  O3  UNL     1      18.632  -6.477   0.175  1.00  0.00    -0.267 OA
HETATM   17  N3  UNL     1      17.043  -7.954   1.028  1.00  0.00    -0.361 N 
HETATM   18  C8  UNL     1      17.722  -8.015   2.292  1.00  0.00     0.149 C 
ATOM     19  H3  UNL     1      16.189  -8.487   0.868  1.00  0.00     0.162 HD
ENDBRANCH  14  15
ENDBRANCH  12  14
ENDBRANCH   1  12
BRANCH   1  20
HETATM   20  C9  UNL     1      16.684  -5.905  -4.314  1.00  0.00     0.264 C 
HETATM   21  N4  UNL     1      15.409  -6.451  -4.629  1.00  0.00    -0.060 NA
HETATM   22  O4  UNL     1      16.858  -4.736  -4.715  1.00  0.00    -0.274 OA
ENDBRANCH   1  20
TORSDOF 10
ENDMDL
