MODEL 1
REMARK VINA RESULT: -6.494296327      0.000      0.000
REMARK  10 active torsions:
REMARK  status: ('A' for Active; 'I' for Inactive)
REMARK    1  A    between atoms: C2_2  and  C3_3 
REMARK    2  A    between atoms: C3_3  and  O1_4 
REMARK    3  A    between atoms: C3_3  and  C4_8 
REMARK    4  A    between atoms: O1_4  and  N1_5 
REMARK    5  A    between atoms: C4_8  and  C5_9 
REMARK    6  A    between atoms: C4_8  and  N2_12 
REMARK    7  A    between atoms: C4_8  and  C9_20 
REMARK    8  A    between atoms: C5_9  and  O2_10 
REMARK    9  A    between atoms: N2_12  and  C6_14 
REMARK   10  A    between atoms: C6_14  and  C7_15 
REMARK       I    between atoms: C7_15  and  N3_17 
ROOT
HETATM    1  C4  UNL     1     -14.508  78.478   1.488  1.00  0.00     0.159 C 
ENDROOT
BRANCH   1   2
HETATM    2  C3  UNL     1     -14.889  79.300   0.251  1.00  0.00     0.190 C 
BRANCH   2   3
HETATM    3  C2  UNL     1     -16.222  79.104  -0.335  1.00  0.00     0.033 C 
HETATM    4  C1  UNL     1     -16.318  78.573  -1.725  1.00  0.00     0.007 C 
ENDBRANCH   2   3
BRANCH   2   5
HETATM    5  O1  UNL     1     -14.789  80.686   0.636  1.00  0.00    -0.279 OA
BRANCH   5   6
HETATM    6  N1  UNL     1     -15.572  81.475  -0.088  1.00  0.00    -0.311 N 
ATOM      7  H12 UNL     1     -16.239  81.117  -0.772  1.00  0.00     0.184 HD
ATOM      8  H11 UNL     1     -15.429  82.465   0.115  1.00  0.00     0.184 HD
ENDBRANCH   5   6
ENDBRANCH   2   5
ENDBRANCH   1   2
BRANCH   1   9
HETATM    9  C5  UNL     1     -13.125  78.650   1.961  1.00  0.00     0.207 C 
BRANCH   9  10
HETATM   10  O2  UNL     1     -12.163  78.089   1.078  1.00  0.00    -0.398 OA
ATOM     11  H2  UNL     1     -11.621  77.427   1.492  1.00  0.00     0.209 HD
ENDBRANCH   9  10
ENDBRANCH   1   9
BRANCH   1  12
HETATM   12  N2  UNL     1     -15.457  79.025   2.482  1.00  0.00    -0.373 N 
ATOM     13  H2  UNL     1     -16.446  79.146   2.262  1.00  0.00     0.160 HD
BRANCH  12  14
HETATM   14  C6  UNL     1     -14.945  79.368   3.732  1.00  0.00     0.159 C 
BRANCH  14  15
HETATM   15  C7  UNL     1     -16.103  79.801   4.608  1.00  0.00     0.256 C 
HETATM   16  O3  UNL     1     -17.183  80.118   4.091  1.00  0.00    -0.267 OA
HETATM   17  N3  UNL     1     -15.915  79.832   6.026  1.00  0.00    -0.361 N 
HETATM   18  C8  UNL     1     -17.014  80.241   6.854  1.00  0.00     0.149 C 
ATOM     19  H3  UNL     1     -15.020  79.569   6.439  1.00  0.00     0.162 HD
ENDBRANCH  14  15
ENDBRANCH  12  14
ENDBRANCH   1  12
BRANCH   1  20
HETATM   20  C9  UNL     1     -14.930  77.088   1.251  1.00  0.00     0.264 C 
HETATM   21  N4  UNL     1     -14.457  76.253   0.202  1.00  0.00    -0.060 NA
HETATM   22  O4  UNL     1     -15.770  76.550   2.000  1.00  0.00    -0.274 OA
ENDBRANCH   1  20
TORSDOF 10
ENDMDL
MODEL 2
REMARK VINA RESULT: -6.476642476      1.272      1.408
REMARK  10 active torsions:
REMARK  status: ('A' for Active; 'I' for Inactive)
REMARK    1  A    between atoms: C2_2  and  C3_3 
REMARK    2  A    between atoms: C3_3  and  O1_4 
REMARK    3  A    between atoms: C3_3  and  C4_8 
REMARK    4  A    between atoms: O1_4  and  N1_5 
REMARK    5  A    between atoms: C4_8  and  C5_9 
REMARK    6  A    between atoms: C4_8  and  N2_12 
REMARK    7  A    between atoms: C4_8  and  C9_20 
REMARK    8  A    between atoms: C5_9  and  O2_10 
REMARK    9  A    between atoms: N2_12  and  C6_14 
REMARK   10  A    between atoms: C6_14  and  C7_15 
REMARK       I    between atoms: C7_15  and  N3_17 
ROOT
HETATM    1  C4  UNL     1     -14.820  78.465   1.571  1.00  0.00     0.159 C 
ENDROOT
BRANCH   1   2
HETATM    2  C3  UNL     1     -15.527  79.118   0.377  1.00  0.00     0.190 C 
BRANCH   2   3
HETATM    3  C2  UNL     1     -15.648  80.582   0.350  1.00  0.00     0.033 C 
HETATM    4  C1  UNL     1     -16.902  81.184  -0.185  1.00  0.00     0.007 C 
ENDBRANCH   2   3
BRANCH   2   5
HETATM    5  O1  UNL     1     -14.790  78.725  -0.798  1.00  0.00    -0.279 OA
BRANCH   5   6
HETATM    6  N1  UNL     1     -15.554  78.132  -1.707  1.00  0.00    -0.311 N 
ATOM      7  H12 UNL     1     -15.233  77.346  -2.271  1.00  0.00     0.184 HD
ATOM      8  H11 UNL     1     -16.483  78.550  -1.772  1.00  0.00     0.184 HD
ENDBRANCH   5   6
ENDBRANCH   2   5
ENDBRANCH   1   2
BRANCH   1   9
HETATM    9  C5  UNL     1     -13.437  78.909   1.807  1.00  0.00     0.207 C 
BRANCH   9  10
HETATM   10  O2  UNL     1     -12.471  78.074   1.182  1.00  0.00    -0.398 OA
ATOM     11  H2  UNL     1     -12.478  77.185   1.517  1.00  0.00     0.209 HD
ENDBRANCH   9  10
ENDBRANCH   1   9
BRANCH   1  12
HETATM   12  N2  UNL     1     -15.692  78.907   2.680  1.00  0.00    -0.373 N 
ATOM     13  H2  UNL     1     -16.708  78.821   2.624  1.00  0.00     0.160 HD
BRANCH  12  14
HETATM   14  C6  UNL     1     -15.071  79.447   3.805  1.00  0.00     0.159 C 
BRANCH  14  15
HETATM   15  C7  UNL     1     -16.153  79.852   4.786  1.00  0.00     0.256 C 
HETATM   16  O3  UNL     1     -17.281  80.149   4.372  1.00  0.00    -0.267 OA
HETATM   17  N3  UNL     1     -15.835  79.880   6.181  1.00  0.00    -0.361 N 
HETATM   18  C8  UNL     1     -16.863  80.263   7.109  1.00  0.00     0.149 C 
ATOM     19  H3  UNL     1     -14.901  79.634   6.508  1.00  0.00     0.162 HD
ENDBRANCH  14  15
ENDBRANCH  12  14
ENDBRANCH   1  12
BRANCH   1  20
HETATM   20  C9  UNL     1     -15.011  77.010   1.464  1.00  0.00     0.264 C 
HETATM   21  N4  UNL     1     -14.392  76.168   0.499  1.00  0.00    -0.060 NA
HETATM   22  O4  UNL     1     -15.767  76.415   2.258  1.00  0.00    -0.274 OA
ENDBRANCH   1  20
TORSDOF 10
ENDMDL
MODEL 3
REMARK VINA RESULT: -6.051841735      1.908      2.739
REMARK  10 active torsions:
REMARK  status: ('A' for Active; 'I' for Inactive)
REMARK    1  A    between atoms: C2_2  and  C3_3 
REMARK    2  A    between atoms: C3_3  and  O1_4 
REMARK    3  A    between atoms: C3_3  and  C4_8 
REMARK    4  A    between atoms: O1_4  and  N1_5 
REMARK    5  A    between atoms: C4_8  and  C5_9 
REMARK    6  A    between atoms: C4_8  and  N2_12 
REMARK    7  A    between atoms: C4_8  and  C9_20 
REMARK    8  A    between atoms: C5_9  and  O2_10 
REMARK    9  A    between atoms: N2_12  and  C6_14 
REMARK   10  A    between atoms: C6_14  and  C7_15 
REMARK       I    between atoms: C7_15  and  N3_17 
ROOT
HETATM    1  C4  UNL     1     -14.672  77.936   0.210  1.00  0.00     0.159 C 
ENDROOT
BRANCH   1   2
HETATM    2  C3  UNL     1     -15.283  77.389  -1.085  1.00  0.00     0.190 C 
BRANCH   2   3
HETATM    3  C2  UNL     1     -16.061  78.302  -1.933  1.00  0.00     0.033 C 
HETATM    4  C1  UNL     1     -16.349  77.899  -3.339  1.00  0.00     0.007 C 
ENDBRANCH   2   3
BRANCH   2   5
HETATM    5  O1  UNL     1     -14.183  76.898  -1.879  1.00  0.00    -0.279 OA
BRANCH   5   6
HETATM    6  N1  UNL     1     -14.070  75.577  -1.834  1.00  0.00    -0.311 N 
ATOM      7  H12 UNL     1     -14.603  74.955  -2.442  1.00  0.00     0.184 HD
ATOM      8  H11 UNL     1     -13.400  75.264  -1.132  1.00  0.00     0.184 HD
ENDBRANCH   5   6
ENDBRANCH   2   5
ENDBRANCH   1   2
BRANCH   1   9
HETATM    9  C5  UNL     1     -13.410  78.677   0.052  1.00  0.00     0.207 C 
BRANCH   9  10
HETATM   10  O2  UNL     1     -12.453  78.362   1.055  1.00  0.00    -0.398 OA
ATOM     11  H2  UNL     1     -11.810  77.725   0.767  1.00  0.00     0.209 HD
ENDBRANCH   9  10
ENDBRANCH   1   9
BRANCH   1  12
HETATM   12  N2  UNL     1     -15.746  78.852   0.653  1.00  0.00    -0.373 N 
ATOM     13  H2  UNL     1     -16.729  78.581   0.604  1.00  0.00     0.160 HD
BRANCH  12  14
HETATM   14  C6  UNL     1     -15.361  80.100   1.139  1.00  0.00     0.159 C 
BRANCH  14  15
HETATM   15  C7  UNL     1     -15.224  79.992   2.645  1.00  0.00     0.256 C 
HETATM   16  O3  UNL     1     -14.118  80.156   3.176  1.00  0.00    -0.267 OA
HETATM   17  N3  UNL     1     -16.391  79.699   3.419  1.00  0.00    -0.361 N 
HETATM   18  C8  UNL     1     -16.258  79.598   4.845  1.00  0.00     0.149 C 
ATOM     19  H3  UNL     1     -17.296  79.564   2.968  1.00  0.00     0.162 HD
ENDBRANCH  14  15
ENDBRANCH  12  14
ENDBRANCH   1  12
BRANCH   1  20
HETATM   20  C9  UNL     1     -14.647  76.840   1.192  1.00  0.00     0.264 C 
HETATM   21  N4  UNL     1     -15.633  76.607   2.190  1.00  0.00    -0.060 NA
HETATM   22  O4  UNL     1     -13.707  76.020   1.195  1.00  0.00    -0.274 OA
ENDBRANCH   1  20
TORSDOF 10
ENDMDL
MODEL 4
REMARK VINA RESULT: -5.745812697      2.566      5.434
REMARK  10 active torsions:
REMARK  status: ('A' for Active; 'I' for Inactive)
REMARK    1  A    between atoms: C2_2  and  C3_3 
REMARK    2  A    between atoms: C3_3  and  O1_4 
REMARK    3  A    between atoms: C3_3  and  C4_8 
REMARK    4  A    between atoms: O1_4  and  N1_5 
REMARK    5  A    between atoms: C4_8  and  C5_9 
REMARK    6  A    between atoms: C4_8  and  N2_12 
REMARK    7  A    between atoms: C4_8  and  C9_20 
REMARK    8  A    between atoms: C5_9  and  O2_10 
REMARK    9  A    between atoms: N2_12  and  C6_14 
REMARK   10  A    between atoms: C6_14  and  C7_15 
REMARK       I    between atoms: C7_15  and  N3_17 
ROOT
HETATM    1  C4  UNL     1     -14.802  78.267   0.583  1.00  0.00     0.159 C 
ENDROOT
BRANCH   1   2
HETATM    2  C3  UNL     1     -14.779  79.772   0.879  1.00  0.00     0.190 C 
BRANCH   2   3
HETATM    3  C2  UNL     1     -15.317  80.692  -0.133  1.00  0.00     0.033 C 
HETATM    4  C1  UNL     1     -16.761  81.059  -0.065  1.00  0.00     0.007 C 
ENDBRANCH   2   3
BRANCH   2   5
HETATM    5  O1  UNL     1     -15.548  79.962   2.084  1.00  0.00    -0.279 OA
BRANCH   5   6
HETATM    6  N1  UNL     1     -14.789  80.003   3.172  1.00  0.00    -0.311 N 
ATOM      7  H12 UNL     1     -14.176  79.236   3.448  1.00  0.00     0.184 HD
ATOM      8  H11 UNL     1     -14.892  80.876   3.690  1.00  0.00     0.184 HD
ENDBRANCH   5   6
ENDBRANCH   2   5
ENDBRANCH   1   2
BRANCH   1   9
HETATM    9  C5  UNL     1     -16.041  77.567   0.957  1.00  0.00     0.207 C 
BRANCH   9  10
HETATM   10  O2  UNL     1     -15.950  76.913   2.216  1.00  0.00    -0.398 OA
ATOM     11  H2  UNL     1     -15.059  76.685   2.453  1.00  0.00     0.209 HD
ENDBRANCH   9  10
ENDBRANCH   1   9
BRANCH   1  12
HETATM   12  N2  UNL     1     -14.647  78.276  -0.888  1.00  0.00    -0.373 N 
ATOM     13  H2  UNL     1     -14.200  79.056  -1.370  1.00  0.00     0.160 HD
BRANCH  12  14
HETATM   14  C6  UNL     1     -15.137  77.175  -1.588  1.00  0.00     0.159 C 
BRANCH  14  15
HETATM   15  C7  UNL     1     -15.746  77.677  -2.881  1.00  0.00     0.256 C 
HETATM   16  O3  UNL     1     -16.353  78.757  -2.898  1.00  0.00    -0.267 OA
HETATM   17  N3  UNL     1     -15.602  76.881  -4.060  1.00  0.00    -0.361 N 
HETATM   18  C8  UNL     1     -16.179  77.360  -5.285  1.00  0.00     0.149 C 
ATOM     19  H3  UNL     1     -15.101  75.993  -4.032  1.00  0.00     0.162 HD
ENDBRANCH  14  15
ENDBRANCH  12  14
ENDBRANCH   1  12
BRANCH   1  20
HETATM   20  C9  UNL     1     -13.558  77.688   1.116  1.00  0.00     0.264 C 
HETATM   21  N4  UNL     1     -13.335  76.305   1.363  1.00  0.00    -0.060 NA
HETATM   22  O4  UNL     1     -12.589  78.424   1.391  1.00  0.00    -0.274 OA
ENDBRANCH   1  20
TORSDOF 10
ENDMDL
MODEL 5
REMARK VINA RESULT: -5.644268346      2.383      5.224
REMARK  10 active torsions:
REMARK  status: ('A' for Active; 'I' for Inactive)
REMARK    1  A    between atoms: C2_2  and  C3_3 
REMARK    2  A    between atoms: C3_3  and  O1_4 
REMARK    3  A    between atoms: C3_3  and  C4_8 
REMARK    4  A    between atoms: O1_4  and  N1_5 
REMARK    5  A    between atoms: C4_8  and  C5_9 
REMARK    6  A    between atoms: C4_8  and  N2_12 
REMARK    7  A    between atoms: C4_8  and  C9_20 
REMARK    8  A    between atoms: C5_9  and  O2_10 
REMARK    9  A    between atoms: N2_12  and  C6_14 
REMARK   10  A    between atoms: C6_14  and  C7_15 
REMARK       I    between atoms: C7_15  and  N3_17 
ROOT
HETATM    1  C4  UNL     1     -14.822  78.081   1.041  1.00  0.00     0.159 C 
ENDROOT
BRANCH   1   2
HETATM    2  C3  UNL     1     -15.215  79.494   1.488  1.00  0.00     0.190 C 
BRANCH   2   3
HETATM    3  C2  UNL     1     -14.834  79.932   2.838  1.00  0.00     0.033 C 
HETATM    4  C1  UNL     1     -15.809  79.744   3.950  1.00  0.00     0.007 C 
ENDBRANCH   2   3
BRANCH   2   5
HETATM    5  O1  UNL     1     -14.601  80.403   0.552  1.00  0.00    -0.279 OA
BRANCH   5   6
HETATM    6  N1  UNL     1     -15.460  81.288   0.061  1.00  0.00    -0.311 N 
ATOM      7  H12 UNL     1     -16.275  81.615   0.581  1.00  0.00     0.184 HD
ATOM      8  H11 UNL     1     -15.214  81.594  -0.880  1.00  0.00     0.184 HD
ENDBRANCH   5   6
ENDBRANCH   2   5
ENDBRANCH   1   2
BRANCH   1   9
HETATM    9  C5  UNL     1     -15.881  77.065   1.149  1.00  0.00     0.207 C 
BRANCH   9  10
HETATM   10  O2  UNL     1     -16.003  76.526   2.458  1.00  0.00    -0.398 OA
ATOM     11  H2  UNL     1     -16.576  75.770   2.497  1.00  0.00     0.209 HD
ENDBRANCH   9  10
ENDBRANCH   1   9
BRANCH   1  12
HETATM   12  N2  UNL     1     -14.495  78.326  -0.381  1.00  0.00    -0.373 N 
ATOM     13  H2  UNL     1     -14.031  79.184  -0.678  1.00  0.00     0.160 HD
BRANCH  12  14
HETATM   14  C6  UNL     1     -14.847  77.336  -1.296  1.00  0.00     0.159 C 
BRANCH  14  15
HETATM   15  C7  UNL     1     -15.728  77.970  -2.354  1.00  0.00     0.256 C 
HETATM   16  O3  UNL     1     -16.237  79.080  -2.147  1.00  0.00    -0.267 OA
HETATM   17  N3  UNL     1     -15.949  77.261  -3.576  1.00  0.00    -0.361 N 
HETATM   18  C8  UNL     1     -16.783  77.865  -4.577  1.00  0.00     0.149 C 
ATOM     19  H3  UNL     1     -15.524  76.347  -3.733  1.00  0.00     0.162 HD
ENDBRANCH  14  15
ENDBRANCH  12  14
ENDBRANCH   1  12
BRANCH   1  20
HETATM   20  C9  UNL     1     -13.548  77.742   1.695  1.00  0.00     0.264 C 
HETATM   21  N4  UNL     1     -12.272  78.247   1.321  1.00  0.00    -0.060 NA
HETATM   22  O4  UNL     1     -13.527  76.952   2.660  1.00  0.00    -0.274 OA
ENDBRANCH   1  20
TORSDOF 10
ENDMDL
