MODEL 1
REMARK VINA RESULT: -7.223395173      0.000      0.000
REMARK  10 active torsions:
REMARK  status: ('A' for Active; 'I' for Inactive)
REMARK    1  A    between atoms: C1_2  and  C2_4 
REMARK    2  A    between atoms: C2_4  and  O2_5 
REMARK    3  A    between atoms: O2_5  and  C3_6 
REMARK    4  A    between atoms: C3_6  and  C4_7 
REMARK    5  A    between atoms: C4_7  and  O3_8 
REMARK    6  A    between atoms: O3_8  and  C5_9 
REMARK    7  A    between atoms: C5_9  and  C6_10 
REMARK    8  A    between atoms: C5_9  and  C7_13 
REMARK    9  A    between atoms: C8_15  and  C9_16 
REMARK   10  A    between atoms: C9_16  and  N4_17 
ROOT
HETATM    1  C5  UNL     1     -13.940  78.500   1.214  1.00  0.00     0.257 C 
ENDROOT
BRANCH   1   2
HETATM    2  O3  UNL     1     -14.331  78.924  -0.032  1.00  0.00    -0.369 OA
BRANCH   2   3
HETATM    3  C4  UNL     1     -14.944  77.998  -0.829  1.00  0.00     0.195 C 
BRANCH   3   4
HETATM    4  C3  UNL     1     -16.257  78.449  -1.435  1.00  0.00     0.194 C 
BRANCH   4   5
HETATM    5  O2  UNL     1     -16.231  78.492  -2.801  1.00  0.00    -0.380 OA
BRANCH   5   6
HETATM    6  C2  UNL     1     -16.042  77.322  -3.471  1.00  0.00     0.267 C 
BRANCH   6   7
HETATM    7  C1  UNL     1     -16.299  77.353  -4.910  1.00  0.00     0.254 C 
HETATM    8  N1  UNL     1     -15.594  76.462  -5.798  1.00  0.00    -0.060 NA
HETATM    9  O1  UNL     1     -17.110  78.117  -5.452  1.00  0.00    -0.275 OA
ENDBRANCH   6   7
ENDBRANCH   5   6
ENDBRANCH   4   5
ENDBRANCH   3   4
ENDBRANCH   2   3
ENDBRANCH   1   2
BRANCH   1  10
HETATM   10  C6  UNL     1     -14.238  77.063   1.399  1.00  0.00     0.265 C 
HETATM   11  N2  UNL     1     -15.515  76.648   1.875  1.00  0.00    -0.059 NA
HETATM   12  O4  UNL     1     -13.439  76.162   1.166  1.00  0.00    -0.274 OA
ENDBRANCH   1  10
BRANCH   1  13
HETATM   13  C7  UNL     1     -14.781  79.278   2.197  1.00  0.00     0.059 C 
HETATM   14  N3  UNL     1     -15.639  80.279   1.674  1.00  0.00    -0.104 NA
HETATM   15  C8  UNL     1     -14.769  79.068   3.493  1.00  0.00     0.025 C 
BRANCH  15  16
HETATM   16  C9  UNL     1     -15.637  79.893   4.372  1.00  0.00     0.258 C 
BRANCH  16  17
HETATM   17  N4  UNL     1     -17.000  79.394   4.365  1.00  0.00    -0.076 N 
ATOM     18  H43 UNL     1     -17.156  78.714   5.108  1.00  0.00     0.274 HD
ATOM     19  H42 UNL     1     -17.664  80.107   4.666  1.00  0.00     0.274 HD
ATOM     20  H41 UNL     1     -17.242  79.016   3.450  1.00  0.00     0.274 HD
ENDBRANCH  16  17
ENDBRANCH  15  16
ENDBRANCH   1  13
TORSDOF 10
ENDMDL
MODEL 2
REMARK VINA RESULT: -7.219985703      1.008      1.008
REMARK  10 active torsions:
REMARK  status: ('A' for Active; 'I' for Inactive)
REMARK    1  A    between atoms: C1_2  and  C2_4 
REMARK    2  A    between atoms: C2_4  and  O2_5 
REMARK    3  A    between atoms: O2_5  and  C3_6 
REMARK    4  A    between atoms: C3_6  and  C4_7 
REMARK    5  A    between atoms: C4_7  and  O3_8 
REMARK    6  A    between atoms: O3_8  and  C5_9 
REMARK    7  A    between atoms: C5_9  and  C6_10 
REMARK    8  A    between atoms: C5_9  and  C7_13 
REMARK    9  A    between atoms: C8_15  and  C9_16 
REMARK   10  A    between atoms: C9_16  and  N4_17 
ROOT
HETATM    1  C5  UNL     1     -14.532  78.575   0.530  1.00  0.00     0.257 C 
ENDROOT
BRANCH   1   2
HETATM    2  O3  UNL     1     -15.574  77.844   0.014  1.00  0.00    -0.369 OA
BRANCH   2   3
HETATM    3  C4  UNL     1     -15.646  77.758  -1.348  1.00  0.00     0.195 C 
BRANCH   3   4
HETATM    4  C3  UNL     1     -16.250  78.966  -2.031  1.00  0.00     0.194 C 
BRANCH   4   5
HETATM    5  O2  UNL     1     -16.320  78.836  -3.390  1.00  0.00    -0.380 OA
BRANCH   5   6
HETATM    6  C2  UNL     1     -16.212  77.585  -3.917  1.00  0.00     0.267 C 
BRANCH   6   7
HETATM    7  C1  UNL     1     -16.349  77.482  -5.368  1.00  0.00     0.254 C 
HETATM    8  N1  UNL     1     -15.528  76.562  -6.117  1.00  0.00    -0.060 NA
HETATM    9  O1  UNL     1     -17.150  78.149  -6.038  1.00  0.00    -0.275 OA
ENDBRANCH   6   7
ENDBRANCH   5   6
ENDBRANCH   4   5
ENDBRANCH   3   4
ENDBRANCH   2   3
ENDBRANCH   1   2
BRANCH   1  10
HETATM   10  C6  UNL     1     -13.474  77.686   1.056  1.00  0.00     0.265 C 
HETATM   11  N2  UNL     1     -13.716  76.290   1.206  1.00  0.00    -0.059 NA
HETATM   12  O4  UNL     1     -12.359  78.071   1.390  1.00  0.00    -0.274 OA
ENDBRANCH   1  10
BRANCH   1  13
HETATM   13  C7  UNL     1     -15.108  79.351   1.691  1.00  0.00     0.059 C 
HETATM   14  N3  UNL     1     -15.816  80.542   1.393  1.00  0.00    -0.104 NA
HETATM   15  C8  UNL     1     -14.999  78.974   2.943  1.00  0.00     0.025 C 
BRANCH  15  16
HETATM   16  C9  UNL     1     -15.603  79.812   4.011  1.00  0.00     0.258 C 
BRANCH  16  17
HETATM   17  N4  UNL     1     -16.966  79.395   4.284  1.00  0.00    -0.076 N 
ATOM     18  H43 UNL     1     -17.003  78.441   4.642  1.00  0.00     0.274 HD
ATOM     19  H42 UNL     1     -17.354  79.878   5.094  1.00  0.00     0.274 HD
ATOM     20  H41 UNL     1     -17.553  79.512   3.459  1.00  0.00     0.274 HD
ENDBRANCH  16  17
ENDBRANCH  15  16
ENDBRANCH   1  13
TORSDOF 10
ENDMDL
MODEL 3
REMARK VINA RESULT: -7.181504228      1.178      1.178
REMARK  10 active torsions:
REMARK  status: ('A' for Active; 'I' for Inactive)
REMARK    1  A    between atoms: C1_2  and  C2_4 
REMARK    2  A    between atoms: C2_4  and  O2_5 
REMARK    3  A    between atoms: O2_5  and  C3_6 
REMARK    4  A    between atoms: C3_6  and  C4_7 
REMARK    5  A    between atoms: C4_7  and  O3_8 
REMARK    6  A    between atoms: O3_8  and  C5_9 
REMARK    7  A    between atoms: C5_9  and  C6_10 
REMARK    8  A    between atoms: C5_9  and  C7_13 
REMARK    9  A    between atoms: C8_15  and  C9_16 
REMARK   10  A    between atoms: C9_16  and  N4_17 
ROOT
HETATM    1  C5  UNL     1     -14.534  78.778   1.437  1.00  0.00     0.257 C 
ENDROOT
BRANCH   1   2
HETATM    2  O3  UNL     1     -15.562  79.218   0.639  1.00  0.00    -0.369 OA
BRANCH   2   3
HETATM    3  C4  UNL     1     -15.351  79.175  -0.710  1.00  0.00     0.195 C 
BRANCH   3   4
HETATM    4  C3  UNL     1     -16.408  78.430  -1.497  1.00  0.00     0.194 C 
BRANCH   4   5
HETATM    5  O2  UNL     1     -16.235  78.523  -2.850  1.00  0.00    -0.380 OA
BRANCH   5   6
HETATM    6  C2  UNL     1     -16.123  77.367  -3.560  1.00  0.00     0.267 C 
BRANCH   6   7
HETATM    7  C1  UNL     1     -16.363  77.466  -4.998  1.00  0.00     0.254 C 
HETATM    8  N1  UNL     1     -15.634  76.629  -5.920  1.00  0.00    -0.060 NA
HETATM    9  O1  UNL     1     -17.178  78.245  -5.513  1.00  0.00    -0.275 OA
ENDBRANCH   6   7
ENDBRANCH   5   6
ENDBRANCH   4   5
ENDBRANCH   3   4
ENDBRANCH   2   3
ENDBRANCH   1   2
BRANCH   1  10
HETATM   10  C6  UNL     1     -14.590  77.310   1.607  1.00  0.00     0.265 C 
HETATM   11  N2  UNL     1     -13.414  76.522   1.447  1.00  0.00    -0.059 NA
HETATM   12  O4  UNL     1     -15.611  76.691   1.884  1.00  0.00    -0.274 OA
ENDBRANCH   1  10
BRANCH   1  13
HETATM   13  C7  UNL     1     -14.762  79.411   2.789  1.00  0.00     0.059 C 
HETATM   14  N3  UNL     1     -13.775  80.314   3.262  1.00  0.00    -0.104 NA
HETATM   15  C8  UNL     1     -15.819  79.182   3.532  1.00  0.00     0.025 C 
BRANCH  15  16
HETATM   16  C9  UNL     1     -15.945  79.858   4.849  1.00  0.00     0.258 C 
BRANCH  16  17
HETATM   17  N4  UNL     1     -17.334  79.925   5.263  1.00  0.00    -0.076 N 
ATOM     18  H43 UNL     1     -17.608  79.103   5.799  1.00  0.00     0.274 HD
ATOM     19  H42 UNL     1     -17.480  80.634   5.981  1.00  0.00     0.274 HD
ATOM     20  H41 UNL     1     -17.945  80.072   4.459  1.00  0.00     0.274 HD
ENDBRANCH  16  17
ENDBRANCH  15  16
ENDBRANCH   1  13
TORSDOF 10
ENDMDL
MODEL 4
REMARK VINA RESULT: -7.031703422      2.009      2.350
REMARK  10 active torsions:
REMARK  status: ('A' for Active; 'I' for Inactive)
REMARK    1  A    between atoms: C1_2  and  C2_4 
REMARK    2  A    between atoms: C2_4  and  O2_5 
REMARK    3  A    between atoms: O2_5  and  C3_6 
REMARK    4  A    between atoms: C3_6  and  C4_7 
REMARK    5  A    between atoms: C4_7  and  O3_8 
REMARK    6  A    between atoms: O3_8  and  C5_9 
REMARK    7  A    between atoms: C5_9  and  C6_10 
REMARK    8  A    between atoms: C5_9  and  C7_13 
REMARK    9  A    between atoms: C8_15  and  C9_16 
REMARK   10  A    between atoms: C9_16  and  N4_17 
ROOT
HETATM    1  C5  UNL     1     -14.712  79.143   1.700  1.00  0.00     0.257 C 
ENDROOT
BRANCH   1   2
HETATM    2  O3  UNL     1     -15.840  79.545   1.027  1.00  0.00    -0.369 OA
BRANCH   2   3
HETATM    3  C4  UNL     1     -15.742  80.702   0.306  1.00  0.00     0.195 C 
BRANCH   3   4
HETATM    4  C3  UNL     1     -17.019  81.132  -0.384  1.00  0.00     0.194 C 
BRANCH   4   5
HETATM    5  O2  UNL     1     -17.075  80.752  -1.697  1.00  0.00    -0.380 OA
BRANCH   5   6
HETATM    6  C2  UNL     1     -16.048  80.005  -2.188  1.00  0.00     0.267 C 
BRANCH   6   7
HETATM    7  C1  UNL     1     -16.334  78.592  -2.427  1.00  0.00     0.254 C 
HETATM    8  N1  UNL     1     -16.380  78.073  -3.772  1.00  0.00    -0.060 NA
HETATM    9  O1  UNL     1     -16.549  77.767  -1.528  1.00  0.00    -0.275 OA
ENDBRANCH   6   7
ENDBRANCH   5   6
ENDBRANCH   4   5
ENDBRANCH   3   4
ENDBRANCH   2   3
ENDBRANCH   1   2
BRANCH   1  10
HETATM   10  C6  UNL     1     -14.589  77.669   1.686  1.00  0.00     0.265 C 
HETATM   11  N2  UNL     1     -13.303  77.054   1.714  1.00  0.00    -0.059 NA
HETATM   12  O4  UNL     1     -15.544  76.902   1.650  1.00  0.00    -0.274 OA
ENDBRANCH   1  10
BRANCH   1  13
HETATM   13  C7  UNL     1     -14.908  79.580   3.132  1.00  0.00     0.059 C 
HETATM   14  N3  UNL     1     -13.870  80.338   3.731  1.00  0.00    -0.104 NA
HETATM   15  C8  UNL     1     -15.983  79.309   3.835  1.00  0.00     0.025 C 
BRANCH  15  16
HETATM   16  C9  UNL     1     -16.074  79.786   5.238  1.00  0.00     0.258 C 
BRANCH  16  17
HETATM   17  N4  UNL     1     -17.457  80.008   5.618  1.00  0.00    -0.076 N 
ATOM     18  H43 UNL     1     -17.541  80.273   6.599  1.00  0.00     0.274 HD
ATOM     19  H42 UNL     1     -17.833  80.857   5.196  1.00  0.00     0.274 HD
ATOM     20  H41 UNL     1     -18.028  79.192   5.398  1.00  0.00     0.274 HD
ENDBRANCH  16  17
ENDBRANCH  15  16
ENDBRANCH   1  13
TORSDOF 10
ENDMDL
MODEL 5
REMARK VINA RESULT: -6.993971812      1.536      2.416
REMARK  10 active torsions:
REMARK  status: ('A' for Active; 'I' for Inactive)
REMARK    1  A    between atoms: C1_2  and  C2_4 
REMARK    2  A    between atoms: C2_4  and  O2_5 
REMARK    3  A    between atoms: O2_5  and  C3_6 
REMARK    4  A    between atoms: C3_6  and  C4_7 
REMARK    5  A    between atoms: C4_7  and  O3_8 
REMARK    6  A    between atoms: O3_8  and  C5_9 
REMARK    7  A    between atoms: C5_9  and  C6_10 
REMARK    8  A    between atoms: C5_9  and  C7_13 
REMARK    9  A    between atoms: C8_15  and  C9_16 
REMARK   10  A    between atoms: C9_16  and  N4_17 
ROOT
HETATM    1  C5  UNL     1     -15.439  79.473   0.323  1.00  0.00     0.257 C 
ENDROOT
BRANCH   1   2
HETATM    2  O3  UNL     1     -14.562  78.774  -0.470  1.00  0.00    -0.369 OA
BRANCH   2   3
HETATM    3  C4  UNL     1     -15.096  77.781  -1.243  1.00  0.00     0.195 C 
BRANCH   3   4
HETATM    4  C3  UNL     1     -16.394  78.140  -1.934  1.00  0.00     0.194 C 
BRANCH   4   5
HETATM    5  O2  UNL     1     -16.263  78.273  -3.288  1.00  0.00    -0.380 OA
BRANCH   5   6
HETATM    6  C2  UNL     1     -16.113  77.141  -4.029  1.00  0.00     0.267 C 
BRANCH   6   7
HETATM    7  C1  UNL     1     -16.188  77.303  -5.480  1.00  0.00     0.254 C 
HETATM    8  N1  UNL     1     -15.332  76.531  -6.347  1.00  0.00    -0.060 NA
HETATM    9  O1  UNL     1     -16.962  78.084  -6.050  1.00  0.00    -0.275 OA
ENDBRANCH   6   7
ENDBRANCH   5   6
ENDBRANCH   4   5
ENDBRANCH   3   4
ENDBRANCH   2   3
ENDBRANCH   1   2
BRANCH   1  10
HETATM   10  C6  UNL     1     -15.493  80.896  -0.079  1.00  0.00     0.265 C 
HETATM   11  N2  UNL     1     -16.747  81.532  -0.305  1.00  0.00    -0.059 NA
HETATM   12  O4  UNL     1     -14.503  81.600  -0.241  1.00  0.00    -0.274 OA
ENDBRANCH   1  10
BRANCH   1  13
HETATM   13  C7  UNL     1     -14.872  79.407   1.722  1.00  0.00     0.059 C 
HETATM   14  N3  UNL     1     -13.605  78.791   1.884  1.00  0.00    -0.104 NA
HETATM   15  C8  UNL     1     -15.478  79.897   2.777  1.00  0.00     0.025 C 
BRANCH  15  16
HETATM   16  C9  UNL     1     -14.832  79.778   4.109  1.00  0.00     0.258 C 
BRANCH  16  17
HETATM   17  N4  UNL     1     -15.816  79.888   5.171  1.00  0.00    -0.076 N 
ATOM     18  H43 UNL     1     -16.000  80.861   5.415  1.00  0.00     0.274 HD
ATOM     19  H42 UNL     1     -16.749  79.631   4.849  1.00  0.00     0.274 HD
ATOM     20  H41 UNL     1     -15.534  79.342   5.984  1.00  0.00     0.274 HD
ENDBRANCH  16  17
ENDBRANCH  15  16
ENDBRANCH   1  13
TORSDOF 10
ENDMDL
