MODEL 1
REMARK VINA RESULT: -6.898625930      0.000      0.000
REMARK  10 active torsions:
REMARK  status: ('A' for Active; 'I' for Inactive)
REMARK    1  A    between atoms: C1_2  and  O2_4 
REMARK    2  A    between atoms: O2_4  and  C2_5 
REMARK    3  A    between atoms: C2_5  and  C3_6 
REMARK    4  A    between atoms: C3_6  and  C4_7 
REMARK    5  A    between atoms: C4_7  and  N3_12 
REMARK    6  A    between atoms: C5_8  and  C6_9 
REMARK    7  A    between atoms: N3_12  and  C7_14 
REMARK    8  A    between atoms: C7_14  and  C8_15 
REMARK    9  A    between atoms: C8_15  and  C9_17 
REMARK   10  A    between atoms: C9_17  and  N4_18 
ROOT
HETATM    1  C4  UNL     1     -14.924  79.595   1.565  1.00  0.00     0.012 C 
HETATM    2  C5  UNL     1     -14.838  78.422   1.002  1.00  0.00     0.095 C 
ENDROOT
BRANCH   1   3
HETATM    3  C3  UNL     1     -14.725  79.935   2.986  1.00  0.00     0.083 C 
BRANCH   3   4
HETATM    4  C2  UNL     1     -15.965  79.649   3.812  1.00  0.00     0.186 C 
BRANCH   4   5
HETATM    5  O2  UNL     1     -15.742  79.699   5.194  1.00  0.00    -0.306 OA
BRANCH   5   6
HETATM    6  C1  UNL     1     -16.651  80.039   6.169  1.00  0.00     0.372 C 
HETATM    7  N1  UNL     1     -18.043  80.271   5.859  1.00  0.00    -0.032 NA
HETATM    8  O1  UNL     1     -16.241  80.144   7.349  1.00  0.00    -0.242 OA
ENDBRANCH   5   6
ENDBRANCH   4   5
ENDBRANCH   3   4
ENDBRANCH   1   3
BRANCH   1   9
HETATM    9  N3  UNL     1     -15.255  80.717   0.692  1.00  0.00    -0.386 N 
ATOM     10  H3  UNL     1     -14.530  81.385   0.429  1.00  0.00     0.159 HD
BRANCH   9  11
HETATM   11  C7  UNL     1     -16.595  80.891   0.201  1.00  0.00     0.199 C 
BRANCH  11  12
HETATM   12  C8  UNL     1     -16.657  80.699  -1.265  1.00  0.00     0.169 C 
HETATM   13  O4  UNL     1     -17.427  81.374  -1.915  1.00  0.00    -0.294 OA
BRANCH  12  14
HETATM   14  C9  UNL     1     -15.811  79.708  -1.968  1.00  0.00     0.309 C 
BRANCH  14  15
HETATM   15  N4  UNL     1     -16.455  78.434  -2.042  1.00  0.00    -0.073 N 
ATOM     16  H43 UNL     1     -15.846  77.731  -2.461  1.00  0.00     0.274 HD
ATOM     17  H42 UNL     1     -16.565  78.016  -1.118  1.00  0.00     0.274 HD
ATOM     18  H41 UNL     1     -17.347  78.497  -2.533  1.00  0.00     0.274 HD
ENDBRANCH  14  15
ENDBRANCH  12  14
ENDBRANCH  11  12
ENDBRANCH   9  11
ENDBRANCH   1   9
BRANCH   2  19
HETATM   19  C6  UNL     1     -14.530  77.151   1.612  1.00  0.00     0.256 C 
HETATM   20  N2  UNL     1     -15.542  76.451   2.373  1.00  0.00    -0.058 NA
HETATM   21  O3  UNL     1     -13.436  76.565   1.551  1.00  0.00    -0.272 OA
ENDBRANCH   2  19
TORSDOF 10
ENDMDL
MODEL 2
REMARK VINA RESULT: -6.802526015      3.412      5.336
REMARK  10 active torsions:
REMARK  status: ('A' for Active; 'I' for Inactive)
REMARK    1  A    between atoms: C1_2  and  O2_4 
REMARK    2  A    between atoms: O2_4  and  C2_5 
REMARK    3  A    between atoms: C2_5  and  C3_6 
REMARK    4  A    between atoms: C3_6  and  C4_7 
REMARK    5  A    between atoms: C4_7  and  N3_12 
REMARK    6  A    between atoms: C5_8  and  C6_9 
REMARK    7  A    between atoms: N3_12  and  C7_14 
REMARK    8  A    between atoms: C7_14  and  C8_15 
REMARK    9  A    between atoms: C8_15  and  C9_17 
REMARK   10  A    between atoms: C9_17  and  N4_18 
ROOT
HETATM    1  C4  UNL     1     -15.925  78.594  -1.757  1.00  0.00     0.012 C 
HETATM    2  C5  UNL     1     -16.306  79.835  -1.880  1.00  0.00     0.095 C 
ENDROOT
BRANCH   1   3
HETATM    3  C3  UNL     1     -15.694  77.836  -0.514  1.00  0.00     0.083 C 
BRANCH   3   4
HETATM    4  C2  UNL     1     -14.578  76.821  -0.673  1.00  0.00     0.186 C 
BRANCH   4   5
HETATM    5  O2  UNL     1     -13.975  76.455   0.538  1.00  0.00    -0.306 OA
BRANCH   5   6
HETATM    6  C1  UNL     1     -13.613  77.291   1.569  1.00  0.00     0.372 C 
HETATM    7  N1  UNL     1     -14.298  77.266   2.840  1.00  0.00    -0.032 NA
HETATM    8  O1  UNL     1     -12.661  78.085   1.380  1.00  0.00    -0.242 OA
ENDBRANCH   5   6
ENDBRANCH   4   5
ENDBRANCH   3   4
ENDBRANCH   1   3
BRANCH   1   9
HETATM    9  N3  UNL     1     -15.698  77.853  -2.994  1.00  0.00    -0.386 N 
ATOM     10  H3  UNL     1     -14.764  77.507  -3.213  1.00  0.00     0.159 HD
BRANCH   9  11
HETATM   11  C7  UNL     1     -16.781  77.607  -3.909  1.00  0.00     0.199 C 
BRANCH  11  12
HETATM   12  C8  UNL     1     -16.312  77.629  -5.312  1.00  0.00     0.169 C 
HETATM   13  O4  UNL     1     -17.095  77.925  -6.189  1.00  0.00    -0.294 OA
BRANCH  12  14
HETATM   14  C9  UNL     1     -14.918  77.298  -5.684  1.00  0.00     0.309 C 
BRANCH  14  15
HETATM   15  N4  UNL     1     -14.863  76.142  -6.522  1.00  0.00    -0.073 N 
ATOM     16  H43 UNL     1     -13.908  75.938  -6.816  1.00  0.00     0.274 HD
ATOM     17  H42 UNL     1     -15.052  75.288  -5.996  1.00  0.00     0.274 HD
ATOM     18  H41 UNL     1     -15.489  76.234  -7.323  1.00  0.00     0.274 HD
ENDBRANCH  14  15
ENDBRANCH  12  14
ENDBRANCH  11  12
ENDBRANCH   9  11
ENDBRANCH   1   9
BRANCH   2  19
HETATM   19  C6  UNL     1     -16.600  80.793  -0.842  1.00  0.00     0.256 C 
HETATM   20  N2  UNL     1     -15.525  81.530  -0.213  1.00  0.00    -0.058 NA
HETATM   21  O3  UNL     1     -17.732  81.067  -0.410  1.00  0.00    -0.272 OA
ENDBRANCH   2  19
TORSDOF 10
ENDMDL
MODEL 3
REMARK VINA RESULT: -6.708516420      1.477      5.875
REMARK  10 active torsions:
REMARK  status: ('A' for Active; 'I' for Inactive)
REMARK    1  A    between atoms: C1_2  and  O2_4 
REMARK    2  A    between atoms: O2_4  and  C2_5 
REMARK    3  A    between atoms: C2_5  and  C3_6 
REMARK    4  A    between atoms: C3_6  and  C4_7 
REMARK    5  A    between atoms: C4_7  and  N3_12 
REMARK    6  A    between atoms: C5_8  and  C6_9 
REMARK    7  A    between atoms: N3_12  and  C7_14 
REMARK    8  A    between atoms: C7_14  and  C8_15 
REMARK    9  A    between atoms: C8_15  and  C9_17 
REMARK   10  A    between atoms: C9_17  and  N4_18 
ROOT
HETATM    1  C4  UNL     1     -15.329  78.715   2.681  1.00  0.00     0.012 C 
HETATM    2  C5  UNL     1     -14.716  77.581   2.486  1.00  0.00     0.095 C 
ENDROOT
BRANCH   1   3
HETATM    3  C3  UNL     1     -15.088  80.004   2.008  1.00  0.00     0.083 C 
BRANCH   3   4
HETATM    4  C2  UNL     1     -15.173  79.875   0.498  1.00  0.00     0.186 C 
BRANCH   4   5
HETATM    5  O2  UNL     1     -16.310  80.481  -0.053  1.00  0.00    -0.306 OA
BRANCH   5   6
HETATM    6  C1  UNL     1     -16.713  80.447  -1.368  1.00  0.00     0.372 C 
HETATM    7  N1  UNL     1     -16.321  79.374  -2.252  1.00  0.00    -0.032 NA
HETATM    8  O1  UNL     1     -17.439  81.379  -1.788  1.00  0.00    -0.242 OA
ENDBRANCH   5   6
ENDBRANCH   4   5
ENDBRANCH   3   4
ENDBRANCH   1   3
BRANCH   1   9
HETATM    9  N3  UNL     1     -16.388  78.721   3.686  1.00  0.00    -0.386 N 
ATOM     10  H3  UNL     1     -16.897  77.861   3.891  1.00  0.00     0.159 HD
BRANCH   9  11
HETATM   11  C7  UNL     1     -16.719  79.931   4.391  1.00  0.00     0.199 C 
BRANCH  11  12
HETATM   12  C8  UNL     1     -16.262  79.874   5.797  1.00  0.00     0.169 C 
HETATM   13  O4  UNL     1     -15.134  79.498   6.034  1.00  0.00    -0.294 OA
BRANCH  12  14
HETATM   14  C9  UNL     1     -17.136  80.260   6.928  1.00  0.00     0.309 C 
BRANCH  14  15
HETATM   15  N4  UNL     1     -18.515  80.231   6.552  1.00  0.00    -0.073 N 
ATOM     16  H43 UNL     1     -18.643  80.504   5.578  1.00  0.00     0.274 HD
ATOM     17  H42 UNL     1     -18.867  79.275   6.495  1.00  0.00     0.274 HD
ATOM     18  H41 UNL     1     -19.082  80.802   7.179  1.00  0.00     0.274 HD
ENDBRANCH  14  15
ENDBRANCH  12  14
ENDBRANCH  11  12
ENDBRANCH   9  11
ENDBRANCH   1   9
BRANCH   2  19
HETATM   19  C6  UNL     1     -13.643  77.285   1.566  1.00  0.00     0.256 C 
HETATM   20  N2  UNL     1     -13.747  76.147   0.679  1.00  0.00    -0.058 NA
HETATM   21  O3  UNL     1     -12.590  77.934   1.449  1.00  0.00    -0.272 OA
ENDBRANCH   2  19
TORSDOF 10
ENDMDL
MODEL 4
REMARK VINA RESULT: -6.700742488      1.601      5.770
REMARK  10 active torsions:
REMARK  status: ('A' for Active; 'I' for Inactive)
REMARK    1  A    between atoms: C1_2  and  O2_4 
REMARK    2  A    between atoms: O2_4  and  C2_5 
REMARK    3  A    between atoms: C2_5  and  C3_6 
REMARK    4  A    between atoms: C3_6  and  C4_7 
REMARK    5  A    between atoms: C4_7  and  N3_12 
REMARK    6  A    between atoms: C5_8  and  C6_9 
REMARK    7  A    between atoms: N3_12  and  C7_14 
REMARK    8  A    between atoms: C7_14  and  C8_15 
REMARK    9  A    between atoms: C8_15  and  C9_17 
REMARK   10  A    between atoms: C9_17  and  N4_18 
ROOT
HETATM    1  C4  UNL     1     -14.806  79.555   2.225  1.00  0.00     0.012 C 
HETATM    2  C5  UNL     1     -13.969  78.567   2.080  1.00  0.00     0.095 C 
ENDROOT
BRANCH   1   3
HETATM    3  C3  UNL     1     -15.769  80.080   1.239  1.00  0.00     0.083 C 
BRANCH   3   4
HETATM    4  C2  UNL     1     -15.122  81.079   0.298  1.00  0.00     0.186 C 
BRANCH   4   5
HETATM    5  O2  UNL     1     -15.278  80.757  -1.057  1.00  0.00    -0.306 OA
BRANCH   5   6
HETATM    6  C1  UNL     1     -16.409  80.265  -1.668  1.00  0.00     0.372 C 
HETATM    7  N1  UNL     1     -16.477  78.907  -2.153  1.00  0.00    -0.032 NA
HETATM    8  O1  UNL     1     -17.393  81.032  -1.794  1.00  0.00    -0.242 OA
ENDBRANCH   5   6
ENDBRANCH   4   5
ENDBRANCH   3   4
ENDBRANCH   1   3
BRANCH   1   9
HETATM    9  N3  UNL     1     -14.802  80.233   3.518  1.00  0.00    -0.386 N 
ATOM     10  H3  UNL     1     -14.537  81.217   3.573  1.00  0.00     0.159 HD
BRANCH   9  11
HETATM   11  C7  UNL     1     -15.167  79.526   4.715  1.00  0.00     0.199 C 
BRANCH  11  12
HETATM   12  C8  UNL     1     -16.513  79.925   5.184  1.00  0.00     0.169 C 
HETATM   13  O4  UNL     1     -17.389  80.109   4.367  1.00  0.00    -0.294 OA
BRANCH  12  14
HETATM   14  C9  UNL     1     -16.826  80.108   6.619  1.00  0.00     0.309 C 
BRANCH  14  15
HETATM   15  N4  UNL     1     -18.236  80.198   6.836  1.00  0.00    -0.073 N 
ATOM     16  H43 UNL     1     -18.754  79.627   6.168  1.00  0.00     0.274 HD
ATOM     17  H42 UNL     1     -18.513  79.725   7.696  1.00  0.00     0.274 HD
ATOM     18  H41 UNL     1     -18.552  81.168   6.824  1.00  0.00     0.274 HD
ENDBRANCH  14  15
ENDBRANCH  12  14
ENDBRANCH  11  12
ENDBRANCH   9  11
ENDBRANCH   1   9
BRANCH   2  19
HETATM   19  C6  UNL     1     -13.759  77.728   0.924  1.00  0.00     0.256 C 
HETATM   20  N2  UNL     1     -13.725  76.289   1.074  1.00  0.00    -0.058 NA
HETATM   21  O3  UNL     1     -13.596  78.127  -0.241  1.00  0.00    -0.272 OA
ENDBRANCH   2  19
TORSDOF 10
ENDMDL
MODEL 5
REMARK VINA RESULT: -6.699769486      2.859      7.225
REMARK  10 active torsions:
REMARK  status: ('A' for Active; 'I' for Inactive)
REMARK    1  A    between atoms: C1_2  and  O2_4 
REMARK    2  A    between atoms: O2_4  and  C2_5 
REMARK    3  A    between atoms: C2_5  and  C3_6 
REMARK    4  A    between atoms: C3_6  and  C4_7 
REMARK    5  A    between atoms: C4_7  and  N3_12 
REMARK    6  A    between atoms: C5_8  and  C6_9 
REMARK    7  A    between atoms: N3_12  and  C7_14 
REMARK    8  A    between atoms: C7_14  and  C8_15 
REMARK    9  A    between atoms: C8_15  and  C9_17 
REMARK   10  A    between atoms: C9_17  and  N4_18 
ROOT
HETATM    1  C4  UNL     1     -15.305  78.581  -0.557  1.00  0.00     0.012 C 
HETATM    2  C5  UNL     1     -14.858  79.679  -0.015  1.00  0.00     0.095 C 
ENDROOT
BRANCH   1   3
HETATM    3  C3  UNL     1     -16.393  78.434  -1.542  1.00  0.00     0.083 C 
BRANCH   3   4
HETATM    4  C2  UNL     1     -15.946  77.646  -2.758  1.00  0.00     0.186 C 
BRANCH   4   5
HETATM    5  O2  UNL     1     -16.262  78.265  -3.975  1.00  0.00    -0.306 OA
BRANCH   5   6
HETATM    6  C1  UNL     1     -16.444  77.654  -5.194  1.00  0.00     0.372 C 
HETATM    7  N1  UNL     1     -15.719  76.459  -5.558  1.00  0.00    -0.032 NA
HETATM    8  O1  UNL     1     -17.265  78.162  -5.993  1.00  0.00    -0.242 OA
ENDBRANCH   5   6
ENDBRANCH   4   5
ENDBRANCH   3   4
ENDBRANCH   1   3
BRANCH   1   9
HETATM    9  N3  UNL     1     -14.658  77.338  -0.148  1.00  0.00    -0.386 N 
ATOM     10  H3  UNL     1     -14.698  76.522  -0.759  1.00  0.00     0.159 HD
BRANCH   9  11
HETATM   11  C7  UNL     1     -13.963  77.255   1.109  1.00  0.00     0.199 C 
BRANCH  11  12
HETATM   12  C8  UNL     1     -14.908  77.300   2.247  1.00  0.00     0.169 C 
HETATM   13  O4  UNL     1     -15.776  76.457   2.325  1.00  0.00    -0.294 OA
BRANCH  12  14
HETATM   14  C9  UNL     1     -14.831  78.342   3.295  1.00  0.00     0.309 C 
BRANCH  14  15
HETATM   15  N4  UNL     1     -16.037  79.107   3.358  1.00  0.00    -0.073 N 
ATOM     16  H43 UNL     1     -16.842  78.560   3.053  1.00  0.00     0.274 HD
ATOM     17  H42 UNL     1     -16.321  79.279   4.323  1.00  0.00     0.274 HD
ATOM     18  H41 UNL     1     -15.953  79.976   2.831  1.00  0.00     0.274 HD
ENDBRANCH  14  15
ENDBRANCH  12  14
ENDBRANCH  11  12
ENDBRANCH   9  11
ENDBRANCH   1   9
BRANCH   2  19
HETATM   19  C6  UNL     1     -15.303  81.035  -0.229  1.00  0.00     0.256 C 
HETATM   20  N2  UNL     1     -16.715  81.316  -0.384  1.00  0.00    -0.058 NA
HETATM   21  O3  UNL     1     -14.570  82.035  -0.298  1.00  0.00    -0.272 OA
ENDBRANCH   2  19
TORSDOF 10
ENDMDL
