MODEL 1
REMARK VINA RESULT: -6.697732524      0.000      0.000
REMARK  11 active torsions:
REMARK  status: ('A' for Active; 'I' for Inactive)
REMARK    1  A    between atoms: O1_2  and  C2_3 
REMARK    2  A    between atoms: C2_3  and  C3_4 
REMARK    3  A    between atoms: C3_4  and  N1_5 
REMARK    4  A    between atoms: N1_5  and  C4_8 
REMARK    5  A    between atoms: C4_8  and  C5_9 
REMARK       I    between atoms: C5_9  and  N2_11 
REMARK    6  A    between atoms: N2_11  and  C6_13 
REMARK    7  A    between atoms: C6_13  and  C7_14 
REMARK    8  A    between atoms: C7_14  and  O3_15 
REMARK    9  A    between atoms: C7_14  and  C8_17 
REMARK   10  A    between atoms: C7_14  and  C9_22 
REMARK   11  A    between atoms: C8_17  and  N3_18 
ROOT
HETATM    1  C5  UNL     1     -14.040  77.845   1.349  1.00  0.00     0.243 C 
HETATM    2  O2  UNL     1     -12.868  78.066   0.998  1.00  0.00    -0.272 OA
HETATM    3  N2  UNL     1     -15.136  77.731   0.496  1.00  0.00    -0.356 N 
ATOM      4  H2  UNL     1     -16.035  77.539   0.939  1.00  0.00     0.162 HD
ENDROOT
BRANCH   3   5
HETATM    5  C6  UNL     1     -15.147  77.852  -0.920  1.00  0.00     0.172 C 
BRANCH   5   6
HETATM    6  C7  UNL     1     -16.259  78.626  -1.550  1.00  0.00     0.175 C 
BRANCH   6   7
HETATM    7  O3  UNL     1     -17.478  78.231  -1.075  1.00  0.00    -0.377 OA
ATOM      8  H3  UNL     1     -18.016  78.975  -0.830  1.00  0.00     0.211 HD
ENDBRANCH   6   7
BRANCH   6   9
HETATM    9  C8  UNL     1     -16.240  78.315  -3.043  1.00  0.00     0.278 C 
BRANCH   9  10
HETATM   10  N3  UNL     1     -15.756  77.010  -3.358  1.00  0.00    -0.076 N 
ATOM     11  H33 UNL     1     -15.733  76.872  -4.369  1.00  0.00     0.274 HD
ATOM     12  H32 UNL     1     -14.760  76.938  -3.151  1.00  0.00     0.274 HD
ATOM     13  H31 UNL     1     -16.271  76.255  -2.906  1.00  0.00     0.274 HD
ENDBRANCH   9  10
ENDBRANCH   6   9
BRANCH   6  14
HETATM   14  C9  UNL     1     -15.994  80.066  -1.309  1.00  0.00     0.269 C 
HETATM   15  N4  UNL     1     -17.038  80.994  -1.476  1.00  0.00    -0.059 NA
HETATM   16  O4  UNL     1     -14.855  80.424  -0.965  1.00  0.00    -0.273 OA
ENDBRANCH   6  14
ENDBRANCH   5   6
ENDBRANCH   3   5
BRANCH   1  17
HETATM   17  C4  UNL     1     -14.257  77.692   2.832  1.00  0.00     0.334 C 
BRANCH  17  18
HETATM   18  N1  UNL     1     -15.568  78.194   3.167  1.00  0.00    -0.065 N 
ATOM     19  H12 UNL     1     -16.038  77.631   3.877  1.00  0.00     0.277 HD
ATOM     20  H11 UNL     1     -16.247  78.060   2.417  1.00  0.00     0.277 HD
BRANCH  18  21
HETATM   21  C3  UNL     1     -15.423  79.585   3.555  1.00  0.00     0.259 C 
BRANCH  21  22
HETATM   22  C2  UNL     1     -16.556  79.948   4.517  1.00  0.00     0.194 C 
BRANCH  22  23
HETATM   23  O1  UNL     1     -16.155  79.598   5.786  1.00  0.00    -0.394 OA
HETATM   24  C1  UNL     1     -16.852  80.256   6.776  1.00  0.00     0.201 C 
ENDBRANCH  22  23
ENDBRANCH  21  22
ENDBRANCH  18  21
ENDBRANCH  17  18
ENDBRANCH   1  17
TORSDOF 11
ENDMDL
MODEL 2
REMARK VINA RESULT: -6.601154949      2.256      6.945
REMARK  11 active torsions:
REMARK  status: ('A' for Active; 'I' for Inactive)
REMARK    1  A    between atoms: O1_2  and  C2_3 
REMARK    2  A    between atoms: C2_3  and  C3_4 
REMARK    3  A    between atoms: C3_4  and  N1_5 
REMARK    4  A    between atoms: N1_5  and  C4_8 
REMARK    5  A    between atoms: C4_8  and  C5_9 
REMARK       I    between atoms: C5_9  and  N2_11 
REMARK    6  A    between atoms: N2_11  and  C6_13 
REMARK    7  A    between atoms: C6_13  and  C7_14 
REMARK    8  A    between atoms: C7_14  and  O3_15 
REMARK    9  A    between atoms: C7_14  and  C8_17 
REMARK   10  A    between atoms: C7_14  and  C9_22 
REMARK   11  A    between atoms: C8_17  and  N3_18 
ROOT
HETATM    1  C5  UNL     1     -16.113  79.481  -1.460  1.00  0.00     0.243 C 
HETATM    2  O2  UNL     1     -16.387  80.689  -1.355  1.00  0.00    -0.272 OA
HETATM    3  N2  UNL     1     -15.676  78.654  -0.426  1.00  0.00    -0.356 N 
ATOM      4  H2  UNL     1     -15.500  77.680  -0.671  1.00  0.00     0.162 HD
ENDROOT
BRANCH   3   5
HETATM    5  C6  UNL     1     -15.446  79.012   0.929  1.00  0.00     0.172 C 
BRANCH   5   6
HETATM    6  C7  UNL     1     -14.973  77.948   1.865  1.00  0.00     0.175 C 
BRANCH   6   7
HETATM    7  O3  UNL     1     -15.925  76.986   2.053  1.00  0.00    -0.377 OA
ATOM      8  H3  UNL     1     -15.621  76.304   2.642  1.00  0.00     0.211 HD
ENDBRANCH   6   7
BRANCH   6   9
HETATM    9  C8  UNL     1     -14.734  78.608   3.220  1.00  0.00     0.278 C 
BRANCH   9  10
HETATM   10  N3  UNL     1     -14.409  79.996   3.141  1.00  0.00    -0.076 N 
ATOM     11  H33 UNL     1     -14.399  80.306   2.169  1.00  0.00     0.274 HD
ATOM     12  H32 UNL     1     -15.178  80.564   3.495  1.00  0.00     0.274 HD
ATOM     13  H31 UNL     1     -13.536  80.245   3.605  1.00  0.00     0.274 HD
ENDBRANCH   9  10
ENDBRANCH   6   9
BRANCH   6  14
HETATM   14  C9  UNL     1     -13.708  77.399   1.317  1.00  0.00     0.269 C 
HETATM   15  N4  UNL     1     -13.711  76.121   0.730  1.00  0.00    -0.059 NA
HETATM   16  O4  UNL     1     -12.671  78.079   1.387  1.00  0.00    -0.273 OA
ENDBRANCH   6  14
ENDBRANCH   5   6
ENDBRANCH   3   5
BRANCH   1  17
HETATM   17  C4  UNL     1     -16.280  78.892  -2.837  1.00  0.00     0.334 C 
BRANCH  17  18
HETATM   18  N1  UNL     1     -16.275  77.453  -2.734  1.00  0.00    -0.065 N 
ATOM     19  H12 UNL     1     -17.153  77.079  -2.373  1.00  0.00     0.277 HD
ATOM     20  H11 UNL     1     -15.667  77.111  -1.990  1.00  0.00     0.277 HD
BRANCH  18  21
HETATM   21  C3  UNL     1     -15.926  76.917  -4.037  1.00  0.00     0.259 C 
BRANCH  21  22
HETATM   22  C2  UNL     1     -16.574  77.788  -5.116  1.00  0.00     0.194 C 
BRANCH  22  23
HETATM   23  O1  UNL     1     -16.209  77.276  -6.341  1.00  0.00    -0.394 OA
HETATM   24  C1  UNL     1     -14.929  76.766  -6.355  1.00  0.00     0.201 C 
ENDBRANCH  22  23
ENDBRANCH  21  22
ENDBRANCH  18  21
ENDBRANCH  17  18
ENDBRANCH   1  17
TORSDOF 11
ENDMDL
MODEL 3
REMARK VINA RESULT: -6.346383930      2.231      6.850
REMARK  11 active torsions:
REMARK  status: ('A' for Active; 'I' for Inactive)
REMARK    1  A    between atoms: O1_2  and  C2_3 
REMARK    2  A    between atoms: C2_3  and  C3_4 
REMARK    3  A    between atoms: C3_4  and  N1_5 
REMARK    4  A    between atoms: N1_5  and  C4_8 
REMARK    5  A    between atoms: C4_8  and  C5_9 
REMARK       I    between atoms: C5_9  and  N2_11 
REMARK    6  A    between atoms: N2_11  and  C6_13 
REMARK    7  A    between atoms: C6_13  and  C7_14 
REMARK    8  A    between atoms: C7_14  and  O3_15 
REMARK    9  A    between atoms: C7_14  and  C8_17 
REMARK   10  A    between atoms: C7_14  and  C9_22 
REMARK   11  A    between atoms: C8_17  and  N3_18 
ROOT
HETATM    1  C5  UNL     1     -16.197  79.870  -1.152  1.00  0.00     0.243 C 
HETATM    2  O2  UNL     1     -16.735  80.991  -1.174  1.00  0.00    -0.272 OA
HETATM    3  N2  UNL     1     -15.558  79.298  -0.053  1.00  0.00    -0.356 N 
ATOM      4  H2  UNL     1     -15.172  78.364  -0.192  1.00  0.00     0.162 HD
ENDROOT
BRANCH   3   5
HETATM    5  C6  UNL     1     -15.380  79.865   1.237  1.00  0.00     0.172 C 
BRANCH   5   6
HETATM    6  C7  UNL     1     -14.963  78.960   2.350  1.00  0.00     0.175 C 
BRANCH   6   7
HETATM    7  O3  UNL     1     -16.040  78.510   3.062  1.00  0.00    -0.377 OA
ATOM      8  H3  UNL     1     -15.776  78.133   3.893  1.00  0.00     0.211 HD
ENDBRANCH   6   7
BRANCH   6   9
HETATM    9  C8  UNL     1     -14.108  79.783   3.309  1.00  0.00     0.278 C 
BRANCH   9  10
HETATM   10  N3  UNL     1     -14.729  80.039   4.568  1.00  0.00    -0.076 N 
ATOM     11  H33 UNL     1     -15.743  80.075   4.466  1.00  0.00     0.274 HD
ATOM     12  H32 UNL     1     -14.645  79.227   5.179  1.00  0.00     0.274 HD
ATOM     13  H31 UNL     1     -14.387  80.877   5.037  1.00  0.00     0.274 HD
ENDBRANCH   9  10
ENDBRANCH   6   9
BRANCH   6  14
HETATM   14  C9  UNL     1     -14.171  77.855   1.756  1.00  0.00     0.269 C 
HETATM   15  N4  UNL     1     -12.859  78.109   1.317  1.00  0.00    -0.059 NA
HETATM   16  O4  UNL     1     -14.683  76.727   1.659  1.00  0.00    -0.273 OA
ENDBRANCH   6  14
ENDBRANCH   5   6
ENDBRANCH   3   5
BRANCH   1  17
HETATM   17  C4  UNL     1     -16.262  79.091  -2.440  1.00  0.00     0.334 C 
BRANCH  17  18
HETATM   18  N1  UNL     1     -15.843  77.734  -2.187  1.00  0.00    -0.065 N 
ATOM     19  H12 UNL     1     -16.407  77.272  -1.473  1.00  0.00     0.277 HD
ATOM     20  H11 UNL     1     -14.945  77.680  -1.705  1.00  0.00     0.277 HD
BRANCH  18  21
HETATM   21  C3  UNL     1     -15.846  77.026  -3.454  1.00  0.00     0.259 C 
BRANCH  21  22
HETATM   22  C2  UNL     1     -16.675  77.825  -4.462  1.00  0.00     0.194 C 
BRANCH  22  23
HETATM   23  O1  UNL     1     -16.373  77.354  -5.719  1.00  0.00    -0.394 OA
HETATM   24  C1  UNL     1     -15.049  77.000  -5.860  1.00  0.00     0.201 C 
ENDBRANCH  22  23
ENDBRANCH  21  22
ENDBRANCH  18  21
ENDBRANCH  17  18
ENDBRANCH   1  17
TORSDOF 11
ENDMDL
MODEL 4
REMARK VINA RESULT: -6.081494250      2.041      6.666
REMARK  11 active torsions:
REMARK  status: ('A' for Active; 'I' for Inactive)
REMARK    1  A    between atoms: O1_2  and  C2_3 
REMARK    2  A    between atoms: C2_3  and  C3_4 
REMARK    3  A    between atoms: C3_4  and  N1_5 
REMARK    4  A    between atoms: N1_5  and  C4_8 
REMARK    5  A    between atoms: C4_8  and  C5_9 
REMARK       I    between atoms: C5_9  and  N2_11 
REMARK    6  A    between atoms: N2_11  and  C6_13 
REMARK    7  A    between atoms: C6_13  and  C7_14 
REMARK    8  A    between atoms: C7_14  and  O3_15 
REMARK    9  A    between atoms: C7_14  and  C8_17 
REMARK   10  A    between atoms: C7_14  and  C9_22 
REMARK   11  A    between atoms: C8_17  and  N3_18 
ROOT
HETATM    1  C5  UNL     1     -15.352  80.479  -0.356  1.00  0.00     0.243 C 
HETATM    2  O2  UNL     1     -14.720  81.549  -0.391  1.00  0.00    -0.272 OA
HETATM    3  N2  UNL     1     -15.608  79.724   0.788  1.00  0.00    -0.356 N 
ATOM      4  H2  UNL     1     -16.150  78.870   0.653  1.00  0.00     0.162 HD
ENDROOT
BRANCH   3   5
HETATM    5  C6  UNL     1     -15.202  80.006   2.120  1.00  0.00     0.172 C 
BRANCH   5   6
HETATM    6  C7  UNL     1     -15.292  78.907   3.128  1.00  0.00     0.175 C 
BRANCH   6   7
HETATM    7  O3  UNL     1     -16.575  78.731   3.565  1.00  0.00    -0.377 OA
ATOM      8  H3  UNL     1     -16.977  77.967   3.168  1.00  0.00     0.211 HD
ENDBRANCH   6   7
BRANCH   6   9
HETATM    9  C8  UNL     1     -14.464  79.331   4.337  1.00  0.00     0.278 C 
BRANCH   9  10
HETATM   10  N3  UNL     1     -15.240  79.633   5.496  1.00  0.00    -0.076 N 
ATOM     11  H33 UNL     1     -15.705  78.794   5.843  1.00  0.00     0.274 HD
ATOM     12  H32 UNL     1     -14.633  79.836   6.289  1.00  0.00     0.274 HD
ATOM     13  H31 UNL     1     -15.915  80.385   5.359  1.00  0.00     0.274 HD
ENDBRANCH   9  10
ENDBRANCH   6   9
BRANCH   6  14
HETATM   14  C9  UNL     1     -14.729  77.682   2.508  1.00  0.00     0.269 C 
HETATM   15  N4  UNL     1     -15.586  76.609   2.205  1.00  0.00    -0.059 NA
HETATM   16  O4  UNL     1     -13.511  77.629   2.267  1.00  0.00    -0.273 OA
ENDBRANCH   6  14
ENDBRANCH   5   6
ENDBRANCH   3   5
BRANCH   1  17
HETATM   17  C4  UNL     1     -15.871  79.986  -1.682  1.00  0.00     0.334 C 
BRANCH  17  18
HETATM   18  N1  UNL     1     -16.512  78.708  -1.486  1.00  0.00    -0.065 N 
ATOM     19  H12 UNL     1     -17.519  78.741  -1.651  1.00  0.00     0.277 HD
ATOM     20  H11 UNL     1     -16.545  78.427  -0.506  1.00  0.00     0.277 HD
BRANCH  18  21
HETATM   21  C3  UNL     1     -15.834  77.739  -2.328  1.00  0.00     0.259 C 
BRANCH  21  22
HETATM   22  C2  UNL     1     -16.471  77.766  -3.719  1.00  0.00     0.194 C 
BRANCH  22  23
HETATM   23  O1  UNL     1     -15.941  76.721  -4.441  1.00  0.00    -0.394 OA
HETATM   24  C1  UNL     1     -15.478  77.101  -5.683  1.00  0.00     0.201 C 
ENDBRANCH  22  23
ENDBRANCH  21  22
ENDBRANCH  18  21
ENDBRANCH  17  18
ENDBRANCH   1  17
TORSDOF 11
ENDMDL
MODEL 5
REMARK VINA RESULT: -5.975800510      2.480      5.801
REMARK  11 active torsions:
REMARK  status: ('A' for Active; 'I' for Inactive)
REMARK    1  A    between atoms: O1_2  and  C2_3 
REMARK    2  A    between atoms: C2_3  and  C3_4 
REMARK    3  A    between atoms: C3_4  and  N1_5 
REMARK    4  A    between atoms: N1_5  and  C4_8 
REMARK    5  A    between atoms: C4_8  and  C5_9 
REMARK       I    between atoms: C5_9  and  N2_11 
REMARK    6  A    between atoms: N2_11  and  C6_13 
REMARK    7  A    between atoms: C6_13  and  C7_14 
REMARK    8  A    between atoms: C7_14  and  O3_15 
REMARK    9  A    between atoms: C7_14  and  C8_17 
REMARK   10  A    between atoms: C7_14  and  C9_22 
REMARK   11  A    between atoms: C8_17  and  N3_18 
ROOT
HETATM    1  C5  UNL     1     -15.706  81.079   0.140  1.00  0.00     0.243 C 
HETATM    2  O2  UNL     1     -14.734  81.689  -0.338  1.00  0.00    -0.272 OA
HETATM    3  N2  UNL     1     -15.638  80.066   1.096  1.00  0.00    -0.356 N 
ATOM      4  H2  UNL     1     -16.528  79.667   1.395  1.00  0.00     0.162 HD
ENDROOT
BRANCH   3   5
HETATM    5  C6  UNL     1     -14.472  79.524   1.701  1.00  0.00     0.172 C 
BRANCH   5   6
HETATM    6  C7  UNL     1     -14.036  78.157   1.283  1.00  0.00     0.175 C 
BRANCH   6   7
HETATM    7  O3  UNL     1     -12.673  78.050   1.262  1.00  0.00    -0.377 OA
ATOM      8  H3  UNL     1     -12.278  78.727   0.725  1.00  0.00     0.211 HD
ENDBRANCH   6   7
BRANCH   6   9
HETATM    9  C8  UNL     1     -14.521  77.944  -0.148  1.00  0.00     0.278 C 
BRANCH   9  10
HETATM   10  N3  UNL     1     -14.246  76.643  -0.666  1.00  0.00    -0.076 N 
ATOM     11  H33 UNL     1     -13.796  76.063   0.042  1.00  0.00     0.274 HD
ATOM     12  H32 UNL     1     -15.111  76.119  -0.795  1.00  0.00     0.274 HD
ATOM     13  H31 UNL     1     -13.698  76.646  -1.526  1.00  0.00     0.274 HD
ENDBRANCH   9  10
ENDBRANCH   6   9
BRANCH   6  14
HETATM   14  C9  UNL     1     -14.670  77.183   2.205  1.00  0.00     0.269 C 
HETATM   15  N4  UNL     1     -14.205  77.087   3.529  1.00  0.00    -0.059 NA
HETATM   16  O4  UNL     1     -15.599  76.471   1.788  1.00  0.00    -0.273 OA
ENDBRANCH   6  14
ENDBRANCH   5   6
ENDBRANCH   3   5
BRANCH   1  17
HETATM   17  C4  UNL     1     -17.058  81.495  -0.379  1.00  0.00     0.334 C 
BRANCH  17  18
HETATM   18  N1  UNL     1     -17.180  81.073  -1.753  1.00  0.00    -0.065 N 
ATOM     19  H12 UNL     1     -16.466  81.480  -2.358  1.00  0.00     0.277 HD
ATOM     20  H11 UNL     1     -17.995  81.473  -2.220  1.00  0.00     0.277 HD
BRANCH  18  21
HETATM   21  C3  UNL     1     -17.176  79.622  -1.773  1.00  0.00     0.259 C 
BRANCH  21  22
HETATM   22  C2  UNL     1     -16.307  79.148  -2.940  1.00  0.00     0.194 C 
BRANCH  22  23
HETATM   23  O1  UNL     1     -16.333  77.772  -2.948  1.00  0.00    -0.394 OA
HETATM   24  C1  UNL     1     -16.159  77.235  -4.205  1.00  0.00     0.201 C 
ENDBRANCH  22  23
ENDBRANCH  21  22
ENDBRANCH  18  21
ENDBRANCH  17  18
ENDBRANCH   1  17
TORSDOF 11
ENDMDL
