MODEL 1
REMARK VINA RESULT: -6.753790655      0.000      0.000
REMARK  10 active torsions:
REMARK  status: ('A' for Active; 'I' for Inactive)
REMARK    1  A    between atoms: C1_2  and  O2_4 
REMARK    2  A    between atoms: O2_4  and  C2_5 
REMARK    3  A    between atoms: C2_5  and  C3_6 
REMARK    4  A    between atoms: C3_6  and  C4_7 
REMARK    5  A    between atoms: C4_7  and  N3_12 
REMARK    6  A    between atoms: C5_8  and  C6_9 
REMARK    7  A    between atoms: N3_12  and  C7_14 
REMARK    8  A    between atoms: C7_14  and  C8_15 
REMARK    9  A    between atoms: C8_15  and  C9_17 
REMARK   10  A    between atoms: C9_17  and  N4_18 
ROOT
HETATM    1  C4  UNL     1     -14.726 -24.696  21.991  1.00  0.00     0.012 C 
HETATM    2  C5  UNL     1     -13.526 -24.796  21.494  1.00  0.00     0.095 C 
ENDROOT
BRANCH   1   3
HETATM    3  C3  UNL     1     -15.109 -24.459  23.395  1.00  0.00     0.083 C 
BRANCH   3   4
HETATM    4  C2  UNL     1     -16.456 -25.076  23.723  1.00  0.00     0.186 C 
BRANCH   4   5
HETATM    5  O2  UNL     1     -16.363 -26.283  24.428  1.00  0.00    -0.306 OA
BRANCH   5   6
HETATM    6  C1  UNL     1     -15.439 -26.611  25.393  1.00  0.00     0.372 C 
HETATM    7  N1  UNL     1     -15.578 -26.162  26.758  1.00  0.00    -0.032 NA
HETATM    8  O1  UNL     1     -14.461 -27.320  25.058  1.00  0.00    -0.242 OA
ENDBRANCH   5   6
ENDBRANCH   4   5
ENDBRANCH   3   4
ENDBRANCH   1   3
BRANCH   1   9
HETATM    9  N3  UNL     1     -15.837 -24.833  21.054  1.00  0.00    -0.386 N 
ATOM     10  H3  UNL     1     -16.788 -24.937  21.407  1.00  0.00     0.159 HD
BRANCH   9  11
HETATM   11  C7  UNL     1     -15.602 -24.820  19.635  1.00  0.00     0.199 C 
BRANCH  11  12
HETATM   12  C8  UNL     1     -16.032 -26.091  19.010  1.00  0.00     0.169 C 
HETATM   13  O4  UNL     1     -16.553 -26.940  19.701  1.00  0.00    -0.294 OA
BRANCH  12  14
HETATM   14  C9  UNL     1     -15.846 -26.363  17.566  1.00  0.00     0.309 C 
BRANCH  14  15
HETATM   15  N4  UNL     1     -16.807 -27.306  17.087  1.00  0.00    -0.073 N 
ATOM     16  H43 UNL     1     -17.624 -27.349  17.695  1.00  0.00     0.274 HD
ATOM     17  H42 UNL     1     -17.262 -26.977  16.235  1.00  0.00     0.274 HD
ATOM     18  H41 UNL     1     -16.389 -28.227  16.956  1.00  0.00     0.274 HD
ENDBRANCH  14  15
ENDBRANCH  12  14
ENDBRANCH  11  12
ENDBRANCH   9  11
ENDBRANCH   1   9
BRANCH   2  19
HETATM   19  C6  UNL     1     -12.258 -24.704  22.177  1.00  0.00     0.256 C 
HETATM   20  N2  UNL     1     -11.373 -23.590  21.910  1.00  0.00    -0.058 NA
HETATM   21  O3  UNL     1     -11.824 -25.516  23.011  1.00  0.00    -0.272 OA
ENDBRANCH   2  19
TORSDOF 10
ENDMDL
MODEL 2
REMARK VINA RESULT: -6.585299140      1.590      4.122
REMARK  10 active torsions:
REMARK  status: ('A' for Active; 'I' for Inactive)
REMARK    1  A    between atoms: C1_2  and  O2_4 
REMARK    2  A    between atoms: O2_4  and  C2_5 
REMARK    3  A    between atoms: C2_5  and  C3_6 
REMARK    4  A    between atoms: C3_6  and  C4_7 
REMARK    5  A    between atoms: C4_7  and  N3_12 
REMARK    6  A    between atoms: C5_8  and  C6_9 
REMARK    7  A    between atoms: N3_12  and  C7_14 
REMARK    8  A    between atoms: C7_14  and  C8_15 
REMARK    9  A    between atoms: C8_15  and  C9_17 
REMARK   10  A    between atoms: C9_17  and  N4_18 
ROOT
HETATM    1  C4  UNL     1     -15.778 -25.317  22.880  1.00  0.00     0.012 C 
HETATM    2  C5  UNL     1     -16.034 -26.198  23.806  1.00  0.00     0.095 C 
ENDROOT
BRANCH   1   3
HETATM    3  C3  UNL     1     -14.728 -24.282  22.879  1.00  0.00     0.083 C 
BRANCH   3   4
HETATM    4  C2  UNL     1     -13.505 -24.722  22.097  1.00  0.00     0.186 C 
BRANCH   4   5
HETATM    5  O2  UNL     1     -12.358 -23.967  22.378  1.00  0.00    -0.306 OA
BRANCH   5   6
HETATM    6  C1  UNL     1     -11.234 -23.844  21.594  1.00  0.00     0.372 C 
HETATM    7  N1  UNL     1     -10.409 -22.660  21.634  1.00  0.00    -0.032 NA
HETATM    8  O1  UNL     1     -10.936 -24.797  20.836  1.00  0.00    -0.242 OA
ENDBRANCH   5   6
ENDBRANCH   4   5
ENDBRANCH   3   4
ENDBRANCH   1   3
BRANCH   1   9
HETATM    9  N3  UNL     1     -16.627 -25.350  21.693  1.00  0.00    -0.386 N 
ATOM     10  H3  UNL     1     -17.388 -24.678  21.596  1.00  0.00     0.159 HD
BRANCH   9  11
HETATM   11  C7  UNL     1     -16.400 -26.323  20.658  1.00  0.00     0.199 C 
BRANCH  11  12
HETATM   12  C8  UNL     1     -15.958 -25.676  19.402  1.00  0.00     0.169 C 
HETATM   13  O4  UNL     1     -15.569 -24.528  19.437  1.00  0.00    -0.294 OA
BRANCH  12  14
HETATM   14  C9  UNL     1     -15.975 -26.383  18.102  1.00  0.00     0.309 C 
BRANCH  14  15
HETATM   15  N4  UNL     1     -15.041 -25.809  17.185  1.00  0.00    -0.073 N 
ATOM     16  H43 UNL     1     -14.976 -26.355  16.326  1.00  0.00     0.274 HD
ATOM     17  H42 UNL     1     -15.391 -24.935  16.791  1.00  0.00     0.274 HD
ATOM     18  H41 UNL     1     -14.125 -25.683  17.619  1.00  0.00     0.274 HD
ENDBRANCH  14  15
ENDBRANCH  12  14
ENDBRANCH  11  12
ENDBRANCH   9  11
ENDBRANCH   1   9
BRANCH   2  19
HETATM   19  C6  UNL     1     -15.366 -26.396  25.070  1.00  0.00     0.256 C 
HETATM   20  N2  UNL     1     -14.010 -26.902  25.098  1.00  0.00    -0.058 NA
HETATM   21  O3  UNL     1     -15.852 -26.167  26.189  1.00  0.00    -0.272 OA
ENDBRANCH   2  19
TORSDOF 10
ENDMDL
MODEL 3
REMARK VINA RESULT: -6.384674756      2.739      5.847
REMARK  10 active torsions:
REMARK  status: ('A' for Active; 'I' for Inactive)
REMARK    1  A    between atoms: C1_2  and  O2_4 
REMARK    2  A    between atoms: O2_4  and  C2_5 
REMARK    3  A    between atoms: C2_5  and  C3_6 
REMARK    4  A    between atoms: C3_6  and  C4_7 
REMARK    5  A    between atoms: C4_7  and  N3_12 
REMARK    6  A    between atoms: C5_8  and  C6_9 
REMARK    7  A    between atoms: N3_12  and  C7_14 
REMARK    8  A    between atoms: C7_14  and  C8_15 
REMARK    9  A    between atoms: C8_15  and  C9_17 
REMARK   10  A    between atoms: C9_17  and  N4_18 
ROOT
HETATM    1  C4  UNL     1     -16.019 -25.717  23.002  1.00  0.00     0.012 C 
HETATM    2  C5  UNL     1     -16.722 -24.919  23.756  1.00  0.00     0.095 C 
ENDROOT
BRANCH   1   3
HETATM    3  C3  UNL     1     -15.812 -25.639  21.544  1.00  0.00     0.083 C 
BRANCH   3   4
HETATM    4  C2  UNL     1     -14.587 -24.815  21.193  1.00  0.00     0.186 C 
BRANCH   4   5
HETATM    5  O2  UNL     1     -13.674 -24.690  22.249  1.00  0.00    -0.306 OA
BRANCH   5   6
HETATM    6  C1  UNL     1     -12.301 -24.719  22.165  1.00  0.00     0.372 C 
HETATM    7  N1  UNL     1     -11.562 -23.691  21.469  1.00  0.00    -0.032 NA
HETATM    8  O1  UNL     1     -11.696 -25.670  22.714  1.00  0.00    -0.242 OA
ENDBRANCH   5   6
ENDBRANCH   4   5
ENDBRANCH   3   4
ENDBRANCH   1   3
BRANCH   1   9
HETATM    9  N3  UNL     1     -15.347 -26.827  23.672  1.00  0.00    -0.386 N 
ATOM     10  H3  UNL     1     -14.329 -26.838  23.736  1.00  0.00     0.159 HD
BRANCH   9  11
HETATM   11  C7  UNL     1     -16.109 -27.905  24.242  1.00  0.00     0.199 C 
BRANCH  11  12
HETATM   12  C8  UNL     1     -16.249 -27.746  25.706  1.00  0.00     0.169 C 
HETATM   13  O4  UNL     1     -17.219 -28.219  26.259  1.00  0.00    -0.294 OA
BRANCH  12  14
HETATM   14  C9  UNL     1     -15.245 -27.026  26.522  1.00  0.00     0.309 C 
BRANCH  14  15
HETATM   15  N4  UNL     1     -15.814 -25.877  27.153  1.00  0.00    -0.073 N 
ATOM     16  H43 UNL     1     -16.013 -25.140  26.476  1.00  0.00     0.274 HD
ATOM     17  H42 UNL     1     -16.765 -26.058  27.473  1.00  0.00     0.274 HD
ATOM     18  H41 UNL     1     -15.221 -25.538  27.911  1.00  0.00     0.274 HD
ENDBRANCH  14  15
ENDBRANCH  12  14
ENDBRANCH  11  12
ENDBRANCH   9  11
ENDBRANCH   1   9
BRANCH   2  19
HETATM   19  C6  UNL     1     -17.483 -23.754  23.370  1.00  0.00     0.256 C 
HETATM   20  N2  UNL     1     -18.765 -23.913  22.717  1.00  0.00    -0.058 NA
HETATM   21  O3  UNL     1     -17.138 -22.574  23.546  1.00  0.00    -0.272 OA
ENDBRANCH   2  19
TORSDOF 10
ENDMDL
MODEL 4
REMARK VINA RESULT: -6.368316115      1.650      2.144
REMARK  10 active torsions:
REMARK  status: ('A' for Active; 'I' for Inactive)
REMARK    1  A    between atoms: C1_2  and  O2_4 
REMARK    2  A    between atoms: O2_4  and  C2_5 
REMARK    3  A    between atoms: C2_5  and  C3_6 
REMARK    4  A    between atoms: C3_6  and  C4_7 
REMARK    5  A    between atoms: C4_7  and  N3_12 
REMARK    6  A    between atoms: C5_8  and  C6_9 
REMARK    7  A    between atoms: N3_12  and  C7_14 
REMARK    8  A    between atoms: C7_14  and  C8_15 
REMARK    9  A    between atoms: C8_15  and  C9_17 
REMARK   10  A    between atoms: C9_17  and  N4_18 
ROOT
HETATM    1  C4  UNL     1     -14.531 -24.866  22.101  1.00  0.00     0.012 C 
HETATM    2  C5  UNL     1     -13.390 -24.671  21.502  1.00  0.00     0.095 C 
ENDROOT
BRANCH   1   3
HETATM    3  C3  UNL     1     -14.773 -25.105  23.536  1.00  0.00     0.083 C 
BRANCH   3   4
HETATM    4  C2  UNL     1     -16.063 -25.869  23.769  1.00  0.00     0.186 C 
BRANCH   4   5
HETATM    5  O2  UNL     1     -17.140 -25.052  24.136  1.00  0.00    -0.306 OA
BRANCH   5   6
HETATM    6  C1  UNL     1     -17.677 -24.012  23.413  1.00  0.00     0.372 C 
HETATM    7  N1  UNL     1     -17.077 -22.698  23.416  1.00  0.00    -0.032 NA
HETATM    8  O1  UNL     1     -18.711 -24.232  22.740  1.00  0.00    -0.242 OA
ENDBRANCH   5   6
ENDBRANCH   4   5
ENDBRANCH   3   4
ENDBRANCH   1   3
BRANCH   1   9
HETATM    9  N3  UNL     1     -15.724 -24.844  21.260  1.00  0.00    -0.386 N 
ATOM     10  H3  UNL     1     -16.647 -24.909  21.689  1.00  0.00     0.159 HD
BRANCH   9  11
HETATM   11  C7  UNL     1     -15.609 -24.733  19.830  1.00  0.00     0.199 C 
BRANCH  11  12
HETATM   12  C8  UNL     1     -15.996 -25.995  19.162  1.00  0.00     0.169 C 
HETATM   13  O4  UNL     1     -16.533 -26.865  19.813  1.00  0.00    -0.294 OA
BRANCH  12  14
HETATM   14  C9  UNL     1     -15.749 -26.233  17.722  1.00  0.00     0.309 C 
BRANCH  14  15
HETATM   15  N4  UNL     1     -16.686 -27.167  17.181  1.00  0.00    -0.073 N 
ATOM     16  H43 UNL     1     -17.071 -27.773  17.905  1.00  0.00     0.274 HD
ATOM     17  H42 UNL     1     -17.547 -26.706  16.887  1.00  0.00     0.274 HD
ATOM     18  H41 UNL     1     -16.274 -27.708  16.420  1.00  0.00     0.274 HD
ENDBRANCH  14  15
ENDBRANCH  12  14
ENDBRANCH  11  12
ENDBRANCH   9  11
ENDBRANCH   1   9
BRANCH   2  19
HETATM   19  C6  UNL     1     -12.066 -24.640  22.076  1.00  0.00     0.256 C 
HETATM   20  N2  UNL     1     -11.191 -23.518  21.813  1.00  0.00    -0.058 NA
HETATM   21  O3  UNL     1     -11.573 -25.515  22.807  1.00  0.00    -0.272 OA
ENDBRANCH   2  19
TORSDOF 10
ENDMDL
MODEL 5
REMARK VINA RESULT: -6.252833716      1.640      5.866
REMARK  10 active torsions:
REMARK  status: ('A' for Active; 'I' for Inactive)
REMARK    1  A    between atoms: C1_2  and  O2_4 
REMARK    2  A    between atoms: O2_4  and  C2_5 
REMARK    3  A    between atoms: C2_5  and  C3_6 
REMARK    4  A    between atoms: C3_6  and  C4_7 
REMARK    5  A    between atoms: C4_7  and  N3_12 
REMARK    6  A    between atoms: C5_8  and  C6_9 
REMARK    7  A    between atoms: N3_12  and  C7_14 
REMARK    8  A    between atoms: C7_14  and  C8_15 
REMARK    9  A    between atoms: C8_15  and  C9_17 
REMARK   10  A    between atoms: C9_17  and  N4_18 
ROOT
HETATM    1  C4  UNL     1     -15.689 -25.578  21.725  1.00  0.00     0.012 C 
HETATM    2  C5  UNL     1     -16.149 -26.037  20.595  1.00  0.00     0.095 C 
ENDROOT
BRANCH   1   3
HETATM    3  C3  UNL     1     -14.745 -24.465  21.936  1.00  0.00     0.083 C 
BRANCH   3   4
HETATM    4  C2  UNL     1     -13.303 -24.921  21.816  1.00  0.00     0.186 C 
BRANCH   4   5
HETATM    5  O2  UNL     1     -12.374 -23.953  22.222  1.00  0.00    -0.306 OA
BRANCH   5   6
HETATM    6  C1  UNL     1     -11.209 -23.602  21.580  1.00  0.00     0.372 C 
HETATM    7  N1  UNL     1     -10.511 -24.527  20.718  1.00  0.00    -0.032 NA
HETATM    8  O1  UNL     1     -10.761 -22.445  21.759  1.00  0.00    -0.242 OA
ENDBRANCH   5   6
ENDBRANCH   4   5
ENDBRANCH   3   4
ENDBRANCH   1   3
BRANCH   1   9
HETATM    9  N3  UNL     1     -16.160 -26.239  22.939  1.00  0.00    -0.386 N 
ATOM     10  H3  UNL     1     -16.660 -27.126  22.872  1.00  0.00     0.159 HD
BRANCH   9  11
HETATM   11  C7  UNL     1     -15.927 -25.649  24.230  1.00  0.00     0.199 C 
BRANCH  11  12
HETATM   12  C8  UNL     1     -15.054 -26.508  25.061  1.00  0.00     0.169 C 
HETATM   13  O4  UNL     1     -13.887 -26.629  24.757  1.00  0.00    -0.294 OA
BRANCH  12  14
HETATM   14  C9  UNL     1     -15.558 -27.227  26.253  1.00  0.00     0.309 C 
BRANCH  14  15
HETATM   15  N4  UNL     1     -15.980 -26.316  27.270  1.00  0.00    -0.073 N 
ATOM     16  H43 UNL     1     -16.048 -26.775  28.178  1.00  0.00     0.274 HD
ATOM     17  H42 UNL     1     -15.251 -25.637  27.490  1.00  0.00     0.274 HD
ATOM     18  H41 UNL     1     -16.855 -25.856  27.017  1.00  0.00     0.274 HD
ENDBRANCH  14  15
ENDBRANCH  12  14
ENDBRANCH  11  12
ENDBRANCH   9  11
ENDBRANCH   1   9
BRANCH   2  19
HETATM   19  C6  UNL     1     -15.859 -25.583  19.255  1.00  0.00     0.256 C 
HETATM   20  N2  UNL     1     -16.024 -26.485  18.136  1.00  0.00    -0.058 NA
HETATM   21  O3  UNL     1     -15.465 -24.446  18.946  1.00  0.00    -0.272 OA
ENDBRANCH   2  19
TORSDOF 10
ENDMDL
