MODEL 1
REMARK VINA RESULT: -6.663250030      0.000      0.000
REMARK  12 active torsions:
REMARK  status: ('A' for Active; 'I' for Inactive)
REMARK    1  A    between atoms: N1_1  and  C1_5 
REMARK    2  A    between atoms: C1_5  and  C2_6 
REMARK       I    between atoms: C2_6  and  N2_8 
REMARK    3  A    between atoms: N2_8  and  C3_10 
REMARK    4  A    between atoms: C3_10  and  O2_11 
REMARK    5  A    between atoms: C3_10  and  C4_13 
REMARK    6  A    between atoms: C4_13  and  C5_14 
REMARK    7  A    between atoms: C5_14  and  N3_15 
REMARK    8  A    between atoms: C5_14  and  C6_19 
REMARK       I    between atoms: C6_19  and  N4_21 
REMARK    9  A    between atoms: N4_21  and  C7_23 
REMARK   10  A    between atoms: C7_23  and  C8_24 
REMARK   11  A    between atoms: C8_24  and  C9_25 
REMARK   12  A    between atoms: C9_25  and  O4_26 
ROOT
HETATM    1  C5  UNL     1     -15.579 -24.808  21.672  1.00  0.00     0.282 C 
ENDROOT
BRANCH   1   2
HETATM    2  C4  UNL     1     -16.120 -23.941  22.848  1.00  0.00     0.126 C 
BRANCH   2   3
HETATM    3  C3  UNL     1     -16.691 -24.835  23.837  1.00  0.00     0.120 C 
BRANCH   3   4
HETATM    4  N2  UNL     1     -15.987 -25.407  24.908  1.00  0.00    -0.310 N 
HETATM    5  C2  UNL     1     -16.002 -26.729  25.314  1.00  0.00     0.248 C 
HETATM    6  O1  UNL     1     -15.241 -27.034  26.311  1.00  0.00    -0.271 OA
ATOM      7  H2  UNL     1     -15.397 -24.776  25.450  1.00  0.00     0.170 HD
BRANCH   5   8
HETATM    8  C1  UNL     1     -16.798 -27.796  24.715  1.00  0.00     0.332 C 
BRANCH   8   9
HETATM    9  N1  UNL     1     -15.960 -28.535  23.748  1.00  0.00    -0.071 N 
ATOM     10  H13 UNL     1     -16.369 -28.555  22.814  1.00  0.00     0.274 HD
ATOM     11  H12 UNL     1     -15.102 -28.036  23.516  1.00  0.00     0.274 HD
ATOM     12  H11 UNL     1     -15.779 -29.470  24.112  1.00  0.00     0.274 HD
ENDBRANCH   8   9
ENDBRANCH   5   8
ENDBRANCH   3   4
BRANCH   3  13
HETATM   13  O2  UNL     1     -17.965 -25.137  23.732  1.00  0.00    -0.349 OA
ATOM     14  H2  UNL     1     -18.205 -25.764  23.060  1.00  0.00     0.219 HD
ENDBRANCH   3  13
ENDBRANCH   2   3
ENDBRANCH   1   2
BRANCH   1  15
HETATM   15  N3  UNL     1     -16.399 -25.948  21.552  1.00  0.00    -0.066 N 
ATOM     16  H33 UNL     1     -16.174 -26.668  22.238  1.00  0.00     0.275 HD
ATOM     17  H32 UNL     1     -17.360 -25.773  21.845  1.00  0.00     0.275 HD
ATOM     18  H31 UNL     1     -16.335 -26.286  20.592  1.00  0.00     0.275 HD
ENDBRANCH   1  15
BRANCH   1  19
HETATM   19  C6  UNL     1     -14.147 -24.999  21.917  1.00  0.00     0.248 C 
HETATM   20  O3  UNL     1     -13.846 -25.414  23.093  1.00  0.00    -0.271 OA
HETATM   21  N4  UNL     1     -13.129 -24.764  20.987  1.00  0.00    -0.359 N 
ATOM     22  H4  UNL     1     -13.401 -24.430  20.062  1.00  0.00     0.162 HD
BRANCH  21  23
HETATM   23  C7  UNL     1     -11.709 -24.964  21.243  1.00  0.00     0.125 C 
BRANCH  23  24
HETATM   24  C8  UNL     1     -11.220 -23.979  22.248  1.00  0.00     0.046 C 
BRANCH  24  25
HETATM   25  C9  UNL     1     -10.534 -22.858  21.453  1.00  0.00     0.165 C 
BRANCH  25  26
HETATM   26  O4  UNL     1      -9.243 -23.278  21.135  1.00  0.00    -0.401 OA
ATOM     27  H4  UNL     1      -9.267 -23.685  20.277  1.00  0.00     0.209 HD
ENDBRANCH  25  26
ENDBRANCH  24  25
ENDBRANCH  23  24
ENDBRANCH  21  23
ENDBRANCH   1  19
TORSDOF 12
ENDMDL
MODEL 2
REMARK VINA RESULT: -6.562000018      0.949      1.349
REMARK  12 active torsions:
REMARK  status: ('A' for Active; 'I' for Inactive)
REMARK    1  A    between atoms: N1_1  and  C1_5 
REMARK    2  A    between atoms: C1_5  and  C2_6 
REMARK       I    between atoms: C2_6  and  N2_8 
REMARK    3  A    between atoms: N2_8  and  C3_10 
REMARK    4  A    between atoms: C3_10  and  O2_11 
REMARK    5  A    between atoms: C3_10  and  C4_13 
REMARK    6  A    between atoms: C4_13  and  C5_14 
REMARK    7  A    between atoms: C5_14  and  N3_15 
REMARK    8  A    between atoms: C5_14  and  C6_19 
REMARK       I    between atoms: C6_19  and  N4_21 
REMARK    9  A    between atoms: N4_21  and  C7_23 
REMARK   10  A    between atoms: C7_23  and  C8_24 
REMARK   11  A    between atoms: C8_24  and  C9_25 
REMARK   12  A    between atoms: C9_25  and  O4_26 
ROOT
HETATM    1  C5  UNL     1     -15.358 -24.668  21.635  1.00  0.00     0.282 C 
ENDROOT
BRANCH   1   2
HETATM    2  C4  UNL     1     -15.904 -24.210  23.021  1.00  0.00     0.126 C 
BRANCH   2   3
HETATM    3  C3  UNL     1     -16.767 -25.258  23.531  1.00  0.00     0.120 C 
BRANCH   3   4
HETATM    4  N2  UNL     1     -16.369 -26.581  23.779  1.00  0.00    -0.310 N 
HETATM    5  C2  UNL     1     -15.664 -27.057  24.868  1.00  0.00     0.248 C 
HETATM    6  O1  UNL     1     -15.442 -28.329  24.900  1.00  0.00    -0.271 OA
ATOM      7  H2  UNL     1     -16.631 -27.271  23.074  1.00  0.00     0.170 HD
BRANCH   5   8
HETATM    8  C1  UNL     1     -15.157 -26.251  25.974  1.00  0.00     0.332 C 
BRANCH   8   9
HETATM    9  N1  UNL     1     -16.093 -26.353  27.113  1.00  0.00    -0.071 N 
ATOM     10  H13 UNL     1     -16.809 -27.065  26.966  1.00  0.00     0.274 HD
ATOM     11  H12 UNL     1     -15.655 -26.761  27.939  1.00  0.00     0.274 HD
ATOM     12  H11 UNL     1     -16.491 -25.433  27.299  1.00  0.00     0.274 HD
ENDBRANCH   8   9
ENDBRANCH   5   8
ENDBRANCH   3   4
BRANCH   3  13
HETATM   13  O2  UNL     1     -18.020 -24.954  23.785  1.00  0.00    -0.349 OA
ATOM     14  H2  UNL     1     -18.671 -25.619  23.594  1.00  0.00     0.219 HD
ENDBRANCH   3  13
ENDBRANCH   2   3
ENDBRANCH   1   2
BRANCH   1  15
HETATM   15  N3  UNL     1     -16.165 -25.727  21.174  1.00  0.00    -0.066 N 
ATOM     16  H33 UNL     1     -17.041 -25.808  21.689  1.00  0.00     0.275 HD
ATOM     17  H32 UNL     1     -16.564 -25.546  20.253  1.00  0.00     0.275 HD
ATOM     18  H31 UNL     1     -15.612 -26.584  21.201  1.00  0.00     0.275 HD
ENDBRANCH   1  15
BRANCH   1  19
HETATM   19  C6  UNL     1     -13.923 -24.906  21.808  1.00  0.00     0.248 C 
HETATM   20  O3  UNL     1     -13.577 -25.334  22.966  1.00  0.00    -0.271 OA
HETATM   21  N4  UNL     1     -12.946 -24.701  20.828  1.00  0.00    -0.359 N 
ATOM     22  H4  UNL     1     -13.253 -24.354  19.919  1.00  0.00     0.162 HD
BRANCH  21  23
HETATM   23  C7  UNL     1     -11.522 -24.947  21.012  1.00  0.00     0.125 C 
BRANCH  23  24
HETATM   24  C8  UNL     1     -11.000 -24.141  22.152  1.00  0.00     0.046 C 
BRANCH  24  25
HETATM   25  C9  UNL     1     -10.387 -22.874  21.537  1.00  0.00     0.165 C 
BRANCH  25  26
HETATM   26  O4  UNL     1      -9.113 -23.190  21.069  1.00  0.00    -0.401 OA
ATOM     27  H4  UNL     1      -8.983 -24.126  21.171  1.00  0.00     0.209 HD
ENDBRANCH  25  26
ENDBRANCH  24  25
ENDBRANCH  23  24
ENDBRANCH  21  23
ENDBRANCH   1  19
TORSDOF 12
ENDMDL
MODEL 3
REMARK VINA RESULT: -6.528147223      1.378      1.693
REMARK  12 active torsions:
REMARK  status: ('A' for Active; 'I' for Inactive)
REMARK    1  A    between atoms: N1_1  and  C1_5 
REMARK    2  A    between atoms: C1_5  and  C2_6 
REMARK       I    between atoms: C2_6  and  N2_8 
REMARK    3  A    between atoms: N2_8  and  C3_10 
REMARK    4  A    between atoms: C3_10  and  O2_11 
REMARK    5  A    between atoms: C3_10  and  C4_13 
REMARK    6  A    between atoms: C4_13  and  C5_14 
REMARK    7  A    between atoms: C5_14  and  N3_15 
REMARK    8  A    between atoms: C5_14  and  C6_19 
REMARK       I    between atoms: C6_19  and  N4_21 
REMARK    9  A    between atoms: N4_21  and  C7_23 
REMARK   10  A    between atoms: C7_23  and  C8_24 
REMARK   11  A    between atoms: C8_24  and  C9_25 
REMARK   12  A    between atoms: C9_25  and  O4_26 
ROOT
HETATM    1  C5  UNL     1     -15.849 -24.606  21.746  1.00  0.00     0.282 C 
ENDROOT
BRANCH   1   2
HETATM    2  C4  UNL     1     -15.728 -24.684  23.297  1.00  0.00     0.126 C 
BRANCH   2   3
HETATM    3  C3  UNL     1     -16.827 -25.493  23.791  1.00  0.00     0.120 C 
BRANCH   3   4
HETATM    4  N2  UNL     1     -16.737 -26.851  24.137  1.00  0.00    -0.310 N 
HETATM    5  C2  UNL     1     -15.962 -27.416  25.132  1.00  0.00     0.248 C 
HETATM    6  O1  UNL     1     -16.070 -28.693  25.292  1.00  0.00    -0.271 OA
ATOM      7  H2  UNL     1     -17.309 -27.494  23.590  1.00  0.00     0.170 HD
BRANCH   5   8
HETATM    8  C1  UNL     1     -15.043 -26.697  26.008  1.00  0.00     0.332 C 
BRANCH   8   9
HETATM    9  N1  UNL     1     -15.806 -26.112  27.130  1.00  0.00    -0.071 N 
ATOM     10  H13 UNL     1     -16.125 -25.164  26.930  1.00  0.00     0.274 HD
ATOM     11  H12 UNL     1     -16.720 -26.548  27.248  1.00  0.00     0.274 HD
ATOM     12  H11 UNL     1     -15.240 -26.160  27.978  1.00  0.00     0.274 HD
ENDBRANCH   8   9
ENDBRANCH   5   8
ENDBRANCH   3   4
BRANCH   3  13
HETATM   13  O2  UNL     1     -17.999 -24.919  23.931  1.00  0.00    -0.349 OA
ATOM     14  H2  UNL     1     -18.221 -24.236  23.310  1.00  0.00     0.219 HD
ENDBRANCH   3  13
ENDBRANCH   2   3
ENDBRANCH   1   2
BRANCH   1  15
HETATM   15  N3  UNL     1     -16.872 -25.486  21.339  1.00  0.00    -0.066 N 
ATOM     16  H33 UNL     1     -16.624 -26.466  21.472  1.00  0.00     0.275 HD
ATOM     17  H32 UNL     1     -17.680 -25.464  21.961  1.00  0.00     0.275 HD
ATOM     18  H31 UNL     1     -17.113 -25.269  20.372  1.00  0.00     0.275 HD
ENDBRANCH   1  15
BRANCH   1  19
HETATM   19  C6  UNL     1     -14.500 -24.808  21.210  1.00  0.00     0.248 C 
HETATM   20  O3  UNL     1     -14.439 -25.007  19.945  1.00  0.00    -0.271 OA
HETATM   21  N4  UNL     1     -13.321 -24.799  21.965  1.00  0.00    -0.359 N 
ATOM     22  H4  UNL     1     -13.404 -24.643  22.970  1.00  0.00     0.162 HD
BRANCH  21  23
HETATM   23  C7  UNL     1     -11.986 -24.995  21.419  1.00  0.00     0.125 C 
BRANCH  23  24
HETATM   24  C8  UNL     1     -11.199 -23.732  21.507  1.00  0.00     0.046 C 
BRANCH  24  25
HETATM   25  C9  UNL     1      -9.910 -23.972  20.705  1.00  0.00     0.165 C 
BRANCH  25  26
HETATM   26  O4  UNL     1      -8.972 -23.018  21.095  1.00  0.00    -0.401 OA
ATOM     27  H4  UNL     1      -8.500 -22.734  20.321  1.00  0.00     0.209 HD
ENDBRANCH  25  26
ENDBRANCH  24  25
ENDBRANCH  23  24
ENDBRANCH  21  23
ENDBRANCH   1  19
TORSDOF 12
ENDMDL
MODEL 4
REMARK VINA RESULT: -6.400633418      1.048      1.048
REMARK  12 active torsions:
REMARK  status: ('A' for Active; 'I' for Inactive)
REMARK    1  A    between atoms: N1_1  and  C1_5 
REMARK    2  A    between atoms: C1_5  and  C2_6 
REMARK       I    between atoms: C2_6  and  N2_8 
REMARK    3  A    between atoms: N2_8  and  C3_10 
REMARK    4  A    between atoms: C3_10  and  O2_11 
REMARK    5  A    between atoms: C3_10  and  C4_13 
REMARK    6  A    between atoms: C4_13  and  C5_14 
REMARK    7  A    between atoms: C5_14  and  N3_15 
REMARK    8  A    between atoms: C5_14  and  C6_19 
REMARK       I    between atoms: C6_19  and  N4_21 
REMARK    9  A    between atoms: N4_21  and  C7_23 
REMARK   10  A    between atoms: C7_23  and  C8_24 
REMARK   11  A    between atoms: C8_24  and  C9_25 
REMARK   12  A    between atoms: C9_25  and  O4_26 
ROOT
HETATM    1  C5  UNL     1     -16.047 -25.040  21.385  1.00  0.00     0.282 C 
ENDROOT
BRANCH   1   2
HETATM    2  C4  UNL     1     -16.094 -24.212  22.705  1.00  0.00     0.126 C 
BRANCH   2   3
HETATM    3  C3  UNL     1     -16.415 -25.119  23.791  1.00  0.00     0.120 C 
BRANCH   3   4
HETATM    4  N2  UNL     1     -15.474 -25.738  24.629  1.00  0.00    -0.310 N 
HETATM    5  C2  UNL     1     -15.520 -27.020  25.142  1.00  0.00     0.248 C 
HETATM    6  O1  UNL     1     -14.516 -27.387  25.867  1.00  0.00    -0.271 OA
ATOM      7  H2  UNL     1     -14.664 -25.176  24.890  1.00  0.00     0.170 HD
BRANCH   5   8
HETATM    8  C1  UNL     1     -16.596 -27.984  24.935  1.00  0.00     0.332 C 
BRANCH   8   9
HETATM    9  N1  UNL     1     -16.214 -28.905  23.843  1.00  0.00    -0.071 N 
ATOM     10  H13 UNL     1     -15.819 -29.778  24.192  1.00  0.00     0.274 HD
ATOM     11  H12 UNL     1     -17.024 -29.297  23.365  1.00  0.00     0.274 HD
ATOM     12  H11 UNL     1     -15.583 -28.420  23.206  1.00  0.00     0.274 HD
ENDBRANCH   8   9
ENDBRANCH   5   8
ENDBRANCH   3   4
BRANCH   3  13
HETATM   13  O2  UNL     1     -17.681 -25.386  24.016  1.00  0.00    -0.349 OA
ATOM     14  H2  UNL     1     -18.219 -25.590  23.260  1.00  0.00     0.219 HD
ENDBRANCH   3  13
ENDBRANCH   2   3
ENDBRANCH   1   2
BRANCH   1  15
HETATM   15  N3  UNL     1     -16.541 -26.331  21.659  1.00  0.00    -0.066 N 
ATOM     16  H33 UNL     1     -16.740 -26.863  20.812  1.00  0.00     0.275 HD
ATOM     17  H32 UNL     1     -15.830 -26.951  22.047  1.00  0.00     0.275 HD
ATOM     18  H31 UNL     1     -17.355 -26.238  22.266  1.00  0.00     0.275 HD
ENDBRANCH   1  15
BRANCH   1  19
HETATM   19  C6  UNL     1     -14.686 -24.909  20.858  1.00  0.00     0.248 C 
HETATM   20  O3  UNL     1     -14.593 -24.930  19.579  1.00  0.00    -0.271 OA
HETATM   21  N4  UNL     1     -13.529 -24.769  21.632  1.00  0.00    -0.359 N 
ATOM     22  H4  UNL     1     -13.637 -24.762  22.646  1.00  0.00     0.162 HD
BRANCH  21  23
HETATM   23  C7  UNL     1     -12.183 -24.634  21.094  1.00  0.00     0.125 C 
BRANCH  23  24
HETATM   24  C8  UNL     1     -11.230 -24.249  22.173  1.00  0.00     0.046 C 
BRANCH  24  25
HETATM   25  C9  UNL     1     -10.500 -22.993  21.673  1.00  0.00     0.165 C 
BRANCH  25  26
HETATM   26  O4  UNL     1      -9.336 -23.396  21.021  1.00  0.00    -0.401 OA
ATOM     27  H4  UNL     1      -8.846 -23.959  21.609  1.00  0.00     0.209 HD
ENDBRANCH  25  26
ENDBRANCH  24  25
ENDBRANCH  23  24
ENDBRANCH  21  23
ENDBRANCH   1  19
TORSDOF 12
ENDMDL
MODEL 5
REMARK VINA RESULT: -6.387380422      3.034      5.911
REMARK  12 active torsions:
REMARK  status: ('A' for Active; 'I' for Inactive)
REMARK    1  A    between atoms: N1_1  and  C1_5 
REMARK    2  A    between atoms: C1_5  and  C2_6 
REMARK       I    between atoms: C2_6  and  N2_8 
REMARK    3  A    between atoms: N2_8  and  C3_10 
REMARK    4  A    between atoms: C3_10  and  O2_11 
REMARK    5  A    between atoms: C3_10  and  C4_13 
REMARK    6  A    between atoms: C4_13  and  C5_14 
REMARK    7  A    between atoms: C5_14  and  N3_15 
REMARK    8  A    between atoms: C5_14  and  C6_19 
REMARK       I    between atoms: C6_19  and  N4_21 
REMARK    9  A    between atoms: N4_21  and  C7_23 
REMARK   10  A    between atoms: C7_23  and  C8_24 
REMARK   11  A    between atoms: C8_24  and  C9_25 
REMARK   12  A    between atoms: C9_25  and  O4_26 
ROOT
HETATM    1  C5  UNL     1     -15.113 -24.549  22.901  1.00  0.00     0.282 C 
ENDROOT
BRANCH   1   2
HETATM    2  C4  UNL     1     -16.272 -24.400  21.869  1.00  0.00     0.126 C 
BRANCH   2   3
HETATM    3  C3  UNL     1     -16.057 -25.370  20.813  1.00  0.00     0.120 C 
BRANCH   3   4
HETATM    4  N2  UNL     1     -15.587 -25.069  19.524  1.00  0.00    -0.310 N 
HETATM    5  C2  UNL     1     -15.773 -25.803  18.368  1.00  0.00     0.248 C 
HETATM    6  O1  UNL     1     -15.276 -25.308  17.284  1.00  0.00    -0.271 OA
ATOM      7  H2  UNL     1     -15.047 -24.209  19.430  1.00  0.00     0.170 HD
BRANCH   5   8
HETATM    8  C1  UNL     1     -16.477 -27.078  18.272  1.00  0.00     0.332 C 
BRANCH   8   9
HETATM    9  N1  UNL     1     -16.904 -27.288  16.873  1.00  0.00    -0.071 N 
ATOM     10  H13 UNL     1     -16.745 -26.465  16.290  1.00  0.00     0.274 HD
ATOM     11  H12 UNL     1     -16.296 -27.936  16.373  1.00  0.00     0.274 HD
ATOM     12  H11 UNL     1     -17.879 -27.586  16.865  1.00  0.00     0.274 HD
ENDBRANCH   8   9
ENDBRANCH   5   8
ENDBRANCH   3   4
BRANCH   3  13
HETATM   13  O2  UNL     1     -16.317 -26.631  21.072  1.00  0.00    -0.349 OA
ATOM     14  H2  UNL     1     -17.154 -26.968  20.775  1.00  0.00     0.219 HD
ENDBRANCH   3  13
ENDBRANCH   2   3
ENDBRANCH   1   2
BRANCH   1  15
HETATM   15  N3  UNL     1     -13.974 -25.020  22.217  1.00  0.00    -0.066 N 
ATOM     16  H33 UNL     1     -14.046 -26.006  21.966  1.00  0.00     0.275 HD
ATOM     17  H32 UNL     1     -13.898 -24.643  21.273  1.00  0.00     0.275 HD
ATOM     18  H31 UNL     1     -13.154 -24.819  22.790  1.00  0.00     0.275 HD
ENDBRANCH   1  15
BRANCH   1  19
HETATM   19  C6  UNL     1     -15.642 -25.345  24.012  1.00  0.00     0.248 C 
HETATM   20  O3  UNL     1     -16.753 -24.931  24.499  1.00  0.00    -0.271 OA
HETATM   21  N4  UNL     1     -15.032 -26.483  24.552  1.00  0.00    -0.359 N 
ATOM     22  H4  UNL     1     -14.146 -26.783  24.146  1.00  0.00     0.162 HD
BRANCH  21  23
HETATM   23  C7  UNL     1     -15.572 -27.268  25.654  1.00  0.00     0.125 C 
BRANCH  23  24
HETATM   24  C8  UNL     1     -16.844 -27.928  25.245  1.00  0.00     0.046 C 
BRANCH  24  25
HETATM   25  C9  UNL     1     -16.478 -29.373  24.873  1.00  0.00     0.165 C 
BRANCH  25  26
HETATM   26  O4  UNL     1     -15.703 -29.340  23.715  1.00  0.00    -0.401 OA
ATOM     27  H4  UNL     1     -16.066 -29.964  23.097  1.00  0.00     0.209 HD
ENDBRANCH  25  26
ENDBRANCH  24  25
ENDBRANCH  23  24
ENDBRANCH  21  23
ENDBRANCH   1  19
TORSDOF 12
ENDMDL
