MODEL 1
REMARK VINA RESULT: -6.212387624      0.000      0.000
REMARK  8 active torsions:
REMARK  status: ('A' for Active; 'I' for Inactive)
REMARK    1  A    between atoms: O1_2  and  C2_3 
REMARK    2  A    between atoms: C2_3  and  C3_4 
REMARK    3  A    between atoms: C2_3  and  C9_16 
REMARK    4  A    between atoms: C3_4  and  O2_5 
REMARK    5  A    between atoms: O2_5  and  C4_6 
REMARK    6  A    between atoms: C4_6  and  C5_7 
REMARK       I    between atoms: C5_7  and  N1_9 
REMARK    7  A    between atoms: N1_9  and  C6_11 
REMARK    8  A    between atoms: C6_11  and  C7_12 
ROOT
HETATM    1  C4  UNL     1     -16.675 -24.101  23.324  1.00  0.00     0.270 C 
ENDROOT
BRANCH   1   2
HETATM    2  O2  UNL     1     -16.668 -24.847  24.452  1.00  0.00    -0.379 OA
BRANCH   2   3
HETATM    3  C3  UNL     1     -17.115 -26.124  24.410  1.00  0.00     0.209 C 
BRANCH   3   4
HETATM    4  C2  UNL     1     -16.035 -27.165  24.580  1.00  0.00     0.233 C 
BRANCH   4   5
HETATM    5  O1  UNL     1     -16.531 -28.344  25.103  1.00  0.00    -0.380 OA
HETATM    6  C1  UNL     1     -16.402 -29.418  24.263  1.00  0.00     0.202 C 
ENDBRANCH   4   5
BRANCH   4   7
HETATM    7  C9  UNL     1     -14.911 -26.708  25.407  1.00  0.00     0.262 C 
HETATM    8  N4  UNL     1     -15.140 -26.395  26.769  1.00  0.00    -0.060 NA
HETATM    9  O4  UNL     1     -13.732 -26.568  24.990  1.00  0.00    -0.274 OA
ENDBRANCH   4   7
ENDBRANCH   3   4
ENDBRANCH   2   3
ENDBRANCH   1   2
BRANCH   1  10
HETATM   10  C5  UNL     1     -15.773 -24.530  22.233  1.00  0.00     0.241 C 
HETATM   11  O3  UNL     1     -16.113 -24.889  21.096  1.00  0.00    -0.271 OA
HETATM   12  N1  UNL     1     -14.359 -24.528  22.521  1.00  0.00    -0.354 N 
ATOM     13  H1  UNL     1     -14.031 -24.240  23.442  1.00  0.00     0.162 HD
BRANCH  12  14
HETATM   14  C6  UNL     1     -13.411 -24.931  21.517  1.00  0.00     0.177 C 
BRANCH  14  15
HETATM   15  C7  UNL     1     -12.056 -24.526  21.919  1.00  0.00     0.055 C 
HETATM   16  N2  UNL     1     -11.460 -25.046  23.101  1.00  0.00    -0.104 NA
HETATM   17  C8  UNL     1     -11.375 -23.671  21.183  1.00  0.00     0.123 C 
HETATM   18  N3  UNL     1     -10.056 -23.247  21.532  1.00  0.00    -0.113 NA
ENDBRANCH  14  15
ENDBRANCH  12  14
ENDBRANCH   1  10
TORSDOF 8
ENDMDL
MODEL 2
REMARK VINA RESULT: -6.000362035      1.420      1.824
REMARK  8 active torsions:
REMARK  status: ('A' for Active; 'I' for Inactive)
REMARK    1  A    between atoms: O1_2  and  C2_3 
REMARK    2  A    between atoms: C2_3  and  C3_4 
REMARK    3  A    between atoms: C2_3  and  C9_16 
REMARK    4  A    between atoms: C3_4  and  O2_5 
REMARK    5  A    between atoms: O2_5  and  C4_6 
REMARK    6  A    between atoms: C4_6  and  C5_7 
REMARK       I    between atoms: C5_7  and  N1_9 
REMARK    7  A    between atoms: N1_9  and  C6_11 
REMARK    8  A    between atoms: C6_11  and  C7_12 
ROOT
HETATM    1  C4  UNL     1     -16.776 -24.547  23.319  1.00  0.00     0.270 C 
ENDROOT
BRANCH   1   2
HETATM    2  O2  UNL     1     -16.474 -25.085  24.522  1.00  0.00    -0.379 OA
BRANCH   2   3
HETATM    3  C3  UNL     1     -15.862 -26.292  24.578  1.00  0.00     0.209 C 
BRANCH   3   4
HETATM    4  C2  UNL     1     -16.683 -27.373  25.238  1.00  0.00     0.233 C 
BRANCH   4   5
HETATM    5  O1  UNL     1     -16.644 -27.284  26.616  1.00  0.00    -0.380 OA
HETATM    6  C1  UNL     1     -15.538 -26.634  27.097  1.00  0.00     0.202 C 
ENDBRANCH   4   5
BRANCH   4   7
HETATM    7  C9  UNL     1     -16.292 -28.729  24.833  1.00  0.00     0.262 C 
HETATM    8  N4  UNL     1     -16.590 -29.816  25.690  1.00  0.00    -0.060 NA
HETATM    9  O4  UNL     1     -15.699 -29.008  23.758  1.00  0.00    -0.274 OA
ENDBRANCH   4   7
ENDBRANCH   3   4
ENDBRANCH   2   3
ENDBRANCH   1   2
BRANCH   1  10
HETATM   10  C5  UNL     1     -15.895 -24.906  22.185  1.00  0.00     0.241 C 
HETATM   11  O3  UNL     1     -16.235 -25.492  21.147  1.00  0.00    -0.271 OA
HETATM   12  N1  UNL     1     -14.505 -24.536  22.300  1.00  0.00    -0.354 N 
ATOM     13  H1  UNL     1     -14.178 -24.052  23.136  1.00  0.00     0.162 HD
BRANCH  12  14
HETATM   14  C6  UNL     1     -13.580 -24.847  21.245  1.00  0.00     0.177 C 
BRANCH  14  15
HETATM   15  C7  UNL     1     -12.202 -24.625  21.707  1.00  0.00     0.055 C 
HETATM   16  N2  UNL     1     -11.654 -25.401  22.766  1.00  0.00    -0.104 NA
HETATM   17  C8  UNL     1     -11.455 -23.699  21.140  1.00  0.00     0.123 C 
HETATM   18  N3  UNL     1     -10.111 -23.446  21.554  1.00  0.00    -0.113 NA
ENDBRANCH  14  15
ENDBRANCH  12  14
ENDBRANCH   1  10
TORSDOF 8
ENDMDL
MODEL 3
REMARK VINA RESULT: -5.512773724      2.663      3.793
REMARK  8 active torsions:
REMARK  status: ('A' for Active; 'I' for Inactive)
REMARK    1  A    between atoms: O1_2  and  C2_3 
REMARK    2  A    between atoms: C2_3  and  C3_4 
REMARK    3  A    between atoms: C2_3  and  C9_16 
REMARK    4  A    between atoms: C3_4  and  O2_5 
REMARK    5  A    between atoms: O2_5  and  C4_6 
REMARK    6  A    between atoms: C4_6  and  C5_7 
REMARK       I    between atoms: C5_7  and  N1_9 
REMARK    7  A    between atoms: N1_9  and  C6_11 
REMARK    8  A    between atoms: C6_11  and  C7_12 
ROOT
HETATM    1  C4  UNL     1     -15.637 -25.037  23.938  1.00  0.00     0.270 C 
ENDROOT
BRANCH   1   2
HETATM    2  O2  UNL     1     -14.587 -25.870  24.116  1.00  0.00    -0.379 OA
BRANCH   2   3
HETATM    3  C3  UNL     1     -14.680 -26.877  25.016  1.00  0.00     0.209 C 
BRANCH   3   4
HETATM    4  C2  UNL     1     -16.075 -27.426  25.192  1.00  0.00     0.233 C 
BRANCH   4   5
HETATM    5  O1  UNL     1     -16.529 -27.279  26.488  1.00  0.00    -0.380 OA
HETATM    6  C1  UNL     1     -15.650 -26.627  27.312  1.00  0.00     0.202 C 
ENDBRANCH   4   5
BRANCH   4   7
HETATM    7  C9  UNL     1     -16.201 -28.832  24.794  1.00  0.00     0.262 C 
HETATM    8  N4  UNL     1     -16.720 -29.767  25.723  1.00  0.00    -0.060 NA
HETATM    9  O4  UNL     1     -15.877 -29.285  23.665  1.00  0.00    -0.274 OA
ENDBRANCH   4   7
ENDBRANCH   3   4
ENDBRANCH   2   3
ENDBRANCH   1   2
BRANCH   1  10
HETATM   10  C5  UNL     1     -15.870 -24.540  22.564  1.00  0.00     0.241 C 
HETATM   11  O3  UNL     1     -16.716 -23.701  22.220  1.00  0.00    -0.271 OA
HETATM   12  N1  UNL     1     -15.031 -25.084  21.525  1.00  0.00    -0.354 N 
ATOM     13  H1  UNL     1     -14.320 -25.777  21.759  1.00  0.00     0.162 HD
BRANCH  12  14
HETATM   14  C6  UNL     1     -15.191 -24.657  20.161  1.00  0.00     0.177 C 
BRANCH  14  15
HETATM   15  C7  UNL     1     -15.845 -25.716  19.380  1.00  0.00     0.055 C 
HETATM   16  N2  UNL     1     -16.707 -26.658  20.006  1.00  0.00    -0.104 NA
HETATM   17  C8  UNL     1     -15.639 -25.803  18.081  1.00  0.00     0.123 C 
HETATM   18  N3  UNL     1     -16.252 -26.814  17.278  1.00  0.00    -0.113 NA
ENDBRANCH  14  15
ENDBRANCH  12  14
ENDBRANCH   1  10
TORSDOF 8
ENDMDL
MODEL 4
REMARK VINA RESULT: -5.495815222      2.480      3.358
REMARK  8 active torsions:
REMARK  status: ('A' for Active; 'I' for Inactive)
REMARK    1  A    between atoms: O1_2  and  C2_3 
REMARK    2  A    between atoms: C2_3  and  C3_4 
REMARK    3  A    between atoms: C2_3  and  C9_16 
REMARK    4  A    between atoms: C3_4  and  O2_5 
REMARK    5  A    between atoms: O2_5  and  C4_6 
REMARK    6  A    between atoms: C4_6  and  C5_7 
REMARK       I    between atoms: C5_7  and  N1_9 
REMARK    7  A    between atoms: N1_9  and  C6_11 
REMARK    8  A    between atoms: C6_11  and  C7_12 
ROOT
HETATM    1  C4  UNL     1     -16.156 -23.921  23.482  1.00  0.00     0.270 C 
ENDROOT
BRANCH   1   2
HETATM    2  O2  UNL     1     -16.536 -24.799  24.438  1.00  0.00    -0.379 OA
BRANCH   2   3
HETATM    3  C3  UNL     1     -16.961 -26.033  24.078  1.00  0.00     0.209 C 
BRANCH   3   4
HETATM    4  C2  UNL     1     -16.061 -27.156  24.535  1.00  0.00     0.233 C 
BRANCH   4   5
HETATM    5  O1  UNL     1     -16.778 -28.200  25.087  1.00  0.00    -0.380 OA
HETATM    6  C1  UNL     1     -16.549 -29.408  24.481  1.00  0.00     0.202 C 
ENDBRANCH   4   5
BRANCH   4   7
HETATM    7  C9  UNL     1     -15.030 -26.725  25.485  1.00  0.00     0.262 C 
HETATM    8  N4  UNL     1     -15.408 -26.389  26.808  1.00  0.00    -0.060 NA
HETATM    9  O4  UNL     1     -13.805 -26.628  25.211  1.00  0.00    -0.274 OA
ENDBRANCH   4   7
ENDBRANCH   3   4
ENDBRANCH   2   3
ENDBRANCH   1   2
BRANCH   1  10
HETATM   10  C5  UNL     1     -15.299 -24.444  22.395  1.00  0.00     0.241 C 
HETATM   11  O3  UNL     1     -14.150 -24.896  22.517  1.00  0.00    -0.271 OA
HETATM   12  N1  UNL     1     -15.855 -24.428  21.065  1.00  0.00    -0.354 N 
ATOM     13  H1  UNL     1     -16.797 -24.067  20.914  1.00  0.00     0.162 HD
BRANCH  12  14
HETATM   14  C6  UNL     1     -15.091 -24.918  19.950  1.00  0.00     0.177 C 
BRANCH  14  15
HETATM   15  C7  UNL     1     -15.868 -25.928  19.216  1.00  0.00     0.055 C 
HETATM   16  N2  UNL     1     -16.762 -26.798  19.900  1.00  0.00    -0.104 NA
HETATM   17  C8  UNL     1     -15.745 -26.036  17.909  1.00  0.00     0.123 C 
HETATM   18  N3  UNL     1     -16.479 -27.001  17.152  1.00  0.00    -0.113 NA
ENDBRANCH  14  15
ENDBRANCH  12  14
ENDBRANCH   1  10
TORSDOF 8
ENDMDL
MODEL 5
REMARK VINA RESULT: -5.495593075      1.167      1.563
REMARK  8 active torsions:
REMARK  status: ('A' for Active; 'I' for Inactive)
REMARK    1  A    between atoms: O1_2  and  C2_3 
REMARK    2  A    between atoms: C2_3  and  C3_4 
REMARK    3  A    between atoms: C2_3  and  C9_16 
REMARK    4  A    between atoms: C3_4  and  O2_5 
REMARK    5  A    between atoms: O2_5  and  C4_6 
REMARK    6  A    between atoms: C4_6  and  C5_7 
REMARK       I    between atoms: C5_7  and  N1_9 
REMARK    7  A    between atoms: N1_9  and  C6_11 
REMARK    8  A    between atoms: C6_11  and  C7_12 
ROOT
HETATM    1  C4  UNL     1     -16.694 -23.793  23.057  1.00  0.00     0.270 C 
ENDROOT
BRANCH   1   2
HETATM    2  O2  UNL     1     -16.806 -24.453  24.231  1.00  0.00    -0.379 OA
BRANCH   2   3
HETATM    3  C3  UNL     1     -17.142 -25.764  24.230  1.00  0.00     0.209 C 
BRANCH   3   4
HETATM    4  C2  UNL     1     -16.398 -26.597  25.244  1.00  0.00     0.233 C 
BRANCH   4   5
HETATM    5  O1  UNL     1     -15.982 -25.846  26.326  1.00  0.00    -0.380 OA
HETATM    6  C1  UNL     1     -15.591 -26.597  27.403  1.00  0.00     0.202 C 
ENDBRANCH   4   5
BRANCH   4   7
HETATM    7  C9  UNL     1     -15.244 -27.308  24.681  1.00  0.00     0.262 C 
HETATM    8  N4  UNL     1     -13.978 -26.673  24.679  1.00  0.00    -0.060 NA
HETATM    9  O4  UNL     1     -15.292 -28.464  24.186  1.00  0.00    -0.274 OA
ENDBRANCH   4   7
ENDBRANCH   3   4
ENDBRANCH   2   3
ENDBRANCH   1   2
BRANCH   1  10
HETATM   10  C5  UNL     1     -15.764 -24.362  22.056  1.00  0.00     0.241 C 
HETATM   11  O3  UNL     1     -16.068 -24.801  20.936  1.00  0.00    -0.271 OA
HETATM   12  N1  UNL     1     -14.369 -24.409  22.418  1.00  0.00    -0.354 N 
ATOM     13  H1  UNL     1     -14.070 -24.059  23.328  1.00  0.00     0.162 HD
BRANCH  12  14
HETATM   14  C6  UNL     1     -13.397 -24.946  21.504  1.00  0.00     0.177 C 
BRANCH  14  15
HETATM   15  C7  UNL     1     -12.047 -24.530  21.910  1.00  0.00     0.055 C 
HETATM   16  N2  UNL     1     -11.452 -25.040  23.097  1.00  0.00    -0.104 NA
HETATM   17  C8  UNL     1     -11.368 -23.675  21.171  1.00  0.00     0.123 C 
HETATM   18  N3  UNL     1     -10.052 -23.241  21.523  1.00  0.00    -0.113 NA
ENDBRANCH  14  15
ENDBRANCH  12  14
ENDBRANCH   1  10
TORSDOF 8
ENDMDL
