MODEL 1
REMARK VINA RESULT: -5.488746978      0.000      0.000
REMARK  11 active torsions:
REMARK  status: ('A' for Active; 'I' for Inactive)
REMARK    1  A    between atoms: C2_2  and  N1_3 
REMARK    2  A    between atoms: C2_2  and  C7_15 
REMARK    3  A    between atoms: N1_3  and  C3_6 
REMARK    4  A    between atoms: C3_6  and  C4_7 
REMARK    5  A    between atoms: C4_7  and  O1_8 
REMARK    6  A    between atoms: O1_8  and  C5_9 
REMARK    7  A    between atoms: C5_9  and  C6_10 
REMARK    8  A    between atoms: C6_10  and  N2_11 
REMARK    9  A    between atoms: C7_15  and  O2_16 
REMARK   10  A    between atoms: C7_15  and  C9_20 
REMARK   11  A    between atoms: O2_16  and  C8_17 
ROOT
HETATM    1  N1  UNL     1     -15.770 -26.033  21.704  1.00  0.00    -0.066 N 
ATOM      2  H11 UNL     1     -16.434 -26.472  22.341  1.00  0.00     0.277 HD
ATOM      3  H12 UNL     1     -15.035 -26.739  21.712  1.00  0.00     0.277 HD
ENDROOT
BRANCH   1   4
HETATM    4  C2  UNL     1     -15.290 -24.792  22.244  1.00  0.00     0.220 C 
HETATM    5  C1  UNL     1     -13.794 -24.801  22.446  1.00  0.00     0.043 C 
BRANCH   4   6
HETATM    6  C7  UNL     1     -15.970 -24.544  23.573  1.00  0.00     0.252 C 
BRANCH   6   7
HETATM    7  O2  UNL     1     -16.242 -25.806  24.218  1.00  0.00    -0.290 OA
BRANCH   7   8
HETATM    8  C8  UNL     1     -15.534 -26.250  25.299  1.00  0.00     0.373 C 
HETATM    9  N3  UNL     1     -14.331 -26.968  25.070  1.00  0.00    -0.032 NA
HETATM   10  O3  UNL     1     -15.975 -26.005  26.451  1.00  0.00    -0.242 OA
ENDBRANCH   7   8
ENDBRANCH   6   7
BRANCH   6  11
HETATM   11  C9  UNL     1     -17.249 -23.807  23.445  1.00  0.00     0.262 C 
HETATM   12  N4  UNL     1     -18.447 -24.377  22.949  1.00  0.00    -0.060 NA
HETATM   13  O4  UNL     1     -17.275 -22.591  23.798  1.00  0.00    -0.274 OA
ENDBRANCH   6  11
ENDBRANCH   4   6
ENDBRANCH   1   4
BRANCH   1  14
HETATM   14  C3  UNL     1     -16.341 -25.900  20.380  1.00  0.00     0.259 C 
BRANCH  14  15
HETATM   15  C4  UNL     1     -15.660 -24.873  19.545  1.00  0.00     0.195 C 
BRANCH  15  16
HETATM   16  O1  UNL     1     -15.574 -25.311  18.236  1.00  0.00    -0.388 OA
BRANCH  16  17
HETATM   17  C5  UNL     1     -15.871 -26.631  18.028  1.00  0.00     0.195 C 
BRANCH  17  18
HETATM   18  C6  UNL     1     -16.867 -26.710  16.859  1.00  0.00     0.255 C 
BRANCH  18  19
HETATM   19  N2  UNL     1     -17.162 -28.086  16.526  1.00  0.00    -0.077 N 
ATOM     20  H23 UNL     1     -17.783 -28.154  15.720  1.00  0.00     0.274 HD
ATOM     21  H22 UNL     1     -16.348 -28.561  16.135  1.00  0.00     0.274 HD
ATOM     22  H21 UNL     1     -17.537 -28.583  17.334  1.00  0.00     0.274 HD
ENDBRANCH  18  19
ENDBRANCH  17  18
ENDBRANCH  16  17
ENDBRANCH  15  16
ENDBRANCH  14  15
ENDBRANCH   1  14
TORSDOF 11
ENDMDL
MODEL 2
REMARK VINA RESULT: -5.372628713      1.888      2.827
REMARK  11 active torsions:
REMARK  status: ('A' for Active; 'I' for Inactive)
REMARK    1  A    between atoms: C2_2  and  N1_3 
REMARK    2  A    between atoms: C2_2  and  C7_15 
REMARK    3  A    between atoms: N1_3  and  C3_6 
REMARK    4  A    between atoms: C3_6  and  C4_7 
REMARK    5  A    between atoms: C4_7  and  O1_8 
REMARK    6  A    between atoms: O1_8  and  C5_9 
REMARK    7  A    between atoms: C5_9  and  C6_10 
REMARK    8  A    between atoms: C6_10  and  N2_11 
REMARK    9  A    between atoms: C7_15  and  O2_16 
REMARK   10  A    between atoms: C7_15  and  C9_20 
REMARK   11  A    between atoms: O2_16  and  C8_17 
ROOT
HETATM    1  N1  UNL     1     -14.758 -24.847  22.892  1.00  0.00    -0.066 N 
ATOM      2  H11 UNL     1     -13.978 -25.257  23.404  1.00  0.00     0.277 HD
ATOM      3  H12 UNL     1     -14.749 -23.909  23.293  1.00  0.00     0.277 HD
ENDROOT
BRANCH   1   4
HETATM    4  C2  UNL     1     -15.986 -25.524  23.205  1.00  0.00     0.220 C 
HETATM    5  C1  UNL     1     -16.975 -24.616  23.894  1.00  0.00     0.043 C 
BRANCH   4   6
HETATM    6  C7  UNL     1     -15.676 -26.699  24.106  1.00  0.00     0.252 C 
BRANCH   6   7
HETATM    7  O2  UNL     1     -16.855 -27.053  24.859  1.00  0.00    -0.290 OA
BRANCH   7   8
HETATM    8  C8  UNL     1     -16.931 -28.185  25.621  1.00  0.00     0.373 C 
HETATM    9  N3  UNL     1     -16.476 -29.407  25.062  1.00  0.00    -0.032 NA
HETATM   10  O3  UNL     1     -17.400 -28.099  26.785  1.00  0.00    -0.242 OA
ENDBRANCH   7   8
ENDBRANCH   6   7
BRANCH   6  11
HETATM   11  C9  UNL     1     -14.581 -26.425  25.067  1.00  0.00     0.262 C 
HETATM   12  N4  UNL     1     -14.782 -25.941  26.382  1.00  0.00    -0.060 NA
HETATM   13  O4  UNL     1     -13.390 -26.634  24.689  1.00  0.00    -0.274 OA
ENDBRANCH   6  11
ENDBRANCH   4   6
ENDBRANCH   1   4
BRANCH   1  14
HETATM   14  C3  UNL     1     -14.473 -24.801  21.474  1.00  0.00     0.259 C 
BRANCH  14  15
HETATM   15  C4  UNL     1     -15.696 -24.759  20.628  1.00  0.00     0.195 C 
BRANCH  15  16
HETATM   16  O1  UNL     1     -15.417 -25.258  19.369  1.00  0.00    -0.388 OA
BRANCH  16  17
HETATM   17  C5  UNL     1     -16.132 -26.364  18.993  1.00  0.00     0.195 C 
BRANCH  17  18
HETATM   18  C6  UNL     1     -16.035 -26.490  17.464  1.00  0.00     0.255 C 
BRANCH  18  19
HETATM   19  N2  UNL     1     -16.884 -27.556  16.981  1.00  0.00    -0.077 N 
ATOM     20  H23 UNL     1     -16.605 -28.461  17.359  1.00  0.00     0.274 HD
ATOM     21  H22 UNL     1     -17.821 -27.503  17.382  1.00  0.00     0.274 HD
ATOM     22  H21 UNL     1     -16.911 -27.565  15.961  1.00  0.00     0.274 HD
ENDBRANCH  18  19
ENDBRANCH  17  18
ENDBRANCH  16  17
ENDBRANCH  15  16
ENDBRANCH  14  15
ENDBRANCH   1  14
TORSDOF 11
ENDMDL
MODEL 3
REMARK VINA RESULT: -5.268947771      2.494      5.259
REMARK  11 active torsions:
REMARK  status: ('A' for Active; 'I' for Inactive)
REMARK    1  A    between atoms: C2_2  and  N1_3 
REMARK    2  A    between atoms: C2_2  and  C7_15 
REMARK    3  A    between atoms: N1_3  and  C3_6 
REMARK    4  A    between atoms: C3_6  and  C4_7 
REMARK    5  A    between atoms: C4_7  and  O1_8 
REMARK    6  A    between atoms: O1_8  and  C5_9 
REMARK    7  A    between atoms: C5_9  and  C6_10 
REMARK    8  A    between atoms: C6_10  and  N2_11 
REMARK    9  A    between atoms: C7_15  and  O2_16 
REMARK   10  A    between atoms: C7_15  and  C9_20 
REMARK   11  A    between atoms: O2_16  and  C8_17 
ROOT
HETATM    1  N1  UNL     1     -15.258 -24.589  23.910  1.00  0.00    -0.066 N 
ATOM      2  H11 UNL     1     -15.613 -23.917  24.590  1.00  0.00     0.277 HD
ATOM      3  H12 UNL     1     -14.257 -24.459  24.050  1.00  0.00     0.277 HD
ENDROOT
BRANCH   1   4
HETATM    4  C2  UNL     1     -15.639 -24.214  22.577  1.00  0.00     0.220 C 
HETATM    5  C1  UNL     1     -17.126 -24.344  22.353  1.00  0.00     0.043 C 
BRANCH   4   6
HETATM    6  C7  UNL     1     -14.908 -25.102  21.594  1.00  0.00     0.252 C 
BRANCH   6   7
HETATM    7  O2  UNL     1     -13.668 -24.475  21.206  1.00  0.00    -0.290 OA
BRANCH   7   8
HETATM    8  C8  UNL     1     -12.524 -24.580  21.947  1.00  0.00     0.373 C 
HETATM    9  N3  UNL     1     -11.499 -23.619  21.745  1.00  0.00    -0.032 NA
HETATM   10  O3  UNL     1     -12.426 -25.520  22.776  1.00  0.00    -0.242 OA
ENDBRANCH   7   8
ENDBRANCH   6   7
BRANCH   6  11
HETATM   11  C9  UNL     1     -15.688 -25.377  20.364  1.00  0.00     0.262 C 
HETATM   12  N4  UNL     1     -16.546 -26.493  20.203  1.00  0.00    -0.060 NA
HETATM   13  O4  UNL     1     -15.582 -24.568  19.396  1.00  0.00    -0.274 OA
ENDBRANCH   6  11
ENDBRANCH   4   6
ENDBRANCH   1   4
BRANCH   1  14
HETATM   14  C3  UNL     1     -15.656 -25.935  24.263  1.00  0.00     0.259 C 
BRANCH  14  15
HETATM   15  C4  UNL     1     -14.746 -26.579  25.249  1.00  0.00     0.195 C 
BRANCH  15  16
HETATM   16  O1  UNL     1     -15.184 -27.860  25.529  1.00  0.00    -0.388 OA
BRANCH  16  17
HETATM   17  C5  UNL     1     -16.539 -28.053  25.475  1.00  0.00     0.195 C 
BRANCH  17  18
HETATM   18  C6  UNL     1     -16.797 -29.387  24.754  1.00  0.00     0.255 C 
BRANCH  18  19
HETATM   19  N2  UNL     1     -15.965 -29.505  23.578  1.00  0.00    -0.077 N 
ATOM     20  H23 UNL     1     -16.053 -28.690  22.970  1.00  0.00     0.274 HD
ATOM     21  H22 UNL     1     -14.975 -29.422  23.807  1.00  0.00     0.274 HD
ATOM     22  H21 UNL     1     -16.165 -30.371  23.077  1.00  0.00     0.274 HD
ENDBRANCH  18  19
ENDBRANCH  17  18
ENDBRANCH  16  17
ENDBRANCH  15  16
ENDBRANCH  14  15
ENDBRANCH   1  14
TORSDOF 11
ENDMDL
MODEL 4
REMARK VINA RESULT: -5.244509151      2.044      3.038
REMARK  11 active torsions:
REMARK  status: ('A' for Active; 'I' for Inactive)
REMARK    1  A    between atoms: C2_2  and  N1_3 
REMARK    2  A    between atoms: C2_2  and  C7_15 
REMARK    3  A    between atoms: N1_3  and  C3_6 
REMARK    4  A    between atoms: C3_6  and  C4_7 
REMARK    5  A    between atoms: C4_7  and  O1_8 
REMARK    6  A    between atoms: O1_8  and  C5_9 
REMARK    7  A    between atoms: C5_9  and  C6_10 
REMARK    8  A    between atoms: C6_10  and  N2_11 
REMARK    9  A    between atoms: C7_15  and  O2_16 
REMARK   10  A    between atoms: C7_15  and  C9_20 
REMARK   11  A    between atoms: O2_16  and  C8_17 
ROOT
HETATM    1  N1  UNL     1     -15.019 -25.155  22.796  1.00  0.00    -0.066 N 
ATOM      2  H11 UNL     1     -14.154 -25.665  22.973  1.00  0.00     0.277 HD
ATOM      3  H12 UNL     1     -14.789 -24.271  23.250  1.00  0.00     0.277 HD
ENDROOT
BRANCH   1   4
HETATM    4  C2  UNL     1     -16.129 -25.789  23.451  1.00  0.00     0.220 C 
HETATM    5  C1  UNL     1     -16.965 -24.806  24.233  1.00  0.00     0.043 C 
BRANCH   4   6
HETATM    6  C7  UNL     1     -15.597 -26.849  24.391  1.00  0.00     0.252 C 
BRANCH   6   7
HETATM    7  O2  UNL     1     -16.621 -27.834  24.638  1.00  0.00    -0.290 OA
BRANCH   7   8
HETATM    8  C8  UNL     1     -16.371 -29.177  24.630  1.00  0.00     0.373 C 
HETATM    9  N3  UNL     1     -16.728 -29.937  25.775  1.00  0.00    -0.032 NA
HETATM   10  O3  UNL     1     -15.837 -29.686  23.612  1.00  0.00    -0.242 OA
ENDBRANCH   7   8
ENDBRANCH   6   7
BRANCH   6  11
HETATM   11  C9  UNL     1     -15.160 -26.303  25.698  1.00  0.00     0.262 C 
HETATM   12  N4  UNL     1     -15.925 -26.382  26.887  1.00  0.00    -0.060 NA
HETATM   13  O4  UNL     1     -14.033 -25.727  25.757  1.00  0.00    -0.274 OA
ENDBRANCH   6  11
ENDBRANCH   4   6
ENDBRANCH   1   4
BRANCH   1  14
HETATM   14  C3  UNL     1     -15.222 -24.966  21.376  1.00  0.00     0.259 C 
BRANCH  14  15
HETATM   15  C4  UNL     1     -16.438 -25.650  20.858  1.00  0.00     0.195 C 
BRANCH  15  16
HETATM   16  O1  UNL     1     -16.168 -26.227  19.630  1.00  0.00    -0.388 OA
BRANCH  16  17
HETATM   17  C5  UNL     1     -15.423 -25.470  18.767  1.00  0.00     0.195 C 
BRANCH  17  18
HETATM   18  C6  UNL     1     -15.763 -25.917  17.335  1.00  0.00     0.255 C 
BRANCH  18  19
HETATM   19  N2  UNL     1     -16.543 -27.134  17.348  1.00  0.00    -0.077 N 
ATOM     20  H23 UNL     1     -16.178 -27.823  16.690  1.00  0.00     0.274 HD
ATOM     21  H22 UNL     1     -16.408 -27.659  18.212  1.00  0.00     0.274 HD
ATOM     22  H21 UNL     1     -17.529 -26.936  17.177  1.00  0.00     0.274 HD
ENDBRANCH  18  19
ENDBRANCH  17  18
ENDBRANCH  16  17
ENDBRANCH  15  16
ENDBRANCH  14  15
ENDBRANCH   1  14
TORSDOF 11
ENDMDL
MODEL 5
REMARK VINA RESULT: -5.221137053      3.131      4.578
REMARK  11 active torsions:
REMARK  status: ('A' for Active; 'I' for Inactive)
REMARK    1  A    between atoms: C2_2  and  N1_3 
REMARK    2  A    between atoms: C2_2  and  C7_15 
REMARK    3  A    between atoms: N1_3  and  C3_6 
REMARK    4  A    between atoms: C3_6  and  C4_7 
REMARK    5  A    between atoms: C4_7  and  O1_8 
REMARK    6  A    between atoms: O1_8  and  C5_9 
REMARK    7  A    between atoms: C5_9  and  C6_10 
REMARK    8  A    between atoms: C6_10  and  N2_11 
REMARK    9  A    between atoms: C7_15  and  O2_16 
REMARK   10  A    between atoms: C7_15  and  C9_20 
REMARK   11  A    between atoms: O2_16  and  C8_17 
ROOT
HETATM    1  N1  UNL     1     -16.001 -25.912  22.095  1.00  0.00    -0.066 N 
ATOM      2  H11 UNL     1     -16.733 -26.236  21.463  1.00  0.00     0.277 HD
ATOM      3  H12 UNL     1     -15.341 -26.684  21.999  1.00  0.00     0.277 HD
ENDROOT
BRANCH   1   4
HETATM    4  C2  UNL     1     -16.491 -25.826  23.442  1.00  0.00     0.220 C 
HETATM    5  C1  UNL     1     -16.264 -24.460  24.043  1.00  0.00     0.043 C 
BRANCH   4   6
HETATM    6  C7  UNL     1     -15.782 -26.864  24.285  1.00  0.00     0.252 C 
BRANCH   6   7
HETATM    7  O2  UNL     1     -16.708 -27.911  24.641  1.00  0.00    -0.290 OA
BRANCH   7   8
HETATM    8  C8  UNL     1     -16.362 -29.233  24.646  1.00  0.00     0.373 C 
HETATM    9  N3  UNL     1     -16.648 -30.001  25.804  1.00  0.00    -0.032 NA
HETATM   10  O3  UNL     1     -15.806 -29.715  23.626  1.00  0.00    -0.242 OA
ENDBRANCH   7   8
ENDBRANCH   6   7
BRANCH   6  11
HETATM   11  C9  UNL     1     -15.212 -26.309  25.536  1.00  0.00     0.262 C 
HETATM   12  N4  UNL     1     -15.936 -26.170  26.744  1.00  0.00    -0.060 NA
HETATM   13  O4  UNL     1     -14.002 -25.934  25.524  1.00  0.00    -0.274 OA
ENDBRANCH   6  11
ENDBRANCH   4   6
ENDBRANCH   1   4
BRANCH   1  14
HETATM   14  C3  UNL     1     -15.419 -24.676  21.615  1.00  0.00     0.259 C 
BRANCH  14  15
HETATM   15  C4  UNL     1     -13.981 -24.803  21.255  1.00  0.00     0.195 C 
BRANCH  15  16
HETATM   16  O1  UNL     1     -13.205 -24.790  22.400  1.00  0.00    -0.388 OA
BRANCH  16  17
HETATM   17  C5  UNL     1     -11.881 -25.095  22.227  1.00  0.00     0.195 C 
BRANCH  17  18
HETATM   18  C6  UNL     1     -11.312 -24.137  21.167  1.00  0.00     0.255 C 
BRANCH  18  19
HETATM   19  N2  UNL     1     -10.271 -23.306  21.730  1.00  0.00    -0.077 N 
ATOM     20  H23 UNL     1      -9.852 -22.699  21.026  1.00  0.00     0.274 HD
ATOM     21  H22 UNL     1     -10.654 -22.589  22.346  1.00  0.00     0.274 HD
ATOM     22  H21 UNL     1      -9.569 -23.875  22.204  1.00  0.00     0.274 HD
ENDBRANCH  18  19
ENDBRANCH  17  18
ENDBRANCH  16  17
ENDBRANCH  15  16
ENDBRANCH  14  15
ENDBRANCH   1  14
TORSDOF 11
ENDMDL
