MODEL 1
REMARK VINA RESULT: -6.163457685      0.000      0.000
REMARK  10 active torsions:
REMARK  status: ('A' for Active; 'I' for Inactive)
REMARK    1  A    between atoms: C1_2  and  C2_4 
REMARK    2  A    between atoms: C2_4  and  O2_5 
REMARK    3  A    between atoms: O2_5  and  C3_6 
REMARK    4  A    between atoms: C3_6  and  C4_7 
REMARK    5  A    between atoms: C4_7  and  O3_8 
REMARK    6  A    between atoms: O3_8  and  C5_9 
REMARK    7  A    between atoms: C5_9  and  C6_10 
REMARK    8  A    between atoms: C5_9  and  C7_13 
REMARK    9  A    between atoms: C8_15  and  C9_16 
REMARK   10  A    between atoms: C9_16  and  N4_17 
ROOT
HETATM    1  C5  UNL     1     -15.888 -25.483  23.053  1.00  0.00     0.257 C 
ENDROOT
BRANCH   1   2
HETATM    2  O3  UNL     1     -14.626 -25.072  22.700  1.00  0.00    -0.369 OA
BRANCH   2   3
HETATM    3  C4  UNL     1     -14.431 -24.752  21.386  1.00  0.00     0.195 C 
BRANCH   3   4
HETATM    4  C3  UNL     1     -12.982 -24.709  20.949  1.00  0.00     0.194 C 
BRANCH   4   5
HETATM    5  O2  UNL     1     -12.126 -25.238  21.874  1.00  0.00    -0.380 OA
BRANCH   5   6
HETATM    6  C2  UNL     1     -11.244 -24.397  22.480  1.00  0.00     0.267 C 
BRANCH   6   7
HETATM    7  C1  UNL     1     -10.540 -23.459  21.607  1.00  0.00     0.254 C 
HETATM    8  N1  UNL     1      -9.620 -23.942  20.607  1.00  0.00    -0.060 NA
HETATM    9  O1  UNL     1     -10.676 -22.229  21.660  1.00  0.00    -0.275 OA
ENDBRANCH   6   7
ENDBRANCH   5   6
ENDBRANCH   4   5
ENDBRANCH   3   4
ENDBRANCH   2   3
ENDBRANCH   1   2
BRANCH   1  10
HETATM   10  C6  UNL     1     -16.760 -24.322  23.334  1.00  0.00     0.265 C 
HETATM   11  N2  UNL     1     -18.167 -24.412  23.124  1.00  0.00    -0.059 NA
HETATM   12  O4  UNL     1     -16.353 -23.244  23.750  1.00  0.00    -0.274 OA
ENDBRANCH   1  10
BRANCH   1  13
HETATM   13  C7  UNL     1     -15.724 -26.263  24.335  1.00  0.00     0.059 C 
HETATM   14  N3  UNL     1     -14.621 -25.935  25.163  1.00  0.00    -0.104 NA
HETATM   15  C8  UNL     1     -16.549 -27.207  24.723  1.00  0.00     0.025 C 
BRANCH  15  16
HETATM   16  C9  UNL     1     -16.295 -27.915  26.004  1.00  0.00     0.258 C 
BRANCH  16  17
HETATM   17  N4  UNL     1     -16.462 -27.015  27.131  1.00  0.00    -0.076 N 
ATOM     18  H43 UNL     1     -15.819 -26.226  27.082  1.00  0.00     0.274 HD
ATOM     19  H42 UNL     1     -17.341 -26.501  27.077  1.00  0.00     0.274 HD
ATOM     20  H41 UNL     1     -16.373 -27.519  28.013  1.00  0.00     0.274 HD
ENDBRANCH  16  17
ENDBRANCH  15  16
ENDBRANCH   1  13
TORSDOF 10
ENDMDL
MODEL 2
REMARK VINA RESULT: -6.132737282      3.224      5.879
REMARK  10 active torsions:
REMARK  status: ('A' for Active; 'I' for Inactive)
REMARK    1  A    between atoms: C1_2  and  C2_4 
REMARK    2  A    between atoms: C2_4  and  O2_5 
REMARK    3  A    between atoms: O2_5  and  C3_6 
REMARK    4  A    between atoms: C3_6  and  C4_7 
REMARK    5  A    between atoms: C4_7  and  O3_8 
REMARK    6  A    between atoms: O3_8  and  C5_9 
REMARK    7  A    between atoms: C5_9  and  C6_10 
REMARK    8  A    between atoms: C5_9  and  C7_13 
REMARK    9  A    between atoms: C8_15  and  C9_16 
REMARK   10  A    between atoms: C9_16  and  N4_17 
ROOT
HETATM    1  C5  UNL     1     -15.538 -24.792  23.327  1.00  0.00     0.257 C 
ENDROOT
BRANCH   1   2
HETATM    2  O3  UNL     1     -15.516 -26.050  23.879  1.00  0.00    -0.369 OA
BRANCH   2   3
HETATM    3  C4  UNL     1     -14.575 -26.279  24.843  1.00  0.00     0.195 C 
BRANCH   3   4
HETATM    4  C3  UNL     1     -15.074 -27.042  26.051  1.00  0.00     0.194 C 
BRANCH   4   5
HETATM    5  O2  UNL     1     -16.438 -27.106  26.122  1.00  0.00    -0.380 OA
BRANCH   5   6
HETATM    6  C2  UNL     1     -17.085 -27.913  25.237  1.00  0.00     0.267 C 
BRANCH   6   7
HETATM    7  C1  UNL     1     -16.493 -29.231  25.012  1.00  0.00     0.254 C 
HETATM    8  N1  UNL     1     -15.851 -29.540  23.758  1.00  0.00    -0.060 NA
HETATM    9  O1  UNL     1     -16.499 -30.144  25.849  1.00  0.00    -0.275 OA
ENDBRANCH   6   7
ENDBRANCH   5   6
ENDBRANCH   4   5
ENDBRANCH   3   4
ENDBRANCH   2   3
ENDBRANCH   1   2
BRANCH   1  10
HETATM   10  C6  UNL     1     -16.886 -24.193  23.436  1.00  0.00     0.265 C 
HETATM   11  N2  UNL     1     -17.096 -22.827  23.090  1.00  0.00    -0.059 NA
HETATM   12  O4  UNL     1     -17.879 -24.803  23.817  1.00  0.00    -0.274 OA
ENDBRANCH   1  10
BRANCH   1  13
HETATM   13  C7  UNL     1     -15.230 -24.980  21.861  1.00  0.00     0.059 C 
HETATM   14  N3  UNL     1     -13.896 -24.748  21.439  1.00  0.00    -0.104 NA
HETATM   15  C8  UNL     1     -16.120 -25.355  20.972  1.00  0.00     0.025 C 
BRANCH  15  16
HETATM   16  C9  UNL     1     -15.711 -25.509  19.552  1.00  0.00     0.258 C 
BRANCH  16  17
HETATM   17  N4  UNL     1     -16.361 -26.659  18.951  1.00  0.00    -0.076 N 
ATOM     18  H43 UNL     1     -17.114 -27.016  19.538  1.00  0.00     0.274 HD
ATOM     19  H42 UNL     1     -16.913 -26.396  18.134  1.00  0.00     0.274 HD
ATOM     20  H41 UNL     1     -15.680 -27.384  18.727  1.00  0.00     0.274 HD
ENDBRANCH  16  17
ENDBRANCH  15  16
ENDBRANCH   1  13
TORSDOF 10
ENDMDL
MODEL 3
REMARK VINA RESULT: -5.919919140      1.220      1.414
REMARK  10 active torsions:
REMARK  status: ('A' for Active; 'I' for Inactive)
REMARK    1  A    between atoms: C1_2  and  C2_4 
REMARK    2  A    between atoms: C2_4  and  O2_5 
REMARK    3  A    between atoms: O2_5  and  C3_6 
REMARK    4  A    between atoms: C3_6  and  C4_7 
REMARK    5  A    between atoms: C4_7  and  O3_8 
REMARK    6  A    between atoms: O3_8  and  C5_9 
REMARK    7  A    between atoms: C5_9  and  C6_10 
REMARK    8  A    between atoms: C5_9  and  C7_13 
REMARK    9  A    between atoms: C8_15  and  C9_16 
REMARK   10  A    between atoms: C9_16  and  N4_17 
ROOT
HETATM    1  C5  UNL     1     -16.618 -25.868  23.225  1.00  0.00     0.257 C 
ENDROOT
BRANCH   1   2
HETATM    2  O3  UNL     1     -15.816 -26.144  22.145  1.00  0.00    -0.369 OA
BRANCH   2   3
HETATM    3  C4  UNL     1     -15.973 -25.346  21.047  1.00  0.00     0.195 C 
BRANCH   3   4
HETATM    4  C3  UNL     1     -14.689 -24.765  20.493  1.00  0.00     0.194 C 
BRANCH   4   5
HETATM    5  O2  UNL     1     -13.643 -24.840  21.370  1.00  0.00    -0.380 OA
BRANCH   5   6
HETATM    6  C2  UNL     1     -12.407 -24.494  20.918  1.00  0.00     0.267 C 
BRANCH   6   7
HETATM    7  C1  UNL     1     -11.424 -24.133  21.938  1.00  0.00     0.254 C 
HETATM    8  N1  UNL     1     -10.527 -23.023  21.728  1.00  0.00    -0.060 NA
HETATM    9  O1  UNL     1     -11.292 -24.731  23.015  1.00  0.00    -0.275 OA
ENDBRANCH   6   7
ENDBRANCH   5   6
ENDBRANCH   4   5
ENDBRANCH   3   4
ENDBRANCH   2   3
ENDBRANCH   1   2
BRANCH   1  10
HETATM   10  C6  UNL     1     -16.790 -24.409  23.394  1.00  0.00     0.265 C 
HETATM   11  N2  UNL     1     -18.078 -23.815  23.256  1.00  0.00    -0.059 NA
HETATM   12  O4  UNL     1     -15.875 -23.636  23.654  1.00  0.00    -0.274 OA
ENDBRANCH   1  10
BRANCH   1  13
HETATM   13  C7  UNL     1     -15.878 -26.391  24.433  1.00  0.00     0.059 C 
HETATM   14  N3  UNL     1     -14.469 -26.231  24.455  1.00  0.00    -0.104 NA
HETATM   15  C8  UNL     1     -16.467 -26.967  25.455  1.00  0.00     0.025 C 
BRANCH  15  16
HETATM   16  C9  UNL     1     -15.643 -27.448  26.594  1.00  0.00     0.258 C 
BRANCH  16  17
HETATM   17  N4  UNL     1     -15.204 -26.336  27.418  1.00  0.00    -0.076 N 
ATOM     18  H43 UNL     1     -14.567 -25.721  26.912  1.00  0.00     0.274 HD
ATOM     19  H42 UNL     1     -15.958 -25.671  27.588  1.00  0.00     0.274 HD
ATOM     20  H41 UNL     1     -14.793 -26.671  28.288  1.00  0.00     0.274 HD
ENDBRANCH  16  17
ENDBRANCH  15  16
ENDBRANCH   1  13
TORSDOF 10
ENDMDL
MODEL 4
REMARK VINA RESULT: -5.543206338      1.696      1.711
REMARK  10 active torsions:
REMARK  status: ('A' for Active; 'I' for Inactive)
REMARK    1  A    between atoms: C1_2  and  C2_4 
REMARK    2  A    between atoms: C2_4  and  O2_5 
REMARK    3  A    between atoms: O2_5  and  C3_6 
REMARK    4  A    between atoms: C3_6  and  C4_7 
REMARK    5  A    between atoms: C4_7  and  O3_8 
REMARK    6  A    between atoms: O3_8  and  C5_9 
REMARK    7  A    between atoms: C5_9  and  C6_10 
REMARK    8  A    between atoms: C5_9  and  C7_13 
REMARK    9  A    between atoms: C8_15  and  C9_16 
REMARK   10  A    between atoms: C9_16  and  N4_17 
ROOT
HETATM    1  C5  UNL     1     -15.908 -24.877  23.258  1.00  0.00     0.257 C 
ENDROOT
BRANCH   1   2
HETATM    2  O3  UNL     1     -14.843 -24.135  23.705  1.00  0.00    -0.369 OA
BRANCH   2   3
HETATM    3  C4  UNL     1     -13.678 -24.249  22.999  1.00  0.00     0.195 C 
BRANCH   3   4
HETATM    4  C3  UNL     1     -13.839 -24.756  21.581  1.00  0.00     0.194 C 
BRANCH   4   5
HETATM    5  O2  UNL     1     -12.671 -24.746  20.871  1.00  0.00    -0.380 OA
BRANCH   5   6
HETATM    6  C2  UNL     1     -11.502 -24.778  21.567  1.00  0.00     0.267 C 
BRANCH   6   7
HETATM    7  C1  UNL     1     -10.524 -23.743  21.236  1.00  0.00     0.254 C 
HETATM    8  N1  UNL     1     -10.655 -22.413  21.779  1.00  0.00    -0.060 NA
HETATM    9  O1  UNL     1      -9.549 -23.923  20.492  1.00  0.00    -0.275 OA
ENDBRANCH   6   7
ENDBRANCH   5   6
ENDBRANCH   4   5
ENDBRANCH   3   4
ENDBRANCH   2   3
ENDBRANCH   1   2
BRANCH   1  10
HETATM   10  C6  UNL     1     -17.162 -24.097  23.335  1.00  0.00     0.265 C 
HETATM   11  N2  UNL     1     -17.126 -22.673  23.322  1.00  0.00    -0.059 NA
HETATM   12  O4  UNL     1     -18.278 -24.599  23.413  1.00  0.00    -0.274 OA
ENDBRANCH   1  10
BRANCH   1  13
HETATM   13  C7  UNL     1     -16.027 -26.043  24.210  1.00  0.00     0.059 C 
HETATM   14  N3  UNL     1     -16.060 -25.752  25.598  1.00  0.00    -0.104 NA
HETATM   15  C8  UNL     1     -16.114 -27.294  23.823  1.00  0.00     0.025 C 
BRANCH  15  16
HETATM   16  C9  UNL     1     -16.227 -28.367  24.844  1.00  0.00     0.258 C 
BRANCH  16  17
HETATM   17  N4  UNL     1     -16.843 -29.553  24.279  1.00  0.00    -0.076 N 
ATOM     18  H43 UNL     1     -16.907 -29.497  23.263  1.00  0.00     0.274 HD
ATOM     19  H42 UNL     1     -16.232 -30.367  24.351  1.00  0.00     0.274 HD
ATOM     20  H41 UNL     1     -17.753 -29.726  24.705  1.00  0.00     0.274 HD
ENDBRANCH  16  17
ENDBRANCH  15  16
ENDBRANCH   1  13
TORSDOF 10
ENDMDL
MODEL 5
REMARK VINA RESULT: -5.413399027      2.485      3.635
REMARK  10 active torsions:
REMARK  status: ('A' for Active; 'I' for Inactive)
REMARK    1  A    between atoms: C1_2  and  C2_4 
REMARK    2  A    between atoms: C2_4  and  O2_5 
REMARK    3  A    between atoms: O2_5  and  C3_6 
REMARK    4  A    between atoms: C3_6  and  C4_7 
REMARK    5  A    between atoms: C4_7  and  O3_8 
REMARK    6  A    between atoms: O3_8  and  C5_9 
REMARK    7  A    between atoms: C5_9  and  C6_10 
REMARK    8  A    between atoms: C5_9  and  C7_13 
REMARK    9  A    between atoms: C8_15  and  C9_16 
REMARK   10  A    between atoms: C9_16  and  N4_17 
ROOT
HETATM    1  C5  UNL     1     -15.773 -24.279  22.398  1.00  0.00     0.257 C 
ENDROOT
BRANCH   1   2
HETATM    2  O3  UNL     1     -14.606 -24.622  23.036  1.00  0.00    -0.369 OA
BRANCH   2   3
HETATM    3  C4  UNL     1     -13.470 -24.620  22.277  1.00  0.00     0.195 C 
BRANCH   3   4
HETATM    4  C3  UNL     1     -12.329 -25.445  22.835  1.00  0.00     0.194 C 
BRANCH   4   5
HETATM    5  O2  UNL     1     -11.319 -25.643  21.935  1.00  0.00    -0.380 OA
BRANCH   5   6
HETATM    6  C2  UNL     1     -11.218 -24.777  20.890  1.00  0.00     0.267 C 
BRANCH   6   7
HETATM    7  C1  UNL     1     -10.300 -23.653  21.069  1.00  0.00     0.254 C 
HETATM    8  N1  UNL     1     -10.710 -22.485  21.809  1.00  0.00    -0.060 NA
HETATM    9  O1  UNL     1      -9.147 -23.622  20.616  1.00  0.00    -0.275 OA
ENDBRANCH   6   7
ENDBRANCH   5   6
ENDBRANCH   4   5
ENDBRANCH   3   4
ENDBRANCH   2   3
ENDBRANCH   1   2
BRANCH   1  10
HETATM   10  C6  UNL     1     -16.931 -24.421  23.306  1.00  0.00     0.265 C 
HETATM   11  N2  UNL     1     -18.232 -24.023  22.881  1.00  0.00    -0.059 NA
HETATM   12  O4  UNL     1     -16.859 -24.872  24.444  1.00  0.00    -0.274 OA
ENDBRANCH   1  10
BRANCH   1  13
HETATM   13  C7  UNL     1     -15.937 -25.275  21.275  1.00  0.00     0.059 C 
HETATM   14  N3  UNL     1     -16.317 -26.596  21.625  1.00  0.00    -0.104 NA
HETATM   15  C8  UNL     1     -15.762 -24.980  20.009  1.00  0.00     0.025 C 
BRANCH  15  16
HETATM   16  C9  UNL     1     -15.949 -26.037  18.982  1.00  0.00     0.258 C 
BRANCH  16  17
HETATM   17  N4  UNL     1     -15.334 -25.650  17.726  1.00  0.00    -0.076 N 
ATOM     18  H43 UNL     1     -14.425 -25.210  17.871  1.00  0.00     0.274 HD
ATOM     19  H42 UNL     1     -15.029 -26.462  17.189  1.00  0.00     0.274 HD
ATOM     20  H41 UNL     1     -15.960 -25.054  17.185  1.00  0.00     0.274 HD
ENDBRANCH  16  17
ENDBRANCH  15  16
ENDBRANCH   1  13
TORSDOF 10
ENDMDL
