MODEL 1
REMARK VINA RESULT: -6.427007416      0.000      0.000
REMARK  11 active torsions:
REMARK  status: ('A' for Active; 'I' for Inactive)
REMARK    1  A    between atoms: C2_2  and  N1_3 
REMARK    2  A    between atoms: C2_2  and  C7_15 
REMARK    3  A    between atoms: N1_3  and  C3_6 
REMARK    4  A    between atoms: C3_6  and  C4_7 
REMARK    5  A    between atoms: C4_7  and  O1_8 
REMARK    6  A    between atoms: O1_8  and  C5_9 
REMARK    7  A    between atoms: C5_9  and  C6_10 
REMARK    8  A    between atoms: C6_10  and  N2_11 
REMARK    9  A    between atoms: C7_15  and  O2_16 
REMARK   10  A    between atoms: C7_15  and  C9_20 
REMARK   11  A    between atoms: O2_16  and  C8_17 
ROOT
HETATM    1  N1  UNL     1       4.648  20.079  -9.070  1.00  0.00    -0.066 N 
ATOM      2  H11 UNL     1       4.668  21.093  -9.172  1.00  0.00     0.277 HD
ATOM      3  H12 UNL     1       5.576  19.855  -9.430  1.00  0.00     0.277 HD
ENDROOT
BRANCH   1   4
HETATM    4  C2  UNL     1       3.628  19.503  -9.901  1.00  0.00     0.220 C 
HETATM    5  C1  UNL     1       3.567  18.000  -9.767  1.00  0.00     0.043 C 
BRANCH   4   6
HETATM    6  C7  UNL     1       3.913  19.863 -11.343  1.00  0.00     0.252 C 
BRANCH   6   7
HETATM    7  O2  UNL     1       4.089  18.658 -12.116  1.00  0.00    -0.290 OA
BRANCH   7   8
HETATM    8  C8  UNL     1       3.624  18.527 -13.394  1.00  0.00     0.373 C 
HETATM    9  N3  UNL     1       3.214  17.241 -13.834  1.00  0.00    -0.032 NA
HETATM   10  O3  UNL     1       3.577  19.547 -14.127  1.00  0.00    -0.242 OA
ENDBRANCH   7   8
ENDBRANCH   6   7
BRANCH   6  11
HETATM   11  C9  UNL     1       5.129  20.696 -11.505  1.00  0.00     0.262 C 
HETATM   12  N4  UNL     1       6.443  20.175 -11.581  1.00  0.00    -0.060 NA
HETATM   13  O4  UNL     1       4.986  21.952 -11.580  1.00  0.00    -0.274 OA
ENDBRANCH   6  11
ENDBRANCH   4   6
ENDBRANCH   1   4
BRANCH   1  14
HETATM   14  C3  UNL     1       4.533  19.704  -7.677  1.00  0.00     0.259 C 
BRANCH  14  15
HETATM   15  C4  UNL     1       3.840  20.727  -6.847  1.00  0.00     0.195 C 
BRANCH  15  16
HETATM   16  O1  UNL     1       3.955  20.405  -5.507  1.00  0.00    -0.388 OA
BRANCH  16  17
HETATM   17  C5  UNL     1       3.956  21.462  -4.638  1.00  0.00     0.195 C 
BRANCH  17  18
HETATM   18  C6  UNL     1       3.328  22.666  -5.360  1.00  0.00     0.255 C 
BRANCH  18  19
HETATM   19  N2  UNL     1       2.818  23.629  -4.409  1.00  0.00    -0.077 N 
ATOM     20  H23 UNL     1       3.516  24.336  -4.179  1.00  0.00     0.274 HD
ATOM     21  H22 UNL     1       2.114  24.236  -4.829  1.00  0.00     0.274 HD
ATOM     22  H21 UNL     1       2.465  23.162  -3.574  1.00  0.00     0.274 HD
ENDBRANCH  18  19
ENDBRANCH  17  18
ENDBRANCH  16  17
ENDBRANCH  15  16
ENDBRANCH  14  15
ENDBRANCH   1  14
TORSDOF 11
ENDMDL
MODEL 2
REMARK VINA RESULT: -6.396658109      1.686      2.479
REMARK  11 active torsions:
REMARK  status: ('A' for Active; 'I' for Inactive)
REMARK    1  A    between atoms: C2_2  and  N1_3 
REMARK    2  A    between atoms: C2_2  and  C7_15 
REMARK    3  A    between atoms: N1_3  and  C3_6 
REMARK    4  A    between atoms: C3_6  and  C4_7 
REMARK    5  A    between atoms: C4_7  and  O1_8 
REMARK    6  A    between atoms: O1_8  and  C5_9 
REMARK    7  A    between atoms: C5_9  and  C6_10 
REMARK    8  A    between atoms: C6_10  and  N2_11 
REMARK    9  A    between atoms: C7_15  and  O2_16 
REMARK   10  A    between atoms: C7_15  and  C9_20 
REMARK   11  A    between atoms: O2_16  and  C8_17 
ROOT
HETATM    1  N1  UNL     1       3.747  20.826  -9.042  1.00  0.00    -0.066 N 
ATOM      2  H11 UNL     1       2.811  20.444  -9.172  1.00  0.00     0.277 HD
ATOM      3  H12 UNL     1       3.511  21.807  -8.896  1.00  0.00     0.277 HD
ENDROOT
BRANCH   1   4
HETATM    4  C2  UNL     1       4.535  20.664 -10.232  1.00  0.00     0.220 C 
HETATM    5  C1  UNL     1       4.836  21.984 -10.899  1.00  0.00     0.043 C 
BRANCH   4   6
HETATM    6  C7  UNL     1       3.777  19.780 -11.199  1.00  0.00     0.252 C 
BRANCH   6   7
HETATM    7  O2  UNL     1       3.577  18.479 -10.609  1.00  0.00    -0.290 OA
BRANCH   7   8
HETATM    8  C8  UNL     1       2.407  18.115 -10.005  1.00  0.00     0.373 C 
HETATM    9  N3  UNL     1       2.377  16.900  -9.271  1.00  0.00    -0.032 NA
HETATM   10  O3  UNL     1       1.408  18.868 -10.121  1.00  0.00    -0.242 OA
ENDBRANCH   7   8
ENDBRANCH   6   7
BRANCH   6  11
HETATM   11  C9  UNL     1       4.478  19.596 -12.493  1.00  0.00     0.262 C 
HETATM   12  N4  UNL     1       3.856  19.731 -13.758  1.00  0.00    -0.060 NA
HETATM   13  O4  UNL     1       5.708  19.298 -12.468  1.00  0.00    -0.274 OA
ENDBRANCH   6  11
ENDBRANCH   4   6
ENDBRANCH   1   4
BRANCH   1  14
HETATM   14  C3  UNL     1       4.370  20.267  -7.861  1.00  0.00     0.259 C 
BRANCH  14  15
HETATM   15  C4  UNL     1       3.556  20.440  -6.628  1.00  0.00     0.195 C 
BRANCH  15  16
HETATM   16  O1  UNL     1       4.386  20.583  -5.531  1.00  0.00    -0.388 OA
BRANCH  16  17
HETATM   17  C5  UNL     1       3.988  21.504  -4.599  1.00  0.00     0.195 C 
BRANCH  17  18
HETATM   18  C6  UNL     1       3.256  22.636  -5.339  1.00  0.00     0.255 C 
BRANCH  18  19
HETATM   19  N2  UNL     1       2.868  23.684  -4.422  1.00  0.00    -0.077 N 
ATOM     20  H23 UNL     1       2.709  24.568  -4.905  1.00  0.00     0.274 HD
ATOM     21  H22 UNL     1       1.927  23.536  -4.057  1.00  0.00     0.274 HD
ATOM     22  H21 UNL     1       3.553  23.783  -3.672  1.00  0.00     0.274 HD
ENDBRANCH  18  19
ENDBRANCH  17  18
ENDBRANCH  16  17
ENDBRANCH  15  16
ENDBRANCH  14  15
ENDBRANCH   1  14
TORSDOF 11
ENDMDL
MODEL 3
REMARK VINA RESULT: -6.372640939      2.419      7.283
REMARK  11 active torsions:
REMARK  status: ('A' for Active; 'I' for Inactive)
REMARK    1  A    between atoms: C2_2  and  N1_3 
REMARK    2  A    between atoms: C2_2  and  C7_15 
REMARK    3  A    between atoms: N1_3  and  C3_6 
REMARK    4  A    between atoms: C3_6  and  C4_7 
REMARK    5  A    between atoms: C4_7  and  O1_8 
REMARK    6  A    between atoms: O1_8  and  C5_9 
REMARK    7  A    between atoms: C5_9  and  C6_10 
REMARK    8  A    between atoms: C6_10  and  N2_11 
REMARK    9  A    between atoms: C7_15  and  O2_16 
REMARK   10  A    between atoms: C7_15  and  C9_20 
REMARK   11  A    between atoms: O2_16  and  C8_17 
ROOT
HETATM    1  N1  UNL     1       3.554  20.052 -12.568  1.00  0.00    -0.066 N 
ATOM      2  H11 UNL     1       2.607  19.796 -12.291  1.00  0.00     0.277 HD
ATOM      3  H12 UNL     1       3.935  19.123 -12.745  1.00  0.00     0.277 HD
ENDROOT
BRANCH   1   4
HETATM    4  C2  UNL     1       4.248  20.689 -11.484  1.00  0.00     0.220 C 
HETATM    5  C1  UNL     1       5.737  20.451 -11.545  1.00  0.00     0.043 C 
BRANCH   4   6
HETATM    6  C7  UNL     1       3.710  20.148 -10.177  1.00  0.00     0.252 C 
BRANCH   6   7
HETATM    7  O2  UNL     1       4.773  20.089  -9.205  1.00  0.00    -0.290 OA
BRANCH   7   8
HETATM    8  C8  UNL     1       4.541  20.057  -7.859  1.00  0.00     0.373 C 
HETATM    9  N3  UNL     1       3.470  20.831  -7.340  1.00  0.00    -0.032 NA
HETATM   10  O3  UNL     1       5.282  19.345  -7.135  1.00  0.00    -0.242 OA
ENDBRANCH   7   8
ENDBRANCH   6   7
BRANCH   6  11
HETATM   11  C9  UNL     1       3.125  18.792 -10.305  1.00  0.00     0.262 C 
HETATM   12  N4  UNL     1       1.736  18.520 -10.259  1.00  0.00    -0.060 NA
HETATM   13  O4  UNL     1       3.914  17.814 -10.462  1.00  0.00    -0.274 OA
ENDBRANCH   6  11
ENDBRANCH   4   6
ENDBRANCH   1   4
BRANCH   1  14
HETATM   14  C3  UNL     1       3.538  20.840 -13.782  1.00  0.00     0.259 C 
BRANCH  14  15
HETATM   15  C4  UNL     1       3.784  20.037 -15.010  1.00  0.00     0.195 C 
BRANCH  15  16
HETATM   16  O1  UNL     1       3.127  18.823 -14.919  1.00  0.00    -0.388 OA
BRANCH  16  17
HETATM   17  C5  UNL     1       2.784  18.239 -16.109  1.00  0.00     0.195 C 
BRANCH  17  18
HETATM   18  C6  UNL     1       1.695  19.108 -16.762  1.00  0.00     0.255 C 
BRANCH  18  19
HETATM   19  N2  UNL     1       0.377  18.640 -16.397  1.00  0.00    -0.077 N 
ATOM     20  H23 UNL     1      -0.009  18.012 -17.102  1.00  0.00     0.274 HD
ATOM     21  H22 UNL     1       0.411  17.990 -15.612  1.00  0.00     0.274 HD
ATOM     22  H21 UNL     1      -0.248  19.425 -16.211  1.00  0.00     0.274 HD
ENDBRANCH  18  19
ENDBRANCH  17  18
ENDBRANCH  16  17
ENDBRANCH  15  16
ENDBRANCH  14  15
ENDBRANCH   1  14
TORSDOF 11
ENDMDL
MODEL 4
REMARK VINA RESULT: -6.341275587      2.944      6.993
REMARK  11 active torsions:
REMARK  status: ('A' for Active; 'I' for Inactive)
REMARK    1  A    between atoms: C2_2  and  N1_3 
REMARK    2  A    between atoms: C2_2  and  C7_15 
REMARK    3  A    between atoms: N1_3  and  C3_6 
REMARK    4  A    between atoms: C3_6  and  C4_7 
REMARK    5  A    between atoms: C4_7  and  O1_8 
REMARK    6  A    between atoms: O1_8  and  C5_9 
REMARK    7  A    between atoms: C5_9  and  C6_10 
REMARK    8  A    between atoms: C6_10  and  N2_11 
REMARK    9  A    between atoms: C7_15  and  O2_16 
REMARK   10  A    between atoms: C7_15  and  C9_20 
REMARK   11  A    between atoms: O2_16  and  C8_17 
ROOT
HETATM    1  N1  UNL     1       4.054  19.665 -12.874  1.00  0.00    -0.066 N 
ATOM      2  H11 UNL     1       3.316  18.978 -12.722  1.00  0.00     0.277 HD
ATOM      3  H12 UNL     1       4.789  19.050 -13.222  1.00  0.00     0.277 HD
ENDROOT
BRANCH   1   4
HETATM    4  C2  UNL     1       4.445  20.276 -11.635  1.00  0.00     0.220 C 
HETATM    5  C1  UNL     1       5.934  20.516 -11.564  1.00  0.00     0.043 C 
BRANCH   4   6
HETATM    6  C7  UNL     1       4.032  19.370 -10.495  1.00  0.00     0.252 C 
BRANCH   6   7
HETATM    7  O2  UNL     1       2.607  19.152 -10.543  1.00  0.00    -0.290 OA
BRANCH   7   8
HETATM    8  C8  UNL     1       1.945  18.393  -9.621  1.00  0.00     0.373 C 
HETATM    9  N3  UNL     1       2.314  17.029  -9.479  1.00  0.00    -0.032 NA
HETATM   10  O3  UNL     1       1.038  18.930  -8.935  1.00  0.00    -0.242 OA
ENDBRANCH   7   8
ENDBRANCH   6   7
BRANCH   6  11
HETATM   11  C9  UNL     1       4.369  19.922  -9.161  1.00  0.00     0.262 C 
HETATM   12  N4  UNL     1       5.140  19.237  -8.191  1.00  0.00    -0.060 NA
HETATM   13  O4  UNL     1       3.939  21.077  -8.867  1.00  0.00    -0.274 OA
ENDBRANCH   6  11
ENDBRANCH   4   6
ENDBRANCH   1   4
BRANCH   1  14
HETATM   14  C3  UNL     1       3.663  20.622 -13.888  1.00  0.00     0.259 C 
BRANCH  14  15
HETATM   15  C4  UNL     1       3.598  20.038 -15.255  1.00  0.00     0.195 C 
BRANCH  15  16
HETATM   16  O1  UNL     1       3.009  18.788 -15.208  1.00  0.00    -0.388 OA
BRANCH  16  17
HETATM   17  C5  UNL     1       2.877  18.145 -16.409  1.00  0.00     0.195 C 
BRANCH  17  18
HETATM   18  C6  UNL     1       1.688  18.776 -17.153  1.00  0.00     0.255 C 
BRANCH  18  19
HETATM   19  N2  UNL     1       0.471  18.642 -16.385  1.00  0.00    -0.077 N 
ATOM     20  H23 UNL     1      -0.130  19.461 -16.484  1.00  0.00     0.274 HD
ATOM     21  H22 UNL     1      -0.153  17.943 -16.788  1.00  0.00     0.274 HD
ATOM     22  H21 UNL     1       0.678  18.444 -15.406  1.00  0.00     0.274 HD
ENDBRANCH  18  19
ENDBRANCH  17  18
ENDBRANCH  16  17
ENDBRANCH  15  16
ENDBRANCH  14  15
ENDBRANCH   1  14
TORSDOF 11
ENDMDL
MODEL 5
REMARK VINA RESULT: -6.321175956      2.917      6.836
REMARK  11 active torsions:
REMARK  status: ('A' for Active; 'I' for Inactive)
REMARK    1  A    between atoms: C2_2  and  N1_3 
REMARK    2  A    between atoms: C2_2  and  C7_15 
REMARK    3  A    between atoms: N1_3  and  C3_6 
REMARK    4  A    between atoms: C3_6  and  C4_7 
REMARK    5  A    between atoms: C4_7  and  O1_8 
REMARK    6  A    between atoms: O1_8  and  C5_9 
REMARK    7  A    between atoms: C5_9  and  C6_10 
REMARK    8  A    between atoms: C6_10  and  N2_11 
REMARK    9  A    between atoms: C7_15  and  O2_16 
REMARK   10  A    between atoms: C7_15  and  C9_20 
REMARK   11  A    between atoms: O2_16  and  C8_17 
ROOT
HETATM    1  N1  UNL     1       3.147  20.623 -12.232  1.00  0.00    -0.066 N 
ATOM      2  H11 UNL     1       2.223  21.055 -12.236  1.00  0.00     0.277 HD
ATOM      3  H12 UNL     1       2.874  19.641 -12.267  1.00  0.00     0.277 HD
ENDROOT
BRANCH   1   4
HETATM    4  C2  UNL     1       3.840  20.915 -11.008  1.00  0.00     0.220 C 
HETATM    5  C1  UNL     1       5.023  21.826 -11.230  1.00  0.00     0.043 C 
BRANCH   4   6
HETATM    6  C7  UNL     1       4.319  19.616 -10.398  1.00  0.00     0.252 C 
BRANCH   6   7
HETATM    7  O2  UNL     1       3.433  18.545 -10.786  1.00  0.00    -0.290 OA
BRANCH   7   8
HETATM    8  C8  UNL     1       2.327  18.203 -10.062  1.00  0.00     0.373 C 
HETATM    9  N3  UNL     1       2.368  17.014  -9.287  1.00  0.00    -0.032 NA
HETATM   10  O3  UNL     1       1.319  18.953 -10.108  1.00  0.00    -0.242 OA
ENDBRANCH   7   8
ENDBRANCH   6   7
BRANCH   6  11
HETATM   11  C9  UNL     1       4.375  19.653  -8.917  1.00  0.00     0.262 C 
HETATM   12  N4  UNL     1       3.684  20.599  -8.121  1.00  0.00    -0.060 NA
HETATM   13  O4  UNL     1       5.085  18.788  -8.325  1.00  0.00    -0.274 OA
ENDBRANCH   6  11
ENDBRANCH   4   6
ENDBRANCH   1   4
BRANCH   1  14
HETATM   14  C3  UNL     1       3.892  20.992 -13.416  1.00  0.00     0.259 C 
BRANCH  14  15
HETATM   15  C4  UNL     1       3.509  20.208 -14.622  1.00  0.00     0.195 C 
BRANCH  15  16
HETATM   16  O1  UNL     1       2.204  20.498 -14.978  1.00  0.00    -0.388 OA
BRANCH  16  17
HETATM   17  C5  UNL     1       1.956  20.570 -16.323  1.00  0.00     0.195 C 
BRANCH  17  18
HETATM   18  C6  UNL     1       1.750  19.137 -16.841  1.00  0.00     0.255 C 
BRANCH  18  19
HETATM   19  N2  UNL     1       0.467  18.618 -16.423  1.00  0.00    -0.077 N 
ATOM     20  H23 UNL     1      -0.304  19.179 -16.787  1.00  0.00     0.274 HD
ATOM     21  H22 UNL     1       0.248  17.736 -16.886  1.00  0.00     0.274 HD
ATOM     22  H21 UNL     1       0.423  18.532 -15.407  1.00  0.00     0.274 HD
ENDBRANCH  18  19
ENDBRANCH  17  18
ENDBRANCH  16  17
ENDBRANCH  15  16
ENDBRANCH  14  15
ENDBRANCH   1  14
TORSDOF 11
ENDMDL
