MODEL 1
REMARK VINA RESULT: -7.139167046      0.000      0.000
REMARK  10 active torsions:
REMARK  status: ('A' for Active; 'I' for Inactive)
REMARK    1  A    between atoms: C2_2  and  N1_3 
REMARK    2  A    between atoms: N1_3  and  C3_6 
REMARK    3  A    between atoms: C3_6  and  C4_7 
REMARK       I    between atoms: C4_7  and  N2_9 
REMARK       I    between atoms: N2_9  and  C5_11 
REMARK       I    between atoms: C5_11  and  N3_13 
REMARK    4  A    between atoms: N3_13  and  C6_15 
REMARK    5  A    between atoms: C6_15  and  C7_16 
REMARK    6  A    between atoms: C7_16  and  O3_17 
REMARK    7  A    between atoms: C7_16  and  C8_19 
REMARK    8  A    between atoms: C7_16  and  C9_24 
REMARK    9  A    between atoms: C8_19  and  N4_20 
REMARK   10  A    between atoms: C9_24  and  O4_25 
ROOT
HETATM    1  C4  UNL     1       3.528  19.214 -10.905  1.00  0.00     0.251 C 
HETATM    2  O1  UNL     1       3.220  18.138 -11.445  1.00  0.00    -0.271 OA
HETATM    3  N2  UNL     1       3.838  20.390 -11.563  1.00  0.00    -0.278 N 
ATOM      4  H2  UNL     1       4.071  21.186 -10.970  1.00  0.00     0.173 HD
HETATM    5  C5  UNL     1       3.872  20.620 -12.937  1.00  0.00     0.322 C 
HETATM    6  O2  UNL     1       4.201  21.824 -13.255  1.00  0.00    -0.247 OA
HETATM    7  N3  UNL     1       3.580  19.650 -13.882  1.00  0.00    -0.340 N 
ATOM      8  H3  UNL     1       3.289  18.742 -13.520  1.00  0.00     0.164 HD
ENDROOT
BRANCH   7   9
HETATM    9  C6  UNL     1       3.640  19.772 -15.307  1.00  0.00     0.166 C 
BRANCH   9  10
HETATM   10  C7  UNL     1       2.932  18.734 -16.072  1.00  0.00     0.118 C 
BRANCH  10  11
HETATM   11  O3  UNL     1       2.351  17.749 -15.240  1.00  0.00    -0.384 OA
ATOM     12  H3  UNL     1       2.998  17.274 -14.732  1.00  0.00     0.210 HD
ENDBRANCH  10  11
BRANCH  10  13
HETATM   13  C8  UNL     1       1.586  19.518 -16.490  1.00  0.00     0.271 C 
BRANCH  13  14
HETATM   14  N4  UNL     1       0.476  18.645 -16.352  1.00  0.00    -0.076 N 
ATOM     15  H43 UNL     1       0.369  18.025 -17.154  1.00  0.00     0.274 HD
ATOM     16  H42 UNL     1       0.630  17.932 -15.638  1.00  0.00     0.274 HD
ATOM     17  H41 UNL     1      -0.364  19.196 -16.173  1.00  0.00     0.274 HD
ENDBRANCH  13  14
ENDBRANCH  10  13
BRANCH  10  18
HETATM   18  C9  UNL     1       3.521  18.258 -17.316  1.00  0.00     0.205 C 
BRANCH  18  19
HETATM   19  O4  UNL     1       2.588  18.302 -18.351  1.00  0.00    -0.398 OA
ATOM     20  H4  UNL     1       2.914  18.823 -19.075  1.00  0.00     0.209 HD
ENDBRANCH  18  19
ENDBRANCH  10  18
ENDBRANCH   9  10
ENDBRANCH   7   9
BRANCH   1  21
HETATM   21  C3  UNL     1       3.552  19.179  -9.382  1.00  0.00     0.335 C 
BRANCH  21  22
HETATM   22  N1  UNL     1       3.887  20.504  -8.931  1.00  0.00    -0.067 N 
ATOM     23  H12 UNL     1       3.160  21.188  -9.139  1.00  0.00     0.277 HD
ATOM     24  H11 UNL     1       4.635  20.930  -9.478  1.00  0.00     0.277 HD
BRANCH  22  25
HETATM   25  C2  UNL     1       4.201  20.427  -7.504  1.00  0.00     0.228 C 
HETATM   26  C1  UNL     1       3.456  21.495  -6.755  1.00  0.00     0.034 C 
ENDBRANCH  22  25
ENDBRANCH  21  22
ENDBRANCH   1  21
TORSDOF 10
ENDMDL
MODEL 2
REMARK VINA RESULT: -6.737940885      2.044      6.866
REMARK  10 active torsions:
REMARK  status: ('A' for Active; 'I' for Inactive)
REMARK    1  A    between atoms: C2_2  and  N1_3 
REMARK    2  A    between atoms: N1_3  and  C3_6 
REMARK    3  A    between atoms: C3_6  and  C4_7 
REMARK       I    between atoms: C4_7  and  N2_9 
REMARK       I    between atoms: N2_9  and  C5_11 
REMARK       I    between atoms: C5_11  and  N3_13 
REMARK    4  A    between atoms: N3_13  and  C6_15 
REMARK    5  A    between atoms: C6_15  and  C7_16 
REMARK    6  A    between atoms: C7_16  and  O3_17 
REMARK    7  A    between atoms: C7_16  and  C8_19 
REMARK    8  A    between atoms: C7_16  and  C9_24 
REMARK    9  A    between atoms: C8_19  and  N4_20 
REMARK   10  A    between atoms: C9_24  and  O4_25 
ROOT
HETATM    1  C4  UNL     1       3.849  20.026 -13.638  1.00  0.00     0.251 C 
HETATM    2  O1  UNL     1       3.705  18.942 -13.048  1.00  0.00    -0.271 OA
HETATM    3  N2  UNL     1       4.119  21.244 -13.039  1.00  0.00    -0.278 N 
ATOM      4  H2  UNL     1       4.208  22.041 -13.668  1.00  0.00     0.173 HD
HETATM    5  C5  UNL     1       4.282  21.513 -11.681  1.00  0.00     0.322 C 
HETATM    6  O2  UNL     1       4.522  22.751 -11.422  1.00  0.00    -0.247 OA
HETATM    7  N3  UNL     1       4.196  20.546 -10.693  1.00  0.00    -0.340 N 
ATOM      8  H3  UNL     1       4.045  19.588 -11.013  1.00  0.00     0.164 HD
ENDROOT
BRANCH   7   9
HETATM    9  C6  UNL     1       4.293  20.730  -9.278  1.00  0.00     0.166 C 
BRANCH   9  10
HETATM   10  C7  UNL     1       4.287  19.503  -8.466  1.00  0.00     0.118 C 
BRANCH  10  11
HETATM   11  O3  UNL     1       5.568  19.182  -7.960  1.00  0.00    -0.384 OA
ATOM     12  H3  UNL     1       5.528  18.770  -7.105  1.00  0.00     0.210 HD
ENDBRANCH  10  11
BRANCH  10  13
HETATM   13  C8  UNL     1       3.617  20.036  -7.100  1.00  0.00     0.271 C 
BRANCH  13  14
HETATM   14  N4  UNL     1       3.148  21.361  -7.295  1.00  0.00    -0.076 N 
ATOM     15  H43 UNL     1       2.478  21.643  -6.581  1.00  0.00     0.274 HD
ATOM     16  H42 UNL     1       3.868  22.058  -7.103  1.00  0.00     0.274 HD
ATOM     17  H41 UNL     1       2.768  21.447  -8.238  1.00  0.00     0.274 HD
ENDBRANCH  13  14
ENDBRANCH  10  13
BRANCH  10  18
HETATM   18  C9  UNL     1       3.469  18.380  -8.903  1.00  0.00     0.205 C 
BRANCH  18  19
HETATM   19  O4  UNL     1       3.994  17.810 -10.062  1.00  0.00    -0.398 OA
ATOM     20  H4  UNL     1       3.406  17.943 -10.796  1.00  0.00     0.209 HD
ENDBRANCH  18  19
ENDBRANCH  10  18
ENDBRANCH   9  10
ENDBRANCH   7   9
BRANCH   1  21
HETATM   21  C3  UNL     1       3.707  19.953 -15.153  1.00  0.00     0.335 C 
BRANCH  21  22
HETATM   22  N1  UNL     1       2.360  20.341 -15.474  1.00  0.00    -0.067 N 
ATOM     23  H12 UNL     1       2.280  21.329 -15.717  1.00  0.00     0.277 HD
ATOM     24  H11 UNL     1       1.747  20.352 -14.659  1.00  0.00     0.277 HD
BRANCH  22  25
HETATM   25  C2  UNL     1       1.878  19.457 -16.535  1.00  0.00     0.228 C 
HETATM   26  C1  UNL     1       2.676  18.184 -16.546  1.00  0.00     0.034 C 
ENDBRANCH  22  25
ENDBRANCH  21  22
ENDBRANCH   1  21
TORSDOF 10
ENDMDL
MODEL 3
REMARK VINA RESULT: -6.735024836      1.197      1.374
REMARK  10 active torsions:
REMARK  status: ('A' for Active; 'I' for Inactive)
REMARK    1  A    between atoms: C2_2  and  N1_3 
REMARK    2  A    between atoms: N1_3  and  C3_6 
REMARK    3  A    between atoms: C3_6  and  C4_7 
REMARK       I    between atoms: C4_7  and  N2_9 
REMARK       I    between atoms: N2_9  and  C5_11 
REMARK       I    between atoms: C5_11  and  N3_13 
REMARK    4  A    between atoms: N3_13  and  C6_15 
REMARK    5  A    between atoms: C6_15  and  C7_16 
REMARK    6  A    between atoms: C7_16  and  O3_17 
REMARK    7  A    between atoms: C7_16  and  C8_19 
REMARK    8  A    between atoms: C7_16  and  C9_24 
REMARK    9  A    between atoms: C8_19  and  N4_20 
REMARK   10  A    between atoms: C9_24  and  O4_25 
ROOT
HETATM    1  C4  UNL     1       3.849  19.578 -10.997  1.00  0.00     0.251 C 
HETATM    2  O1  UNL     1       3.410  18.564 -11.565  1.00  0.00    -0.271 OA
HETATM    3  N2  UNL     1       4.047  20.814 -11.585  1.00  0.00    -0.278 N 
ATOM      4  H2  UNL     1       4.416  21.545 -10.977  1.00  0.00     0.173 HD
HETATM    5  C5  UNL     1       3.804  21.182 -12.907  1.00  0.00     0.322 C 
HETATM    6  O2  UNL     1       4.090  22.411 -13.166  1.00  0.00    -0.247 OA
HETATM    7  N3  UNL     1       3.301  20.315 -13.863  1.00  0.00    -0.340 N 
ATOM      8  H3  UNL     1       3.067  19.376 -13.540  1.00  0.00     0.164 HD
ENDROOT
BRANCH   7   9
HETATM    9  C6  UNL     1       3.070  20.580 -15.250  1.00  0.00     0.166 C 
BRANCH   9  10
HETATM   10  C7  UNL     1       2.261  19.585 -15.970  1.00  0.00     0.118 C 
BRANCH  10  11
HETATM   11  O3  UNL     1       0.888  19.661 -15.638  1.00  0.00    -0.384 OA
ATOM     12  H3  UNL     1       0.324  19.568 -16.398  1.00  0.00     0.210 HD
ENDBRANCH  10  11
BRANCH  10  13
HETATM   13  C8  UNL     1       2.188  20.246 -17.439  1.00  0.00     0.271 C 
BRANCH  13  14
HETATM   14  N4  UNL     1       1.804  19.254 -18.378  1.00  0.00    -0.076 N 
ATOM     15  H43 UNL     1       1.055  19.572 -18.993  1.00  0.00     0.274 HD
ATOM     16  H42 UNL     1       2.518  19.097 -19.090  1.00  0.00     0.274 HD
ATOM     17  H41 UNL     1       1.559  18.398 -17.881  1.00  0.00     0.274 HD
ENDBRANCH  13  14
ENDBRANCH  10  13
BRANCH  10  18
HETATM   18  C9  UNL     1       2.803  18.247 -16.159  1.00  0.00     0.205 C 
BRANCH  18  19
HETATM   19  O4  UNL     1       2.547  17.450 -15.044  1.00  0.00    -0.398 OA
ATOM     20  H4  UNL     1       2.118  16.643 -15.301  1.00  0.00     0.209 HD
ENDBRANCH  18  19
ENDBRANCH  10  18
ENDBRANCH   9  10
ENDBRANCH   7   9
BRANCH   1  21
HETATM   21  C3  UNL     1       4.184  19.389  -9.522  1.00  0.00     0.335 C 
BRANCH  21  22
HETATM   22  N1  UNL     1       3.908  20.635  -8.859  1.00  0.00    -0.067 N 
ATOM     23  H12 UNL     1       2.983  21.005  -9.080  1.00  0.00     0.277 HD
ATOM     24  H11 UNL     1       4.456  21.411  -9.231  1.00  0.00     0.277 HD
BRANCH  22  25
HETATM   25  C2  UNL     1       4.109  20.436  -7.424  1.00  0.00     0.228 C 
HETATM   26  C1  UNL     1       3.559  21.606  -6.660  1.00  0.00     0.034 C 
ENDBRANCH  22  25
ENDBRANCH  21  22
ENDBRANCH   1  21
TORSDOF 10
ENDMDL
MODEL 4
REMARK VINA RESULT: -6.678417613      1.748      6.957
REMARK  10 active torsions:
REMARK  status: ('A' for Active; 'I' for Inactive)
REMARK    1  A    between atoms: C2_2  and  N1_3 
REMARK    2  A    between atoms: N1_3  and  C3_6 
REMARK    3  A    between atoms: C3_6  and  C4_7 
REMARK       I    between atoms: C4_7  and  N2_9 
REMARK       I    between atoms: N2_9  and  C5_11 
REMARK       I    between atoms: C5_11  and  N3_13 
REMARK    4  A    between atoms: N3_13  and  C6_15 
REMARK    5  A    between atoms: C6_15  and  C7_16 
REMARK    6  A    between atoms: C7_16  and  O3_17 
REMARK    7  A    between atoms: C7_16  and  C8_19 
REMARK    8  A    between atoms: C7_16  and  C9_24 
REMARK    9  A    between atoms: C8_19  and  N4_20 
REMARK   10  A    between atoms: C9_24  and  O4_25 
ROOT
HETATM    1  C4  UNL     1       3.353  18.416 -14.540  1.00  0.00     0.251 C 
HETATM    2  O1  UNL     1       3.194  17.450 -13.775  1.00  0.00    -0.271 OA
HETATM    3  N2  UNL     1       3.704  19.699 -14.163  1.00  0.00    -0.278 N 
ATOM      4  H2  UNL     1       3.794  20.379 -14.918  1.00  0.00     0.173 HD
HETATM    5  C5  UNL     1       3.951  20.177 -12.877  1.00  0.00     0.322 C 
HETATM    6  O2  UNL     1       4.256  21.427 -12.837  1.00  0.00    -0.247 OA
HETATM    7  N3  UNL     1       3.877  19.388 -11.741  1.00  0.00    -0.340 N 
ATOM      8  H3  UNL     1       3.669  18.400 -11.891  1.00  0.00     0.164 HD
ENDROOT
BRANCH   7   9
HETATM    9  C6  UNL     1       4.057  19.795 -10.381  1.00  0.00     0.166 C 
BRANCH   9  10
HETATM   10  C7  UNL     1       3.606  18.839  -9.358  1.00  0.00     0.118 C 
BRANCH  10  11
HETATM   11  O3  UNL     1       4.292  17.605  -9.429  1.00  0.00    -0.384 OA
ATOM     12  H3  UNL     1       4.239  17.112  -8.618  1.00  0.00     0.210 HD
ENDBRANCH  10  11
BRANCH  10  13
HETATM   13  C8  UNL     1       4.319  19.433  -8.039  1.00  0.00     0.271 C 
BRANCH  13  14
HETATM   14  N4  UNL     1       3.832  20.743  -7.795  1.00  0.00    -0.076 N 
ATOM     15  H43 UNL     1       4.407  21.459  -8.238  1.00  0.00     0.274 HD
ATOM     16  H42 UNL     1       2.960  20.931  -8.290  1.00  0.00     0.274 HD
ATOM     17  H41 UNL     1       3.744  20.886  -6.789  1.00  0.00     0.274 HD
ENDBRANCH  13  14
ENDBRANCH  10  13
BRANCH  10  18
HETATM   18  C9  UNL     1       2.185  18.767  -9.046  1.00  0.00     0.205 C 
BRANCH  18  19
HETATM   19  O4  UNL     1       1.419  19.114 -10.159  1.00  0.00    -0.398 OA
ATOM     20  H4  UNL     1       0.493  19.017  -9.971  1.00  0.00     0.209 HD
ENDBRANCH  18  19
ENDBRANCH  10  18
ENDBRANCH   9  10
ENDBRANCH   7   9
BRANCH   1  21
HETATM   21  C3  UNL     1       3.127  18.104 -16.015  1.00  0.00     0.335 C 
BRANCH  21  22
HETATM   22  N1  UNL     1       1.792  18.529 -16.341  1.00  0.00    -0.067 N 
ATOM     23  H12 UNL     1       1.578  19.464 -15.993  1.00  0.00     0.277 HD
ATOM     24  H11 UNL     1       1.077  18.023 -15.818  1.00  0.00     0.277 HD
BRANCH  22  25
HETATM   25  C2  UNL     1       1.623  18.412 -17.789  1.00  0.00     0.228 C 
HETATM   26  C1  UNL     1       2.759  17.624 -18.377  1.00  0.00     0.034 C 
ENDBRANCH  22  25
ENDBRANCH  21  22
ENDBRANCH   1  21
TORSDOF 10
ENDMDL
MODEL 5
REMARK VINA RESULT: -6.622554948      2.250      7.026
REMARK  10 active torsions:
REMARK  status: ('A' for Active; 'I' for Inactive)
REMARK    1  A    between atoms: C2_2  and  N1_3 
REMARK    2  A    between atoms: N1_3  and  C3_6 
REMARK    3  A    between atoms: C3_6  and  C4_7 
REMARK       I    between atoms: C4_7  and  N2_9 
REMARK       I    between atoms: N2_9  and  C5_11 
REMARK       I    between atoms: C5_11  and  N3_13 
REMARK    4  A    between atoms: N3_13  and  C6_15 
REMARK    5  A    between atoms: C6_15  and  C7_16 
REMARK    6  A    between atoms: C7_16  and  O3_17 
REMARK    7  A    between atoms: C7_16  and  C8_19 
REMARK    8  A    between atoms: C7_16  and  C9_24 
REMARK    9  A    between atoms: C8_19  and  N4_20 
REMARK   10  A    between atoms: C9_24  and  O4_25 
ROOT
HETATM    1  C4  UNL     1       3.673  20.495 -13.560  1.00  0.00     0.251 C 
HETATM    2  O1  UNL     1       2.582  20.712 -13.007  1.00  0.00    -0.271 OA
HETATM    3  N2  UNL     1       4.895  20.378 -12.922  1.00  0.00    -0.278 N 
ATOM      4  H2  UNL     1       5.698  20.198 -13.523  1.00  0.00     0.173 HD
HETATM    5  C5  UNL     1       5.162  20.476 -11.557  1.00  0.00     0.322 C 
HETATM    6  O2  UNL     1       6.405  20.326 -11.259  1.00  0.00    -0.247 OA
HETATM    7  N3  UNL     1       4.186  20.714 -10.602  1.00  0.00    -0.340 N 
ATOM      8  H3  UNL     1       3.227  20.774 -10.944  1.00  0.00     0.164 HD
ENDROOT
BRANCH   7   9
HETATM    9  C6  UNL     1       4.366  20.886  -9.193  1.00  0.00     0.166 C 
BRANCH   9  10
HETATM   10  C7  UNL     1       4.234  19.672  -8.374  1.00  0.00     0.118 C 
BRANCH  10  11
HETATM   11  O3  UNL     1       5.487  19.149  -7.974  1.00  0.00    -0.384 OA
ATOM     12  H3  UNL     1       6.074  19.822  -7.650  1.00  0.00     0.210 HD
ENDBRANCH  10  11
BRANCH  10  13
HETATM   13  C8  UNL     1       3.774  20.296  -6.961  1.00  0.00     0.271 C 
BRANCH  13  14
HETATM   14  N4  UNL     1       3.100  21.524  -7.190  1.00  0.00    -0.076 N 
ATOM     15  H43 UNL     1       2.608  21.534  -8.083  1.00  0.00     0.274 HD
ATOM     16  H42 UNL     1       2.293  21.643  -6.578  1.00  0.00     0.274 HD
ATOM     17  H41 UNL     1       3.766  22.292  -7.106  1.00  0.00     0.274 HD
ENDBRANCH  13  14
ENDBRANCH  10  13
BRANCH  10  18
HETATM   18  C9  UNL     1       3.216  18.694  -8.732  1.00  0.00     0.205 C 
BRANCH  18  19
HETATM   19  O4  UNL     1       1.996  19.323  -8.982  1.00  0.00    -0.398 OA
ATOM     20  H4  UNL     1       1.748  19.222  -9.893  1.00  0.00     0.209 HD
ENDBRANCH  18  19
ENDBRANCH  10  18
ENDBRANCH   9  10
ENDBRANCH   7   9
BRANCH   1  21
HETATM   21  C3  UNL     1       3.603  20.352 -15.075  1.00  0.00     0.335 C 
BRANCH  21  22
HETATM   22  N1  UNL     1       2.213  20.383 -15.443  1.00  0.00    -0.067 N 
ATOM     23  H12 UNL     1       1.891  21.319 -15.693  1.00  0.00     0.277 HD
ATOM     24  H11 UNL     1       1.590  20.233 -14.649  1.00  0.00     0.277 HD
BRANCH  22  25
HETATM   25  C2  UNL     1       2.009  19.410 -16.515  1.00  0.00     0.228 C 
HETATM   26  C1  UNL     1       2.739  18.135 -16.199  1.00  0.00     0.034 C 
ENDBRANCH  22  25
ENDBRANCH  21  22
ENDBRANCH   1  21
TORSDOF 10
ENDMDL
