MODEL 1
REMARK VINA RESULT: -7.173492391      0.000      0.000
REMARK  10 active torsions:
REMARK  status: ('A' for Active; 'I' for Inactive)
REMARK    1  A    between atoms: C1_2  and  C2_4 
REMARK    2  A    between atoms: C2_4  and  O2_5 
REMARK    3  A    between atoms: O2_5  and  C3_6 
REMARK    4  A    between atoms: C3_6  and  C4_7 
REMARK    5  A    between atoms: C4_7  and  O3_8 
REMARK    6  A    between atoms: O3_8  and  C5_9 
REMARK    7  A    between atoms: C5_9  and  C6_10 
REMARK    8  A    between atoms: C5_9  and  C7_13 
REMARK    9  A    between atoms: C8_15  and  C9_16 
REMARK   10  A    between atoms: C9_16  and  N4_17 
ROOT
HETATM    1  C5  UNL     1       3.776  19.034  -9.980  1.00  0.00     0.257 C 
ENDROOT
BRANCH   1   2
HETATM    2  O3  UNL     1       3.666  20.086 -10.857  1.00  0.00    -0.369 OA
BRANCH   2   3
HETATM    3  C4  UNL     1       4.544  20.103 -11.904  1.00  0.00     0.195 C 
BRANCH   3   4
HETATM    4  C3  UNL     1       3.967  20.608 -13.210  1.00  0.00     0.194 C 
BRANCH   4   5
HETATM    5  O2  UNL     1       3.559  19.603 -14.042  1.00  0.00    -0.380 OA
BRANCH   5   6
HETATM    6  C2  UNL     1       3.458  19.877 -15.371  1.00  0.00     0.267 C 
BRANCH   6   7
HETATM    7  C1  UNL     1       2.607  18.980 -16.152  1.00  0.00     0.254 C 
HETATM    8  N1  UNL     1       1.214  19.291 -16.362  1.00  0.00    -0.060 NA
HETATM    9  O1  UNL     1       3.004  17.928 -16.673  1.00  0.00    -0.275 OA
ENDBRANCH   6   7
ENDBRANCH   5   6
ENDBRANCH   4   5
ENDBRANCH   3   4
ENDBRANCH   2   3
ENDBRANCH   1   2
BRANCH   1  10
HETATM   10  C6  UNL     1       2.473  18.357  -9.805  1.00  0.00     0.265 C 
HETATM   11  N2  UNL     1       2.408  17.068  -9.200  1.00  0.00    -0.059 NA
HETATM   12  O4  UNL     1       1.400  18.835 -10.153  1.00  0.00    -0.274 OA
ENDBRANCH   1  10
BRANCH   1  13
HETATM   13  C7  UNL     1       4.166  19.642  -8.654  1.00  0.00     0.059 C 
HETATM   14  N3  UNL     1       5.409  19.249  -8.096  1.00  0.00    -0.104 NA
HETATM   15  C8  UNL     1       3.429  20.516  -8.009  1.00  0.00     0.025 C 
BRANCH  15  16
HETATM   16  C9  UNL     1       3.907  21.052  -6.708  1.00  0.00     0.258 C 
BRANCH  16  17
HETATM   17  N4  UNL     1       3.949  20.005  -5.704  1.00  0.00    -0.076 N 
ATOM     18  H43 UNL     1       3.830  20.381  -4.763  1.00  0.00     0.274 HD
ATOM     19  H42 UNL     1       3.118  19.414  -5.740  1.00  0.00     0.274 HD
ATOM     20  H41 UNL     1       4.805  19.458  -5.786  1.00  0.00     0.274 HD
ENDBRANCH  16  17
ENDBRANCH  15  16
ENDBRANCH   1  13
TORSDOF 10
ENDMDL
MODEL 2
REMARK VINA RESULT: -6.710782436      2.054      3.127
REMARK  10 active torsions:
REMARK  status: ('A' for Active; 'I' for Inactive)
REMARK    1  A    between atoms: C1_2  and  C2_4 
REMARK    2  A    between atoms: C2_4  and  O2_5 
REMARK    3  A    between atoms: O2_5  and  C3_6 
REMARK    4  A    between atoms: C3_6  and  C4_7 
REMARK    5  A    between atoms: C4_7  and  O3_8 
REMARK    6  A    between atoms: O3_8  and  C5_9 
REMARK    7  A    between atoms: C5_9  and  C6_10 
REMARK    8  A    between atoms: C5_9  and  C7_13 
REMARK    9  A    between atoms: C8_15  and  C9_16 
REMARK   10  A    between atoms: C9_16  and  N4_17 
ROOT
HETATM    1  C5  UNL     1       3.939  20.602 -11.678  1.00  0.00     0.257 C 
ENDROOT
BRANCH   1   2
HETATM    2  O3  UNL     1       3.850  19.953 -12.885  1.00  0.00    -0.369 OA
BRANCH   2   3
HETATM    3  C4  UNL     1       3.627  20.734 -13.984  1.00  0.00     0.195 C 
BRANCH   3   4
HETATM    4  C3  UNL     1       3.611  19.988 -15.302  1.00  0.00     0.194 C 
BRANCH   4   5
HETATM    5  O2  UNL     1       3.149  18.706 -15.189  1.00  0.00    -0.380 OA
BRANCH   5   6
HETATM    6  C2  UNL     1       2.692  18.092 -16.314  1.00  0.00     0.267 C 
BRANCH   6   7
HETATM    7  C1  UNL     1       1.548  18.719 -16.973  1.00  0.00     0.254 C 
HETATM    8  N1  UNL     1       1.603  19.048 -18.377  1.00  0.00    -0.060 NA
HETATM    9  O1  UNL     1       0.488  19.004 -16.398  1.00  0.00    -0.275 OA
ENDBRANCH   6   7
ENDBRANCH   5   6
ENDBRANCH   4   5
ENDBRANCH   3   4
ENDBRANCH   2   3
ENDBRANCH   1   2
BRANCH   1  10
HETATM   10  C6  UNL     1       5.235  21.303 -11.551  1.00  0.00     0.265 C 
HETATM   11  N2  UNL     1       6.444  20.561 -11.412  1.00  0.00    -0.059 NA
HETATM   12  O4  UNL     1       5.358  22.522 -11.554  1.00  0.00    -0.274 OA
ENDBRANCH   1  10
BRANCH   1  13
HETATM   13  C7  UNL     1       3.890  19.522 -10.624  1.00  0.00     0.059 C 
HETATM   14  N3  UNL     1       3.944  18.175 -11.066  1.00  0.00    -0.104 NA
HETATM   15  C8  UNL     1       3.815  19.763  -9.336  1.00  0.00     0.025 C 
BRANCH  15  16
HETATM   16  C9  UNL     1       3.772  18.625  -8.383  1.00  0.00     0.258 C 
BRANCH  16  17
HETATM   17  N4  UNL     1       2.524  17.895  -8.508  1.00  0.00    -0.076 N 
ATOM     18  H43 UNL     1       2.187  17.886  -9.471  1.00  0.00     0.274 HD
ATOM     19  H42 UNL     1       2.658  16.892  -8.383  1.00  0.00     0.274 HD
ATOM     20  H41 UNL     1       1.822  18.264  -7.867  1.00  0.00     0.274 HD
ENDBRANCH  16  17
ENDBRANCH  15  16
ENDBRANCH   1  13
TORSDOF 10
ENDMDL
MODEL 3
REMARK VINA RESULT: -6.627820063      2.649      6.958
REMARK  10 active torsions:
REMARK  status: ('A' for Active; 'I' for Inactive)
REMARK    1  A    between atoms: C1_2  and  C2_4 
REMARK    2  A    between atoms: C2_4  and  O2_5 
REMARK    3  A    between atoms: O2_5  and  C3_6 
REMARK    4  A    between atoms: C3_6  and  C4_7 
REMARK    5  A    between atoms: C4_7  and  O3_8 
REMARK    6  A    between atoms: O3_8  and  C5_9 
REMARK    7  A    between atoms: C5_9  and  C6_10 
REMARK    8  A    between atoms: C5_9  and  C7_13 
REMARK    9  A    between atoms: C8_15  and  C9_16 
REMARK   10  A    between atoms: C9_16  and  N4_17 
ROOT
HETATM    1  C5  UNL     1       3.438  19.324  -9.945  1.00  0.00     0.257 C 
ENDROOT
BRANCH   1   2
HETATM    2  O3  UNL     1       4.540  18.871  -9.262  1.00  0.00    -0.369 OA
BRANCH   2   3
HETATM    3  C4  UNL     1       4.942  19.612  -8.187  1.00  0.00     0.195 C 
BRANCH   3   4
HETATM    4  C3  UNL     1       4.063  19.485  -6.960  1.00  0.00     0.194 C 
BRANCH   4   5
HETATM    5  O2  UNL     1       3.149  20.495  -6.847  1.00  0.00    -0.380 OA
BRANCH   5   6
HETATM    6  C2  UNL     1       3.609  21.741  -6.548  1.00  0.00     0.267 C 
BRANCH   6   7
HETATM    7  C1  UNL     1       3.613  22.105  -5.132  1.00  0.00     0.254 C 
HETATM    8  N1  UNL     1       4.178  21.213  -4.149  1.00  0.00    -0.060 NA
HETATM    9  O1  UNL     1       3.150  23.166  -4.689  1.00  0.00    -0.275 OA
ENDBRANCH   6   7
ENDBRANCH   5   6
ENDBRANCH   4   5
ENDBRANCH   3   4
ENDBRANCH   2   3
ENDBRANCH   1   2
BRANCH   1  10
HETATM   10  C6  UNL     1       2.339  18.337  -9.885  1.00  0.00     0.265 C 
HETATM   11  N2  UNL     1       2.571  17.032  -9.360  1.00  0.00    -0.059 NA
HETATM   12  O4  UNL     1       1.196  18.559 -10.270  1.00  0.00    -0.274 OA
ENDBRANCH   1  10
BRANCH   1  13
HETATM   13  C7  UNL     1       3.870  19.453 -11.386  1.00  0.00     0.059 C 
HETATM   14  N3  UNL     1       4.422  18.304 -12.007  1.00  0.00    -0.104 NA
HETATM   15  C8  UNL     1       3.749  20.555 -12.087  1.00  0.00     0.025 C 
BRANCH  15  16
HETATM   16  C9  UNL     1       4.207  20.575 -13.499  1.00  0.00     0.258 C 
BRANCH  16  17
HETATM   17  N4  UNL     1       3.115  20.252 -14.400  1.00  0.00    -0.076 N 
ATOM     18  H43 UNL     1       2.223  20.202 -13.908  1.00  0.00     0.274 HD
ATOM     19  H42 UNL     1       2.902  21.027 -15.028  1.00  0.00     0.274 HD
ATOM     20  H41 UNL     1       3.311  19.394 -14.914  1.00  0.00     0.274 HD
ENDBRANCH  16  17
ENDBRANCH  15  16
ENDBRANCH   1  13
TORSDOF 10
ENDMDL
MODEL 4
REMARK VINA RESULT: -6.562041292      1.572      1.905
REMARK  10 active torsions:
REMARK  status: ('A' for Active; 'I' for Inactive)
REMARK    1  A    between atoms: C1_2  and  C2_4 
REMARK    2  A    between atoms: C2_4  and  O2_5 
REMARK    3  A    between atoms: O2_5  and  C3_6 
REMARK    4  A    between atoms: C3_6  and  C4_7 
REMARK    5  A    between atoms: C4_7  and  O3_8 
REMARK    6  A    between atoms: O3_8  and  C5_9 
REMARK    7  A    between atoms: C5_9  and  C6_10 
REMARK    8  A    between atoms: C5_9  and  C7_13 
REMARK    9  A    between atoms: C8_15  and  C9_16 
REMARK   10  A    between atoms: C9_16  and  N4_17 
ROOT
HETATM    1  C5  UNL     1       3.869  19.039  -9.409  1.00  0.00     0.257 C 
ENDROOT
BRANCH   1   2
HETATM    2  O3  UNL     1       3.738  20.043 -10.337  1.00  0.00    -0.369 OA
BRANCH   2   3
HETATM    3  C4  UNL     1       4.891  20.657 -10.740  1.00  0.00     0.195 C 
BRANCH   3   4
HETATM    4  C3  UNL     1       4.704  22.040 -11.327  1.00  0.00     0.194 C 
BRANCH   4   5
HETATM    5  O2  UNL     1       4.687  22.046 -12.694  1.00  0.00    -0.380 OA
BRANCH   5   6
HETATM    6  C2  UNL     1       3.497  21.827 -13.318  1.00  0.00     0.267 C 
BRANCH   6   7
HETATM    7  C1  UNL     1       3.376  20.572 -14.057  1.00  0.00     0.254 C 
HETATM    8  N1  UNL     1       2.597  20.510 -15.270  1.00  0.00    -0.060 NA
HETATM    9  O1  UNL     1       3.913  19.510 -13.712  1.00  0.00    -0.275 OA
ENDBRANCH   6   7
ENDBRANCH   5   6
ENDBRANCH   4   5
ENDBRANCH   3   4
ENDBRANCH   2   3
ENDBRANCH   1   2
BRANCH   1  10
HETATM   10  C6  UNL     1       2.586  18.326  -9.221  1.00  0.00     0.265 C 
HETATM   11  N2  UNL     1       1.473  18.613 -10.064  1.00  0.00    -0.059 NA
HETATM   12  O4  UNL     1       2.396  17.473  -8.362  1.00  0.00    -0.274 OA
ENDBRANCH   1  10
BRANCH   1  13
HETATM   13  C7  UNL     1       4.216  19.722  -8.108  1.00  0.00     0.059 C 
HETATM   14  N3  UNL     1       5.460  19.397  -7.512  1.00  0.00    -0.104 NA
HETATM   15  C8  UNL     1       3.440  20.601  -7.518  1.00  0.00     0.025 C 
BRANCH  15  16
HETATM   16  C9  UNL     1       3.877  21.214  -6.237  1.00  0.00     0.258 C 
BRANCH  16  17
HETATM   17  N4  UNL     1       3.980  20.210  -5.194  1.00  0.00    -0.076 N 
ATOM     18  H43 UNL     1       3.313  19.452  -5.333  1.00  0.00     0.274 HD
ATOM     19  H42 UNL     1       4.844  19.672  -5.271  1.00  0.00     0.274 HD
ATOM     20  H41 UNL     1       3.882  20.635  -4.272  1.00  0.00     0.274 HD
ENDBRANCH  16  17
ENDBRANCH  15  16
ENDBRANCH   1  13
TORSDOF 10
ENDMDL
MODEL 5
REMARK VINA RESULT: -6.500048707      1.881      2.777
REMARK  10 active torsions:
REMARK  status: ('A' for Active; 'I' for Inactive)
REMARK    1  A    between atoms: C1_2  and  C2_4 
REMARK    2  A    between atoms: C2_4  and  O2_5 
REMARK    3  A    between atoms: O2_5  and  C3_6 
REMARK    4  A    between atoms: C3_6  and  C4_7 
REMARK    5  A    between atoms: C4_7  and  O3_8 
REMARK    6  A    between atoms: O3_8  and  C5_9 
REMARK    7  A    between atoms: C5_9  and  C6_10 
REMARK    8  A    between atoms: C5_9  and  C7_13 
REMARK    9  A    between atoms: C8_15  and  C9_16 
REMARK   10  A    between atoms: C9_16  and  N4_17 
ROOT
HETATM    1  C5  UNL     1       4.081  20.260 -11.285  1.00  0.00     0.257 C 
ENDROOT
BRANCH   1   2
HETATM    2  O3  UNL     1       3.982  19.274 -12.236  1.00  0.00    -0.369 OA
BRANCH   2   3
HETATM    3  C4  UNL     1       4.238  19.641 -13.527  1.00  0.00     0.195 C 
BRANCH   3   4
HETATM    4  C3  UNL     1       3.339  20.732 -14.069  1.00  0.00     0.194 C 
BRANCH   4   5
HETATM    5  O2  UNL     1       2.545  20.312 -15.100  1.00  0.00    -0.380 OA
BRANCH   5   6
HETATM    6  C2  UNL     1       2.975  19.259 -15.847  1.00  0.00     0.267 C 
BRANCH   6   7
HETATM    7  C1  UNL     1       2.026  18.728 -16.823  1.00  0.00     0.254 C 
HETATM    8  N1  UNL     1       2.473  17.846 -17.873  1.00  0.00    -0.060 NA
HETATM    9  O1  UNL     1       0.814  18.986 -16.821  1.00  0.00    -0.275 OA
ENDBRANCH   6   7
ENDBRANCH   5   6
ENDBRANCH   4   5
ENDBRANCH   3   4
ENDBRANCH   2   3
ENDBRANCH   1   2
BRANCH   1  10
HETATM   10  C6  UNL     1       5.355  20.998 -11.422  1.00  0.00     0.265 C 
HETATM   11  N2  UNL     1       5.354  22.416 -11.560  1.00  0.00    -0.059 NA
HETATM   12  O4  UNL     1       6.459  20.465 -11.427  1.00  0.00    -0.274 OA
ENDBRANCH   1  10
BRANCH   1  13
HETATM   13  C7  UNL     1       4.097  19.549  -9.953  1.00  0.00     0.059 C 
HETATM   14  N3  UNL     1       3.983  18.135  -9.967  1.00  0.00    -0.104 NA
HETATM   15  C8  UNL     1       4.223  20.163  -8.801  1.00  0.00     0.025 C 
BRANCH  15  16
HETATM   16  C9  UNL     1       4.225  19.367  -7.547  1.00  0.00     0.258 C 
BRANCH  16  17
HETATM   17  N4  UNL     1       4.382  20.228  -6.389  1.00  0.00    -0.076 N 
ATOM     18  H43 UNL     1       5.294  20.683  -6.379  1.00  0.00     0.274 HD
ATOM     19  H42 UNL     1       3.796  21.060  -6.456  1.00  0.00     0.274 HD
ATOM     20  H41 UNL     1       4.207  19.712  -5.528  1.00  0.00     0.274 HD
ENDBRANCH  16  17
ENDBRANCH  15  16
ENDBRANCH   1  13
TORSDOF 10
ENDMDL
