MODEL 1
REMARK VINA RESULT: -8.702609553      0.000      0.000
REMARK  13 active torsions:
REMARK  status: ('A' for Active; 'I' for Inactive)
REMARK       I    between atoms: C1_4  and  N2_5 
REMARK       I    between atoms: C1_4  and  N6_28 
REMARK    1  A    between atoms: N2_5  and  C2_7 
REMARK    2  A    between atoms: C2_7  and  C3_8 
REMARK    3  A    between atoms: C2_7  and  N3_15 
REMARK    4  A    between atoms: C3_8  and  C4_9 
REMARK    5  A    between atoms: C4_9  and  P1_10 
REMARK    6  A    between atoms: P1_10  and  O1_11 
REMARK    7  A    between atoms: P1_10  and  O2_13 
REMARK       I    between atoms: N3_15  and  C5_17 
REMARK    8  A    between atoms: C5_17  and  C6_19 
REMARK    9  A    between atoms: C13_36  and  C14_37 
REMARK   10  A    between atoms: C14_37  and  C15_38 
REMARK   11  A    between atoms: C15_38  and  C16_39 
REMARK   12  A    between atoms: C17_40  and  C18_41 
REMARK   13  A    between atoms: C19_42  and  O5_43 
ROOT
HETATM    1  N1  UNL     1     113.160  76.502   7.268  1.00  0.00    -0.234 N 
ATOM      2  H11 UNL     1     113.228  76.323   8.270  1.00  0.00     0.174 HD
ATOM      3  H12 UNL     1     112.331  76.121   6.814  1.00  0.00     0.174 HD
HETATM    4  C1  UNL     1     114.007  77.099   6.680  1.00  0.00     0.681 C 
HETATM    5  N2  UNL     1     113.912  77.346   5.298  1.00  0.00    -0.205 N 
ATOM      6  H2  UNL     1     114.649  77.938   4.914  1.00  0.00     0.179 HD
HETATM    7  N6  UNL     1     115.214  77.654   7.341  1.00  0.00    -0.142 N 
HETATM    8  C10 UNL     1     116.453  77.203   6.814  1.00  0.00     0.223 A 
HETATM    9  N7  UNL     1     117.543  77.820   7.236  1.00  0.00    -0.295 N 
ATOM     10  H7  UNL     1     118.459  77.537   6.885  1.00  0.00     0.187 HD
HETATM   11  N8  UNL     1     117.444  78.844   8.145  1.00  0.00    -0.309 N 
ATOM     12  H8  UNL     1     118.328  79.273   8.417  1.00  0.00     0.186 HD
HETATM   13  C11 UNL     1     116.404  79.340   8.701  1.00  0.00     0.137 A 
HETATM   14  C12 UNL     1     115.112  78.685   8.274  1.00  0.00     0.075 A 
HETATM   15  C13 UNL     1     114.034  78.972   8.907  1.00  0.00     0.040 C 
ENDROOT
BRANCH   5  16
HETATM   16  C2  UNL     1     112.955  76.900   4.358  1.00  0.00     0.202 C 
BRANCH  16  17
HETATM   17  C3  UNL     1     112.116  75.708   4.738  1.00  0.00     0.056 C 
BRANCH  17  18
HETATM   18  C4  UNL     1     112.512  74.447   4.021  1.00  0.00     0.097 C 
BRANCH  18  19
HETATM   19  P1  UNL     1     111.145  73.252   3.800  1.00  0.00     0.163 P 
BRANCH  19  20
HETATM   20  O1  UNL     1     109.872  73.402   4.925  1.00  0.00    -0.350 OA
ATOM     21  H1  UNL     1     110.145  73.457   5.833  1.00  0.00     0.217 HD
ENDBRANCH  19  20
BRANCH  19  22
HETATM   22  O2  UNL     1     110.499  73.374   2.186  1.00  0.00    -0.350 OA
ATOM     23  H2  UNL     1     110.709  72.592   1.690  1.00  0.00     0.217 HD
ENDBRANCH  19  22
ENDBRANCH  18  19
ENDBRANCH  17  18
ENDBRANCH  16  17
BRANCH  16  24
HETATM   24  N3  UNL     1     113.518  76.659   3.011  1.00  0.00    -0.335 N 
HETATM   25  C5  UNL     1     113.950  77.771   2.231  1.00  0.00     0.256 C 
HETATM   26  O3  UNL     1     113.861  78.956   2.662  1.00  0.00    -0.268 OA
ATOM     27  H3  UNL     1     113.595  75.710   2.645  1.00  0.00     0.164 HD
BRANCH  25  28
HETATM   28  C6  UNL     1     114.509  77.560   0.910  1.00  0.00     0.063 A 
HETATM   29  C7  UNL     1     113.816  76.904  -0.076  1.00  0.00     0.111 A 
HETATM   30  N4  UNL     1     114.383  76.793  -1.296  1.00  0.00    -0.318 N 
HETATM   31  C8  UNL     1     115.594  77.307  -1.580  1.00  0.00     0.324 A 
ATOM     32  H4  UNL     1     113.874  76.301  -2.030  1.00  0.00     0.170 HD
HETATM   33  O4  UNL     1     116.100  77.209  -2.709  1.00  0.00    -0.247 OA
HETATM   34  N5  UNL     1     116.276  77.947  -0.621  1.00  0.00    -0.318 N 
HETATM   35  C9  UNL     1     115.771  78.090   0.623  1.00  0.00     0.111 A 
ATOM     36  H5  UNL     1     117.195  78.335  -0.835  1.00  0.00     0.170 HD
ENDBRANCH  25  28
ENDBRANCH  16  24
ENDBRANCH   5  16
BRANCH  15  37
HETATM   37  C14 UNL     1     113.975  80.098   9.883  1.00  0.00     0.058 C 
BRANCH  37  38
HETATM   38  C15 UNL     1     113.486  79.939  10.985  1.00  0.00    -0.128 C 
BRANCH  38  39
HETATM   39  C16 UNL     1     112.923  79.750  12.263  1.00  0.00     0.055 C 
HETATM   40  C17 UNL     1     111.660  79.768  12.590  1.00  0.00     0.010 C 
BRANCH  40  41
HETATM   41  C18 UNL     1     110.507  79.981  11.750  1.00  0.00     0.024 C 
HETATM   42  C19 UNL     1     109.295  80.001  12.420  1.00  0.00     0.131 C 
BRANCH  42  43
HETATM   43  O5  UNL     1     109.358  79.815  13.770  1.00  0.00    -0.373 OA
ATOM     44  H5  UNL     1     108.861  79.081  14.111  1.00  0.00     0.216 HD
ENDBRANCH  42  43
ENDBRANCH  40  41
ENDBRANCH  38  39
ENDBRANCH  37  38
ENDBRANCH  15  37
TORSDOF 13
ENDMDL
MODEL 2
REMARK VINA RESULT: -8.614821997      2.087      2.424
REMARK  13 active torsions:
REMARK  status: ('A' for Active; 'I' for Inactive)
REMARK       I    between atoms: C1_4  and  N2_5 
REMARK       I    between atoms: C1_4  and  N6_28 
REMARK    1  A    between atoms: N2_5  and  C2_7 
REMARK    2  A    between atoms: C2_7  and  C3_8 
REMARK    3  A    between atoms: C2_7  and  N3_15 
REMARK    4  A    between atoms: C3_8  and  C4_9 
REMARK    5  A    between atoms: C4_9  and  P1_10 
REMARK    6  A    between atoms: P1_10  and  O1_11 
REMARK    7  A    between atoms: P1_10  and  O2_13 
REMARK       I    between atoms: N3_15  and  C5_17 
REMARK    8  A    between atoms: C5_17  and  C6_19 
REMARK    9  A    between atoms: C13_36  and  C14_37 
REMARK   10  A    between atoms: C14_37  and  C15_38 
REMARK   11  A    between atoms: C15_38  and  C16_39 
REMARK   12  A    between atoms: C17_40  and  C18_41 
REMARK   13  A    between atoms: C19_42  and  O5_43 
ROOT
HETATM    1  N1  UNL     1     113.212  75.549   6.357  1.00  0.00    -0.234 N 
ATOM      2  H11 UNL     1     113.134  75.373   7.359  1.00  0.00     0.174 HD
ATOM      3  H12 UNL     1     112.579  75.007   5.770  1.00  0.00     0.174 HD
HETATM    4  C1  UNL     1     114.004  76.322   5.918  1.00  0.00     0.681 C 
HETATM    5  N2  UNL     1     114.112  76.565   4.535  1.00  0.00    -0.205 N 
ATOM      6  H2  UNL     1     114.763  77.306   4.277  1.00  0.00     0.179 HD
HETATM    7  N6  UNL     1     114.925  77.112   6.773  1.00  0.00    -0.142 N 
HETATM    8  C10 UNL     1     116.306  76.944   6.489  1.00  0.00     0.223 A 
HETATM    9  N7  UNL     1     117.145  77.774   7.085  1.00  0.00    -0.295 N 
ATOM     10  H7  UNL     1     118.148  77.698   6.913  1.00  0.00     0.187 HD
HETATM   11  N8  UNL     1     116.667  78.738   7.937  1.00  0.00    -0.309 N 
ATOM     12  H8  UNL     1     117.375  79.342   8.354  1.00  0.00     0.186 HD
HETATM   13  C11 UNL     1     115.462  78.992   8.285  1.00  0.00     0.137 A 
HETATM   14  C12 UNL     1     114.438  78.083   7.647  1.00  0.00     0.075 A 
HETATM   15  C13 UNL     1     113.228  78.123   8.068  1.00  0.00     0.040 C 
ENDROOT
BRANCH   5  16
HETATM   16  C2  UNL     1     113.458  75.940   3.449  1.00  0.00     0.202 C 
BRANCH  16  17
HETATM   17  C3  UNL     1     113.045  74.501   3.626  1.00  0.00     0.056 C 
BRANCH  17  18
HETATM   18  C4  UNL     1     111.809  74.137   2.852  1.00  0.00     0.097 C 
BRANCH  18  19
HETATM   19  P1  UNL     1     110.700  72.970   3.722  1.00  0.00     0.163 P 
BRANCH  19  20
HETATM   20  O1  UNL     1     109.817  73.647   5.015  1.00  0.00    -0.350 OA
ATOM     21  H1  UNL     1     110.244  74.375   5.452  1.00  0.00     0.217 HD
ENDBRANCH  19  20
BRANCH  19  22
HETATM   22  O2  UNL     1     109.590  72.244   2.591  1.00  0.00    -0.350 OA
ATOM     23  H2  UNL     1     109.871  72.418   1.701  1.00  0.00     0.217 HD
ENDBRANCH  19  22
ENDBRANCH  18  19
ENDBRANCH  17  18
ENDBRANCH  16  17
BRANCH  16  24
HETATM   24  N3  UNL     1     114.194  76.056   2.171  1.00  0.00    -0.335 N 
HETATM   25  C5  UNL     1     114.215  77.311   1.494  1.00  0.00     0.256 C 
HETATM   26  O3  UNL     1     113.617  78.323   1.960  1.00  0.00    -0.268 OA
ATOM     27  H3  UNL     1     114.680  75.250   1.779  1.00  0.00     0.164 HD
BRANCH  25  28
HETATM   28  C6  UNL     1     114.933  77.450   0.243  1.00  0.00     0.063 A 
HETATM   29  C7  UNL     1     116.142  78.095   0.167  1.00  0.00     0.111 A 
HETATM   30  N4  UNL     1     116.775  78.138  -1.023  1.00  0.00    -0.318 N 
HETATM   31  C8  UNL     1     116.269  77.567  -2.133  1.00  0.00     0.324 A 
ATOM     32  H4  UNL     1     117.671  78.621  -1.086  1.00  0.00     0.170 HD
HETATM   33  O4  UNL     1     116.867  77.603  -3.220  1.00  0.00    -0.247 OA
HETATM   34  N5  UNL     1     115.088  76.938  -2.066  1.00  0.00    -0.318 N 
HETATM   35  C9  UNL     1     114.398  76.861  -0.907  1.00  0.00     0.111 A 
ATOM     36  H5  UNL     1     114.704  76.507  -2.906  1.00  0.00     0.170 HD
ENDBRANCH  25  28
ENDBRANCH  16  24
ENDBRANCH   5  16
BRANCH  15  37
HETATM   37  C14 UNL     1     112.754  79.195   8.990  1.00  0.00     0.058 C 
BRANCH  37  38
HETATM   38  C15 UNL     1     111.579  79.281   9.291  1.00  0.00    -0.128 C 
BRANCH  38  39
HETATM   39  C16 UNL     1     110.217  79.385   9.634  1.00  0.00     0.055 C 
HETATM   40  C17 UNL     1     109.182  79.085   8.898  1.00  0.00     0.010 C 
BRANCH  40  41
HETATM   41  C18 UNL     1     109.143  78.570   7.551  1.00  0.00     0.024 C 
HETATM   42  C19 UNL     1     107.881  78.522   6.984  1.00  0.00     0.131 C 
BRANCH  42  43
HETATM   43  O5  UNL     1     106.857  78.961   7.770  1.00  0.00    -0.373 OA
ATOM     44  H5  UNL     1     106.513  78.332   8.393  1.00  0.00     0.216 HD
ENDBRANCH  42  43
ENDBRANCH  40  41
ENDBRANCH  38  39
ENDBRANCH  37  38
ENDBRANCH  15  37
TORSDOF 13
ENDMDL
MODEL 3
REMARK VINA RESULT: -8.532763243      3.392      8.657
REMARK  13 active torsions:
REMARK  status: ('A' for Active; 'I' for Inactive)
REMARK       I    between atoms: C1_4  and  N2_5 
REMARK       I    between atoms: C1_4  and  N6_28 
REMARK    1  A    between atoms: N2_5  and  C2_7 
REMARK    2  A    between atoms: C2_7  and  C3_8 
REMARK    3  A    between atoms: C2_7  and  N3_15 
REMARK    4  A    between atoms: C3_8  and  C4_9 
REMARK    5  A    between atoms: C4_9  and  P1_10 
REMARK    6  A    between atoms: P1_10  and  O1_11 
REMARK    7  A    between atoms: P1_10  and  O2_13 
REMARK       I    between atoms: N3_15  and  C5_17 
REMARK    8  A    between atoms: C5_17  and  C6_19 
REMARK    9  A    between atoms: C13_36  and  C14_37 
REMARK   10  A    between atoms: C14_37  and  C15_38 
REMARK   11  A    between atoms: C15_38  and  C16_39 
REMARK   12  A    between atoms: C17_40  and  C18_41 
REMARK   13  A    between atoms: C19_42  and  O5_43 
ROOT
HETATM    1  N1  UNL     1     113.636  77.674   3.594  1.00  0.00    -0.234 N 
ATOM      2  H11 UNL     1     113.816  78.581   3.165  1.00  0.00     0.174 HD
ATOM      3  H12 UNL     1     112.735  77.256   3.365  1.00  0.00     0.174 HD
HETATM    4  C1  UNL     1     114.423  77.160   4.325  1.00  0.00     0.681 C 
HETATM    5  N2  UNL     1     114.174  75.907   4.917  1.00  0.00    -0.205 N 
ATOM      6  H2  UNL     1     114.950  75.523   5.455  1.00  0.00     0.179 HD
HETATM    7  N6  UNL     1     115.735  77.768   4.658  1.00  0.00    -0.142 N 
HETATM    8  C10 UNL     1     115.970  77.976   6.043  1.00  0.00     0.223 A 
HETATM    9  N7  UNL     1     117.195  78.325   6.397  1.00  0.00    -0.295 N 
ATOM     10  H7  UNL     1     117.417  78.483   7.380  1.00  0.00     0.187 HD
HETATM   11  N8  UNL     1     118.169  78.474   5.441  1.00  0.00    -0.309 N 
ATOM     12  H8  UNL     1     119.089  78.740   5.794  1.00  0.00     0.186 HD
HETATM   13  C11 UNL     1     118.094  78.328   4.173  1.00  0.00     0.137 A 
HETATM   14  C12 UNL     1     116.720  77.930   3.685  1.00  0.00     0.075 A 
HETATM   15  C13 UNL     1     116.484  77.943   2.425  1.00  0.00     0.040 C 
ENDROOT
BRANCH   5  16
HETATM   16  C2  UNL     1     113.015  75.099   4.881  1.00  0.00     0.202 C 
BRANCH  16  17
HETATM   17  C3  UNL     1     112.820  74.224   3.669  1.00  0.00     0.056 C 
BRANCH  17  18
HETATM   18  C4  UNL     1     112.109  72.935   3.974  1.00  0.00     0.097 C 
BRANCH  18  19
HETATM   19  P1  UNL     1     110.401  72.852   3.322  1.00  0.00     0.163 P 
BRANCH  19  20
HETATM   20  O1  UNL     1     109.453  74.240   3.616  1.00  0.00    -0.350 OA
ATOM     21  H1  UNL     1     108.816  74.148   4.315  1.00  0.00     0.217 HD
ENDBRANCH  19  20
BRANCH  19  22
HETATM   22  O2  UNL     1     110.429  72.532   1.609  1.00  0.00    -0.350 OA
ATOM     23  H2  UNL     1     110.476  73.348   1.126  1.00  0.00     0.217 HD
ENDBRANCH  19  22
ENDBRANCH  18  19
ENDBRANCH  17  18
ENDBRANCH  16  17
BRANCH  16  24
HETATM   24  N3  UNL     1     111.763  75.852   5.114  1.00  0.00    -0.335 N 
HETATM   25  C5  UNL     1     111.496  76.368   6.415  1.00  0.00     0.256 C 
HETATM   26  O3  UNL     1     112.302  76.194   7.373  1.00  0.00    -0.268 OA
ATOM     27  H3  UNL     1     111.099  76.000   4.353  1.00  0.00     0.164 HD
BRANCH  25  28
HETATM   28  C6  UNL     1     110.278  77.113   6.666  1.00  0.00     0.063 A 
HETATM   29  C7  UNL     1     110.235  78.157   7.555  1.00  0.00     0.111 A 
HETATM   30  N4  UNL     1     109.078  78.836   7.695  1.00  0.00    -0.318 N 
HETATM   31  C8  UNL     1     107.971  78.532   6.992  1.00  0.00     0.324 A 
ATOM     32  H4  UNL     1     109.040  79.610   8.359  1.00  0.00     0.170 HD
HETATM   33  O4  UNL     1     106.915  79.172   7.121  1.00  0.00    -0.247 OA
HETATM   34  N5  UNL     1     108.006  77.513   6.123  1.00  0.00    -0.318 N 
HETATM   35  C9  UNL     1     109.130  76.787   5.937  1.00  0.00     0.111 A 
ATOM     36  H5  UNL     1     107.167  77.281   5.591  1.00  0.00     0.170 HD
ENDBRANCH  25  28
ENDBRANCH  16  24
ENDBRANCH   5  16
BRANCH  15  37
HETATM   37  C14 UNL     1     117.578  78.103   1.424  1.00  0.00     0.058 C 
BRANCH  37  38
HETATM   38  C15 UNL     1     117.323  78.295   0.251  1.00  0.00    -0.128 C 
BRANCH  38  39
HETATM   39  C16 UNL     1     117.029  78.524  -1.108  1.00  0.00     0.055 C 
HETATM   40  C17 UNL     1     116.379  77.743  -1.927  1.00  0.00     0.010 C 
BRANCH  40  41
HETATM   41  C18 UNL     1     115.788  76.451  -1.675  1.00  0.00     0.024 C 
HETATM   42  C19 UNL     1     115.103  75.907  -2.747  1.00  0.00     0.131 C 
BRANCH  42  43
HETATM   43  O5  UNL     1     115.078  76.661  -3.883  1.00  0.00    -0.373 OA
ATOM     44  H5  UNL     1     115.417  76.243  -4.666  1.00  0.00     0.216 HD
ENDBRANCH  42  43
ENDBRANCH  40  41
ENDBRANCH  38  39
ENDBRANCH  37  38
ENDBRANCH  15  37
TORSDOF 13
ENDMDL
MODEL 4
REMARK VINA RESULT: -8.403022876      6.897     10.914
REMARK  13 active torsions:
REMARK  status: ('A' for Active; 'I' for Inactive)
REMARK       I    between atoms: C1_4  and  N2_5 
REMARK       I    between atoms: C1_4  and  N6_28 
REMARK    1  A    between atoms: N2_5  and  C2_7 
REMARK    2  A    between atoms: C2_7  and  C3_8 
REMARK    3  A    between atoms: C2_7  and  N3_15 
REMARK    4  A    between atoms: C3_8  and  C4_9 
REMARK    5  A    between atoms: C4_9  and  P1_10 
REMARK    6  A    between atoms: P1_10  and  O1_11 
REMARK    7  A    between atoms: P1_10  and  O2_13 
REMARK       I    between atoms: N3_15  and  C5_17 
REMARK    8  A    between atoms: C5_17  and  C6_19 
REMARK    9  A    between atoms: C13_36  and  C14_37 
REMARK   10  A    between atoms: C14_37  and  C15_38 
REMARK   11  A    between atoms: C15_38  and  C16_39 
REMARK   12  A    between atoms: C17_40  and  C18_41 
REMARK   13  A    between atoms: C19_42  and  O5_43 
ROOT
HETATM    1  N1  UNL     1     112.854  79.641  12.489  1.00  0.00    -0.234 N 
ATOM      2  H11 UNL     1     112.970  78.651  12.276  1.00  0.00     0.174 HD
ATOM      3  H12 UNL     1     113.541  80.031  13.133  1.00  0.00     0.174 HD
HETATM    4  C1  UNL     1     111.962  80.280  12.025  1.00  0.00     0.681 C 
HETATM    5  N2  UNL     1     111.801  81.647  12.319  1.00  0.00    -0.205 N 
ATOM      6  H2  UNL     1     111.057  82.115  11.802  1.00  0.00     0.179 HD
HETATM    7  N6  UNL     1     110.961  79.712  11.088  1.00  0.00    -0.142 N 
HETATM    8  C10 UNL     1     109.609  79.830  11.504  1.00  0.00     0.223 A 
HETATM    9  N7  UNL     1     108.680  79.523  10.614  1.00  0.00    -0.295 N 
ATOM     10  H7  UNL     1     107.692  79.594  10.861  1.00  0.00     0.187 HD
HETATM   11  N8  UNL     1     109.044  79.107   9.357  1.00  0.00    -0.309 N 
ATOM     12  H8  UNL     1     108.271  78.893   8.728  1.00  0.00     0.186 HD
HETATM   13  C11 UNL     1     110.212  78.950   8.859  1.00  0.00     0.137 A 
HETATM   14  C12 UNL     1     111.334  79.279   9.816  1.00  0.00     0.075 A 
HETATM   15  C13 UNL     1     112.535  78.977   9.488  1.00  0.00     0.040 C 
ENDROOT
BRANCH   5  16
HETATM   16  C2  UNL     1     112.512  82.474  13.219  1.00  0.00     0.202 C 
BRANCH  16  17
HETATM   17  C3  UNL     1     112.078  83.913  13.326  1.00  0.00     0.056 C 
BRANCH  17  18
HETATM   18  C4  UNL     1     111.313  84.395  12.125  1.00  0.00     0.097 C 
BRANCH  18  19
HETATM   19  P1  UNL     1     112.348  85.217  10.860  1.00  0.00     0.163 P 
BRANCH  19  20
HETATM   20  O1  UNL     1     112.525  86.902  11.063  1.00  0.00    -0.350 OA
ATOM     21  H1  UNL     1     113.299  87.274  10.657  1.00  0.00     0.217 HD
ENDBRANCH  19  20
BRANCH  19  22
HETATM   22  O2  UNL     1     113.926  84.479  10.807  1.00  0.00    -0.350 OA
ATOM     23  H2  UNL     1     114.272  84.385  11.687  1.00  0.00     0.217 HD
ENDBRANCH  19  22
ENDBRANCH  18  19
ENDBRANCH  17  18
ENDBRANCH  16  17
BRANCH  16  24
HETATM   24  N3  UNL     1     113.977  82.446  13.014  1.00  0.00    -0.335 N 
HETATM   25  C5  UNL     1     114.788  81.686  13.905  1.00  0.00     0.256 C 
HETATM   26  O3  UNL     1     114.285  81.037  14.866  1.00  0.00    -0.268 OA
ATOM     27  H3  UNL     1     114.401  82.965  12.245  1.00  0.00     0.164 HD
BRANCH  25  28
HETATM   28  C6  UNL     1     116.226  81.640  13.721  1.00  0.00     0.063 A 
HETATM   29  C7  UNL     1     117.088  82.281  14.574  1.00  0.00     0.111 A 
HETATM   30  N4  UNL     1     118.415  82.147  14.368  1.00  0.00    -0.318 N 
HETATM   31  C8  UNL     1     118.920  81.405  13.364  1.00  0.00     0.324 A 
ATOM     32  H4  UNL     1     119.060  82.627  14.996  1.00  0.00     0.170 HD
HETATM   33  O4  UNL     1     120.143  81.281  13.192  1.00  0.00    -0.247 OA
HETATM   34  N5  UNL     1     118.083  80.778  12.528  1.00  0.00    -0.318 N 
HETATM   35  C9  UNL     1     116.744  80.873  12.672  1.00  0.00     0.111 A 
ATOM     36  H5  UNL     1     118.465  80.218  11.766  1.00  0.00     0.170 HD
ENDBRANCH  25  28
ENDBRANCH  16  24
ENDBRANCH   5  16
BRANCH  15  37
HETATM   37  C14 UNL     1     112.883  78.534   8.106  1.00  0.00     0.058 C 
BRANCH  37  38
HETATM   38  C15 UNL     1     113.990  78.101   7.853  1.00  0.00    -0.128 C 
BRANCH  38  39
HETATM   39  C16 UNL     1     115.274  77.598   7.566  1.00  0.00     0.055 C 
HETATM   40  C17 UNL     1     116.427  78.121   7.885  1.00  0.00     0.010 C 
BRANCH  40  41
HETATM   41  C18 UNL     1     116.703  79.338   8.610  1.00  0.00     0.024 C 
HETATM   42  C19 UNL     1     118.001  79.453   9.077  1.00  0.00     0.131 C 
BRANCH  42  43
HETATM   43  O5  UNL     1     118.831  78.409   8.793  1.00  0.00    -0.373 OA
ATOM     44  H5  UNL     1     119.662  78.403   9.254  1.00  0.00     0.216 HD
ENDBRANCH  42  43
ENDBRANCH  40  41
ENDBRANCH  38  39
ENDBRANCH  37  38
ENDBRANCH  15  37
TORSDOF 13
ENDMDL
MODEL 5
REMARK VINA RESULT: -8.325954330      1.271      1.727
REMARK  13 active torsions:
REMARK  status: ('A' for Active; 'I' for Inactive)
REMARK       I    between atoms: C1_4  and  N2_5 
REMARK       I    between atoms: C1_4  and  N6_28 
REMARK    1  A    between atoms: N2_5  and  C2_7 
REMARK    2  A    between atoms: C2_7  and  C3_8 
REMARK    3  A    between atoms: C2_7  and  N3_15 
REMARK    4  A    between atoms: C3_8  and  C4_9 
REMARK    5  A    between atoms: C4_9  and  P1_10 
REMARK    6  A    between atoms: P1_10  and  O1_11 
REMARK    7  A    between atoms: P1_10  and  O2_13 
REMARK       I    between atoms: N3_15  and  C5_17 
REMARK    8  A    between atoms: C5_17  and  C6_19 
REMARK    9  A    between atoms: C13_36  and  C14_37 
REMARK   10  A    between atoms: C14_37  and  C15_38 
REMARK   11  A    between atoms: C15_38  and  C16_39 
REMARK   12  A    between atoms: C17_40  and  C18_41 
REMARK   13  A    between atoms: C19_42  and  O5_43 
ROOT
HETATM    1  N1  UNL     1     113.325  75.600   6.351  1.00  0.00    -0.234 N 
ATOM      2  H11 UNL     1     113.192  75.429   7.348  1.00  0.00     0.174 HD
ATOM      3  H12 UNL     1     112.711  75.069   5.734  1.00  0.00     0.174 HD
HETATM    4  C1  UNL     1     114.155  76.354   5.951  1.00  0.00     0.681 C 
HETATM    5  N2  UNL     1     114.338  76.590   4.575  1.00  0.00    -0.205 N 
ATOM      6  H2  UNL     1     115.017  77.316   4.349  1.00  0.00     0.179 HD
HETATM    7  N6  UNL     1     115.048  77.127   6.850  1.00  0.00    -0.142 N 
HETATM    8  C10 UNL     1     116.438  76.928   6.637  1.00  0.00     0.223 A 
HETATM    9  N7  UNL     1     117.263  77.742   7.274  1.00  0.00    -0.295 N 
ATOM     10  H7  UNL     1     118.271  77.644   7.153  1.00  0.00     0.187 HD
HETATM   11  N8  UNL     1     116.763  78.720   8.097  1.00  0.00    -0.309 N 
ATOM     12  H8  UNL     1     117.463  79.309   8.549  1.00  0.00     0.186 HD
HETATM   13  C11 UNL     1     115.548  79.000   8.383  1.00  0.00     0.137 A 
HETATM   14  C12 UNL     1     114.538  78.111   7.696  1.00  0.00     0.075 A 
HETATM   15  C13 UNL     1     113.309  78.179   8.054  1.00  0.00     0.040 C 
ENDROOT
BRANCH   5  16
HETATM   16  C2  UNL     1     113.727  75.975   3.458  1.00  0.00     0.202 C 
BRANCH  16  17
HETATM   17  C3  UNL     1     113.343  74.524   3.592  1.00  0.00     0.056 C 
BRANCH  17  18
HETATM   18  C4  UNL     1     112.155  74.142   2.754  1.00  0.00     0.097 C 
BRANCH  18  19
HETATM   19  P1  UNL     1     110.657  73.732   3.722  1.00  0.00     0.163 P 
BRANCH  19  20
HETATM   20  O1  UNL     1     110.416  72.066   3.999  1.00  0.00    -0.350 OA
ATOM     21  H1  UNL     1     110.153  71.568   3.234  1.00  0.00     0.217 HD
ENDBRANCH  19  20
BRANCH  19  22
HETATM   22  O2  UNL     1     110.687  74.567   5.252  1.00  0.00    -0.350 OA
ATOM     23  H2  UNL     1     109.894  74.380   5.740  1.00  0.00     0.217 HD
ENDBRANCH  19  22
ENDBRANCH  18  19
ENDBRANCH  17  18
ENDBRANCH  16  17
BRANCH  16  24
HETATM   24  N3  UNL     1     114.492  76.138   2.203  1.00  0.00    -0.335 N 
HETATM   25  C5  UNL     1     114.367  77.351   1.466  1.00  0.00     0.256 C 
HETATM   26  O3  UNL     1     113.615  78.288   1.859  1.00  0.00    -0.268 OA
ATOM     27  H3  UNL     1     115.102  75.391   1.869  1.00  0.00     0.164 HD
BRANCH  25  28
HETATM   28  C6  UNL     1     115.111  77.535   0.235  1.00  0.00     0.063 A 
HETATM   29  C7  UNL     1     116.275  78.259   0.192  1.00  0.00     0.111 A 
HETATM   30  N4  UNL     1     116.939  78.340  -0.980  1.00  0.00    -0.318 N 
HETATM   31  C8  UNL     1     116.505  77.734  -2.101  1.00  0.00     0.324 A 
ATOM     32  H4  UNL     1     117.803  78.882  -1.019  1.00  0.00     0.170 HD
HETATM   33  O4  UNL     1     117.131  77.807  -3.171  1.00  0.00    -0.247 OA
HETATM   34  N5  UNL     1     115.368  77.027  -2.066  1.00  0.00    -0.318 N 
HETATM   35  C9  UNL     1     114.650  76.908  -0.927  1.00  0.00     0.111 A 
ATOM     36  H5  UNL     1     115.037  76.569  -2.915  1.00  0.00     0.170 HD
ENDBRANCH  25  28
ENDBRANCH  16  24
ENDBRANCH   5  16
BRANCH  15  37
HETATM   37  C14 UNL     1     112.813  79.264   8.949  1.00  0.00     0.058 C 
BRANCH  37  38
HETATM   38  C15 UNL     1     111.638  79.326   9.258  1.00  0.00    -0.128 C 
BRANCH  38  39
HETATM   39  C16 UNL     1     110.277  79.402   9.612  1.00  0.00     0.055 C 
HETATM   40  C17 UNL     1     109.770  79.734  10.768  1.00  0.00     0.010 C 
BRANCH  40  41
HETATM   41  C18 UNL     1     110.449  80.111  11.984  1.00  0.00     0.024 C 
HETATM   42  C19 UNL     1     109.647  80.142  13.112  1.00  0.00     0.131 C 
BRANCH  42  43
HETATM   43  O5  UNL     1     108.336  79.817  12.919  1.00  0.00    -0.373 OA
ATOM     44  H5  UNL     1     107.871  80.334  12.272  1.00  0.00     0.216 HD
ENDBRANCH  42  43
ENDBRANCH  40  41
ENDBRANCH  38  39
ENDBRANCH  37  38
ENDBRANCH  15  37
TORSDOF 13
ENDMDL
