MODEL 1
REMARK VINA RESULT: -8.755365449      0.000      0.000
REMARK  16 active torsions:
REMARK  status: ('A' for Active; 'I' for Inactive)
REMARK    1  A    between atoms: C2_2  and  C3_3 
REMARK    2  A    between atoms: C3_3  and  C4_4 
REMARK    3  A    between atoms: C4_4  and  N1_5 
REMARK    4  A    between atoms: N1_5  and  C5_7 
REMARK    5  A    between atoms: C5_7  and  N2_8 
REMARK    6  A    between atoms: N2_8  and  C6_10 
REMARK    7  A    between atoms: C6_10  and  C7_11 
REMARK    8  A    between atoms: C7_11  and  O1_12 
REMARK    9  A    between atoms: C8_14  and  C10_16 
REMARK   10  A    between atoms: C12_23  and  N6_24 
REMARK   11  A    between atoms: N6_24  and  C13_26 
REMARK   12  A    between atoms: C13_26  and  C16_34 
REMARK   13  A    between atoms: C14_27  and  C15_28 
REMARK   14  A    between atoms: C15_28  and  P1_29 
REMARK   15  A    between atoms: P1_29  and  O2_30 
REMARK   16  A    between atoms: P1_29  and  O3_32 
ROOT
HETATM    1  C10 UNL     1     111.384  79.081   8.887  1.00  0.00     0.060 A 
HETATM    2  N3  UNL     1     112.355  78.515   8.182  1.00  0.00    -0.278 N 
ATOM      3  H3  UNL     1     113.284  78.686   8.566  1.00  0.00     0.188 HD
HETATM    4  N4  UNL     1     112.372  77.746   7.044  1.00  0.00    -0.080 N 
HETATM    5  C11 UNL     1     113.668  77.346   6.627  1.00  0.00     0.242 A 
HETATM    6  N5  UNL     1     113.836  76.622   5.576  1.00  0.00    -0.185 N 
ATOM      7  H5  UNL     1     114.786  76.359   5.314  1.00  0.00     0.185 HD
HETATM    8  C12 UNL     1     112.763  76.175   4.767  1.00  0.00     0.698 A 
HETATM    9  N7  UNL     1     111.563  76.509   5.100  1.00  0.00    -0.020 N 
ATOM     10  H7  UNL     1     110.785  76.191   4.522  1.00  0.00     0.203 HD
HETATM   11  C17 UNL     1     111.286  77.307   6.248  1.00  0.00     0.718 A 
HETATM   12  N8  UNL     1     110.031  77.548   6.435  1.00  0.00    -0.199 N 
ATOM     13  H8  UNL     1     109.397  77.142   5.746  1.00  0.00     0.183 HD
HETATM   14  C18 UNL     1     109.413  78.300   7.467  1.00  0.00     0.108 A 
HETATM   15  C19 UNL     1     110.001  78.945   8.502  1.00  0.00     0.049 A 
ENDROOT
BRANCH   1  16
HETATM   16  C8  UNL     1     111.788  79.818  10.035  1.00  0.00     0.010 C 
HETATM   17  C5  UNL     1     111.145  80.417  10.961  1.00  0.00     0.105 C 
HETATM   18  C9  UNL     1     113.320  79.915  10.191  1.00  0.00     0.054 C 
BRANCH  17  19
HETATM   19  N1  UNL     1     111.958  81.081  11.991  1.00  0.00    -0.376 N 
ATOM     20  H1  UNL     1     112.743  80.597  12.427  1.00  0.00     0.161 HD
BRANCH  19  21
HETATM   21  C4  UNL     1     111.628  82.409  12.367  1.00  0.00     0.121 C 
BRANCH  21  22
HETATM   22  C3  UNL     1     111.929  83.395  11.266  1.00  0.00     0.019 C 
BRANCH  22  23
HETATM   23  C2  UNL     1     111.276  84.708  11.618  1.00  0.00    -0.003 C 
HETATM   24  C1  UNL     1     112.290  85.822  11.518  1.00  0.00     0.005 C 
ENDBRANCH  22  23
ENDBRANCH  21  22
ENDBRANCH  19  21
ENDBRANCH  17  19
BRANCH  17  25
HETATM   25  N2  UNL     1     109.754  80.534  11.137  1.00  0.00    -0.374 N 
ATOM     26  H2  UNL     1     109.199  81.041  10.448  1.00  0.00     0.161 HD
BRANCH  25  27
HETATM   27  C6  UNL     1     109.099  79.935  12.297  1.00  0.00     0.147 C 
BRANCH  27  28
HETATM   28  C7  UNL     1     107.633  79.720  12.052  1.00  0.00     0.183 C 
BRANCH  28  29
HETATM   29  O1  UNL     1     107.347  79.473  10.708  1.00  0.00    -0.399 OA
ATOM     30  H1  UNL     1     106.466  79.142  10.579  1.00  0.00     0.209 HD
ENDBRANCH  28  29
ENDBRANCH  27  28
ENDBRANCH  25  27
ENDBRANCH  17  25
ENDBRANCH   1  16
BRANCH   8  31
HETATM   31  N6  UNL     1     113.004  75.365   3.599  1.00  0.00    -0.185 N 
ATOM     32  H6  UNL     1     112.965  75.800   2.677  1.00  0.00     0.184 HD
BRANCH  31  33
HETATM   33  C13 UNL     1     113.292  73.983   3.700  1.00  0.00     0.122 C 
HETATM   34  C14 UNL     1     114.332  73.509   3.049  1.00  0.00     0.019 C 
BRANCH  34  35
HETATM   35  C15 UNL     1     115.181  74.394   2.231  1.00  0.00     0.122 C 
BRANCH  35  36
HETATM   36  P1  UNL     1     114.499  74.630   0.521  1.00  0.00     0.166 P 
BRANCH  36  37
HETATM   37  O2  UNL     1     113.670  73.204  -0.019  1.00  0.00    -0.349 OA
ATOM     38  H2  UNL     1     113.091  73.402  -0.745  1.00  0.00     0.217 HD
ENDBRANCH  36  37
BRANCH  36  39
HETATM   39  O3  UNL     1     113.474  76.029   0.444  1.00  0.00    -0.349 OA
ATOM     40  H3  UNL     1     113.204  76.205  -0.449  1.00  0.00     0.217 HD
ENDBRANCH  36  39
ENDBRANCH  35  36
ENDBRANCH  34  35
BRANCH  33  41
HETATM   41  C16 UNL     1     112.440  73.110   4.518  1.00  0.00     0.227 C 
HETATM   42  O4  UNL     1     112.963  72.198   5.178  1.00  0.00    -0.643 OA
HETATM   43  O5  UNL     1     111.075  73.331   4.528  1.00  0.00    -0.643 OA
ENDBRANCH  33  41
ENDBRANCH  31  33
ENDBRANCH   8  31
TORSDOF 16
ENDMDL
MODEL 2
REMARK VINA RESULT: -8.540339601      1.654      2.607
REMARK  16 active torsions:
REMARK  status: ('A' for Active; 'I' for Inactive)
REMARK    1  A    between atoms: C2_2  and  C3_3 
REMARK    2  A    between atoms: C3_3  and  C4_4 
REMARK    3  A    between atoms: C4_4  and  N1_5 
REMARK    4  A    between atoms: N1_5  and  C5_7 
REMARK    5  A    between atoms: C5_7  and  N2_8 
REMARK    6  A    between atoms: N2_8  and  C6_10 
REMARK    7  A    between atoms: C6_10  and  C7_11 
REMARK    8  A    between atoms: C7_11  and  O1_12 
REMARK    9  A    between atoms: C8_14  and  C10_16 
REMARK   10  A    between atoms: C12_23  and  N6_24 
REMARK   11  A    between atoms: N6_24  and  C13_26 
REMARK   12  A    between atoms: C13_26  and  C16_34 
REMARK   13  A    between atoms: C14_27  and  C15_28 
REMARK   14  A    between atoms: C15_28  and  P1_29 
REMARK   15  A    between atoms: P1_29  and  O2_30 
REMARK   16  A    between atoms: P1_29  and  O3_32 
ROOT
HETATM    1  C10 UNL     1     111.880  79.296   9.333  1.00  0.00     0.060 A 
HETATM    2  N3  UNL     1     112.992  78.839   8.774  1.00  0.00    -0.278 N 
ATOM      3  H3  UNL     1     113.837  79.114   9.275  1.00  0.00     0.188 HD
HETATM    4  N4  UNL     1     113.246  78.073   7.662  1.00  0.00    -0.080 N 
HETATM    5  C11 UNL     1     114.622  77.818   7.429  1.00  0.00     0.242 A 
HETATM    6  N5  UNL     1     115.009  77.115   6.423  1.00  0.00    -0.185 N 
ATOM      7  H5  UNL     1     116.008  76.957   6.294  1.00  0.00     0.185 HD
HETATM    8  C12 UNL     1     114.109  76.548   5.486  1.00  0.00     0.698 A 
HETATM    9  N7  UNL     1     112.846  76.748   5.651  1.00  0.00    -0.020 N 
ATOM     10  H7  UNL     1     112.192  76.344   4.980  1.00  0.00     0.203 HD
HETATM   11  C17 UNL     1     112.332  77.514   6.737  1.00  0.00     0.718 A 
HETATM   12  N8  UNL     1     111.044  77.615   6.751  1.00  0.00    -0.199 N 
ATOM     13  H8  UNL     1     110.557  77.138   5.991  1.00  0.00     0.183 HD
HETATM   14  C18 UNL     1     110.214  78.296   7.678  1.00  0.00     0.108 A 
HETATM   15  C19 UNL     1     110.585  79.006   8.770  1.00  0.00     0.049 A 
ENDROOT
BRANCH   1  16
HETATM   16  C8  UNL     1     112.043  80.077  10.512  1.00  0.00     0.010 C 
HETATM   17  C5  UNL     1     111.222  80.674  11.286  1.00  0.00     0.105 C 
HETATM   18  C9  UNL     1     113.517  80.238  10.939  1.00  0.00     0.054 C 
BRANCH  17  19
HETATM   19  N1  UNL     1     111.811  81.395  12.424  1.00  0.00    -0.376 N 
ATOM     20  H1  UNL     1     112.516  80.951  13.014  1.00  0.00     0.161 HD
BRANCH  19  21
HETATM   21  C4  UNL     1     111.379  82.721  12.687  1.00  0.00     0.121 C 
BRANCH  21  22
HETATM   22  C3  UNL     1     111.810  83.677  11.603  1.00  0.00     0.019 C 
BRANCH  22  23
HETATM   23  C2  UNL     1     111.678  85.082  12.135  1.00  0.00    -0.003 C 
HETATM   24  C1  UNL     1     112.431  86.036  11.240  1.00  0.00     0.005 C 
ENDBRANCH  22  23
ENDBRANCH  21  22
ENDBRANCH  19  21
ENDBRANCH  17  19
BRANCH  17  25
HETATM   25  N2  UNL     1     109.819  80.741  11.203  1.00  0.00    -0.374 N 
ATOM     26  H2  UNL     1     109.382  81.352  10.514  1.00  0.00     0.161 HD
BRANCH  25  27
HETATM   27  C6  UNL     1     108.983  79.941  12.095  1.00  0.00     0.147 C 
BRANCH  27  28
HETATM   28  C7  UNL     1     107.631  79.682  11.498  1.00  0.00     0.183 C 
BRANCH  28  29
HETATM   29  O1  UNL     1     106.625  79.611  12.463  1.00  0.00    -0.399 OA
ATOM     30  H1  UNL     1     106.874  79.078  13.209  1.00  0.00     0.209 HD
ENDBRANCH  28  29
ENDBRANCH  27  28
ENDBRANCH  25  27
ENDBRANCH  17  25
ENDBRANCH   1  16
BRANCH   8  31
HETATM   31  N6  UNL     1     114.592  75.766   4.376  1.00  0.00    -0.185 N 
ATOM     32  H6  UNL     1     115.316  75.067   4.538  1.00  0.00     0.184 HD
BRANCH  31  33
HETATM   33  C13 UNL     1     114.086  75.945   3.066  1.00  0.00     0.122 C 
HETATM   34  C14 UNL     1     113.307  75.013   2.561  1.00  0.00     0.019 C 
BRANCH  34  35
HETATM   35  C15 UNL     1     112.966  73.808   3.338  1.00  0.00     0.122 C 
BRANCH  35  36
HETATM   36  P1  UNL     1     111.167  73.758   3.793  1.00  0.00     0.166 P 
BRANCH  36  37
HETATM   37  O2  UNL     1     110.633  72.125   4.038  1.00  0.00    -0.349 OA
ATOM     38  H2  UNL     1     109.749  72.105   4.384  1.00  0.00     0.217 HD
ENDBRANCH  36  37
BRANCH  36  39
HETATM   39  O3  UNL     1     110.846  74.747   5.183  1.00  0.00    -0.349 OA
ATOM     40  H3  UNL     1     110.019  74.512   5.585  1.00  0.00     0.217 HD
ENDBRANCH  36  39
ENDBRANCH  35  36
ENDBRANCH  34  35
BRANCH  33  41
HETATM   41  C16 UNL     1     114.431  77.150   2.301  1.00  0.00     0.227 C 
HETATM   42  O4  UNL     1     115.416  77.126   1.545  1.00  0.00    -0.643 OA
HETATM   43  O5  UNL     1     113.647  78.279   2.446  1.00  0.00    -0.643 OA
ENDBRANCH  33  41
ENDBRANCH  31  33
ENDBRANCH   8  31
TORSDOF 16
ENDMDL
MODEL 3
REMARK VINA RESULT: -8.501782911      1.144      1.371
REMARK  16 active torsions:
REMARK  status: ('A' for Active; 'I' for Inactive)
REMARK    1  A    between atoms: C2_2  and  C3_3 
REMARK    2  A    between atoms: C3_3  and  C4_4 
REMARK    3  A    between atoms: C4_4  and  N1_5 
REMARK    4  A    between atoms: N1_5  and  C5_7 
REMARK    5  A    between atoms: C5_7  and  N2_8 
REMARK    6  A    between atoms: N2_8  and  C6_10 
REMARK    7  A    between atoms: C6_10  and  C7_11 
REMARK    8  A    between atoms: C7_11  and  O1_12 
REMARK    9  A    between atoms: C8_14  and  C10_16 
REMARK   10  A    between atoms: C12_23  and  N6_24 
REMARK   11  A    between atoms: N6_24  and  C13_26 
REMARK   12  A    between atoms: C13_26  and  C16_34 
REMARK   13  A    between atoms: C14_27  and  C15_28 
REMARK   14  A    between atoms: C15_28  and  P1_29 
REMARK   15  A    between atoms: P1_29  and  O2_30 
REMARK   16  A    between atoms: P1_29  and  O3_32 
ROOT
HETATM    1  C10 UNL     1     111.529  78.816   8.552  1.00  0.00     0.060 A 
HETATM    2  N3  UNL     1     112.463  78.270   7.784  1.00  0.00    -0.278 N 
ATOM      3  H3  UNL     1     113.412  78.472   8.098  1.00  0.00     0.188 HD
HETATM    4  N4  UNL     1     112.420  77.490   6.654  1.00  0.00    -0.080 N 
HETATM    5  C11 UNL     1     113.693  77.123   6.148  1.00  0.00     0.242 A 
HETATM    6  N5  UNL     1     113.806  76.393   5.094  1.00  0.00    -0.185 N 
ATOM      7  H5  UNL     1     114.742  76.153   4.766  1.00  0.00     0.185 HD
HETATM    8  C12 UNL     1     112.691  75.907   4.369  1.00  0.00     0.698 A 
HETATM    9  N7  UNL     1     111.509  76.211   4.785  1.00  0.00    -0.020 N 
ATOM     10  H7  UNL     1     110.700  75.865   4.267  1.00  0.00     0.203 HD
HETATM   11  C17 UNL     1     111.292  77.013   5.942  1.00  0.00     0.718 A 
HETATM   12  N8  UNL     1     110.048  77.221   6.218  1.00  0.00    -0.199 N 
ATOM     13  H8  UNL     1     109.378  76.790   5.580  1.00  0.00     0.183 HD
HETATM   14  C18 UNL     1     109.484  77.965   7.285  1.00  0.00     0.108 A 
HETATM   15  C19 UNL     1     110.127  78.637   8.270  1.00  0.00     0.049 A 
ENDROOT
BRANCH   1  16
HETATM   16  C8  UNL     1     111.994  79.576   9.663  1.00  0.00     0.010 C 
HETATM   17  C5  UNL     1     111.401  80.231  10.584  1.00  0.00     0.105 C 
HETATM   18  C9  UNL     1     113.533  79.622   9.771  1.00  0.00     0.054 C 
BRANCH  17  19
HETATM   19  N1  UNL     1     112.268  80.899  11.567  1.00  0.00    -0.376 N 
ATOM     20  H1  UNL     1     112.827  80.354  12.223  1.00  0.00     0.161 HD
BRANCH  19  21
HETATM   21  C4  UNL     1     112.310  82.317  11.584  1.00  0.00     0.121 C 
BRANCH  21  22
HETATM   22  C3  UNL     1     111.753  82.880  12.867  1.00  0.00     0.019 C 
BRANCH  22  23
HETATM   23  C2  UNL     1     111.596  84.370  12.698  1.00  0.00    -0.003 C 
HETATM   24  C1  UNL     1     111.575  84.715  11.229  1.00  0.00     0.005 C 
ENDBRANCH  22  23
ENDBRANCH  21  22
ENDBRANCH  19  21
ENDBRANCH  17  19
BRANCH  17  25
HETATM   25  N2  UNL     1     110.021  80.405  10.795  1.00  0.00    -0.374 N 
ATOM     26  H2  UNL     1     109.442  80.796  10.053  1.00  0.00     0.161 HD
BRANCH  25  27
HETATM   27  C6  UNL     1     109.411  80.030  12.068  1.00  0.00     0.147 C 
BRANCH  27  28
HETATM   28  C7  UNL     1     107.951  79.715  11.908  1.00  0.00     0.183 C 
BRANCH  28  29
HETATM   29  O1  UNL     1     107.622  79.357  10.600  1.00  0.00    -0.399 OA
ATOM     30  H1  UNL     1     108.240  78.740  10.225  1.00  0.00     0.209 HD
ENDBRANCH  28  29
ENDBRANCH  27  28
ENDBRANCH  25  27
ENDBRANCH  17  25
ENDBRANCH   1  16
BRANCH   8  31
HETATM   31  N6  UNL     1     112.870  75.092   3.194  1.00  0.00    -0.185 N 
ATOM     32  H6  UNL     1     112.959  75.545   2.284  1.00  0.00     0.184 HD
BRANCH  31  33
HETATM   33  C13 UNL     1     112.925  73.680   3.270  1.00  0.00     0.122 C 
HETATM   34  C14 UNL     1     113.565  73.024   2.327  1.00  0.00     0.019 C 
BRANCH  34  35
HETATM   35  C15 UNL     1     114.214  73.740   1.213  1.00  0.00     0.122 C 
BRANCH  35  36
HETATM   36  P1  UNL     1     115.934  74.289   1.645  1.00  0.00     0.166 P 
BRANCH  36  37
HETATM   37  O2  UNL     1     115.906  75.512   2.875  1.00  0.00    -0.349 OA
ATOM     38  H2  UNL     1     116.305  76.316   2.564  1.00  0.00     0.217 HD
ENDBRANCH  36  37
BRANCH  36  39
HETATM   39  O3  UNL     1     116.921  72.939   2.112  1.00  0.00    -0.349 OA
ATOM     40  H3  UNL     1     117.843  73.165   2.084  1.00  0.00     0.217 HD
ENDBRANCH  36  39
ENDBRANCH  35  36
ENDBRANCH  34  35
BRANCH  33  41
HETATM   41  C16 UNL     1     112.276  72.977   4.384  1.00  0.00     0.227 C 
HETATM   42  O4  UNL     1     112.967  72.280   5.146  1.00  0.00    -0.643 OA
HETATM   43  O5  UNL     1     110.911  73.111   4.552  1.00  0.00    -0.643 OA
ENDBRANCH  33  41
ENDBRANCH  31  33
ENDBRANCH   8  31
TORSDOF 16
ENDMDL
MODEL 4
REMARK VINA RESULT: -8.501450231      0.891      1.124
REMARK  16 active torsions:
REMARK  status: ('A' for Active; 'I' for Inactive)
REMARK    1  A    between atoms: C2_2  and  C3_3 
REMARK    2  A    between atoms: C3_3  and  C4_4 
REMARK    3  A    between atoms: C4_4  and  N1_5 
REMARK    4  A    between atoms: N1_5  and  C5_7 
REMARK    5  A    between atoms: C5_7  and  N2_8 
REMARK    6  A    between atoms: N2_8  and  C6_10 
REMARK    7  A    between atoms: C6_10  and  C7_11 
REMARK    8  A    between atoms: C7_11  and  O1_12 
REMARK    9  A    between atoms: C8_14  and  C10_16 
REMARK   10  A    between atoms: C12_23  and  N6_24 
REMARK   11  A    between atoms: N6_24  and  C13_26 
REMARK   12  A    between atoms: C13_26  and  C16_34 
REMARK   13  A    between atoms: C14_27  and  C15_28 
REMARK   14  A    between atoms: C15_28  and  P1_29 
REMARK   15  A    between atoms: P1_29  and  O2_30 
REMARK   16  A    between atoms: P1_29  and  O3_32 
ROOT
HETATM    1  C10 UNL     1     111.135  79.045   8.871  1.00  0.00     0.060 A 
HETATM    2  N3  UNL     1     112.028  78.350   8.179  1.00  0.00    -0.278 N 
ATOM      3  H3  UNL     1     112.974  78.427   8.550  1.00  0.00     0.188 HD
HETATM    4  N4  UNL     1     111.945  77.547   7.067  1.00  0.00    -0.080 N 
HETATM    5  C11 UNL     1     113.183  76.990   6.655  1.00  0.00     0.242 A 
HETATM    6  N5  UNL     1     113.257  76.218   5.627  1.00  0.00    -0.185 N 
ATOM      7  H5  UNL     1     114.168  75.839   5.367  1.00  0.00     0.185 HD
HETATM    8  C12 UNL     1     112.131  75.870   4.841  1.00  0.00     0.698 A 
HETATM    9  N7  UNL     1     110.980  76.349   5.171  1.00  0.00    -0.020 N 
ATOM     10  H7  UNL     1     110.165  76.103   4.609  1.00  0.00     0.203 HD
HETATM   11  C17 UNL     1     110.808  77.210   6.293  1.00  0.00     0.718 A 
HETATM   12  N8  UNL     1     109.590  77.598   6.481  1.00  0.00    -0.199 N 
ATOM     13  H8  UNL     1     108.907  77.245   5.811  1.00  0.00     0.183 HD
HETATM   14  C18 UNL     1     109.073  78.448   7.492  1.00  0.00     0.108 A 
HETATM   15  C19 UNL     1     109.742  79.055   8.501  1.00  0.00     0.049 A 
ENDROOT
BRANCH   1  16
HETATM   16  C8  UNL     1     111.633  79.768   9.992  1.00  0.00     0.010 C 
HETATM   17  C5  UNL     1     111.068  80.380  10.959  1.00  0.00     0.105 C 
HETATM   18  C9  UNL     1     113.174  79.828  10.045  1.00  0.00     0.054 C 
BRANCH  17  19
HETATM   19  N1  UNL     1     111.963  81.021  11.934  1.00  0.00    -0.376 N 
ATOM     20  H1  UNL     1     112.731  80.499  12.357  1.00  0.00     0.161 HD
BRANCH  19  21
HETATM   21  C4  UNL     1     111.738  82.379  12.274  1.00  0.00     0.121 C 
BRANCH  21  22
HETATM   22  C3  UNL     1     112.042  83.304  11.123  1.00  0.00     0.019 C 
BRANCH  22  23
HETATM   23  C2  UNL     1     111.385  84.634  11.400  1.00  0.00    -0.003 C 
HETATM   24  C1  UNL     1     112.096  85.721  10.631  1.00  0.00     0.005 C 
ENDBRANCH  22  23
ENDBRANCH  21  22
ENDBRANCH  19  21
ENDBRANCH  17  19
BRANCH  17  25
HETATM   25  N2  UNL     1     109.695  80.530  11.227  1.00  0.00    -0.374 N 
ATOM     26  H2  UNL     1     109.104  81.041  10.571  1.00  0.00     0.161 HD
BRANCH  25  27
HETATM   27  C6  UNL     1     109.107  79.959  12.437  1.00  0.00     0.147 C 
BRANCH  27  28
HETATM   28  C7  UNL     1     107.639  79.697  12.266  1.00  0.00     0.183 C 
BRANCH  28  29
HETATM   29  O1  UNL     1     107.247  79.703  10.926  1.00  0.00    -0.399 OA
ATOM     30  H1  UNL     1     106.342  79.439  10.810  1.00  0.00     0.209 HD
ENDBRANCH  28  29
ENDBRANCH  27  28
ENDBRANCH  25  27
ENDBRANCH  17  25
ENDBRANCH   1  16
BRANCH   8  31
HETATM   31  N6  UNL     1     112.265  75.000   3.699  1.00  0.00    -0.185 N 
ATOM     32  H6  UNL     1     112.477  75.407   2.788  1.00  0.00     0.184 HD
BRANCH  31  33
HETATM   33  C13 UNL     1     112.111  73.598   3.811  1.00  0.00     0.122 C 
HETATM   34  C14 UNL     1     113.146  72.829   3.552  1.00  0.00     0.019 C 
BRANCH  34  35
HETATM   35  C15 UNL     1     114.441  73.411   3.155  1.00  0.00     0.122 C 
BRANCH  35  36
HETATM   36  P1  UNL     1     114.557  73.665   1.319  1.00  0.00     0.166 P 
BRANCH  36  37
HETATM   37  O2  UNL     1     113.607  75.028   0.820  1.00  0.00    -0.349 OA
ATOM     38  H2  UNL     1     113.863  75.812   1.291  1.00  0.00     0.217 HD
ENDBRANCH  36  37
BRANCH  36  39
HETATM   39  O3  UNL     1     116.210  73.822   0.814  1.00  0.00    -0.349 OA
ATOM     40  H3  UNL     1     116.501  74.724   0.877  1.00  0.00     0.217 HD
ENDBRANCH  36  39
ENDBRANCH  35  36
ENDBRANCH  34  35
BRANCH  33  41
HETATM   41  C16 UNL     1     110.816  73.029   4.209  1.00  0.00     0.227 C 
HETATM   42  O4  UNL     1     110.452  71.949   3.715  1.00  0.00    -0.643 OA
HETATM   43  O5  UNL     1     110.040  73.715   5.123  1.00  0.00    -0.643 OA
ENDBRANCH  33  41
ENDBRANCH  31  33
ENDBRANCH   8  31
TORSDOF 16
ENDMDL
MODEL 5
REMARK VINA RESULT: -8.457845462      1.501      1.877
REMARK  16 active torsions:
REMARK  status: ('A' for Active; 'I' for Inactive)
REMARK    1  A    between atoms: C2_2  and  C3_3 
REMARK    2  A    between atoms: C3_3  and  C4_4 
REMARK    3  A    between atoms: C4_4  and  N1_5 
REMARK    4  A    between atoms: N1_5  and  C5_7 
REMARK    5  A    between atoms: C5_7  and  N2_8 
REMARK    6  A    between atoms: N2_8  and  C6_10 
REMARK    7  A    between atoms: C6_10  and  C7_11 
REMARK    8  A    between atoms: C7_11  and  O1_12 
REMARK    9  A    between atoms: C8_14  and  C10_16 
REMARK   10  A    between atoms: C12_23  and  N6_24 
REMARK   11  A    between atoms: N6_24  and  C13_26 
REMARK   12  A    between atoms: C13_26  and  C16_34 
REMARK   13  A    between atoms: C14_27  and  C15_28 
REMARK   14  A    between atoms: C15_28  and  P1_29 
REMARK   15  A    between atoms: P1_29  and  O2_30 
REMARK   16  A    between atoms: P1_29  and  O3_32 
ROOT
HETATM    1  C10 UNL     1     111.666  79.086   8.863  1.00  0.00     0.060 A 
HETATM    2  N3  UNL     1     112.436  78.334   8.089  1.00  0.00    -0.278 N 
ATOM      3  H3  UNL     1     113.424  78.380   8.338  1.00  0.00     0.188 HD
HETATM    4  N4  UNL     1     112.183  77.507   7.021  1.00  0.00    -0.080 N 
HETATM    5  C11 UNL     1     113.336  76.884   6.478  1.00  0.00     0.242 A 
HETATM    6  N5  UNL     1     113.251  76.083   5.474  1.00  0.00    -0.185 N 
ATOM      7  H5  UNL     1     114.106  75.658   5.116  1.00  0.00     0.185 HD
HETATM    8  C12 UNL     1     112.023  75.764   4.845  1.00  0.00     0.698 A 
HETATM    9  N7  UNL     1     110.942  76.301   5.299  1.00  0.00    -0.020 N 
ATOM     10  H7  UNL     1     110.054  76.077   4.850  1.00  0.00     0.203 HD
HETATM   11  C17 UNL     1     110.946  77.199   6.406  1.00  0.00     0.718 A 
HETATM   12  N8  UNL     1     109.778  77.645   6.730  1.00  0.00    -0.199 N 
ATOM     13  H8  UNL     1     109.003  77.304   6.161  1.00  0.00     0.183 HD
HETATM   14  C18 UNL     1     109.425  78.543   7.769  1.00  0.00     0.108 A 
HETATM   15  C19 UNL     1     110.239  79.147   8.668  1.00  0.00     0.049 A 
ENDROOT
BRANCH   1  16
HETATM   16  C8  UNL     1     112.328  79.816   9.890  1.00  0.00     0.010 C 
HETATM   17  C5  UNL     1     111.913  80.538  10.857  1.00  0.00     0.105 C 
HETATM   18  C9  UNL     1     113.866  79.717   9.816  1.00  0.00     0.054 C 
BRANCH  17  19
HETATM   19  N1  UNL     1     112.948  81.136  11.713  1.00  0.00    -0.376 N 
ATOM     20  H1  UNL     1     113.622  80.548  12.203  1.00  0.00     0.161 HD
BRANCH  19  21
HETATM   21  C4  UNL     1     112.992  82.549  11.842  1.00  0.00     0.121 C 
BRANCH  21  22
HETATM   22  C3  UNL     1     112.758  82.989  13.265  1.00  0.00     0.019 C 
BRANCH  22  23
HETATM   23  C2  UNL     1     111.426  83.694  13.327  1.00  0.00    -0.003 C 
HETATM   24  C1  UNL     1     111.211  84.485  12.059  1.00  0.00     0.005 C 
ENDBRANCH  22  23
ENDBRANCH  21  22
ENDBRANCH  19  21
ENDBRANCH  17  19
BRANCH  17  25
HETATM   25  N2  UNL     1     110.590  80.846  11.225  1.00  0.00    -0.374 N 
ATOM     26  H2  UNL     1     110.086  81.582  10.731  1.00  0.00     0.161 HD
BRANCH  25  27
HETATM   27  C6  UNL     1     109.931  80.119  12.307  1.00  0.00     0.147 C 
BRANCH  27  28
HETATM   28  C7  UNL     1     108.502  79.804  11.970  1.00  0.00     0.183 C 
BRANCH  28  29
HETATM   29  O1  UNL     1     107.680  79.777  13.097  1.00  0.00    -0.399 OA
ATOM     30  H1  UNL     1     106.852  79.342  12.933  1.00  0.00     0.209 HD
ENDBRANCH  28  29
ENDBRANCH  27  28
ENDBRANCH  25  27
ENDBRANCH  17  25
ENDBRANCH   1  16
BRANCH   8  31
HETATM   31  N6  UNL     1     111.978  74.859   3.723  1.00  0.00    -0.185 N 
ATOM     32  H6  UNL     1     111.101  74.737   3.218  1.00  0.00     0.184 HD
BRANCH  31  33
HETATM   33  C13 UNL     1     113.122  74.137   3.306  1.00  0.00     0.122 C 
HETATM   34  C14 UNL     1     113.865  74.637   2.343  1.00  0.00     0.019 C 
BRANCH  34  35
HETATM   35  C15 UNL     1     113.519  75.923   1.710  1.00  0.00     0.122 C 
BRANCH  35  36
HETATM   36  P1  UNL     1     114.614  77.304   2.293  1.00  0.00     0.166 P 
BRANCH  36  37
HETATM   37  O2  UNL     1     113.673  78.681   2.773  1.00  0.00    -0.349 OA
ATOM     38  H2  UNL     1     112.900  78.771   2.228  1.00  0.00     0.217 HD
ENDBRANCH  36  37
BRANCH  36  39
HETATM   39  O3  UNL     1     115.662  76.773   3.570  1.00  0.00    -0.349 OA
ATOM     40  H3  UNL     1     115.226  76.823   4.412  1.00  0.00     0.217 HD
ENDBRANCH  36  39
ENDBRANCH  35  36
ENDBRANCH  34  35
BRANCH  33  41
HETATM   41  C16 UNL     1     113.458  72.857   3.945  1.00  0.00     0.227 C 
HETATM   42  O4  UNL     1     112.733  72.425   4.856  1.00  0.00    -0.643 OA
HETATM   43  O5  UNL     1     114.575  72.170   3.511  1.00  0.00    -0.643 OA
ENDBRANCH  33  41
ENDBRANCH  31  33
ENDBRANCH   8  31
TORSDOF 16
ENDMDL
