MODEL 1
REMARK VINA RESULT: -4.499725251      0.000      0.000
REMARK  0 active torsions:
REMARK  status: ('A' for Active; 'I' for Inactive)
ROOT
HETATM    1 CL1  UNL     1       8.812  52.570  54.760  1.00  0.00    -0.084 Cl
HETATM    2  C1  UNL     1      10.422  52.025  55.165  1.00  0.00     0.070 C 
HETATM    3  C2  UNL     1      11.237  52.852  55.793  1.00  0.00     0.112 C 
HETATM    4  N1  UNL     1      12.585  52.657  56.233  1.00  0.00    -0.357 N 
ATOM      5  H1  UNL     1      13.001  53.438  56.741  1.00  0.00     0.166 HD
HETATM    6  C3  UNL     1      13.338  51.638  56.075  1.00  0.00     0.104 C 
HETATM    7 CL2  UNL     1      14.940  51.772  56.758  1.00  0.00    -0.067 Cl
HETATM    8  C4  UNL     1      12.980  50.375  55.376  1.00  0.00     0.240 C 
HETATM    9  O1  UNL     1      11.671  50.078  55.630  1.00  0.00    -0.359 OA
HETATM   10  C5  UNL     1      10.761  50.629  54.759  1.00  0.00     0.264 C 
HETATM   11 CL3  UNL     1      11.342  50.589  53.062  1.00  0.00    -0.089 Cl
ENDROOT
TORSDOF 0
ENDMDL
MODEL 2
REMARK VINA RESULT: -4.342873598      3.535      4.735
REMARK  0 active torsions:
REMARK  status: ('A' for Active; 'I' for Inactive)
ROOT
HETATM    1 CL1  UNL     1      12.224  50.919  55.728  1.00  0.00    -0.084 Cl
HETATM    2  C1  UNL     1      13.821  50.211  55.785  1.00  0.00     0.070 C 
HETATM    3  C2  UNL     1      13.981  48.963  55.386  1.00  0.00     0.112 C 
HETATM    4  N1  UNL     1      15.164  48.159  55.333  1.00  0.00    -0.357 N 
ATOM      5  H1  UNL     1      15.045  47.224  54.943  1.00  0.00     0.166 HD
HETATM    6  C3  UNL     1      16.348  48.454  55.707  1.00  0.00     0.104 C 
HETATM    7 CL2  UNL     1      17.544  47.200  55.482  1.00  0.00    -0.067 Cl
HETATM    8  C4  UNL     1      16.790  49.742  56.306  1.00  0.00     0.240 C 
HETATM    9  O1  UNL     1      16.113  50.768  55.711  1.00  0.00    -0.359 OA
HETATM   10  C5  UNL     1      14.911  51.096  56.293  1.00  0.00     0.264 C 
HETATM   11 CL3  UNL     1      14.989  51.035  58.085  1.00  0.00    -0.089 Cl
ENDROOT
TORSDOF 0
ENDMDL
MODEL 3
REMARK VINA RESULT: -4.325657344      2.518      4.466
REMARK  0 active torsions:
REMARK  status: ('A' for Active; 'I' for Inactive)
ROOT
HETATM    1 CL1  UNL     1      17.209  49.204  56.015  1.00  0.00    -0.084 Cl
HETATM    2  C1  UNL     1      15.597  49.868  55.902  1.00  0.00     0.070 C 
HETATM    3  C2  UNL     1      15.390  51.113  56.289  1.00  0.00     0.112 C 
HETATM    4  N1  UNL     1      14.183  51.884  56.299  1.00  0.00    -0.357 N 
ATOM      5  H1  UNL     1      14.281  52.851  56.608  1.00  0.00     0.166 HD
HETATM    6  C3  UNL     1      13.002  51.525  55.975  1.00  0.00     0.104 C 
HETATM    7 CL2  UNL     1      11.773  52.758  56.121  1.00  0.00    -0.067 Cl
HETATM    8  C4  UNL     1      12.589  50.179  55.495  1.00  0.00     0.240 C 
HETATM    9  O1  UNL     1      13.574  49.664  54.702  1.00  0.00    -0.359 OA
HETATM   10  C5  UNL     1      14.549  48.951  55.361  1.00  0.00     0.264 C 
HETATM   11 CL3  UNL     1      13.869  47.929  56.670  1.00  0.00    -0.089 Cl
ENDROOT
TORSDOF 0
ENDMDL
MODEL 4
REMARK VINA RESULT: -4.161039774      1.871      2.131
REMARK  0 active torsions:
REMARK  status: ('A' for Active; 'I' for Inactive)
ROOT
HETATM    1 CL1  UNL     1      11.083  52.830  55.906  1.00  0.00    -0.084 Cl
HETATM    2  C1  UNL     1      12.393  51.678  55.804  1.00  0.00     0.070 C 
HETATM    3  C2  UNL     1      13.603  52.053  56.173  1.00  0.00     0.112 C 
HETATM    4  N1  UNL     1      14.830  51.315  56.187  1.00  0.00    -0.357 N 
ATOM      5  H1  UNL     1      15.639  51.812  56.560  1.00  0.00     0.166 HD
HETATM    6  C3  UNL     1      15.049  50.120  55.797  1.00  0.00     0.104 C 
HETATM    7 CL2  UNL     1      16.693  49.558  55.973  1.00  0.00    -0.067 Cl
HETATM    8  C4  UNL     1      14.049  49.184  55.216  1.00  0.00     0.240 C 
HETATM    9  O1  UNL     1      12.849  49.363  55.845  1.00  0.00    -0.359 OA
HETATM   10  C5  UNL     1      12.032  50.321  55.293  1.00  0.00     0.264 C 
HETATM   11 CL3  UNL     1      12.072  50.292  53.499  1.00  0.00    -0.089 Cl
ENDROOT
TORSDOF 0
ENDMDL
MODEL 5
REMARK VINA RESULT: -4.082583336      1.601      2.517
REMARK  0 active torsions:
REMARK  status: ('A' for Active; 'I' for Inactive)
ROOT
HETATM    1 CL1  UNL     1      10.329  50.221  52.664  1.00  0.00    -0.084 Cl
HETATM    2  C1  UNL     1      11.370  50.800  53.942  1.00  0.00     0.070 C 
HETATM    3  C2  UNL     1      12.253  49.973  54.470  1.00  0.00     0.112 C 
HETATM    4  N1  UNL     1      13.209  50.192  55.513  1.00  0.00    -0.357 N 
ATOM      5  H1  UNL     1      13.821  49.403  55.723  1.00  0.00     0.166 HD
HETATM    6  C3  UNL     1      13.401  51.241  56.214  1.00  0.00     0.104 C 
HETATM    7 CL2  UNL     1      14.673  51.130  57.405  1.00  0.00    -0.067 Cl
HETATM    8  C4  UNL     1      12.651  52.522  56.110  1.00  0.00     0.240 C 
HETATM    9  O1  UNL     1      12.358  52.764  54.798  1.00  0.00    -0.359 OA
HETATM   10  C5  UNL     1      11.176  52.224  54.349  1.00  0.00     0.264 C 
HETATM   11 CL3  UNL     1       9.865  52.358  55.567  1.00  0.00    -0.089 Cl
ENDROOT
TORSDOF 0
ENDMDL
