MODEL 1
REMARK VINA RESULT: -3.913154859      0.000      0.000
REMARK  0 active torsions:
REMARK  status: ('A' for Active; 'I' for Inactive)
ROOT
HETATM    1 CL1  UNL     1      12.020  50.665  55.612  1.00  0.00    -0.094 Cl
HETATM    2  C1  UNL     1      13.238  49.598  54.972  1.00  0.00     0.118 C 
HETATM    3  C2  UNL     1      14.352  49.331  55.630  1.00  0.00     0.082 C 
HETATM    4  O1  UNL     1      15.328  48.489  55.141  1.00  0.00    -0.334 OA
HETATM    5  C3  UNL     1      16.467  48.183  55.882  1.00  0.00     0.297 C 
HETATM    6  N1  UNL     1      16.353  48.426  57.276  1.00  0.00    -0.379 N 
ATOM      7  H1  UNL     1      16.988  47.936  57.905  1.00  0.00     0.160 HD
HETATM    8  C4  UNL     1      15.508  49.216  57.778  1.00  0.00     0.084 C 
HETATM    9  C5  UNL     1      14.540  49.978  56.958  1.00  0.00     0.177 C 
HETATM   10 CL2  UNL     1      15.203  51.616  56.719  1.00  0.00    -0.112 Cl
ENDROOT
TORSDOF 0
ENDMDL
MODEL 2
REMARK VINA RESULT: -3.874022443      2.523      3.396
REMARK  0 active torsions:
REMARK  status: ('A' for Active; 'I' for Inactive)
ROOT
HETATM    1 CL1  UNL     1      17.290  49.022  55.610  1.00  0.00    -0.094 Cl
HETATM    2  C1  UNL     1      15.640  48.754  55.123  1.00  0.00     0.118 C 
HETATM    3  C2  UNL     1      14.659  49.557  55.495  1.00  0.00     0.082 C 
HETATM    4  O1  UNL     1      13.346  49.363  55.120  1.00  0.00    -0.334 OA
HETATM    5  C3  UNL     1      12.343  50.257  55.483  1.00  0.00     0.297 C 
HETATM    6  N1  UNL     1      12.803  51.545  55.864  1.00  0.00    -0.379 N 
ATOM      7  H1  UNL     1      12.147  52.325  55.820  1.00  0.00     0.160 HD
HETATM    8  C4  UNL     1      13.980  51.776  56.256  1.00  0.00     0.084 C 
HETATM    9  C5  UNL     1      15.010  50.719  56.358  1.00  0.00     0.177 C 
HETATM   10 CL2  UNL     1      15.072  50.184  58.057  1.00  0.00    -0.112 Cl
ENDROOT
TORSDOF 0
ENDMDL
MODEL 3
REMARK VINA RESULT: -3.855668522      1.236      1.260
REMARK  0 active torsions:
REMARK  status: ('A' for Active; 'I' for Inactive)
ROOT
HETATM    1 CL1  UNL     1      12.097  52.472  56.291  1.00  0.00    -0.094 Cl
HETATM    2  C1  UNL     1      12.604  51.027  55.463  1.00  0.00     0.118 C 
HETATM    3  C2  UNL     1      13.626  50.302  55.879  1.00  0.00     0.082 C 
HETATM    4  O1  UNL     1      14.043  49.155  55.238  1.00  0.00    -0.334 OA
HETATM    5  C3  UNL     1      15.090  48.380  55.732  1.00  0.00     0.297 C 
HETATM    6  N1  UNL     1      15.391  48.593  57.103  1.00  0.00    -0.379 N 
ATOM      7  H1  UNL     1      15.892  47.860  57.606  1.00  0.00     0.160 HD
HETATM    8  C4  UNL     1      15.073  49.638  57.732  1.00  0.00     0.084 C 
HETATM    9  C5  UNL     1      14.346  50.761  57.099  1.00  0.00     0.177 C 
HETATM   10 CL2  UNL     1      15.549  51.993  56.636  1.00  0.00    -0.112 Cl
ENDROOT
TORSDOF 0
ENDMDL
MODEL 4
REMARK VINA RESULT: -3.785945621      1.969      2.609
REMARK  0 active torsions:
REMARK  status: ('A' for Active; 'I' for Inactive)
ROOT
HETATM    1 CL1  UNL     1      13.831  51.721  56.281  1.00  0.00    -0.094 Cl
HETATM    2  C1  UNL     1      15.237  51.215  57.175  1.00  0.00     0.118 C 
HETATM    3  C2  UNL     1      15.885  50.100  56.891  1.00  0.00     0.082 C 
HETATM    4  O1  UNL     1      17.001  49.682  57.585  1.00  0.00    -0.334 OA
HETATM    5  C3  UNL     1      17.696  48.530  57.227  1.00  0.00     0.297 C 
HETATM    6  N1  UNL     1      17.459  48.080  55.902  1.00  0.00    -0.379 N 
ATOM      7  H1  UNL     1      18.152  47.471  55.468  1.00  0.00     0.160 HD
HETATM    8  C4  UNL     1      16.437  48.395  55.232  1.00  0.00     0.084 C 
HETATM    9  C5  UNL     1      15.372  49.272  55.764  1.00  0.00     0.177 C 
HETATM   10 CL2  UNL     1      14.057  48.228  56.362  1.00  0.00    -0.112 Cl
ENDROOT
TORSDOF 0
ENDMDL
MODEL 5
REMARK VINA RESULT: -3.735683188      4.905      5.613
REMARK  0 active torsions:
REMARK  status: ('A' for Active; 'I' for Inactive)
ROOT
HETATM    1 CL1  UNL     1      11.353  49.606  51.789  1.00  0.00    -0.094 Cl
HETATM    2  C1  UNL     1      10.060  50.325  52.707  1.00  0.00     0.118 C 
HETATM    3  C2  UNL     1      10.285  51.047  53.790  1.00  0.00     0.082 C 
HETATM    4  O1  UNL     1       9.275  51.625  54.531  1.00  0.00    -0.334 OA
HETATM    5  C3  UNL     1       9.547  52.426  55.637  1.00  0.00     0.297 C 
HETATM    6  N1  UNL     1      10.868  52.944  55.685  1.00  0.00    -0.379 N 
ATOM      7  H1  UNL     1      11.040  53.774  56.254  1.00  0.00     0.160 HD
HETATM    8  C4  UNL     1      11.840  52.434  55.064  1.00  0.00     0.084 C 
HETATM    9  C5  UNL     1      11.701  51.232  54.213  1.00  0.00     0.177 C 
HETATM   10 CL2  UNL     1      12.210  49.823  55.177  1.00  0.00    -0.112 Cl
ENDROOT
TORSDOF 0
ENDMDL
