MODEL 1
REMARK VINA RESULT: -4.847390248      0.000      0.000
REMARK  6 active torsions:
REMARK  status: ('A' for Active; 'I' for Inactive)
REMARK    1  A    between atoms: C2_2  and  C3_3 
REMARK    2  A    between atoms: C3_3  and  N1_4 
REMARK    3  A    between atoms: C3_3  and  C4_8 
REMARK    4  A    between atoms: C4_8  and  C5_9 
REMARK    5  A    between atoms: C5_9  and  O1_10 
REMARK    6  A    between atoms: C5_9  and  C6_12 
ROOT
HETATM    1  C5  UNL     1       9.057  -1.522  56.099  1.00  0.00     0.164 C 
ENDROOT
BRANCH   1   2
HETATM    2  C4  UNL     1       7.993  -2.317  56.809  1.00  0.00     0.068 C 
BRANCH   2   3
HETATM    3  C3  UNL     1       6.943  -1.462  57.456  1.00  0.00     0.185 C 
BRANCH   3   4
HETATM    4  C2  UNL     1       5.608  -1.857  56.815  1.00  0.00     0.028 C 
HETATM    5  C1  UNL     1       4.975  -3.025  57.504  1.00  0.00     0.007 C 
ENDBRANCH   3   4
BRANCH   3   6
HETATM    6  N1  UNL     1       7.165  -0.054  57.324  1.00  0.00    -0.075 N 
ATOM      7  H13 UNL     1       7.841   0.156  56.590  1.00  0.00     0.274 HD
ATOM      8  H12 UNL     1       6.356   0.421  56.926  1.00  0.00     0.274 HD
ATOM      9  H11 UNL     1       7.440   0.349  58.219  1.00  0.00     0.274 HD
ENDBRANCH   3   6
ENDBRANCH   2   3
ENDBRANCH   1   2
BRANCH   1  10
HETATM   10  O1  UNL     1       8.559  -1.150  54.853  1.00  0.00    -0.392 OA
ATOM     11  H1  UNL     1       8.904  -1.755  54.207  1.00  0.00     0.210 HD
ENDBRANCH   1  10
BRANCH   1  12
HETATM   12  C6  UNL     1      10.260  -2.395  55.886  1.00  0.00     0.170 C 
HETATM   13  C7  UNL     1      10.067  -3.271  54.696  1.00  0.00     0.060 C 
HETATM   14  O2  UNL     1      10.466  -3.108  57.061  1.00  0.00    -0.365 OA
HETATM   15  C8  UNL     1      11.523  -3.972  57.031  1.00  0.00     0.196 C 
HETATM   16  C9  UNL     1      12.614  -3.663  56.070  1.00  0.00     0.205 C 
HETATM   17  O3  UNL     1      12.696  -2.302  55.692  1.00  0.00    -0.317 OA
HETATM   18  C10 UNL     1      11.502  -1.595  55.677  1.00  0.00     0.296 C 
HETATM   19  O4  UNL     1      11.419  -0.353  55.501  1.00  0.00    -0.262 OA
ENDBRANCH   1  12
TORSDOF 6
ENDMDL
MODEL 2
REMARK VINA RESULT: -4.762555066      2.607      5.308
REMARK  6 active torsions:
REMARK  status: ('A' for Active; 'I' for Inactive)
REMARK    1  A    between atoms: C2_2  and  C3_3 
REMARK    2  A    between atoms: C3_3  and  N1_4 
REMARK    3  A    between atoms: C3_3  and  C4_8 
REMARK    4  A    between atoms: C4_8  and  C5_9 
REMARK    5  A    between atoms: C5_9  and  O1_10 
REMARK    6  A    between atoms: C5_9  and  C6_12 
ROOT
HETATM    1  C5  UNL     1      10.325  -2.583  55.605  1.00  0.00     0.164 C 
ENDROOT
BRANCH   1   2
HETATM    2  C4  UNL     1      11.777  -2.180  55.622  1.00  0.00     0.068 C 
BRANCH   2   3
HETATM    3  C3  UNL     1      12.683  -3.242  56.173  1.00  0.00     0.185 C 
BRANCH   3   4
HETATM    4  C2  UNL     1      13.892  -3.309  55.234  1.00  0.00     0.028 C 
HETATM    5  C1  UNL     1      14.635  -4.601  55.362  1.00  0.00     0.007 C 
ENDBRANCH   3   4
BRANCH   3   6
HETATM    6  N1  UNL     1      12.073  -4.531  56.297  1.00  0.00    -0.075 N 
ATOM      7  H13 UNL     1      12.196  -4.921  57.231  1.00  0.00     0.274 HD
ATOM      8  H12 UNL     1      11.055  -4.472  56.290  1.00  0.00     0.274 HD
ATOM      9  H11 UNL     1      12.422  -5.161  55.575  1.00  0.00     0.274 HD
ENDBRANCH   3   6
ENDBRANCH   2   3
ENDBRANCH   1   2
BRANCH   1  10
HETATM   10  O1  UNL     1      10.047  -3.141  54.361  1.00  0.00    -0.392 OA
ATOM     11  H1  UNL     1      10.366  -2.546  53.693  1.00  0.00     0.210 HD
ENDBRANCH   1  10
BRANCH   1  12
HETATM   12  C6  UNL     1       9.475  -1.356  55.773  1.00  0.00     0.170 C 
HETATM   13  C7  UNL     1       8.482  -1.251  54.667  1.00  0.00     0.060 C 
HETATM   14  O2  UNL     1      10.335  -0.265  55.841  1.00  0.00    -0.365 OA
HETATM   15  C8  UNL     1       9.716   0.945  55.979  1.00  0.00     0.196 C 
HETATM   16  C9  UNL     1       8.364   0.940  56.595  1.00  0.00     0.205 C 
HETATM   17  O3  UNL     1       8.096  -0.181  57.414  1.00  0.00    -0.317 OA
HETATM   18  C10 UNL     1       8.732  -1.364  57.066  1.00  0.00     0.296 C 
HETATM   19  O4  UNL     1       8.711  -2.409  57.765  1.00  0.00    -0.262 OA
ENDBRANCH   1  12
TORSDOF 6
ENDMDL
MODEL 3
REMARK VINA RESULT: -4.676338985      2.198      5.140
REMARK  6 active torsions:
REMARK  status: ('A' for Active; 'I' for Inactive)
REMARK    1  A    between atoms: C2_2  and  C3_3 
REMARK    2  A    between atoms: C3_3  and  N1_4 
REMARK    3  A    between atoms: C3_3  and  C4_8 
REMARK    4  A    between atoms: C4_8  and  C5_9 
REMARK    5  A    between atoms: C5_9  and  O1_10 
REMARK    6  A    between atoms: C5_9  and  C6_12 
ROOT
HETATM    1  C5  UNL     1       9.444  -1.699  55.765  1.00  0.00     0.164 C 
ENDROOT
BRANCH   1   2
HETATM    2  C4  UNL     1      10.243  -2.721  56.532  1.00  0.00     0.068 C 
BRANCH   2   3
HETATM    3  C3  UNL     1      11.287  -3.405  55.700  1.00  0.00     0.185 C 
BRANCH   3   4
HETATM    4  C2  UNL     1      12.024  -4.368  56.637  1.00  0.00     0.028 C 
HETATM    5  C1  UNL     1      13.253  -4.941  56.005  1.00  0.00     0.007 C 
ENDBRANCH   3   4
BRANCH   3   6
HETATM    6  N1  UNL     1      12.213  -2.516  55.067  1.00  0.00    -0.075 N 
ATOM      7  H13 UNL     1      13.179  -2.804  55.218  1.00  0.00     0.274 HD
ATOM      8  H12 UNL     1      12.187  -2.602  54.051  1.00  0.00     0.274 HD
ATOM      9  H11 UNL     1      12.052  -1.556  55.371  1.00  0.00     0.274 HD
ENDBRANCH   3   6
ENDBRANCH   2   3
ENDBRANCH   1   2
BRANCH   1  10
HETATM   10  O1  UNL     1      10.151  -0.500  55.777  1.00  0.00    -0.392 OA
ATOM     11  H1  UNL     1       9.680   0.125  55.239  1.00  0.00     0.210 HD
ENDBRANCH   1  10
BRANCH   1  12
HETATM   12  C6  UNL     1       8.132  -1.480  56.463  1.00  0.00     0.170 C 
HETATM   13  C7  UNL     1       8.351  -0.923  57.828  1.00  0.00     0.060 C 
HETATM   14  O2  UNL     1       7.460  -2.697  56.470  1.00  0.00    -0.365 OA
HETATM   15  C8  UNL     1       6.243  -2.677  57.089  1.00  0.00     0.196 C 
HETATM   16  C9  UNL     1       5.544  -1.367  57.152  1.00  0.00     0.205 C 
HETATM   17  O3  UNL     1       5.939  -0.443  56.156  1.00  0.00    -0.317 OA
HETATM   18  C10 UNL     1       7.250  -0.538  55.713  1.00  0.00     0.296 C 
HETATM   19  O4  UNL     1       7.717   0.110  54.742  1.00  0.00    -0.262 OA
ENDBRANCH   1  12
TORSDOF 6
ENDMDL
MODEL 4
REMARK VINA RESULT: -4.613399970      2.981      5.997
REMARK  6 active torsions:
REMARK  status: ('A' for Active; 'I' for Inactive)
REMARK    1  A    between atoms: C2_2  and  C3_3 
REMARK    2  A    between atoms: C3_3  and  N1_4 
REMARK    3  A    between atoms: C3_3  and  C4_8 
REMARK    4  A    between atoms: C4_8  and  C5_9 
REMARK    5  A    between atoms: C5_9  and  O1_10 
REMARK    6  A    between atoms: C5_9  and  C6_12 
ROOT
HETATM    1  C5  UNL     1      12.671  -2.791  55.375  1.00  0.00     0.164 C 
ENDROOT
BRANCH   1   2
HETATM    2  C4  UNL     1      13.050  -4.193  55.774  1.00  0.00     0.068 C 
BRANCH   2   3
HETATM    3  C3  UNL     1      14.281  -4.697  55.080  1.00  0.00     0.185 C 
BRANCH   3   4
HETATM    4  C2  UNL     1      14.708  -5.968  55.825  1.00  0.00     0.028 C 
HETATM    5  C1  UNL     1      16.151  -6.291  55.606  1.00  0.00     0.007 C 
ENDBRANCH   3   4
BRANCH   3   6
HETATM    6  N1  UNL     1      15.359  -3.757  55.035  1.00  0.00    -0.075 N 
ATOM      7  H13 UNL     1      15.133  -2.896  55.531  1.00  0.00     0.274 HD
ATOM      8  H12 UNL     1      16.149  -4.058  55.605  1.00  0.00     0.274 HD
ATOM      9  H11 UNL     1      15.635  -3.578  54.069  1.00  0.00     0.274 HD
ENDBRANCH   3   6
ENDBRANCH   2   3
ENDBRANCH   1   2
BRANCH   1  10
HETATM   10  O1  UNL     1      13.380  -1.905  56.181  1.00  0.00    -0.392 OA
ATOM     11  H1  UNL     1      12.801  -1.610  56.874  1.00  0.00     0.210 HD
ENDBRANCH   1  10
BRANCH   1  12
HETATM   12  C6  UNL     1      11.204  -2.590  55.628  1.00  0.00     0.170 C 
HETATM   13  C7  UNL     1      10.394  -3.478  54.748  1.00  0.00     0.060 C 
HETATM   14  O2  UNL     1      10.934  -1.239  55.438  1.00  0.00    -0.365 OA
HETATM   15  C8  UNL     1       9.627  -0.884  55.615  1.00  0.00     0.196 C 
HETATM   16  C9  UNL     1       8.810  -1.757  56.498  1.00  0.00     0.205 C 
HETATM   17  O3  UNL     1       9.556  -2.511  57.433  1.00  0.00    -0.317 OA
HETATM   18  C10 UNL     1      10.837  -2.878  57.045  1.00  0.00     0.296 C 
HETATM   19  O4  UNL     1      11.676  -3.425  57.806  1.00  0.00    -0.262 OA
ENDBRANCH   1  12
TORSDOF 6
ENDMDL
MODEL 5
REMARK VINA RESULT: -4.477280386      3.756      6.889
REMARK  6 active torsions:
REMARK  status: ('A' for Active; 'I' for Inactive)
REMARK    1  A    between atoms: C2_2  and  C3_3 
REMARK    2  A    between atoms: C3_3  and  N1_4 
REMARK    3  A    between atoms: C3_3  and  C4_8 
REMARK    4  A    between atoms: C4_8  and  C5_9 
REMARK    5  A    between atoms: C5_9  and  O1_10 
REMARK    6  A    between atoms: C5_9  and  C6_12 
ROOT
HETATM    1  C5  UNL     1      13.420  -4.479  56.093  1.00  0.00     0.164 C 
ENDROOT
BRANCH   1   2
HETATM    2  C4  UNL     1      14.387  -4.113  54.998  1.00  0.00     0.068 C 
BRANCH   2   3
HETATM    3  C3  UNL     1      15.769  -4.654  55.218  1.00  0.00     0.185 C 
BRANCH   3   4
HETATM    4  C2  UNL     1      16.519  -4.477  53.894  1.00  0.00     0.028 C 
HETATM    5  C1  UNL     1      17.969  -4.828  54.015  1.00  0.00     0.007 C 
ENDBRANCH   3   4
BRANCH   3   6
HETATM    6  N1  UNL     1      15.807  -6.022  55.637  1.00  0.00    -0.075 N 
ATOM      7  H13 UNL     1      15.071  -6.574  55.198  1.00  0.00     0.274 HD
ATOM      8  H12 UNL     1      16.614  -6.514  55.254  1.00  0.00     0.274 HD
ATOM      9  H11 UNL     1      15.772  -6.085  56.655  1.00  0.00     0.274 HD
ENDBRANCH   3   6
ENDBRANCH   2   3
ENDBRANCH   1   2
BRANCH   1  10
HETATM   10  O1  UNL     1      13.030  -5.802  55.901  1.00  0.00    -0.392 OA
ATOM     11  H1  UNL     1      12.198  -5.931  56.341  1.00  0.00     0.210 HD
ENDBRANCH   1  10
BRANCH   1  12
HETATM   12  C6  UNL     1      12.202  -3.607  55.983  1.00  0.00     0.170 C 
HETATM   13  C7  UNL     1      11.238  -4.176  54.999  1.00  0.00     0.060 C 
HETATM   14  O2  UNL     1      12.638  -2.331  55.645  1.00  0.00    -0.365 OA
HETATM   15  C8  UNL     1      11.644  -1.408  55.487  1.00  0.00     0.196 C 
HETATM   16  C9  UNL     1      10.371  -1.664  56.210  1.00  0.00     0.205 C 
HETATM   17  O3  UNL     1      10.497  -2.502  57.342  1.00  0.00    -0.317 OA
HETATM   18  C10 UNL     1      11.499  -3.460  57.290  1.00  0.00     0.296 C 
HETATM   19  O4  UNL     1      11.833  -4.187  58.261  1.00  0.00    -0.262 OA
ENDBRANCH   1  12
TORSDOF 6
ENDMDL
