MODEL 1
REMARK VINA RESULT: -4.896261278      0.000      0.000
REMARK  7 active torsions:
REMARK  status: ('A' for Active; 'I' for Inactive)
REMARK    1  A    between atoms: C5_6  and  C6_7 
REMARK    2  A    between atoms: C6_7  and  O2_8 
REMARK    3  A    between atoms: O2_8  and  C7_9 
REMARK    4  A    between atoms: C7_9  and  C8_10 
REMARK    5  A    between atoms: C8_10  and  O3_12 
REMARK    6  A    between atoms: C8_10  and  C10_14 
REMARK    7  A    between atoms: C10_14  and  N1_15 
ROOT
HETATM    1  C7  UNL     1      11.796  -3.106  56.641  1.00  0.00     0.206 C 
ENDROOT
BRANCH   1   2
HETATM    2  O2  UNL     1      12.602  -3.770  55.801  1.00  0.00    -0.386 OA
BRANCH   2   3
HETATM    3  C6  UNL     1      13.855  -3.308  55.642  1.00  0.00     0.201 C 
BRANCH   3   4
HETATM    4  C5  UNL     1      14.659  -4.317  54.798  1.00  0.00     0.169 C 
HETATM    5  C4  UNL     1      14.317  -5.728  55.142  1.00  0.00     0.201 C 
HETATM    6  O1  UNL     1      15.210  -6.315  56.027  1.00  0.00    -0.386 OA
HETATM    7  C3  UNL     1      16.522  -6.215  55.645  1.00  0.00     0.199 C 
HETATM    8  C2  UNL     1      16.659  -5.243  54.503  1.00  0.00     0.141 C 
HETATM    9  C1  UNL     1      18.063  -5.009  54.070  1.00  0.00     0.042 C 
HETATM   10  O4  UNL     1      16.026  -4.057  54.901  1.00  0.00    -0.375 OA
ENDBRANCH   3   4
ENDBRANCH   2   3
ENDBRANCH   1   2
BRANCH   1  11
HETATM   11  C8  UNL     1      10.647  -2.413  55.991  1.00  0.00     0.099 C 
HETATM   12  C9  UNL     1      10.259  -3.225  54.753  1.00  0.00     0.050 C 
BRANCH  11  13
HETATM   13  O3  UNL     1      10.994  -1.150  55.563  1.00  0.00    -0.386 OA
ATOM     14  H3  UNL     1      11.541  -1.181  54.787  1.00  0.00     0.210 HD
ENDBRANCH  11  13
BRANCH  11  15
HETATM   15  C10 UNL     1       9.452  -2.352  56.946  1.00  0.00     0.269 C 
BRANCH  15  16
HETATM   16  N1  UNL     1       8.246  -1.997  56.247  1.00  0.00    -0.076 N 
ATOM     17  H13 UNL     1       8.280  -1.037  55.904  1.00  0.00     0.274 HD
ATOM     18  H12 UNL     1       8.175  -2.480  55.351  1.00  0.00     0.274 HD
ATOM     19  H11 UNL     1       7.422  -2.159  56.826  1.00  0.00     0.274 HD
ENDBRANCH  15  16
ENDBRANCH  11  15
ENDBRANCH   1  11
TORSDOF 7
ENDMDL
MODEL 2
REMARK VINA RESULT: -4.751540722      1.051      1.193
REMARK  7 active torsions:
REMARK  status: ('A' for Active; 'I' for Inactive)
REMARK    1  A    between atoms: C5_6  and  C6_7 
REMARK    2  A    between atoms: C6_7  and  O2_8 
REMARK    3  A    between atoms: O2_8  and  C7_9 
REMARK    4  A    between atoms: C7_9  and  C8_10 
REMARK    5  A    between atoms: C8_10  and  O3_12 
REMARK    6  A    between atoms: C8_10  and  C10_14 
REMARK    7  A    between atoms: C10_14  and  N1_15 
ROOT
HETATM    1  C7  UNL     1      12.116  -2.395  55.156  1.00  0.00     0.206 C 
ENDROOT
BRANCH   1   2
HETATM    2  O2  UNL     1      12.912  -3.432  55.452  1.00  0.00    -0.386 OA
BRANCH   2   3
HETATM    3  C6  UNL     1      14.240  -3.228  55.425  1.00  0.00     0.201 C 
BRANCH   3   4
HETATM    4  C5  UNL     1      14.909  -4.375  54.641  1.00  0.00     0.169 C 
HETATM    5  C4  UNL     1      14.498  -5.713  55.154  1.00  0.00     0.201 C 
HETATM    6  O1  UNL     1      15.410  -6.275  56.035  1.00  0.00    -0.386 OA
HETATM    7  C3  UNL     1      16.694  -6.314  55.560  1.00  0.00     0.199 C 
HETATM    8  C2  UNL     1      16.814  -5.475  54.316  1.00  0.00     0.141 C 
HETATM    9  C1  UNL     1      18.196  -5.392  53.769  1.00  0.00     0.042 C 
HETATM   10  O4  UNL     1      16.295  -4.210  54.627  1.00  0.00    -0.375 OA
ENDBRANCH   3   4
ENDBRANCH   2   3
ENDBRANCH   1   2
BRANCH   1  11
HETATM   11  C8  UNL     1      10.684  -2.578  55.530  1.00  0.00     0.099 C 
HETATM   12  C9  UNL     1      10.649  -3.232  56.913  1.00  0.00     0.050 C 
BRANCH  11  13
HETATM   13  O3  UNL     1      10.036  -3.423  54.657  1.00  0.00    -0.386 OA
ATOM     14  H3  UNL     1      10.333  -3.299  53.763  1.00  0.00     0.210 HD
ENDBRANCH  11  13
BRANCH  11  15
HETATM   15  C10 UNL     1       9.975  -1.222  55.599  1.00  0.00     0.269 C 
BRANCH  15  16
HETATM   16  N1  UNL     1       8.626  -1.316  55.108  1.00  0.00    -0.076 N 
ATOM     17  H13 UNL     1       8.430  -2.242  54.726  1.00  0.00     0.274 HD
ATOM     18  H12 UNL     1       7.948  -1.314  55.870  1.00  0.00     0.274 HD
ATOM     19  H11 UNL     1       8.429  -0.581  54.428  1.00  0.00     0.274 HD
ENDBRANCH  15  16
ENDBRANCH  11  15
ENDBRANCH   1  11
TORSDOF 7
ENDMDL
MODEL 3
REMARK VINA RESULT: -4.713659443      1.679      2.742
REMARK  7 active torsions:
REMARK  status: ('A' for Active; 'I' for Inactive)
REMARK    1  A    between atoms: C5_6  and  C6_7 
REMARK    2  A    between atoms: C6_7  and  O2_8 
REMARK    3  A    between atoms: O2_8  and  C7_9 
REMARK    4  A    between atoms: C7_9  and  C8_10 
REMARK    5  A    between atoms: C8_10  and  O3_12 
REMARK    6  A    between atoms: C8_10  and  C10_14 
REMARK    7  A    between atoms: C10_14  and  N1_15 
ROOT
HETATM    1  C7  UNL     1       9.665  -2.121  55.248  1.00  0.00     0.206 C 
ENDROOT
BRANCH   1   2
HETATM    2  O2  UNL     1      10.693  -2.599  55.964  1.00  0.00    -0.386 OA
BRANCH   2   3
HETATM    3  C6  UNL     1      11.115  -3.846  55.695  1.00  0.00     0.201 C 
BRANCH   3   4
HETATM    4  C5  UNL     1      12.574  -3.996  56.168  1.00  0.00     0.169 C 
HETATM    5  C4  UNL     1      13.422  -2.850  55.729  1.00  0.00     0.201 C 
HETATM    6  O1  UNL     1      14.154  -3.110  54.581  1.00  0.00    -0.386 OA
HETATM    7  C3  UNL     1      14.892  -4.262  54.636  1.00  0.00     0.199 C 
HETATM    8  C2  UNL     1      14.484  -5.084  55.830  1.00  0.00     0.141 C 
HETATM    9  C1  UNL     1      15.179  -6.396  55.932  1.00  0.00     0.042 C 
HETATM   10  O4  UNL     1      13.091  -5.228  55.767  1.00  0.00    -0.375 OA
ENDBRANCH   3   4
ENDBRANCH   2   3
ENDBRANCH   1   2
BRANCH   1  11
HETATM   11  C8  UNL     1       9.065  -0.862  55.777  1.00  0.00     0.099 C 
HETATM   12  C9  UNL     1       7.903  -0.483  54.855  1.00  0.00     0.050 C 
BRANCH  11  13
HETATM   13  O3  UNL     1       9.966   0.179  55.754  1.00  0.00    -0.386 OA
ATOM     14  H3  UNL     1      10.005   0.590  54.898  1.00  0.00     0.210 HD
ENDBRANCH  11  13
BRANCH  11  15
HETATM   15  C10 UNL     1       8.527  -1.084  57.194  1.00  0.00     0.269 C 
BRANCH  15  16
HETATM   16  N1  UNL     1       7.879  -2.363  57.310  1.00  0.00    -0.076 N 
ATOM     17  H13 UNL     1       7.431  -2.475  58.219  1.00  0.00     0.274 HD
ATOM     18  H12 UNL     1       7.050  -2.418  56.719  1.00  0.00     0.274 HD
ATOM     19  H11 UNL     1       8.530  -3.125  57.115  1.00  0.00     0.274 HD
ENDBRANCH  15  16
ENDBRANCH  11  15
ENDBRANCH   1  11
TORSDOF 7
ENDMDL
MODEL 4
REMARK VINA RESULT: -4.681039777      2.333      6.152
REMARK  7 active torsions:
REMARK  status: ('A' for Active; 'I' for Inactive)
REMARK    1  A    between atoms: C5_6  and  C6_7 
REMARK    2  A    between atoms: C6_7  and  O2_8 
REMARK    3  A    between atoms: O2_8  and  C7_9 
REMARK    4  A    between atoms: C7_9  and  C8_10 
REMARK    5  A    between atoms: C8_10  and  O3_12 
REMARK    6  A    between atoms: C8_10  and  C10_14 
REMARK    7  A    between atoms: C10_14  and  N1_15 
ROOT
HETATM    1  C7  UNL     1      15.379  -3.860  55.154  1.00  0.00     0.206 C 
ENDROOT
BRANCH   1   2
HETATM    2  O2  UNL     1      14.093  -3.745  55.515  1.00  0.00    -0.386 OA
BRANCH   2   3
HETATM    3  C6  UNL     1      13.402  -2.695  55.037  1.00  0.00     0.201 C 
BRANCH   3   4
HETATM    4  C5  UNL     1      12.103  -2.537  55.852  1.00  0.00     0.169 C 
HETATM    5  C4  UNL     1      11.237  -3.748  55.759  1.00  0.00     0.201 C 
HETATM    6  O1  UNL     1      10.226  -3.637  54.816  1.00  0.00    -0.386 OA
HETATM    7  C3  UNL     1       9.463  -2.507  54.946  1.00  0.00     0.199 C 
HETATM    8  C2  UNL     1      10.112  -1.549  55.909  1.00  0.00     0.141 C 
HETATM    9  C1  UNL     1       9.393  -0.254  56.056  1.00  0.00     0.042 C 
HETATM   10  O4  UNL     1      11.434  -1.372  55.477  1.00  0.00    -0.375 OA
ENDBRANCH   3   4
ENDBRANCH   2   3
ENDBRANCH   1   2
BRANCH   1  11
HETATM   11  C8  UNL     1      15.825  -5.252  54.859  1.00  0.00     0.099 C 
HETATM   12  C9  UNL     1      17.356  -5.256  54.860  1.00  0.00     0.050 C 
BRANCH  11  13
HETATM   13  O3  UNL     1      15.413  -5.662  53.610  1.00  0.00    -0.386 OA
ATOM     14  H3  UNL     1      16.074  -6.192  53.179  1.00  0.00     0.210 HD
ENDBRANCH  11  13
BRANCH  11  15
HETATM   15  C10 UNL     1      15.320  -6.213  55.939  1.00  0.00     0.269 C 
BRANCH  15  16
HETATM   16  N1  UNL     1      13.930  -6.530  55.743  1.00  0.00    -0.076 N 
ATOM     17  H13 UNL     1      13.425  -5.753  55.317  1.00  0.00     0.274 HD
ATOM     18  H12 UNL     1      13.803  -7.223  55.006  1.00  0.00     0.274 HD
ATOM     19  H11 UNL     1      13.494  -6.827  56.616  1.00  0.00     0.274 HD
ENDBRANCH  15  16
ENDBRANCH  11  15
ENDBRANCH   1  11
TORSDOF 7
ENDMDL
MODEL 5
REMARK VINA RESULT: -4.637542514      1.813      2.964
REMARK  7 active torsions:
REMARK  status: ('A' for Active; 'I' for Inactive)
REMARK    1  A    between atoms: C5_6  and  C6_7 
REMARK    2  A    between atoms: C6_7  and  O2_8 
REMARK    3  A    between atoms: O2_8  and  C7_9 
REMARK    4  A    between atoms: C7_9  and  C8_10 
REMARK    5  A    between atoms: C8_10  and  O3_12 
REMARK    6  A    between atoms: C8_10  and  C10_14 
REMARK    7  A    between atoms: C10_14  and  N1_15 
ROOT
HETATM    1  C7  UNL     1       9.827  -2.105  56.629  1.00  0.00     0.206 C 
ENDROOT
BRANCH   1   2
HETATM    2  O2  UNL     1      10.680  -2.445  55.652  1.00  0.00    -0.386 OA
BRANCH   2   3
HETATM    3  C6  UNL     1      11.026  -3.740  55.548  1.00  0.00     0.201 C 
BRANCH   3   4
HETATM    4  C5  UNL     1      12.451  -3.926  56.107  1.00  0.00     0.169 C 
HETATM    5  C4  UNL     1      13.347  -2.793  55.737  1.00  0.00     0.201 C 
HETATM    6  O1  UNL     1      14.142  -3.053  54.631  1.00  0.00    -0.386 OA
HETATM    7  C3  UNL     1      14.852  -4.222  54.716  1.00  0.00     0.199 C 
HETATM    8  C2  UNL     1      14.355  -5.050  55.872  1.00  0.00     0.141 C 
HETATM    9  C1  UNL     1      15.015  -6.377  55.997  1.00  0.00     0.042 C 
HETATM   10  O4  UNL     1      12.966  -5.164  55.721  1.00  0.00    -0.375 OA
ENDBRANCH   3   4
ENDBRANCH   2   3
ENDBRANCH   1   2
BRANCH   1  11
HETATM   11  C8  UNL     1       8.636  -1.330  56.178  1.00  0.00     0.099 C 
HETATM   12  C9  UNL     1       7.390  -2.069  56.673  1.00  0.00     0.050 C 
BRANCH  11  13
HETATM   13  O3  UNL     1       8.560  -1.269  54.804  1.00  0.00    -0.386 OA
ATOM     14  H3  UNL     1       7.659  -1.280  54.502  1.00  0.00     0.210 HD
ENDBRANCH  11  13
BRANCH  11  15
HETATM   15  C10 UNL     1       8.657   0.078  56.782  1.00  0.00     0.269 C 
BRANCH  15  16
HETATM   16  N1  UNL     1       9.336   1.005  55.916  1.00  0.00    -0.076 N 
ATOM     17  H13 UNL     1      10.333   0.798  55.854  1.00  0.00     0.274 HD
ATOM     18  H12 UNL     1       9.084   0.857  54.939  1.00  0.00     0.274 HD
ATOM     19  H11 UNL     1       9.169   1.969  56.205  1.00  0.00     0.274 HD
ENDBRANCH  15  16
ENDBRANCH  11  15
ENDBRANCH   1  11
TORSDOF 7
ENDMDL
