MODEL 1
REMARK VINA RESULT: -4.088532832      0.000      0.000
REMARK  7 active torsions:
REMARK  status: ('A' for Active; 'I' for Inactive)
REMARK    1  A    between atoms: O1_2  and  C2_3 
REMARK    2  A    between atoms: C2_3  and  C3_5 
REMARK    3  A    between atoms: C7_10  and  C8_11 
REMARK    4  A    between atoms: C8_11  and  C9_12 
REMARK    5  A    between atoms: C9_12  and  N1_13 
REMARK    6  A    between atoms: C9_12  and  C10_17 
REMARK    7  A    between atoms: C10_17  and  O4_18 
ROOT
HETATM    1  C3  UNL     1       7.731  -1.843  56.938  1.00  0.00     0.113 C 
HETATM    2  C4  UNL     1       8.927  -1.460  57.732  1.00  0.00     0.182 C 
HETATM    3  O3  UNL     1      10.042  -2.085  57.283  1.00  0.00    -0.390 OA
HETATM    4  C5  UNL     1      10.301  -2.123  55.947  1.00  0.00     0.168 C 
HETATM    5  C6  UNL     1       9.091  -2.284  55.077  1.00  0.00     0.032 C 
HETATM    6  C7  UNL     1       7.971  -1.351  55.486  1.00  0.00     0.005 C 
ENDROOT
BRANCH   6   7
HETATM    7  C8  UNL     1       8.353   0.060  55.472  1.00  0.00     0.040 C 
BRANCH   7   8
HETATM    8  C9  UNL     1       7.363   1.061  55.007  1.00  0.00     0.207 C 
BRANCH   8   9
HETATM    9  N1  UNL     1       6.173   0.296  54.479  1.00  0.00    -0.073 N 
ATOM     10  H13 UNL     1       6.071   0.364  53.466  1.00  0.00     0.274 HD
ATOM     11  H12 UNL     1       6.293  -0.716  54.531  1.00  0.00     0.274 HD
ATOM     12  H11 UNL     1       5.353   0.629  54.987  1.00  0.00     0.274 HD
ENDBRANCH   8   9
BRANCH   8  13
HETATM   13  C10 UNL     1       6.858   2.102  55.932  1.00  0.00     0.196 C 
BRANCH  13  14
HETATM   14  O4  UNL     1       7.668   2.125  57.123  1.00  0.00    -0.399 OA
ATOM     15  H4  UNL     1       7.179   2.523  57.833  1.00  0.00     0.209 HD
ENDBRANCH  13  14
ENDBRANCH   8  13
ENDBRANCH   7   8
ENDBRANCH   6   7
BRANCH   1  16
HETATM   16  C2  UNL     1       6.462  -1.305  57.461  1.00  0.00     0.265 C 
HETATM   17  O2  UNL     1       6.354  -0.461  58.385  1.00  0.00    -0.265 OA
BRANCH  16  18
HETATM   18  O1  UNL     1       5.276  -1.757  56.900  1.00  0.00    -0.326 OA
HETATM   19  C1  UNL     1       4.794  -3.061  57.013  1.00  0.00     0.213 C 
ENDBRANCH  16  18
ENDBRANCH   1  16
TORSDOF 7
ENDMDL
MODEL 2
REMARK VINA RESULT: -4.020226764      1.794      4.018
REMARK  7 active torsions:
REMARK  status: ('A' for Active; 'I' for Inactive)
REMARK    1  A    between atoms: O1_2  and  C2_3 
REMARK    2  A    between atoms: C2_3  and  C3_5 
REMARK    3  A    between atoms: C7_10  and  C8_11 
REMARK    4  A    between atoms: C8_11  and  C9_12 
REMARK    5  A    between atoms: C9_12  and  N1_13 
REMARK    6  A    between atoms: C9_12  and  C10_17 
REMARK    7  A    between atoms: C10_17  and  O4_18 
ROOT
HETATM    1  C3  UNL     1       9.241  -1.277  55.289  1.00  0.00     0.113 C 
HETATM    2  C4  UNL     1       9.629  -0.231  56.269  1.00  0.00     0.182 C 
HETATM    3  O3  UNL     1       9.087   0.971  55.955  1.00  0.00    -0.390 OA
HETATM    4  C5  UNL     1       7.771   1.047  55.613  1.00  0.00     0.168 C 
HETATM    5  C6  UNL     1       7.264  -0.108  54.805  1.00  0.00     0.032 C 
HETATM    6  C7  UNL     1       7.700  -1.439  55.381  1.00  0.00     0.005 C 
ENDROOT
BRANCH   6   7
HETATM    7  C8  UNL     1       7.280  -1.639  56.767  1.00  0.00     0.040 C 
BRANCH   7   8
HETATM    8  C9  UNL     1       5.830  -1.665  57.075  1.00  0.00     0.207 C 
BRANCH   8   9
HETATM    9  N1  UNL     1       5.414  -3.115  57.134  1.00  0.00    -0.073 N 
ATOM     10  H13 UNL     1       4.962  -3.366  58.013  1.00  0.00     0.274 HD
ATOM     11  H12 UNL     1       4.630  -3.331  56.518  1.00  0.00     0.274 HD
ATOM     12  H11 UNL     1       6.244  -3.674  56.937  1.00  0.00     0.274 HD
ENDBRANCH   8   9
BRANCH   8  13
HETATM   13  C10 UNL     1       5.309  -0.995  58.289  1.00  0.00     0.196 C 
BRANCH  13  14
HETATM   14  O4  UNL     1       6.327  -0.141  58.845  1.00  0.00    -0.399 OA
ATOM     15  H4  UNL     1       6.111   0.068  59.746  1.00  0.00     0.209 HD
ENDBRANCH  13  14
ENDBRANCH   8  13
ENDBRANCH   7   8
ENDBRANCH   6   7
BRANCH   1  16
HETATM   16  C2  UNL     1       9.908  -2.575  55.496  1.00  0.00     0.265 C 
HETATM   17  O2  UNL     1      10.014  -3.485  54.636  1.00  0.00    -0.265 OA
BRANCH  16  18
HETATM   18  O1  UNL     1      10.475  -2.833  56.735  1.00  0.00    -0.326 OA
HETATM   19  C1  UNL     1      11.647  -3.563  56.932  1.00  0.00     0.213 C 
ENDBRANCH  16  18
ENDBRANCH   1  16
TORSDOF 7
ENDMDL
MODEL 3
REMARK VINA RESULT: -3.952166980      0.694      1.265
REMARK  7 active torsions:
REMARK  status: ('A' for Active; 'I' for Inactive)
REMARK    1  A    between atoms: O1_2  and  C2_3 
REMARK    2  A    between atoms: C2_3  and  C3_5 
REMARK    3  A    between atoms: C7_10  and  C8_11 
REMARK    4  A    between atoms: C8_11  and  C9_12 
REMARK    5  A    between atoms: C9_12  and  N1_13 
REMARK    6  A    between atoms: C9_12  and  C10_17 
REMARK    7  A    between atoms: C10_17  and  O4_18 
ROOT
HETATM    1  C3  UNL     1       7.924  -2.186  56.713  1.00  0.00     0.113 C 
HETATM    2  C4  UNL     1       9.044  -1.828  57.621  1.00  0.00     0.182 C 
HETATM    3  O3  UNL     1      10.212  -2.382  57.213  1.00  0.00    -0.390 OA
HETATM    4  C5  UNL     1      10.569  -2.312  55.901  1.00  0.00     0.168 C 
HETATM    5  C6  UNL     1       9.432  -2.444  54.933  1.00  0.00     0.032 C 
HETATM    6  C7  UNL     1       8.252  -1.579  55.323  1.00  0.00     0.005 C 
ENDROOT
BRANCH   6   7
HETATM    7  C8  UNL     1       8.583  -0.160  55.440  1.00  0.00     0.040 C 
BRANCH   7   8
HETATM    8  C9  UNL     1       7.616   0.841  54.929  1.00  0.00     0.207 C 
BRANCH   8   9
HETATM    9  N1  UNL     1       6.410   0.080  54.433  1.00  0.00    -0.073 N 
ATOM     10  H13 UNL     1       5.621   0.685  54.205  1.00  0.00     0.274 HD
ATOM     11  H12 UNL     1       6.543  -0.317  53.503  1.00  0.00     0.274 HD
ATOM     12  H11 UNL     1       6.185  -0.621  55.139  1.00  0.00     0.274 HD
ENDBRANCH   8   9
BRANCH   8  13
HETATM   13  C10 UNL     1       7.133   1.933  55.805  1.00  0.00     0.196 C 
BRANCH  13  14
HETATM   14  O4  UNL     1       7.894   1.945  57.028  1.00  0.00    -0.399 OA
ATOM     15  H4  UNL     1       8.737   1.532  56.884  1.00  0.00     0.209 HD
ENDBRANCH  13  14
ENDBRANCH   8  13
ENDBRANCH   7   8
ENDBRANCH   6   7
BRANCH   1  16
HETATM   16  C2  UNL     1       6.602  -1.729  57.176  1.00  0.00     0.265 C 
HETATM   17  O2  UNL     1       5.497  -2.177  56.780  1.00  0.00    -0.265 OA
BRANCH  16  18
HETATM   18  O1  UNL     1       6.551  -0.723  58.129  1.00  0.00    -0.326 OA
HETATM   19  C1  UNL     1       5.403   0.000  58.455  1.00  0.00     0.213 C 
ENDBRANCH  16  18
ENDBRANCH   1  16
TORSDOF 7
ENDMDL
MODEL 4
REMARK VINA RESULT: -3.940665924      1.226      1.235
REMARK  7 active torsions:
REMARK  status: ('A' for Active; 'I' for Inactive)
REMARK    1  A    between atoms: O1_2  and  C2_3 
REMARK    2  A    between atoms: C2_3  and  C3_5 
REMARK    3  A    between atoms: C7_10  and  C8_11 
REMARK    4  A    between atoms: C8_11  and  C9_12 
REMARK    5  A    between atoms: C9_12  and  N1_13 
REMARK    6  A    between atoms: C9_12  and  C10_17 
REMARK    7  A    between atoms: C10_17  and  O4_18 
ROOT
HETATM    1  C3  UNL     1       7.621  -1.699  56.855  1.00  0.00     0.113 C 
HETATM    2  C4  UNL     1       8.839  -1.474  57.675  1.00  0.00     0.182 C 
HETATM    3  O3  UNL     1       9.938  -2.009  57.091  1.00  0.00    -0.390 OA
HETATM    4  C5  UNL     1      10.164  -1.802  55.764  1.00  0.00     0.168 C 
HETATM    5  C6  UNL     1       8.932  -1.795  54.911  1.00  0.00     0.032 C 
HETATM    6  C7  UNL     1       7.830  -0.949  55.513  1.00  0.00     0.005 C 
ENDROOT
BRANCH   6   7
HETATM    7  C8  UNL     1       8.223   0.439  55.749  1.00  0.00     0.040 C 
BRANCH   7   8
HETATM    8  C9  UNL     1       7.169   1.480  55.791  1.00  0.00     0.207 C 
BRANCH   8   9
HETATM    9  N1  UNL     1       7.375   2.269  57.063  1.00  0.00    -0.073 N 
ATOM     10  H13 UNL     1       6.563   2.250  57.681  1.00  0.00     0.274 HD
ATOM     11  H12 UNL     1       8.036   1.830  57.703  1.00  0.00     0.274 HD
ATOM     12  H11 UNL     1       7.647   3.213  56.789  1.00  0.00     0.274 HD
ENDBRANCH   8   9
BRANCH   8  13
HETATM   13  C10 UNL     1       7.025   2.447  54.678  1.00  0.00     0.196 C 
BRANCH  13  14
HETATM   14  O4  UNL     1       6.664   3.739  55.203  1.00  0.00    -0.399 OA
ATOM     15  H4  UNL     1       6.207   4.238  54.536  1.00  0.00     0.209 HD
ENDBRANCH  13  14
ENDBRANCH   8  13
ENDBRANCH   7   8
ENDBRANCH   6   7
BRANCH   1  16
HETATM   16  C2  UNL     1       6.370  -1.263  57.501  1.00  0.00     0.265 C 
HETATM   17  O2  UNL     1       6.290  -0.483  58.483  1.00  0.00    -0.265 OA
BRANCH  16  18
HETATM   18  O1  UNL     1       5.169  -1.740  56.996  1.00  0.00    -0.326 OA
HETATM   19  C1  UNL     1       4.741  -3.064  57.095  1.00  0.00     0.213 C 
ENDBRANCH  16  18
ENDBRANCH   1  16
TORSDOF 7
ENDMDL
MODEL 5
REMARK VINA RESULT: -3.930874657      1.199      1.398
REMARK  7 active torsions:
REMARK  status: ('A' for Active; 'I' for Inactive)
REMARK    1  A    between atoms: O1_2  and  C2_3 
REMARK    2  A    between atoms: C2_3  and  C3_5 
REMARK    3  A    between atoms: C7_10  and  C8_11 
REMARK    4  A    between atoms: C8_11  and  C9_12 
REMARK    5  A    between atoms: C9_12  and  N1_13 
REMARK    6  A    between atoms: C9_12  and  C10_17 
REMARK    7  A    between atoms: C10_17  and  O4_18 
ROOT
HETATM    1  C3  UNL     1       7.814  -2.004  56.794  1.00  0.00     0.113 C 
HETATM    2  C4  UNL     1       8.944  -1.510  57.622  1.00  0.00     0.182 C 
HETATM    3  O3  UNL     1      10.134  -1.962  57.158  1.00  0.00    -0.390 OA
HETATM    4  C5  UNL     1      10.406  -1.900  55.825  1.00  0.00     0.168 C 
HETATM    5  C6  UNL     1       9.233  -2.173  54.933  1.00  0.00     0.032 C 
HETATM    6  C7  UNL     1       7.998  -1.414  55.370  1.00  0.00     0.005 C 
ENDROOT
BRANCH   6   7
HETATM    7  C8  UNL     1       8.194   0.033  55.429  1.00  0.00     0.040 C 
BRANCH   7   8
HETATM    8  C9  UNL     1       7.008   0.916  55.325  1.00  0.00     0.207 C 
BRANCH   8   9
HETATM    9  N1  UNL     1       7.513   2.300  54.992  1.00  0.00    -0.073 N 
ATOM     10  H13 UNL     1       7.558   2.479  53.988  1.00  0.00     0.274 HD
ATOM     11  H12 UNL     1       6.846   3.036  55.226  1.00  0.00     0.274 HD
ATOM     12  H11 UNL     1       8.412   2.412  55.459  1.00  0.00     0.274 HD
ENDBRANCH   8   9
BRANCH   8  13
HETATM   13  C10 UNL     1       5.914   0.594  54.380  1.00  0.00     0.196 C 
BRANCH  13  14
HETATM   14  O4  UNL     1       4.744   0.187  55.115  1.00  0.00    -0.399 OA
ATOM     15  H4  UNL     1       4.976   0.028  56.022  1.00  0.00     0.209 HD
ENDBRANCH  13  14
ENDBRANCH   8  13
ENDBRANCH   7   8
ENDBRANCH   6   7
BRANCH   1  16
HETATM   16  C2  UNL     1       6.482  -1.662  57.325  1.00  0.00     0.265 C 
HETATM   17  O2  UNL     1       6.258  -0.879  58.281  1.00  0.00    -0.265 OA
BRANCH  16  18
HETATM   18  O1  UNL     1       5.370  -2.242  56.732  1.00  0.00    -0.326 OA
HETATM   19  C1  UNL     1       4.558  -3.199  57.342  1.00  0.00     0.213 C 
ENDBRANCH  16  18
ENDBRANCH   1  16
TORSDOF 7
ENDMDL
