MODEL 1
REMARK VINA RESULT: -7.423670705      0.000      0.000
REMARK  4 active torsions:
REMARK  status: ('A' for Active; 'I' for Inactive)
REMARK    1  A    between atoms: C8_9  and  O2_10 
REMARK    2  A    between atoms: C9_12  and  C10_13 
REMARK    3  A    between atoms: C10_13  and  C11_14 
REMARK    4  A    between atoms: C11_14  and  O3_15 
ROOT
HETATM    1  C1  UNL     1      18.789  -5.939  53.392  1.00  0.00     0.049 C 
HETATM    2  C2  UNL     1      17.492  -5.632  54.061  1.00  0.00    -0.053 A 
HETATM    3  C3  UNL     1      17.050  -6.487  55.057  1.00  0.00     0.008 A 
HETATM    4  C4  UNL     1      15.861  -6.276  55.727  1.00  0.00     0.018 A 
HETATM    5  C5  UNL     1      15.105  -5.180  55.383  1.00  0.00     0.035 A 
HETATM    6  C6  UNL     1      15.533  -4.313  54.387  1.00  0.00     0.096 A 
HETATM    7  O1  UNL     1      14.610  -3.373  54.286  1.00  0.00    -0.303 OA
HETATM    8  C7  UNL     1      13.630  -3.578  55.143  1.00  0.00     0.144 A 
HETATM    9  C8  UNL     1      12.456  -2.891  55.422  1.00  0.00     0.115 A 
HETATM   10  C9  UNL     1      11.615  -3.369  56.398  1.00  0.00     0.055 A 
HETATM   11  C12 UNL     1      11.949  -4.516  57.080  1.00  0.00     0.297 A 
HETATM   12  O4  UNL     1      11.147  -4.917  57.966  1.00  0.00    -0.259 OA
HETATM   13  O5  UNL     1      13.079  -5.168  56.803  1.00  0.00    -0.271 OA
HETATM   14  C13 UNL     1      13.884  -4.716  55.874  1.00  0.00     0.129 A 
HETATM   15  C14 UNL     1      16.728  -4.538  53.724  1.00  0.00    -0.021 A 
HETATM   16  C15 UNL     1      17.182  -3.608  52.659  1.00  0.00     0.052 C 
ENDROOT
BRANCH  10  17
HETATM   17  C10 UNL     1      10.359  -2.658  56.719  1.00  0.00     0.074 C 
BRANCH  17  18
HETATM   18  C11 UNL     1       9.352  -2.751  55.588  1.00  0.00     0.169 C 
BRANCH  18  19
HETATM   19  O3  UNL     1       9.104  -1.503  55.025  1.00  0.00    -0.401 OA
ATOM     20  H3  UNL     1       8.333  -1.519  54.472  1.00  0.00     0.209 HD
ENDBRANCH  18  19
ENDBRANCH  17  18
ENDBRANCH  10  17
BRANCH   9  21
HETATM   21  O2  UNL     1      12.152  -1.742  54.717  1.00  0.00    -0.357 OA
ATOM     22  H2  UNL     1      11.447  -1.180  55.015  1.00  0.00     0.217 HD
ENDBRANCH   9  21
TORSDOF 4
ENDMDL
MODEL 2
REMARK VINA RESULT: -6.966477558      2.645      4.708
REMARK  4 active torsions:
REMARK  status: ('A' for Active; 'I' for Inactive)
REMARK    1  A    between atoms: C8_9  and  O2_10 
REMARK    2  A    between atoms: C9_12  and  C10_13 
REMARK    3  A    between atoms: C10_13  and  C11_14 
REMARK    4  A    between atoms: C11_14  and  O3_15 
ROOT
HETATM    1  C1  UNL     1      14.245  -5.680  55.792  1.00  0.00     0.049 C 
HETATM    2  C2  UNL     1      13.094  -4.772  56.067  1.00  0.00    -0.053 A 
HETATM    3  C3  UNL     1      12.029  -5.270  56.801  1.00  0.00     0.008 A 
HETATM    4  C4  UNL     1      10.925  -4.498  57.102  1.00  0.00     0.018 A 
HETATM    5  C5  UNL     1      10.896  -3.198  56.652  1.00  0.00     0.035 A 
HETATM    6  C6  UNL     1      11.954  -2.685  55.915  1.00  0.00     0.096 A 
HETATM    7  O1  UNL     1      11.641  -1.432  55.632  1.00  0.00    -0.303 OA
HETATM    8  C7  UNL     1      10.464  -1.114  56.134  1.00  0.00     0.144 A 
HETATM    9  C8  UNL     1       9.709   0.050  56.112  1.00  0.00     0.115 A 
HETATM   10  C9  UNL     1       8.488   0.071  56.743  1.00  0.00     0.055 A 
HETATM   11  C12 UNL     1       8.037  -1.060  57.383  1.00  0.00     0.297 A 
HETATM   12  O4  UNL     1       6.911  -0.997  57.947  1.00  0.00    -0.259 OA
HETATM   13  O5  UNL     1       8.770  -2.174  57.396  1.00  0.00    -0.271 OA
HETATM   14  C13 UNL     1       9.934  -2.197  56.797  1.00  0.00     0.129 A 
HETATM   15  C14 UNL     1      13.055  -3.471  55.622  1.00  0.00    -0.021 A 
HETATM   16  C15 UNL     1      14.184  -2.917  54.833  1.00  0.00     0.052 C 
ENDROOT
BRANCH  10  17
HETATM   17  C10 UNL     1       7.662   1.297  56.739  1.00  0.00     0.074 C 
BRANCH  17  18
HETATM   18  C11 UNL     1       6.948   1.493  55.415  1.00  0.00     0.169 C 
BRANCH  18  19
HETATM   19  O3  UNL     1       7.478   2.567  54.707  1.00  0.00    -0.401 OA
ATOM     20  H3  UNL     1       8.285   2.876  55.101  1.00  0.00     0.209 HD
ENDBRANCH  18  19
ENDBRANCH  17  18
ENDBRANCH  10  17
BRANCH   9  21
HETATM   21  O2  UNL     1      10.193   1.168  55.459  1.00  0.00    -0.357 OA
ATOM     22  H2  UNL     1      11.117   1.226  55.247  1.00  0.00     0.217 HD
ENDBRANCH   9  21
TORSDOF 4
ENDMDL
MODEL 3
REMARK VINA RESULT: -6.692046491      2.897      5.700
REMARK  4 active torsions:
REMARK  status: ('A' for Active; 'I' for Inactive)
REMARK    1  A    between atoms: C8_9  and  O2_10 
REMARK    2  A    between atoms: C9_12  and  C10_13 
REMARK    3  A    between atoms: C10_13  and  C11_14 
REMARK    4  A    between atoms: C11_14  and  O3_15 
ROOT
HETATM    1  C1  UNL     1      14.193  -4.974  55.910  1.00  0.00     0.049 C 
HETATM    2  C2  UNL     1      13.076  -3.985  55.884  1.00  0.00    -0.053 A 
HETATM    3  C3  UNL     1      13.291  -2.773  55.249  1.00  0.00     0.008 A 
HETATM    4  C4  UNL     1      12.311  -1.803  55.178  1.00  0.00     0.018 A 
HETATM    5  C5  UNL     1      11.092  -2.063  55.760  1.00  0.00     0.035 A 
HETATM    6  C6  UNL     1      10.861  -3.273  56.400  1.00  0.00     0.096 A 
HETATM    7  O1  UNL     1       9.620  -3.227  56.851  1.00  0.00    -0.303 OA
HETATM    8  C7  UNL     1       9.047  -2.080  56.544  1.00  0.00     0.144 A 
HETATM    9  C8  UNL     1       7.783  -1.559  56.785  1.00  0.00     0.115 A 
HETATM   10  C9  UNL     1       7.478  -0.300  56.326  1.00  0.00     0.055 A 
HETATM   11  C12 UNL     1       8.426   0.419  55.638  1.00  0.00     0.297 A 
HETATM   12  O4  UNL     1       8.103   1.569  55.236  1.00  0.00    -0.259 OA
HETATM   13  O5  UNL     1       9.637  -0.092  55.412  1.00  0.00    -0.271 OA
HETATM   14  C13 UNL     1       9.932  -1.291  55.847  1.00  0.00     0.129 A 
HETATM   15  C14 UNL     1      11.854  -4.236  56.463  1.00  0.00    -0.021 A 
HETATM   16  C15 UNL     1      11.602  -5.528  57.149  1.00  0.00     0.052 C 
ENDROOT
BRANCH  10  17
HETATM   17  C10 UNL     1       6.140   0.281  56.565  1.00  0.00     0.074 C 
BRANCH  17  18
HETATM   18  C11 UNL     1       6.044   0.933  57.933  1.00  0.00     0.169 C 
BRANCH  18  19
HETATM   19  O3  UNL     1       5.554   0.044  58.885  1.00  0.00    -0.401 OA
ATOM     20  H3  UNL     1       6.094  -0.735  58.941  1.00  0.00     0.209 HD
ENDBRANCH  18  19
ENDBRANCH  17  18
ENDBRANCH  10  17
BRANCH   9  21
HETATM   21  O2  UNL     1       6.854  -2.310  57.481  1.00  0.00    -0.357 OA
ATOM     22  H2  UNL     1       6.699  -3.213  57.234  1.00  0.00     0.217 HD
ENDBRANCH   9  21
TORSDOF 4
ENDMDL
MODEL 4
REMARK VINA RESULT: -6.612471390      1.076      2.770
REMARK  4 active torsions:
REMARK  status: ('A' for Active; 'I' for Inactive)
REMARK    1  A    between atoms: C8_9  and  O2_10 
REMARK    2  A    between atoms: C9_12  and  C10_13 
REMARK    3  A    between atoms: C10_13  and  C11_14 
REMARK    4  A    between atoms: C11_14  and  O3_15 
ROOT
HETATM    1  C1  UNL     1      17.775  -6.239  54.398  1.00  0.00     0.049 C 
HETATM    2  C2  UNL     1      16.550  -5.434  54.675  1.00  0.00    -0.053 A 
HETATM    3  C3  UNL     1      16.419  -4.205  54.049  1.00  0.00     0.008 A 
HETATM    4  C4  UNL     1      15.317  -3.397  54.249  1.00  0.00     0.018 A 
HETATM    5  C5  UNL     1      14.330  -3.840  55.098  1.00  0.00     0.035 A 
HETATM    6  C6  UNL     1      14.447  -5.068  55.734  1.00  0.00     0.096 A 
HETATM    7  O1  UNL     1      13.360  -5.213  56.472  1.00  0.00    -0.303 OA
HETATM    8  C7  UNL     1      12.564  -4.169  56.351  1.00  0.00     0.144 A 
HETATM    9  C8  UNL     1      11.333  -3.847  56.907  1.00  0.00     0.115 A 
HETATM   10  C9  UNL     1      10.740  -2.652  56.578  1.00  0.00     0.055 A 
HETATM   11  C12 UNL     1      11.373  -1.798  55.706  1.00  0.00     0.297 A 
HETATM   12  O4  UNL     1      10.793  -0.713  55.433  1.00  0.00    -0.259 OA
HETATM   13  O5  UNL     1      12.556  -2.117  55.178  1.00  0.00    -0.271 OA
HETATM   14  C13 UNL     1      13.124  -3.255  55.488  1.00  0.00     0.129 A 
HETATM   15  C14 UNL     1      15.557  -5.867  55.523  1.00  0.00    -0.021 A 
HETATM   16  C15 UNL     1      15.677  -7.180  56.205  1.00  0.00     0.052 C 
ENDROOT
BRANCH  10  17
HETATM   17  C10 UNL     1       9.428  -2.282  57.152  1.00  0.00     0.074 C 
BRANCH  17  18
HETATM   18  C11 UNL     1       8.310  -2.411  56.134  1.00  0.00     0.169 C 
BRANCH  18  19
HETATM   19  O3  UNL     1       7.817  -1.164  55.762  1.00  0.00    -0.401 OA
ATOM     20  H3  UNL     1       6.886  -1.093  55.942  1.00  0.00     0.209 HD
ENDBRANCH  18  19
ENDBRANCH  17  18
ENDBRANCH  10  17
BRANCH   9  21
HETATM   21  O2  UNL     1      10.725  -4.729  57.780  1.00  0.00    -0.357 OA
ATOM     22  H2  UNL     1       9.786  -4.686  57.914  1.00  0.00     0.217 HD
ENDBRANCH   9  21
TORSDOF 4
ENDMDL
MODEL 5
REMARK VINA RESULT: -6.361950192      1.988      6.774
REMARK  4 active torsions:
REMARK  status: ('A' for Active; 'I' for Inactive)
REMARK    1  A    between atoms: C8_9  and  O2_10 
REMARK    2  A    between atoms: C9_12  and  C10_13 
REMARK    3  A    between atoms: C10_13  and  C11_14 
REMARK    4  A    between atoms: C11_14  and  O3_15 
ROOT
HETATM    1  C1  UNL     1       9.763  -2.669  56.939  1.00  0.00     0.049 C 
HETATM    2  C2  UNL     1      11.093  -3.003  56.351  1.00  0.00    -0.053 A 
HETATM    3  C3  UNL     1      11.615  -2.155  55.388  1.00  0.00     0.008 A 
HETATM    4  C4  UNL     1      12.839  -2.389  54.794  1.00  0.00     0.018 A 
HETATM    5  C5  UNL     1      13.548  -3.503  55.180  1.00  0.00     0.035 A 
HETATM    6  C6  UNL     1      13.039  -4.363  56.143  1.00  0.00     0.096 A 
HETATM    7  O1  UNL     1      13.934  -5.323  56.298  1.00  0.00    -0.303 OA
HETATM    8  C7  UNL     1      14.971  -5.136  55.506  1.00  0.00     0.144 A 
HETATM    9  C8  UNL     1      16.145  -5.846  55.300  1.00  0.00     0.115 A 
HETATM   10  C9  UNL     1      17.057  -5.384  54.381  1.00  0.00     0.055 A 
HETATM   11  C12 UNL     1      16.791  -4.228  53.685  1.00  0.00     0.297 A 
HETATM   12  O4  UNL     1      17.655  -3.842  52.852  1.00  0.00    -0.259 OA
HETATM   13  O5  UNL     1      15.659  -3.554  53.891  1.00  0.00    -0.271 OA
HETATM   14  C13 UNL     1      14.789  -3.991  54.766  1.00  0.00     0.129 A 
HETATM   15  C14 UNL     1      11.810  -4.115  56.730  1.00  0.00    -0.021 A 
HETATM   16  C15 UNL     1      11.270  -5.038  57.759  1.00  0.00     0.052 C 
ENDROOT
BRANCH  10  17
HETATM   17  C10 UNL     1      18.318  -6.118  54.141  1.00  0.00     0.074 C 
BRANCH  17  18
HETATM   18  C11 UNL     1      18.488  -6.485  52.678  1.00  0.00     0.169 C 
BRANCH  18  19
HETATM   19  O3  UNL     1      19.742  -6.111  52.204  1.00  0.00    -0.401 OA
ATOM     20  H3  UNL     1      20.332  -6.854  52.164  1.00  0.00     0.209 HD
ENDBRANCH  18  19
ENDBRANCH  17  18
ENDBRANCH  10  17
BRANCH   9  21
HETATM   21  O2  UNL     1      16.380  -7.004  56.017  1.00  0.00    -0.357 OA
ATOM     22  H2  UNL     1      17.270  -7.317  56.128  1.00  0.00     0.217 HD
ENDBRANCH   9  21
TORSDOF 4
ENDMDL
