MODEL 1
REMARK VINA RESULT: -5.873819189      0.000      0.000
REMARK  5 active torsions:
REMARK  status: ('A' for Active; 'I' for Inactive)
REMARK    1  A    between atoms: C2_2  and  O1_3 
REMARK    2  A    between atoms: C2_2  and  C3_5 
REMARK    3  A    between atoms: C4_6  and  C5_7 
REMARK    4  A    between atoms: C5_7  and  C6_8 
REMARK    5  A    between atoms: C10_13  and  O3_14 
ROOT
HETATM    1  C3  UNL     1       8.078   0.819  55.135  1.00  0.00     0.033 A 
HETATM    2  C4  UNL     1       7.203  -0.243  55.123  1.00  0.00    -0.036 A 
HETATM    3  C7  UNL     1       7.629  -1.572  54.983  1.00  0.00     0.016 A 
HETATM    4  C8  UNL     1       8.946  -1.849  54.853  1.00  0.00    -0.049 A 
HETATM    5  C9  UNL     1       9.852  -0.832  54.862  1.00  0.00    -0.018 A 
HETATM    6  C10 UNL     1       9.458   0.492  54.998  1.00  0.00     0.085 A 
HETATM    7  C11 UNL     1      11.234  -1.412  54.707  1.00  0.00     0.042 C 
HETATM    8  C12 UNL     1      11.015  -2.804  55.319  1.00  0.00     0.009 C 
HETATM    9  C13 UNL     1       9.689  -3.152  54.687  1.00  0.00     0.039 C 
ENDROOT
BRANCH   1  10
HETATM   10  C2  UNL     1       7.707   2.199  55.239  1.00  0.00     0.053 C 
HETATM   11  C1  UNL     1       7.108   3.146  54.303  1.00  0.00     0.077 C 
BRANCH  10  12
HETATM   12  O1  UNL     1       7.959   2.719  56.408  1.00  0.00    -0.364 OA
ATOM     13  H1  UNL     1       8.354   2.104  57.015  1.00  0.00     0.217 HD
ENDBRANCH  10  12
ENDBRANCH   1  10
BRANCH   2  14
HETATM   14  C5  UNL     1       5.739  -0.121  55.352  1.00  0.00     0.109 C 
BRANCH  14  15
HETATM   15  C6  UNL     1       5.492  -0.195  56.843  1.00  0.00     0.235 C 
HETATM   16  O2  UNL     1       5.656   0.759  57.570  1.00  0.00    -0.307 OA
ENDBRANCH  14  15
ENDBRANCH   2  14
BRANCH   6  17
HETATM   17  O3  UNL     1      10.357   1.475  55.004  1.00  0.00    -0.359 OA
ATOM     18  H3  UNL     1      11.065   1.447  55.637  1.00  0.00     0.217 HD
ENDBRANCH   6  17
TORSDOF 5
ENDMDL
MODEL 2
REMARK VINA RESULT: -5.752884083      2.419      4.204
REMARK  5 active torsions:
REMARK  status: ('A' for Active; 'I' for Inactive)
REMARK    1  A    between atoms: C2_2  and  O1_3 
REMARK    2  A    between atoms: C2_2  and  C3_5 
REMARK    3  A    between atoms: C4_6  and  C5_7 
REMARK    4  A    between atoms: C5_7  and  C6_8 
REMARK    5  A    between atoms: C10_13  and  O3_14 
ROOT
HETATM    1  C3  UNL     1       9.566  -2.314  56.128  1.00  0.00     0.033 A 
HETATM    2  C4  UNL     1      10.094  -1.515  55.141  1.00  0.00    -0.036 A 
HETATM    3  C7  UNL     1      11.371  -1.726  54.600  1.00  0.00     0.016 A 
HETATM    4  C8  UNL     1      12.133  -2.749  55.047  1.00  0.00    -0.049 A 
HETATM    5  C9  UNL     1      11.653  -3.571  56.022  1.00  0.00    -0.018 A 
HETATM    6  C10 UNL     1      10.394  -3.384  56.575  1.00  0.00     0.085 A 
HETATM    7  C11 UNL     1      12.692  -4.619  56.328  1.00  0.00     0.042 C 
HETATM    8  C12 UNL     1      13.415  -4.689  54.974  1.00  0.00     0.009 C 
HETATM    9  C13 UNL     1      13.517  -3.215  54.666  1.00  0.00     0.039 C 
ENDROOT
BRANCH   1  10
HETATM   10  C2  UNL     1       8.287  -2.132  56.748  1.00  0.00     0.053 C 
HETATM   11  C1  UNL     1       6.942  -2.596  56.420  1.00  0.00     0.077 C 
BRANCH  10  12
HETATM   12  O1  UNL     1       8.330  -1.398  57.826  1.00  0.00    -0.364 OA
ATOM     13  H1  UNL     1       8.633  -0.511  57.664  1.00  0.00     0.217 HD
ENDBRANCH  10  12
ENDBRANCH   1  10
BRANCH   2  14
HETATM   14  C5  UNL     1       9.353  -0.413  54.473  1.00  0.00     0.109 C 
BRANCH  14  15
HETATM   15  C6  UNL     1       9.651   0.869  55.219  1.00  0.00     0.235 C 
HETATM   16  O2  UNL     1       9.004   1.220  56.180  1.00  0.00    -0.307 OA
ENDBRANCH  14  15
ENDBRANCH   2  14
BRANCH   6  17
HETATM   17  O3  UNL     1       9.941  -4.196  57.529  1.00  0.00    -0.359 OA
ATOM     18  H3  UNL     1      10.102  -3.974  58.438  1.00  0.00     0.217 HD
ENDBRANCH   6  17
TORSDOF 5
ENDMDL
MODEL 3
REMARK VINA RESULT: -5.736672235      1.242      1.406
REMARK  5 active torsions:
REMARK  status: ('A' for Active; 'I' for Inactive)
REMARK    1  A    between atoms: C2_2  and  O1_3 
REMARK    2  A    between atoms: C2_2  and  C3_5 
REMARK    3  A    between atoms: C4_6  and  C5_7 
REMARK    4  A    between atoms: C5_7  and  C6_8 
REMARK    5  A    between atoms: C10_13  and  O3_14 
ROOT
HETATM    1  C3  UNL     1       7.962   0.994  55.048  1.00  0.00     0.033 A 
HETATM    2  C4  UNL     1       7.071  -0.050  54.952  1.00  0.00    -0.036 A 
HETATM    3  C7  UNL     1       7.483  -1.385  54.818  1.00  0.00     0.016 A 
HETATM    4  C8  UNL     1       8.801  -1.684  54.780  1.00  0.00    -0.049 A 
HETATM    5  C9  UNL     1       9.722  -0.685  54.875  1.00  0.00    -0.018 A 
HETATM    6  C10 UNL     1       9.342   0.643  55.008  1.00  0.00     0.085 A 
HETATM    7  C11 UNL     1      11.101  -1.289  54.811  1.00  0.00     0.042 C 
HETATM    8  C12 UNL     1      10.812  -2.687  55.378  1.00  0.00     0.009 C 
HETATM    9  C13 UNL     1       9.531  -2.998  54.644  1.00  0.00     0.039 C 
ENDROOT
BRANCH   1  10
HETATM   10  C2  UNL     1       7.609   2.379  55.151  1.00  0.00     0.053 C 
HETATM   11  C1  UNL     1       6.989   3.323  54.227  1.00  0.00     0.077 C 
BRANCH  10  12
HETATM   12  O1  UNL     1       7.906   2.907  56.306  1.00  0.00    -0.364 OA
ATOM     13  H1  UNL     1       7.295   3.582  56.579  1.00  0.00     0.217 HD
ENDBRANCH  10  12
ENDBRANCH   1  10
BRANCH   2  14
HETATM   14  C5  UNL     1       5.597   0.095  55.074  1.00  0.00     0.109 C 
BRANCH  14  15
HETATM   15  C6  UNL     1       5.014   0.122  53.678  1.00  0.00     0.235 C 
HETATM   16  O2  UNL     1       4.509   1.118  53.210  1.00  0.00    -0.307 OA
ENDBRANCH  14  15
ENDBRANCH   2  14
BRANCH   6  17
HETATM   17  O3  UNL     1      10.256   1.608  55.098  1.00  0.00    -0.359 OA
ATOM     18  H3  UNL     1      11.154   1.374  55.302  1.00  0.00     0.217 HD
ENDBRANCH   6  17
TORSDOF 5
ENDMDL
MODEL 4
REMARK VINA RESULT: -5.497564259      4.155      6.504
REMARK  5 active torsions:
REMARK  status: ('A' for Active; 'I' for Inactive)
REMARK    1  A    between atoms: C2_2  and  O1_3 
REMARK    2  A    between atoms: C2_2  and  C3_5 
REMARK    3  A    between atoms: C4_6  and  C5_7 
REMARK    4  A    between atoms: C5_7  and  C6_8 
REMARK    5  A    between atoms: C10_13  and  O3_14 
ROOT
HETATM    1  C3  UNL     1      12.259  -3.641  55.084  1.00  0.00     0.033 A 
HETATM    2  C4  UNL     1      12.257  -4.671  55.996  1.00  0.00    -0.036 A 
HETATM    3  C7  UNL     1      13.323  -5.575  56.117  1.00  0.00     0.016 A 
HETATM    4  C8  UNL     1      14.407  -5.451  55.319  1.00  0.00    -0.049 A 
HETATM    5  C9  UNL     1      14.458  -4.445  54.402  1.00  0.00    -0.018 A 
HETATM    6  C10 UNL     1      13.417  -3.538  54.261  1.00  0.00     0.085 A 
HETATM    7  C11 UNL     1      15.765  -4.533  53.657  1.00  0.00     0.042 C 
HETATM    8  C12 UNL     1      16.642  -5.203  54.725  1.00  0.00     0.009 C 
HETATM    9  C13 UNL     1      15.680  -6.256  55.219  1.00  0.00     0.039 C 
ENDROOT
BRANCH   1  10
HETATM   10  C2  UNL     1      11.191  -2.707  54.884  1.00  0.00     0.053 C 
HETATM   11  C1  UNL     1       9.807  -2.850  54.442  1.00  0.00     0.077 C 
BRANCH  10  12
HETATM   12  O1  UNL     1      11.523  -1.473  55.148  1.00  0.00    -0.364 OA
ATOM     13  H1  UNL     1      11.813  -1.345  56.043  1.00  0.00     0.217 HD
ENDBRANCH  10  12
ENDBRANCH   1  10
BRANCH   2  14
HETATM   14  C5  UNL     1      11.191  -4.888  57.009  1.00  0.00     0.109 C 
BRANCH  14  15
HETATM   15  C6  UNL     1      11.529  -4.055  58.227  1.00  0.00     0.235 C 
HETATM   16  O2  UNL     1      11.912  -4.555  59.261  1.00  0.00    -0.307 OA
ENDBRANCH  14  15
ENDBRANCH   2  14
BRANCH   6  17
HETATM   17  O3  UNL     1      13.483  -2.560  53.358  1.00  0.00    -0.359 OA
ATOM     18  H3  UNL     1      14.284  -2.446  52.861  1.00  0.00     0.217 HD
ENDBRANCH   6  17
TORSDOF 5
ENDMDL
MODEL 5
REMARK VINA RESULT: -5.427081207      1.014      1.024
REMARK  5 active torsions:
REMARK  status: ('A' for Active; 'I' for Inactive)
REMARK    1  A    between atoms: C2_2  and  O1_3 
REMARK    2  A    between atoms: C2_2  and  C3_5 
REMARK    3  A    between atoms: C4_6  and  C5_7 
REMARK    4  A    between atoms: C5_7  and  C6_8 
REMARK    5  A    between atoms: C10_13  and  O3_14 
ROOT
HETATM    1  C3  UNL     1       8.321   0.443  55.474  1.00  0.00     0.033 A 
HETATM    2  C4  UNL     1       7.487  -0.621  55.731  1.00  0.00    -0.036 A 
HETATM    3  C7  UNL     1       7.900  -1.955  55.594  1.00  0.00     0.016 A 
HETATM    4  C8  UNL     1       9.162  -2.234  55.197  1.00  0.00    -0.049 A 
HETATM    5  C9  UNL     1      10.026  -1.214  54.933  1.00  0.00    -0.018 A 
HETATM    6  C10 UNL     1       9.644   0.114  55.060  1.00  0.00     0.085 A 
HETATM    7  C11 UNL     1      11.352  -1.797  54.519  1.00  0.00     0.042 C 
HETATM    8  C12 UNL     1      11.302  -3.142  55.261  1.00  0.00     0.009 C 
HETATM    9  C13 UNL     1       9.878  -3.542  54.963  1.00  0.00     0.039 C 
ENDROOT
BRANCH   1  10
HETATM   10  C2  UNL     1       7.953   1.825  55.559  1.00  0.00     0.053 C 
HETATM   11  C1  UNL     1       7.025   2.661  54.804  1.00  0.00     0.077 C 
BRANCH  10  12
HETATM   12  O1  UNL     1       8.578   2.473  56.504  1.00  0.00    -0.364 OA
ATOM     13  H1  UNL     1       8.773   1.935  57.263  1.00  0.00     0.217 HD
ENDBRANCH  10  12
ENDBRANCH   1  10
BRANCH   2  14
HETATM   14  C5  UNL     1       6.107  -0.490  56.267  1.00  0.00     0.109 C 
BRANCH  14  15
HETATM   15  C6  UNL     1       5.754  -1.786  56.966  1.00  0.00     0.235 C 
HETATM   16  O2  UNL     1       4.636  -2.013  57.373  1.00  0.00    -0.307 OA
ENDBRANCH  14  15
ENDBRANCH   2  14
BRANCH   6  17
HETATM   17  O3  UNL     1      10.501   1.099  54.797  1.00  0.00    -0.359 OA
ATOM     18  H3  UNL     1      11.390   1.034  55.126  1.00  0.00     0.217 HD
ENDBRANCH   6  17
TORSDOF 5
ENDMDL
