MODEL 1
REMARK VINA RESULT: -7.497387819      0.000      0.000
REMARK  5 active torsions:
REMARK  status: ('A' for Active; 'I' for Inactive)
REMARK    1  A    between atoms: C5_5  and  C6_6 
REMARK    2  A    between atoms: C9_9  and  C10_10 
REMARK    3  A    between atoms: C10_10  and  O1_11 
REMARK    4  A    between atoms: C12_15  and  C13_16 
REMARK    5  A    between atoms: C13_16  and  O3_17 
ROOT
HETATM    1  C1  UNL     1       8.882  -2.470  56.666  1.00  0.00     0.049 C 
HETATM    2  C2  UNL     1      10.215  -3.021  56.302  1.00  0.00    -0.054 A 
HETATM    3  C3  UNL     1      10.701  -4.089  57.026  1.00  0.00     0.008 A 
HETATM    4  C4  UNL     1      11.939  -4.591  56.679  1.00  0.00     0.015 A 
HETATM    5  C5  UNL     1      12.707  -4.084  55.655  1.00  0.00    -0.002 A 
HETATM    6  C11 UNL     1      12.166  -3.011  54.962  1.00  0.00     0.024 A 
HETATM    7  C12 UNL     1      10.930  -2.474  55.273  1.00  0.00    -0.028 A 
ENDROOT
BRANCH   5   8
HETATM    8  C6  UNL     1      14.012  -4.635  55.310  1.00  0.00     0.086 A 
HETATM    9  C7  UNL     1      14.438  -5.922  55.549  1.00  0.00     0.040 A 
HETATM   10  C8  UNL     1      15.720  -6.032  55.073  1.00  0.00     0.038 A 
HETATM   11  C9  UNL     1      16.029  -4.789  54.555  1.00  0.00     0.077 A 
HETATM   12  O2  UNL     1      15.001  -4.015  54.718  1.00  0.00    -0.312 OA
BRANCH  11  13
HETATM   13  C10 UNL     1      17.343  -4.476  53.931  1.00  0.00     0.229 C 
BRANCH  13  14
HETATM   14  O1  UNL     1      17.977  -5.659  53.489  1.00  0.00    -0.394 OA
ATOM     15  H1  UNL     1      17.694  -5.881  52.610  1.00  0.00     0.209 HD
ENDBRANCH  13  14
ENDBRANCH  11  13
ENDBRANCH   5   8
BRANCH   7  16
HETATM   16  C13 UNL     1      10.350  -1.329  54.536  1.00  0.00     0.203 C 
BRANCH  16  17
HETATM   17  O3  UNL     1      10.880  -0.114  54.997  1.00  0.00    -0.396 OA
ATOM     18  H3  UNL     1      10.259   0.595  54.877  1.00  0.00     0.209 HD
ENDBRANCH  16  17
ENDBRANCH   7  16
TORSDOF 5
ENDMDL
MODEL 2
REMARK VINA RESULT: -7.240940418      1.313      6.067
REMARK  5 active torsions:
REMARK  status: ('A' for Active; 'I' for Inactive)
REMARK    1  A    between atoms: C5_5  and  C6_6 
REMARK    2  A    between atoms: C9_9  and  C10_10 
REMARK    3  A    between atoms: C10_10  and  O1_11 
REMARK    4  A    between atoms: C12_15  and  C13_16 
REMARK    5  A    between atoms: C13_16  and  O3_17 
ROOT
HETATM    1  C1  UNL     1      17.392  -6.639  54.899  1.00  0.00     0.049 C 
HETATM    2  C2  UNL     1      16.120  -5.873  55.001  1.00  0.00    -0.054 A 
HETATM    3  C3  UNL     1      15.030  -6.488  55.581  1.00  0.00     0.008 A 
HETATM    4  C4  UNL     1      13.857  -5.768  55.670  1.00  0.00     0.015 A 
HETATM    5  C5  UNL     1      13.719  -4.476  55.212  1.00  0.00    -0.002 A 
HETATM    6  C11 UNL     1      14.848  -3.910  54.638  1.00  0.00     0.024 A 
HETATM    7  C12 UNL     1      16.046  -4.593  54.528  1.00  0.00    -0.028 A 
ENDROOT
BRANCH   5   8
HETATM    8  C6  UNL     1      12.466  -3.739  55.319  1.00  0.00     0.086 A 
HETATM    9  C7  UNL     1      11.312  -4.183  55.924  1.00  0.00     0.040 A 
HETATM   10  C8  UNL     1      10.371  -3.192  55.807  1.00  0.00     0.038 A 
HETATM   11  C9  UNL     1      10.999  -2.166  55.125  1.00  0.00     0.077 A 
HETATM   12  O2  UNL     1      12.214  -2.537  54.866  1.00  0.00    -0.312 OA
BRANCH  11  13
HETATM   13  C10 UNL     1      10.321  -0.886  54.787  1.00  0.00     0.229 C 
BRANCH  13  14
HETATM   14  O1  UNL     1       8.997  -1.125  54.351  1.00  0.00    -0.394 OA
ATOM     15  H1  UNL     1       8.936  -1.035  53.407  1.00  0.00     0.209 HD
ENDBRANCH  13  14
ENDBRANCH  11  13
ENDBRANCH   5   8
BRANCH   7  16
HETATM   16  C13 UNL     1      17.252  -3.991  53.916  1.00  0.00     0.203 C 
BRANCH  16  17
HETATM   17  O3  UNL     1      17.210  -4.093  52.517  1.00  0.00    -0.396 OA
ATOM     18  H3  UNL     1      17.835  -3.501  52.114  1.00  0.00     0.209 HD
ENDBRANCH  16  17
ENDBRANCH   7  16
TORSDOF 5
ENDMDL
MODEL 3
REMARK VINA RESULT: -7.044783225      1.456      6.171
REMARK  5 active torsions:
REMARK  status: ('A' for Active; 'I' for Inactive)
REMARK    1  A    between atoms: C5_5  and  C6_6 
REMARK    2  A    between atoms: C9_9  and  C10_10 
REMARK    3  A    between atoms: C10_10  and  O1_11 
REMARK    4  A    between atoms: C12_15  and  C13_16 
REMARK    5  A    between atoms: C13_16  and  O3_17 
ROOT
HETATM    1  C1  UNL     1      14.365  -6.226  55.810  1.00  0.00     0.049 C 
HETATM    2  C2  UNL     1      13.435  -5.083  55.609  1.00  0.00    -0.054 A 
HETATM    3  C3  UNL     1      12.154  -5.184  56.111  1.00  0.00     0.008 A 
HETATM    4  C4  UNL     1      11.301  -4.117  55.918  1.00  0.00     0.015 A 
HETATM    5  C5  UNL     1      11.660  -2.965  55.254  1.00  0.00    -0.002 A 
HETATM    6  C11 UNL     1      12.960  -2.920  54.772  1.00  0.00     0.024 A 
HETATM    7  C12 UNL     1      13.851  -3.965  54.941  1.00  0.00    -0.028 A 
ENDROOT
BRANCH   5   8
HETATM    8  C6  UNL     1      10.737  -1.852  55.065  1.00  0.00     0.086 A 
HETATM    9  C7  UNL     1       9.397  -1.952  54.766  1.00  0.00     0.040 A 
HETATM   10  C8  UNL     1       8.894  -0.679  54.673  1.00  0.00     0.038 A 
HETATM   11  C9  UNL     1       9.965   0.159  54.923  1.00  0.00     0.077 A 
HETATM   12  O2  UNL     1      11.010  -0.575  55.145  1.00  0.00    -0.312 OA
BRANCH  11  13
HETATM   13  C10 UNL     1       9.849   1.642  54.919  1.00  0.00     0.229 C 
BRANCH  13  14
HETATM   14  O1  UNL     1       9.560   2.121  56.218  1.00  0.00    -0.394 OA
ATOM     15  H1  UNL     1      10.081   1.663  56.866  1.00  0.00     0.209 HD
ENDBRANCH  13  14
ENDBRANCH  11  13
ENDBRANCH   5   8
BRANCH   7  16
HETATM   16  C13 UNL     1      15.238  -3.920  54.427  1.00  0.00     0.203 C 
BRANCH  16  17
HETATM   17  O3  UNL     1      15.288  -4.317  53.082  1.00  0.00    -0.396 OA
ATOM     18  H3  UNL     1      15.768  -3.685  52.559  1.00  0.00     0.209 HD
ENDBRANCH  16  17
ENDBRANCH   7  16
TORSDOF 5
ENDMDL
MODEL 4
REMARK VINA RESULT: -7.026232287      1.102      1.326
REMARK  5 active torsions:
REMARK  status: ('A' for Active; 'I' for Inactive)
REMARK    1  A    between atoms: C5_5  and  C6_6 
REMARK    2  A    between atoms: C9_9  and  C10_10 
REMARK    3  A    between atoms: C10_10  and  O1_11 
REMARK    4  A    between atoms: C12_15  and  C13_16 
REMARK    5  A    between atoms: C13_16  and  O3_17 
ROOT
HETATM    1  C1  UNL     1       9.901  -3.170  56.641  1.00  0.00     0.049 C 
HETATM    2  C2  UNL     1      11.234  -3.604  56.143  1.00  0.00    -0.054 A 
HETATM    3  C3  UNL     1      11.722  -4.825  56.559  1.00  0.00     0.008 A 
HETATM    4  C4  UNL     1      12.960  -5.216  56.091  1.00  0.00     0.015 A 
HETATM    5  C5  UNL     1      13.726  -4.456  55.236  1.00  0.00    -0.002 A 
HETATM    6  C11 UNL     1      13.184  -3.238  54.852  1.00  0.00     0.024 A 
HETATM    7  C12 UNL     1      11.947  -2.804  55.296  1.00  0.00    -0.028 A 
ENDROOT
BRANCH   5   8
HETATM    8  C6  UNL     1      15.032  -4.895  54.757  1.00  0.00     0.086 A 
HETATM    9  C7  UNL     1      15.824  -5.862  55.333  1.00  0.00     0.040 A 
HETATM   10  C8  UNL     1      16.963  -5.972  54.577  1.00  0.00     0.038 A 
HETATM   11  C9  UNL     1      16.818  -5.053  53.555  1.00  0.00     0.077 A 
HETATM   12  O2  UNL     1      15.678  -4.455  53.707  1.00  0.00    -0.312 OA
BRANCH  11  13
HETATM   13  C10 UNL     1      17.845  -4.849  52.498  1.00  0.00     0.229 C 
BRANCH  13  14
HETATM   14  O1  UNL     1      18.597  -6.030  52.302  1.00  0.00    -0.394 OA
ATOM     15  H1  UNL     1      19.210  -5.920  51.584  1.00  0.00     0.209 HD
ENDBRANCH  13  14
ENDBRANCH  11  13
ENDBRANCH   5   8
BRANCH   7  16
HETATM   16  C13 UNL     1      11.366  -1.505  54.888  1.00  0.00     0.203 C 
BRANCH  16  17
HETATM   17  O3  UNL     1      10.374  -1.684  53.912  1.00  0.00    -0.396 OA
ATOM     18  H3  UNL     1      10.716  -2.159  53.163  1.00  0.00     0.209 HD
ENDBRANCH  16  17
ENDBRANCH   7  16
TORSDOF 5
ENDMDL
MODEL 5
REMARK VINA RESULT: -7.022709296      1.445      6.224
REMARK  5 active torsions:
REMARK  status: ('A' for Active; 'I' for Inactive)
REMARK    1  A    between atoms: C5_5  and  C6_6 
REMARK    2  A    between atoms: C9_9  and  C10_10 
REMARK    3  A    between atoms: C10_10  and  O1_11 
REMARK    4  A    between atoms: C12_15  and  C13_16 
REMARK    5  A    between atoms: C13_16  and  O3_17 
ROOT
HETATM    1  C1  UNL     1      16.820  -6.592  55.067  1.00  0.00     0.049 C 
HETATM    2  C2  UNL     1      15.601  -5.742  55.127  1.00  0.00    -0.054 A 
HETATM    3  C3  UNL     1      14.461  -6.272  55.694  1.00  0.00     0.008 A 
HETATM    4  C4  UNL     1      13.337  -5.474  55.744  1.00  0.00     0.015 A 
HETATM    5  C5  UNL     1      13.295  -4.185  55.262  1.00  0.00    -0.002 A 
HETATM    6  C11 UNL     1      14.471  -3.706  54.703  1.00  0.00     0.024 A 
HETATM    7  C12 UNL     1      15.623  -4.469  54.631  1.00  0.00    -0.028 A 
ENDROOT
BRANCH   5   8
HETATM    8  C6  UNL     1      12.092  -3.364  55.328  1.00  0.00     0.086 A 
HETATM    9  C7  UNL     1      11.779  -2.313  54.496  1.00  0.00     0.040 A 
HETATM   10  C8  UNL     1      10.566  -1.812  54.893  1.00  0.00     0.038 A 
HETATM   11  C9  UNL     1      10.181  -2.590  55.969  1.00  0.00     0.077 A 
HETATM   12  O2  UNL     1      11.104  -3.476  56.179  1.00  0.00    -0.312 OA
BRANCH  11  13
HETATM   13  C10 UNL     1       8.906  -2.378  56.706  1.00  0.00     0.229 C 
BRANCH  13  14
HETATM   14  O1  UNL     1       8.543  -1.011  56.687  1.00  0.00    -0.394 OA
ATOM     15  H1  UNL     1       8.211  -0.742  57.535  1.00  0.00     0.209 HD
ENDBRANCH  13  14
ENDBRANCH  11  13
ENDBRANCH   5   8
BRANCH   7  16
HETATM   16  C13 UNL     1      16.879  -3.960  54.036  1.00  0.00     0.203 C 
BRANCH  16  17
HETATM   17  O3  UNL     1      16.924  -4.221  52.658  1.00  0.00    -0.396 OA
ATOM     18  H3  UNL     1      16.235  -3.752  52.201  1.00  0.00     0.209 HD
ENDBRANCH  16  17
ENDBRANCH   7  16
TORSDOF 5
ENDMDL
