MODEL 1
REMARK VINA RESULT: -7.083791123      0.000      0.000
REMARK  7 active torsions:
REMARK  status: ('A' for Active; 'I' for Inactive)
REMARK    1  A    between atoms: C6_8  and  C7_9 
REMARK    2  A    between atoms: C6_8  and  C16_21 
REMARK    3  A    between atoms: C7_9  and  C8_10 
REMARK    4  A    between atoms: C8_10  and  O4_12 
REMARK    5  A    between atoms: O4_12  and  C9_13 
REMARK    6  A    between atoms: C9_13  and  C10_14 
REMARK    7  A    between atoms: C18_25  and  O6_26 
ROOT
HETATM    1  C1  UNL     1      21.012  -5.788  40.164  1.00  0.00     0.040 C 
HETATM    2  C2  UNL     1      19.725  -4.992  40.139  1.00  0.00     0.126 C 
HETATM    3  O1  UNL     1      18.752  -5.683  40.811  1.00  0.00    -0.386 OA
HETATM    4  C3  UNL     1      18.219  -6.719  40.092  1.00  0.00     0.170 C 
HETATM    5  C4  UNL     1      17.401  -6.162  38.990  1.00  0.00     0.058 C 
HETATM    6  C5  UNL     1      18.013  -4.948  38.299  1.00  0.00     0.134 C 
HETATM    7  O2  UNL     1      17.122  -3.962  38.364  1.00  0.00    -0.364 OA
HETATM    8  C6  UNL     1      17.406  -2.718  37.837  1.00  0.00     0.150 C 
HETATM    9  C17 UNL     1      18.873  -2.752  37.319  1.00  0.00     0.080 C 
HETATM   10  C18 UNL     1      19.626  -3.146  38.558  1.00  0.00     0.130 C 
HETATM   11  C19 UNL     1      19.404  -4.651  38.715  1.00  0.00     0.072 C 
ENDROOT
BRANCH   8  12
HETATM   12  C7  UNL     1      16.487  -2.490  36.646  1.00  0.00     0.159 C 
BRANCH  12  13
HETATM   13  C8  UNL     1      15.200  -3.276  36.780  1.00  0.00     0.262 C 
HETATM   14  O3  UNL     1      14.986  -4.265  36.089  1.00  0.00    -0.265 OA
BRANCH  13  15
HETATM   15  O4  UNL     1      14.313  -2.876  37.681  1.00  0.00    -0.317 OA
BRANCH  15  16
HETATM   16  C9  UNL     1      13.582  -2.054  38.385  1.00  0.00     0.219 C 
BRANCH  16  17
HETATM   17  C10 UNL     1      12.420  -2.796  38.979  1.00  0.00    -0.012 A 
HETATM   18  C11 UNL     1      11.630  -3.595  38.201  1.00  0.00     0.011 A 
HETATM   19  C12 UNL     1      10.506  -4.164  38.782  1.00  0.00     0.001 A 
HETATM   20  C13 UNL     1      10.239  -3.904  40.135  1.00  0.00     0.002 A 
HETATM   21  C14 UNL     1      11.048  -3.099  40.895  1.00  0.00     0.024 A 
HETATM   22  C15 UNL     1      12.145  -2.536  40.321  1.00  0.00     0.042 A 
HETATM   23 CL1  UNL     1      13.203  -1.508  41.264  1.00  0.00    -0.084 Cl
ENDBRANCH  16  17
ENDBRANCH  15  16
ENDBRANCH  13  15
ENDBRANCH  12  13
ENDBRANCH   8  12
BRANCH   8  24
HETATM   24  C16 UNL     1      17.322  -1.641  38.801  1.00  0.00     0.266 C 
HETATM   25  N1  UNL     1      17.957  -0.346  38.655  1.00  0.00    -0.059 NA
HETATM   26  O5  UNL     1      16.661  -1.791  39.906  1.00  0.00    -0.273 OA
ENDBRANCH   8  24
BRANCH  10  27
HETATM   27  O6  UNL     1      20.946  -2.795  38.533  1.00  0.00    -0.395 OA
ATOM     28  H6  UNL     1      21.114  -1.913  38.843  1.00  0.00     0.210 HD
ENDBRANCH  10  27
TORSDOF 7
ENDMDL
MODEL 2
REMARK VINA RESULT: -7.047649262      2.591      7.305
REMARK  7 active torsions:
REMARK  status: ('A' for Active; 'I' for Inactive)
REMARK    1  A    between atoms: C6_8  and  C7_9 
REMARK    2  A    between atoms: C6_8  and  C16_21 
REMARK    3  A    between atoms: C7_9  and  C8_10 
REMARK    4  A    between atoms: C8_10  and  O4_12 
REMARK    5  A    between atoms: O4_12  and  C9_13 
REMARK    6  A    between atoms: C9_13  and  C10_14 
REMARK    7  A    between atoms: C18_25  and  O6_26 
ROOT
HETATM    1  C1  UNL     1      10.829  -1.790  38.699  1.00  0.00     0.040 C 
HETATM    2  C2  UNL     1      12.165  -1.847  37.989  1.00  0.00     0.126 C 
HETATM    3  O1  UNL     1      11.961  -1.803  36.636  1.00  0.00    -0.386 OA
HETATM    4  C3  UNL     1      11.537  -2.993  36.106  1.00  0.00     0.170 C 
HETATM    5  C4  UNL     1      12.659  -3.958  36.148  1.00  0.00     0.058 C 
HETATM    6  C5  UNL     1      13.489  -3.909  37.427  1.00  0.00     0.134 C 
HETATM    7  O2  UNL     1      14.754  -3.704  37.073  1.00  0.00    -0.364 OA
HETATM    8  C6  UNL     1      15.745  -3.590  38.029  1.00  0.00     0.150 C 
HETATM    9  C17 UNL     1      15.059  -3.652  39.424  1.00  0.00     0.080 C 
HETATM   10  C18 UNL     1      14.077  -2.519  39.335  1.00  0.00     0.130 C 
HETATM   11  C19 UNL     1      12.917  -3.045  38.487  1.00  0.00     0.072 C 
ENDROOT
BRANCH   8  12
HETATM   12  C7  UNL     1      16.667  -4.792  37.897  1.00  0.00     0.159 C 
BRANCH  12  13
HETATM   13  C8  UNL     1      17.107  -5.305  39.252  1.00  0.00     0.262 C 
HETATM   14  O3  UNL     1      16.427  -6.111  39.876  1.00  0.00    -0.265 OA
BRANCH  13  15
HETATM   15  O4  UNL     1      18.260  -4.871  39.741  1.00  0.00    -0.317 OA
BRANCH  15  16
HETATM   16  C9  UNL     1      19.528  -4.560  39.769  1.00  0.00     0.219 C 
BRANCH  16  17
HETATM   17  C10 UNL     1      20.235  -5.417  40.777  1.00  0.00    -0.012 A 
HETATM   18  C11 UNL     1      20.604  -4.908  41.992  1.00  0.00     0.011 A 
HETATM   19  C12 UNL     1      21.354  -5.714  42.837  1.00  0.00     0.001 A 
HETATM   20  C13 UNL     1      21.689  -7.009  42.413  1.00  0.00     0.002 A 
HETATM   21  C14 UNL     1      21.307  -7.498  41.190  1.00  0.00     0.024 A 
HETATM   22  C15 UNL     1      20.578  -6.702  40.361  1.00  0.00     0.042 A 
HETATM   23 CL1  UNL     1      20.068  -7.297  38.795  1.00  0.00    -0.084 Cl
ENDBRANCH  16  17
ENDBRANCH  15  16
ENDBRANCH  13  15
ENDBRANCH  12  13
ENDBRANCH   8  12
BRANCH   8  24
HETATM   24  C16 UNL     1      16.473  -2.339  37.970  1.00  0.00     0.266 C 
HETATM   25  N1  UNL     1      17.187  -1.743  39.082  1.00  0.00    -0.059 NA
HETATM   26  O5  UNL     1      16.508  -1.643  36.877  1.00  0.00    -0.273 OA
ENDBRANCH   8  24
BRANCH  10  27
HETATM   27  O6  UNL     1      13.681  -2.039  40.551  1.00  0.00    -0.395 OA
ATOM     28  H6  UNL     1      12.902  -2.462  40.894  1.00  0.00     0.210 HD
ENDBRANCH  10  27
TORSDOF 7
ENDMDL
MODEL 3
REMARK VINA RESULT: -7.018566584      2.701      6.986
REMARK  7 active torsions:
REMARK  status: ('A' for Active; 'I' for Inactive)
REMARK    1  A    between atoms: C6_8  and  C7_9 
REMARK    2  A    between atoms: C6_8  and  C16_21 
REMARK    3  A    between atoms: C7_9  and  C8_10 
REMARK    4  A    between atoms: C8_10  and  O4_12 
REMARK    5  A    between atoms: O4_12  and  C9_13 
REMARK    6  A    between atoms: C9_13  and  C10_14 
REMARK    7  A    between atoms: C18_25  and  O6_26 
ROOT
HETATM    1  C1  UNL     1      11.428  -3.441  36.843  1.00  0.00     0.040 C 
HETATM    2  C2  UNL     1      12.506  -3.920  37.791  1.00  0.00     0.126 C 
HETATM    3  O1  UNL     1      11.999  -3.975  39.062  1.00  0.00    -0.386 OA
HETATM    4  C3  UNL     1      11.899  -2.750  39.667  1.00  0.00     0.170 C 
HETATM    5  C4  UNL     1      13.262  -2.259  39.973  1.00  0.00     0.058 C 
HETATM    6  C5  UNL     1      14.291  -2.523  38.878  1.00  0.00     0.134 C 
HETATM    7  O2  UNL     1      15.296  -3.198  39.430  1.00  0.00    -0.364 OA
HETATM    8  C6  UNL     1      16.376  -3.602  38.671  1.00  0.00     0.150 C 
HETATM    9  C17 UNL     1      16.087  -3.203  37.195  1.00  0.00     0.080 C 
HETATM   10  C18 UNL     1      14.784  -3.904  36.937  1.00  0.00     0.130 C 
HETATM   11  C19 UNL     1      13.714  -3.049  37.619  1.00  0.00     0.072 C 
ENDROOT
BRANCH   8  12
HETATM   12  C7  UNL     1      17.599  -2.830  39.142  1.00  0.00     0.159 C 
BRANCH  12  13
HETATM   13  C8  UNL     1      18.867  -3.353  38.501  1.00  0.00     0.262 C 
HETATM   14  O3  UNL     1      19.556  -4.199  39.057  1.00  0.00    -0.265 OA
BRANCH  13  15
HETATM   15  O4  UNL     1      19.204  -2.883  37.308  1.00  0.00    -0.317 OA
BRANCH  15  16
HETATM   16  C9  UNL     1      19.550  -2.012  36.398  1.00  0.00     0.219 C 
BRANCH  16  17
HETATM   17  C10 UNL     1      20.117  -0.790  37.060  1.00  0.00    -0.012 A 
HETATM   18  C11 UNL     1      21.437  -0.737  37.416  1.00  0.00     0.011 A 
HETATM   19  C12 UNL     1      21.876   0.372  38.125  1.00  0.00     0.001 A 
HETATM   20  C13 UNL     1      20.956   1.386  38.433  1.00  0.00     0.002 A 
HETATM   21  C14 UNL     1      19.637   1.310  38.064  1.00  0.00     0.024 A 
HETATM   22  C15 UNL     1      19.208   0.218  37.376  1.00  0.00     0.042 A 
HETATM   23 CL1  UNL     1      17.532   0.091  36.884  1.00  0.00    -0.084 Cl
ENDBRANCH  16  17
ENDBRANCH  15  16
ENDBRANCH  13  15
ENDBRANCH  12  13
ENDBRANCH   8  12
BRANCH   8  24
HETATM   24  C16 UNL     1      16.599  -5.033  38.687  1.00  0.00     0.266 C 
HETATM   25  N1  UNL     1      16.476  -5.878  39.858  1.00  0.00    -0.059 NA
HETATM   26  O5  UNL     1      16.958  -5.660  37.610  1.00  0.00    -0.273 OA
ENDBRANCH   8  24
BRANCH  10  27
HETATM   27  O6  UNL     1      14.532  -4.127  35.613  1.00  0.00    -0.395 OA
ATOM     28  H6  UNL     1      14.410  -3.332  35.107  1.00  0.00     0.210 HD
ENDBRANCH  10  27
TORSDOF 7
ENDMDL
MODEL 4
REMARK VINA RESULT: -7.006949311      3.167      7.522
REMARK  7 active torsions:
REMARK  status: ('A' for Active; 'I' for Inactive)
REMARK    1  A    between atoms: C6_8  and  C7_9 
REMARK    2  A    between atoms: C6_8  and  C16_21 
REMARK    3  A    between atoms: C7_9  and  C8_10 
REMARK    4  A    between atoms: C8_10  and  O4_12 
REMARK    5  A    between atoms: O4_12  and  C9_13 
REMARK    6  A    between atoms: C9_13  and  C10_14 
REMARK    7  A    between atoms: C18_25  and  O6_26 
ROOT
HETATM    1  C1  UNL     1      11.504  -3.872  36.920  1.00  0.00     0.040 C 
HETATM    2  C2  UNL     1      12.662  -4.115  37.864  1.00  0.00     0.126 C 
HETATM    3  O1  UNL     1      12.196  -4.156  39.151  1.00  0.00    -0.386 OA
HETATM    4  C3  UNL     1      11.924  -2.921  39.675  1.00  0.00     0.170 C 
HETATM    5  C4  UNL     1      13.202  -2.210  39.905  1.00  0.00     0.058 C 
HETATM    6  C5  UNL     1      14.236  -2.392  38.798  1.00  0.00     0.134 C 
HETATM    7  O2  UNL     1      15.343  -2.868  39.362  1.00  0.00    -0.364 OA
HETATM    8  C6  UNL     1      16.456  -3.157  38.598  1.00  0.00     0.150 C 
HETATM    9  C17 UNL     1      16.079  -2.911  37.109  1.00  0.00     0.080 C 
HETATM   10  C18 UNL     1      14.892  -3.817  36.939  1.00  0.00     0.130 C 
HETATM   11  C19 UNL     1      13.719  -3.087  37.596  1.00  0.00     0.072 C 
ENDROOT
BRANCH   8  12
HETATM   12  C7  UNL     1      17.556  -2.178  38.978  1.00  0.00     0.159 C 
BRANCH  12  13
HETATM   13  C8  UNL     1      18.117  -1.474  37.761  1.00  0.00     0.262 C 
HETATM   14  O3  UNL     1      17.639  -0.419  37.362  1.00  0.00    -0.265 OA
BRANCH  13  15
HETATM   15  O4  UNL     1      19.156  -2.021  37.145  1.00  0.00    -0.317 OA
BRANCH  15  16
HETATM   16  C9  UNL     1      20.309  -2.618  37.004  1.00  0.00     0.219 C 
BRANCH  16  17
HETATM   17  C10 UNL     1      20.989  -2.113  35.765  1.00  0.00    -0.012 A 
HETATM   18  C11 UNL     1      20.984  -2.851  34.614  1.00  0.00     0.011 A 
HETATM   19  C12 UNL     1      21.724  -2.386  33.537  1.00  0.00     0.001 A 
HETATM   20  C13 UNL     1      22.432  -1.181  33.674  1.00  0.00     0.002 A 
HETATM   21  C14 UNL     1      22.421  -0.458  34.839  1.00  0.00     0.024 A 
HETATM   22  C15 UNL     1      21.701  -0.921  35.895  1.00  0.00     0.042 A 
HETATM   23 CL1  UNL     1      21.660  -0.020  37.396  1.00  0.00    -0.084 Cl
ENDBRANCH  16  17
ENDBRANCH  15  16
ENDBRANCH  13  15
ENDBRANCH  12  13
ENDBRANCH   8  12
BRANCH   8  24
HETATM   24  C16 UNL     1      16.895  -4.533  38.702  1.00  0.00     0.266 C 
HETATM   25  N1  UNL     1      16.412  -5.485  39.683  1.00  0.00    -0.059 NA
HETATM   26  O5  UNL     1      17.800  -5.002  37.901  1.00  0.00    -0.273 OA
ENDBRANCH   8  24
BRANCH  10  27
HETATM   27  O6  UNL     1      14.650  -4.168  35.641  1.00  0.00    -0.395 OA
ATOM     28  H6  UNL     1      13.780  -4.522  35.497  1.00  0.00     0.210 HD
ENDBRANCH  10  27
TORSDOF 7
ENDMDL
MODEL 5
REMARK VINA RESULT: -6.986423756      2.474      7.453
REMARK  7 active torsions:
REMARK  status: ('A' for Active; 'I' for Inactive)
REMARK    1  A    between atoms: C6_8  and  C7_9 
REMARK    2  A    between atoms: C6_8  and  C16_21 
REMARK    3  A    between atoms: C7_9  and  C8_10 
REMARK    4  A    between atoms: C8_10  and  O4_12 
REMARK    5  A    between atoms: O4_12  and  C9_13 
REMARK    6  A    between atoms: C9_13  and  C10_14 
REMARK    7  A    between atoms: C18_25  and  O6_26 
ROOT
HETATM    1  C1  UNL     1       8.583  -2.193  38.615  1.00  0.00     0.040 C 
HETATM    2  C2  UNL     1       9.878  -2.974  38.558  1.00  0.00     0.126 C 
HETATM    3  O1  UNL     1       9.871  -3.933  39.536  1.00  0.00    -0.386 OA
HETATM    4  C3  UNL     1      10.128  -3.442  40.788  1.00  0.00     0.170 C 
HETATM    5  C4  UNL     1      11.551  -3.039  40.858  1.00  0.00     0.058 C 
HETATM    6  C5  UNL     1      12.072  -2.338  39.607  1.00  0.00     0.134 C 
HETATM    7  O2  UNL     1      13.133  -3.018  39.183  1.00  0.00    -0.364 OA
HETATM    8  C6  UNL     1      13.811  -2.630  38.044  1.00  0.00     0.150 C 
HETATM    9  C17 UNL     1      13.043  -1.425  37.429  1.00  0.00     0.080 C 
HETATM   10  C18 UNL     1      11.671  -2.003  37.231  1.00  0.00     0.130 C 
HETATM   11  C19 UNL     1      11.021  -2.006  38.617  1.00  0.00     0.072 C 
ENDROOT
BRANCH   8  12
HETATM   12  C7  UNL     1      15.194  -2.152  38.458  1.00  0.00     0.159 C 
BRANCH  12  13
HETATM   13  C8  UNL     1      15.668  -2.849  39.716  1.00  0.00     0.262 C 
HETATM   14  O3  UNL     1      15.464  -2.367  40.823  1.00  0.00    -0.265 OA
BRANCH  13  15
HETATM   15  O4  UNL     1      16.297  -4.010  39.589  1.00  0.00    -0.317 OA
BRANCH  15  16
HETATM   16  C9  UNL     1      17.078  -4.919  39.068  1.00  0.00     0.219 C 
BRANCH  16  17
HETATM   17  C10 UNL     1      18.481  -4.719  39.560  1.00  0.00    -0.012 A 
HETATM   18  C11 UNL     1      18.934  -5.382  40.667  1.00  0.00     0.011 A 
HETATM   19  C12 UNL     1      20.202  -5.072  41.140  1.00  0.00     0.001 A 
HETATM   20  C13 UNL     1      20.959  -4.107  40.458  1.00  0.00     0.002 A 
HETATM   21  C14 UNL     1      20.483  -3.456  39.349  1.00  0.00     0.024 A 
HETATM   22  C15 UNL     1      19.237  -3.757  38.893  1.00  0.00     0.042 A 
HETATM   23 CL1  UNL     1      18.600  -2.950  37.476  1.00  0.00    -0.084 Cl
ENDBRANCH  16  17
ENDBRANCH  15  16
ENDBRANCH  13  15
ENDBRANCH  12  13
ENDBRANCH   8  12
BRANCH   8  24
HETATM   24  C16 UNL     1      13.875  -3.656  37.023  1.00  0.00     0.266 C 
HETATM   25  N1  UNL     1      15.019  -3.904  36.169  1.00  0.00    -0.059 NA
HETATM   26  O5  UNL     1      12.859  -4.428  36.795  1.00  0.00    -0.273 OA
ENDBRANCH   8  24
BRANCH  10  27
HETATM   27  O6  UNL     1      10.929  -1.348  36.290  1.00  0.00    -0.395 OA
ATOM     28  H6  UNL     1      10.852  -1.819  35.468  1.00  0.00     0.210 HD
ENDBRANCH  10  27
TORSDOF 7
ENDMDL
