MODEL 1
REMARK VINA RESULT: -6.683023992      0.000      0.000
REMARK  6 active torsions:
REMARK  status: ('A' for Active; 'I' for Inactive)
REMARK    1  A    between atoms: C2_2  and  O1_3 
REMARK    2  A    between atoms: O1_3  and  C3_4 
REMARK    3  A    between atoms: C3_4  and  C4_6 
REMARK    4  A    between atoms: C7_9  and  C8_10 
REMARK    5  A    between atoms: C13_17  and  O3_18 
REMARK    6  A    between atoms: C17_25  and  O6_26 
ROOT
HETATM    1  C4  UNL     1      17.165  -3.826  38.636  1.00  0.00     0.061 C 
HETATM    2  C5  UNL     1      18.035  -4.784  39.005  1.00  0.00     0.022 C 
HETATM    3  C6  UNL     1      19.083  -4.896  39.960  1.00  0.00     0.031 C 
HETATM    4  C7  UNL     1      20.375  -4.746  39.993  1.00  0.00     0.045 C 
HETATM    5  N1  UNL     1      21.221  -4.381  38.902  1.00  0.00    -0.315 N 
ATOM      6  H1  UNL     1      22.145  -4.052  39.182  1.00  0.00     0.170 HD
HETATM    7  C13 UNL     1      21.012  -4.392  37.515  1.00  0.00     0.270 C 
HETATM    8  O4  UNL     1      20.176  -3.608  36.758  1.00  0.00    -0.240 OA
HETATM    9  C14 UNL     1      19.846  -2.286  36.856  1.00  0.00     0.273 C 
HETATM   10  O5  UNL     1      19.510  -1.624  35.809  1.00  0.00    -0.264 OA
HETATM   11  C15 UNL     1      19.828  -1.477  38.102  1.00  0.00     0.114 C 
HETATM   12  C16 UNL     1      21.041  -0.514  37.914  1.00  0.00     0.023 C 
HETATM   13  C17 UNL     1      18.583  -0.700  38.282  1.00  0.00     0.155 C 
HETATM   14  C18 UNL     1      17.536  -1.324  39.044  1.00  0.00     0.030 C 
HETATM   15  C19 UNL     1      17.005  -2.496  39.170  1.00  0.00     0.049 C 
HETATM   16 CL1  UNL     1      15.503  -2.397  40.249  1.00  0.00    -0.083 Cl
ENDROOT
BRANCH   1  17
HETATM   17  C3  UNL     1      16.199  -4.194  37.536  1.00  0.00     0.295 C 
HETATM   18  O2  UNL     1      16.216  -5.239  36.884  1.00  0.00    -0.259 OA
BRANCH  17  19
HETATM   19  O1  UNL     1      15.168  -3.309  37.173  1.00  0.00    -0.318 OA
BRANCH  19  20
HETATM   20  C2  UNL     1      13.805  -3.645  37.357  1.00  0.00     0.174 C 
HETATM   21  C1  UNL     1      13.192  -3.994  36.029  1.00  0.00     0.034 C 
ENDBRANCH  19  20
ENDBRANCH  17  19
ENDBRANCH   1  17
BRANCH   4  22
HETATM   22  C8  UNL     1      21.086  -4.980  41.285  1.00  0.00    -0.013 A 
HETATM   23  C9  UNL     1      22.389  -5.127  41.475  1.00  0.00    -0.009 A 
HETATM   24  C10 UNL     1      22.663  -5.339  42.916  1.00  0.00     0.055 A 
HETATM   25  C11 UNL     1      21.334  -5.294  43.547  1.00  0.00    -0.022 A 
HETATM   26  C12 UNL     1      20.449  -5.086  42.575  1.00  0.00     0.009 A 
ENDBRANCH   4  22
BRANCH  13  27
HETATM   27  O6  UNL     1      18.115  -0.170  37.056  1.00  0.00    -0.391 OA
ATOM     28  H6  UNL     1      17.449   0.494  37.191  1.00  0.00     0.210 HD
ENDBRANCH  13  27
BRANCH   7  29
HETATM   29  O3  UNL     1      21.705  -5.269  36.820  1.00  0.00    -0.326 OA
ATOM     30  H3  UNL     1      21.236  -6.036  36.512  1.00  0.00     0.221 HD
ENDBRANCH   7  29
TORSDOF 6
ENDMDL
MODEL 2
REMARK VINA RESULT: -6.538165293      2.573      6.295
REMARK  6 active torsions:
REMARK  status: ('A' for Active; 'I' for Inactive)
REMARK    1  A    between atoms: C2_2  and  O1_3 
REMARK    2  A    between atoms: O1_3  and  C3_4 
REMARK    3  A    between atoms: C3_4  and  C4_6 
REMARK    4  A    between atoms: C7_9  and  C8_10 
REMARK    5  A    between atoms: C13_17  and  O3_18 
REMARK    6  A    between atoms: C17_25  and  O6_26 
ROOT
HETATM    1  C4  UNL     1      20.350  -4.186  39.481  1.00  0.00     0.061 C 
HETATM    2  C5  UNL     1      19.151  -3.605  39.675  1.00  0.00     0.022 C 
HETATM    3  C6  UNL     1      17.918  -3.552  38.970  1.00  0.00     0.031 C 
HETATM    4  C7  UNL     1      17.332  -2.768  38.114  1.00  0.00     0.045 C 
HETATM    5  N1  UNL     1      17.849  -1.550  37.576  1.00  0.00    -0.315 N 
ATOM      6  H1  UNL     1      17.373  -1.230  36.732  1.00  0.00     0.170 HD
HETATM    7  C13 UNL     1      18.893  -0.714  37.997  1.00  0.00     0.270 C 
HETATM    8  O4  UNL     1      20.246  -0.954  38.005  1.00  0.00    -0.240 OA
HETATM    9  C14 UNL     1      21.050  -1.609  37.116  1.00  0.00     0.273 C 
HETATM   10  O5  UNL     1      22.286  -1.282  36.999  1.00  0.00    -0.264 OA
HETATM   11  C15 UNL     1      20.642  -2.719  36.217  1.00  0.00     0.114 C 
HETATM   12  C16 UNL     1      20.679  -2.059  34.804  1.00  0.00     0.023 C 
HETATM   13  C17 UNL     1      21.555  -3.880  36.262  1.00  0.00     0.155 C 
HETATM   14  C18 UNL     1      21.224  -4.927  37.190  1.00  0.00     0.030 C 
HETATM   15  C19 UNL     1      20.776  -5.037  38.397  1.00  0.00     0.049 C 
HETATM   16 CL1  UNL     1      20.842  -6.807  38.938  1.00  0.00    -0.083 Cl
ENDROOT
BRANCH   1  17
HETATM   17  C3  UNL     1      21.385  -3.949  40.553  1.00  0.00     0.295 C 
HETATM   18  O2  UNL     1      22.515  -3.493  40.372  1.00  0.00    -0.259 OA
BRANCH  17  19
HETATM   19  O1  UNL     1      21.099  -4.255  41.896  1.00  0.00    -0.318 OA
BRANCH  19  20
HETATM   20  C2  UNL     1      21.322  -5.549  42.424  1.00  0.00     0.174 C 
HETATM   21  C1  UNL     1      21.559  -5.452  43.905  1.00  0.00     0.034 C 
ENDBRANCH  19  20
ENDBRANCH  17  19
ENDBRANCH   1  17
BRANCH   4  22
HETATM   22  C8  UNL     1      15.970  -3.139  37.625  1.00  0.00    -0.013 A 
HETATM   23  C9  UNL     1      15.664  -3.849  36.548  1.00  0.00    -0.009 A 
HETATM   24  C10 UNL     1      14.191  -3.979  36.438  1.00  0.00     0.055 A 
HETATM   25  C11 UNL     1      13.675  -3.245  37.604  1.00  0.00    -0.022 A 
HETATM   26  C12 UNL     1      14.730  -2.774  38.265  1.00  0.00     0.009 A 
ENDBRANCH   4  22
BRANCH  13  27
HETATM   27  O6  UNL     1      22.908  -3.478  36.363  1.00  0.00    -0.391 OA
ATOM     28  H6  UNL     1      23.286  -3.724  37.200  1.00  0.00     0.210 HD
ENDBRANCH  13  27
BRANCH   7  29
HETATM   29  O3  UNL     1      18.553   0.473  38.453  1.00  0.00    -0.326 OA
ATOM     30  H3  UNL     1      17.768   0.516  38.986  1.00  0.00     0.221 HD
ENDBRANCH   7  29
TORSDOF 6
ENDMDL
MODEL 3
REMARK VINA RESULT: -6.433766520      2.709      5.259
REMARK  6 active torsions:
REMARK  status: ('A' for Active; 'I' for Inactive)
REMARK    1  A    between atoms: C2_2  and  O1_3 
REMARK    2  A    between atoms: O1_3  and  C3_4 
REMARK    3  A    between atoms: C3_4  and  C4_6 
REMARK    4  A    between atoms: C7_9  and  C8_10 
REMARK    5  A    between atoms: C13_17  and  O3_18 
REMARK    6  A    between atoms: C17_25  and  O6_26 
ROOT
HETATM    1  C4  UNL     1      17.246  -2.957  38.324  1.00  0.00     0.061 C 
HETATM    2  C5  UNL     1      18.299  -2.203  37.960  1.00  0.00     0.022 C 
HETATM    3  C6  UNL     1      19.344  -2.305  37.002  1.00  0.00     0.031 C 
HETATM    4  C7  UNL     1      20.575  -2.726  36.962  1.00  0.00     0.045 C 
HETATM    5  N1  UNL     1      21.326  -3.274  38.046  1.00  0.00    -0.315 N 
ATOM      6  H1  UNL     1      22.159  -3.789  37.758  1.00  0.00     0.170 HD
HETATM    7  C13 UNL     1      21.128  -3.234  39.433  1.00  0.00     0.270 C 
HETATM    8  O4  UNL     1      20.145  -3.830  40.186  1.00  0.00    -0.240 OA
HETATM    9  C14 UNL     1      19.543  -5.051  40.076  1.00  0.00     0.273 C 
HETATM   10  O5  UNL     1      19.076  -5.638  41.118  1.00  0.00    -0.264 OA
HETATM   11  C15 UNL     1      19.350  -5.824  38.822  1.00  0.00     0.114 C 
HETATM   12  C16 UNL     1      20.331  -7.024  38.995  1.00  0.00     0.023 C 
HETATM   13  C17 UNL     1      17.968  -6.317  38.640  1.00  0.00     0.155 C 
HETATM   14  C18 UNL     1      17.076  -5.477  37.889  1.00  0.00     0.030 C 
HETATM   15  C19 UNL     1      16.806  -4.218  37.777  1.00  0.00     0.049 C 
HETATM   16 CL1  UNL     1      15.315  -3.984  36.704  1.00  0.00    -0.083 Cl
ENDROOT
BRANCH   1  17
HETATM   17  C3  UNL     1      16.383  -2.405  39.431  1.00  0.00     0.295 C 
HETATM   18  O2  UNL     1      16.634  -1.408  40.110  1.00  0.00    -0.259 OA
BRANCH  17  19
HETATM   19  O1  UNL     1      15.172  -3.038  39.769  1.00  0.00    -0.318 OA
BRANCH  19  20
HETATM   20  C2  UNL     1      13.921  -2.432  39.504  1.00  0.00     0.174 C 
HETATM   21  C1  UNL     1      13.291  -1.995  40.797  1.00  0.00     0.034 C 
ENDBRANCH  19  20
ENDBRANCH  17  19
ENDBRANCH   1  17
BRANCH   4  22
HETATM   22  C8  UNL     1      21.316  -2.634  35.669  1.00  0.00    -0.013 A 
HETATM   23  C9  UNL     1      22.623  -2.748  35.478  1.00  0.00    -0.009 A 
HETATM   24  C10 UNL     1      22.931  -2.591  34.036  1.00  0.00     0.055 A 
HETATM   25  C11 UNL     1      21.620  -2.370  33.407  1.00  0.00    -0.022 A 
HETATM   26  C12 UNL     1      20.712  -2.401  34.381  1.00  0.00     0.009 A 
ENDBRANCH   4  22
BRANCH  13  27
HETATM   27  O6  UNL     1      17.401  -6.749  39.863  1.00  0.00    -0.391 OA
ATOM     28  H6  UNL     1      16.724  -7.402  39.725  1.00  0.00     0.210 HD
ENDBRANCH  13  27
BRANCH   7  29
HETATM   29  O3  UNL     1      21.992  -2.531  40.134  1.00  0.00    -0.326 OA
ATOM     30  H3  UNL     1      22.074  -1.611  39.912  1.00  0.00     0.221 HD
ENDBRANCH   7  29
TORSDOF 6
ENDMDL
MODEL 4
REMARK VINA RESULT: -6.408200861      2.623      5.951
REMARK  6 active torsions:
REMARK  status: ('A' for Active; 'I' for Inactive)
REMARK    1  A    between atoms: C2_2  and  O1_3 
REMARK    2  A    between atoms: O1_3  and  C3_4 
REMARK    3  A    between atoms: C3_4  and  C4_6 
REMARK    4  A    between atoms: C7_9  and  C8_10 
REMARK    5  A    between atoms: C13_17  and  O3_18 
REMARK    6  A    between atoms: C17_25  and  O6_26 
ROOT
HETATM    1  C4  UNL     1      20.432  -3.236  37.411  1.00  0.00     0.061 C 
HETATM    2  C5  UNL     1      19.139  -3.552  37.212  1.00  0.00     0.022 C 
HETATM    3  C6  UNL     1      17.921  -3.354  37.917  1.00  0.00     0.031 C 
HETATM    4  C7  UNL     1      17.183  -4.008  38.766  1.00  0.00     0.045 C 
HETATM    5  N1  UNL     1      17.435  -5.313  39.290  1.00  0.00    -0.315 N 
ATOM      6  H1  UNL     1      16.902  -5.536  40.130  1.00  0.00     0.170 HD
HETATM    7  C13 UNL     1      18.282  -6.343  38.858  1.00  0.00     0.270 C 
HETATM    8  O4  UNL     1      19.655  -6.392  38.851  1.00  0.00    -0.240 OA
HETATM    9  C14 UNL     1      20.577  -5.929  39.747  1.00  0.00     0.273 C 
HETATM   10  O5  UNL     1      21.718  -6.507  39.858  1.00  0.00    -0.264 OA
HETATM   11  C15 UNL     1      20.409  -4.768  40.658  1.00  0.00     0.114 C 
HETATM   12  C16 UNL     1      20.306  -5.437  42.064  1.00  0.00     0.023 C 
HETATM   13  C17 UNL     1      21.544  -3.822  40.625  1.00  0.00     0.155 C 
HETATM   14  C18 UNL     1      21.440  -2.719  39.709  1.00  0.00     0.030 C 
HETATM   15  C19 UNL     1      21.026  -2.505  38.504  1.00  0.00     0.049 C 
HETATM   16 CL1  UNL     1      21.460  -0.781  37.982  1.00  0.00    -0.083 Cl
ENDROOT
BRANCH   1  17
HETATM   17  C3  UNL     1      21.397  -3.672  36.335  1.00  0.00     0.295 C 
HETATM   18  O2  UNL     1      22.411  -4.350  36.510  1.00  0.00    -0.259 OA
BRANCH  17  19
HETATM   19  O1  UNL     1      21.177  -3.305  34.995  1.00  0.00    -0.318 OA
BRANCH  19  20
HETATM   20  C2  UNL     1      21.598  -2.051  34.492  1.00  0.00     0.174 C 
HETATM   21  C1  UNL     1      21.942  -2.185  33.035  1.00  0.00     0.034 C 
ENDBRANCH  19  20
ENDBRANCH  17  19
ENDBRANCH   1  17
BRANCH   4  22
HETATM   22  C8  UNL     1      15.929  -3.367  39.261  1.00  0.00    -0.013 A 
HETATM   23  C9  UNL     1      15.793  -2.548  40.294  1.00  0.00    -0.009 A 
HETATM   24  C10 UNL     1      14.373  -2.147  40.430  1.00  0.00     0.055 A 
HETATM   25  C11 UNL     1      13.692  -2.845  39.328  1.00  0.00    -0.022 A 
HETATM   26  C12 UNL     1      14.622  -3.540  38.676  1.00  0.00     0.009 A 
ENDBRANCH   4  22
BRANCH  13  27
HETATM   27  O6  UNL     1      22.784  -4.496  40.517  1.00  0.00    -0.391 OA
ATOM     28  H6  UNL     1      22.930  -4.824  39.637  1.00  0.00     0.210 HD
ENDBRANCH  13  27
BRANCH   7  29
HETATM   29  O3  UNL     1      17.702  -7.428  38.390  1.00  0.00    -0.326 OA
ATOM     30  H3  UNL     1      16.862  -7.660  38.767  1.00  0.00     0.221 HD
ENDBRANCH   7  29
TORSDOF 6
ENDMDL
MODEL 5
REMARK VINA RESULT: -6.181492071      3.486      5.673
REMARK  6 active torsions:
REMARK  status: ('A' for Active; 'I' for Inactive)
REMARK    1  A    between atoms: C2_2  and  O1_3 
REMARK    2  A    between atoms: O1_3  and  C3_4 
REMARK    3  A    between atoms: C3_4  and  C4_6 
REMARK    4  A    between atoms: C7_9  and  C8_10 
REMARK    5  A    between atoms: C13_17  and  O3_18 
REMARK    6  A    between atoms: C17_25  and  O6_26 
ROOT
HETATM    1  C4  UNL     1      21.183  -1.309  36.171  1.00  0.00     0.061 C 
HETATM    2  C5  UNL     1      20.475  -2.453  36.144  1.00  0.00     0.022 C 
HETATM    3  C6  UNL     1      19.722  -3.209  37.083  1.00  0.00     0.031 C 
HETATM    4  C7  UNL     1      19.915  -4.215  37.885  1.00  0.00     0.045 C 
HETATM    5  N1  UNL     1      21.126  -4.953  38.055  1.00  0.00    -0.315 N 
ATOM      6  H1  UNL     1      21.159  -5.512  38.908  1.00  0.00     0.170 HD
HETATM    7  C13 UNL     1      22.278  -5.049  37.261  1.00  0.00     0.270 C 
HETATM    8  O4  UNL     1      23.231  -4.095  36.996  1.00  0.00    -0.240 OA
HETATM    9  C14 UNL     1      23.786  -3.133  37.791  1.00  0.00     0.273 C 
HETATM   10  O5  UNL     1      24.979  -2.717  37.565  1.00  0.00    -0.264 OA
HETATM   11  C15 UNL     1      23.137  -2.469  38.951  1.00  0.00     0.114 C 
HETATM   12  C16 UNL     1      23.925  -3.042  40.169  1.00  0.00     0.023 C 
HETATM   13  C17 UNL     1      23.242  -0.995  38.923  1.00  0.00     0.155 C 
HETATM   14  C18 UNL     1      22.156  -0.282  38.307  1.00  0.00     0.030 C 
HETATM   15  C19 UNL     1      21.390  -0.401  37.273  1.00  0.00     0.049 C 
HETATM   16 CL1  UNL     1      20.354   1.121  37.075  1.00  0.00    -0.083 Cl
ENDROOT
BRANCH   1  17
HETATM   17  C3  UNL     1      21.824  -0.892  34.870  1.00  0.00     0.295 C 
HETATM   18  O2  UNL     1      22.308   0.215  34.629  1.00  0.00    -0.259 OA
BRANCH  17  19
HETATM   19  O1  UNL     1      21.907  -1.799  33.798  1.00  0.00    -0.318 OA
BRANCH  19  20
HETATM   20  C2  UNL     1      23.115  -1.997  33.088  1.00  0.00     0.174 C 
HETATM   21  C1  UNL     1      24.200  -2.398  34.048  1.00  0.00     0.034 C 
ENDBRANCH  19  20
ENDBRANCH  17  19
ENDBRANCH   1  17
BRANCH   4  22
HETATM   22  C8  UNL     1      18.774  -4.683  38.727  1.00  0.00    -0.013 A 
HETATM   23  C9  UNL     1      18.805  -5.041  40.003  1.00  0.00    -0.009 A 
HETATM   24  C10 UNL     1      17.446  -5.438  40.443  1.00  0.00     0.055 A 
HETATM   25  C11 UNL     1      16.611  -5.262  39.244  1.00  0.00    -0.022 A 
HETATM   26  C12 UNL     1      17.412  -4.826  38.274  1.00  0.00     0.009 A 
ENDBRANCH   4  22
BRANCH  13  27
HETATM   27  O6  UNL     1      24.505  -0.570  38.448  1.00  0.00    -0.391 OA
ATOM     28  H6  UNL     1      25.091  -0.343  39.161  1.00  0.00     0.210 HD
ENDBRANCH  13  27
BRANCH   7  29
HETATM   29  O3  UNL     1      22.499  -6.208  36.678  1.00  0.00    -0.326 OA
ATOM     30  H3  UNL     1      22.763  -6.182  35.766  1.00  0.00     0.221 HD
ENDBRANCH   7  29
TORSDOF 6
ENDMDL
