MODEL 1
REMARK VINA RESULT: -7.274432215      0.000      0.000
REMARK  4 active torsions:
REMARK  status: ('A' for Active; 'I' for Inactive)
REMARK    1  A    between atoms: C5_5  and  C6_6 
REMARK    2  A    between atoms: C6_6  and  N1_7 
REMARK       I    between atoms: N1_7  and  C7_9 
REMARK       I    between atoms: C7_9  and  N2_11 
REMARK    3  A    between atoms: N2_11  and  C8_13 
REMARK    4  A    between atoms: C15_20  and  O2_21 
ROOT
HETATM    1  C1  UNL     1       2.412  11.261   7.323  1.00  0.00     0.051 C 
HETATM    2  C2  UNL     1       3.575  11.455   8.226  1.00  0.00    -0.022 A 
HETATM    3  C3  UNL     1       3.423  12.098   9.433  1.00  0.00     0.022 A 
HETATM    4  C4  UNL     1       4.499  12.292  10.295  1.00  0.00    -0.015 A 
HETATM    5  C5  UNL     1       4.321  12.946  11.512  1.00  0.00    -0.029 A 
HETATM    6  C13 UNL     1       5.362  13.147  12.373  1.00  0.00     0.012 A 
HETATM    7  C14 UNL     1       6.650  12.702  12.065  1.00  0.00     0.038 A 
HETATM    8  C15 UNL     1       6.828  12.046  10.843  1.00  0.00     0.076 A 
HETATM    9  C16 UNL     1       5.764  11.854   9.988  1.00  0.00     0.011 A 
HETATM   10  C17 UNL     1       5.918  11.206   8.772  1.00  0.00     0.058 A 
HETATM   11  C18 UNL     1       4.837  11.011   7.905  1.00  0.00     0.123 A 
HETATM   12  F1  UNL     1       5.010  10.372   6.715  1.00  0.00    -0.206 F 
ENDROOT
BRANCH   5  13
HETATM   13  C6  UNL     1       2.953  13.423  11.790  1.00  0.00     0.163 C 
BRANCH  13  14
HETATM   14  N1  UNL     1       2.810  14.811  12.051  1.00  0.00    -0.339 N 
HETATM   15  C7  UNL     1       2.908  15.851  11.095  1.00  0.00     0.316 C 
HETATM   16  O1  UNL     1       3.161  15.519   9.889  1.00  0.00    -0.247 OA
HETATM   17  N2  UNL     1       2.734  17.206  11.445  1.00  0.00    -0.339 N 
ATOM     18  H2  UNL     1       2.531  17.464  12.411  1.00  0.00     0.164 HD
ATOM     19  H1  UNL     1       2.621  15.084  13.015  1.00  0.00     0.164 HD
BRANCH  17  20
HETATM   20  C8  UNL     1       2.842  18.217  10.440  1.00  0.00     0.086 C 
HETATM   21  C9  UNL     1       1.549  18.599   9.811  1.00  0.00     0.025 C 
HETATM   22  C10 UNL     1       1.462  20.112   9.804  1.00  0.00     0.002 C 
HETATM   23  C11 UNL     1       2.895  20.543  10.120  1.00  0.00     0.002 C 
HETATM   24  C12 UNL     1       3.283  19.503  11.150  1.00  0.00     0.025 C 
ENDBRANCH  17  20
ENDBRANCH  13  14
ENDBRANCH   5  13
BRANCH   8  25
HETATM   25  O2  UNL     1       8.103  11.611  10.548  1.00  0.00    -0.360 OA
ATOM     26  H2  UNL     1       8.713  12.261  10.220  1.00  0.00     0.217 HD
ENDBRANCH   8  25
TORSDOF 4
ENDMDL
MODEL 2
REMARK VINA RESULT: -7.039179125      1.538      1.815
REMARK  4 active torsions:
REMARK  status: ('A' for Active; 'I' for Inactive)
REMARK    1  A    between atoms: C5_5  and  C6_6 
REMARK    2  A    between atoms: C6_6  and  N1_7 
REMARK       I    between atoms: N1_7  and  C7_9 
REMARK       I    between atoms: C7_9  and  N2_11 
REMARK    3  A    between atoms: N2_11  and  C8_13 
REMARK    4  A    between atoms: C15_20  and  O2_21 
ROOT
HETATM    1  C1  UNL     1       4.682   9.608   8.313  1.00  0.00     0.051 C 
HETATM    2  C2  UNL     1       5.274  10.263   9.505  1.00  0.00    -0.022 A 
HETATM    3  C3  UNL     1       4.723  11.416  10.016  1.00  0.00     0.022 A 
HETATM    4  C4  UNL     1       5.262  12.049  11.134  1.00  0.00    -0.015 A 
HETATM    5  C5  UNL     1       4.688  13.214  11.633  1.00  0.00    -0.029 A 
HETATM    6  C13 UNL     1       5.200  13.851  12.728  1.00  0.00     0.012 A 
HETATM    7  C14 UNL     1       6.324  13.354  13.391  1.00  0.00     0.038 A 
HETATM    8  C15 UNL     1       6.901  12.183  12.889  1.00  0.00     0.076 A 
HETATM    9  C16 UNL     1       6.369  11.557  11.783  1.00  0.00     0.011 A 
HETATM   10  C17 UNL     1       6.925  10.396  11.269  1.00  0.00     0.058 A 
HETATM   11  C18 UNL     1       6.383   9.760  10.146  1.00  0.00     0.123 A 
HETATM   12  F1  UNL     1       6.946   8.620   9.657  1.00  0.00    -0.206 F 
ENDROOT
BRANCH   5  13
HETATM   13  C6  UNL     1       3.517  13.722  10.891  1.00  0.00     0.163 C 
BRANCH  13  14
HETATM   14  N1  UNL     1       3.039  15.004  11.268  1.00  0.00    -0.339 N 
HETATM   15  C7  UNL     1       3.139  16.188  10.499  1.00  0.00     0.316 C 
HETATM   16  O1  UNL     1       3.723  16.107   9.368  1.00  0.00    -0.247 OA
HETATM   17  N2  UNL     1       2.617  17.418  10.950  1.00  0.00    -0.339 N 
ATOM     18  H2  UNL     1       2.150  17.476  11.856  1.00  0.00     0.164 HD
ATOM     19  H1  UNL     1       2.583  15.078  12.177  1.00  0.00     0.164 HD
BRANCH  17  20
HETATM   20  C8  UNL     1       2.744  18.585  10.133  1.00  0.00     0.086 C 
HETATM   21  C9  UNL     1       1.464  19.064   9.543  1.00  0.00     0.025 C 
HETATM   22  C10 UNL     1       1.367  20.555   9.789  1.00  0.00     0.002 C 
HETATM   23  C11 UNL     1       2.787  20.931  10.211  1.00  0.00     0.002 C 
HETATM   24  C12 UNL     1       3.156  19.734  11.061  1.00  0.00     0.025 C 
ENDBRANCH  17  20
ENDBRANCH  13  14
ENDBRANCH   5  13
BRANCH   8  25
HETATM   25  O2  UNL     1       8.011  11.701  13.551  1.00  0.00    -0.360 OA
ATOM     26  H2  UNL     1       8.852  12.064  13.300  1.00  0.00     0.217 HD
ENDBRANCH   8  25
TORSDOF 4
ENDMDL
MODEL 3
REMARK VINA RESULT: -6.955144883      4.257      7.205
REMARK  4 active torsions:
REMARK  status: ('A' for Active; 'I' for Inactive)
REMARK    1  A    between atoms: C5_5  and  C6_6 
REMARK    2  A    between atoms: C6_6  and  N1_7 
REMARK       I    between atoms: N1_7  and  C7_9 
REMARK       I    between atoms: C7_9  and  N2_11 
REMARK    3  A    between atoms: N2_11  and  C8_13 
REMARK    4  A    between atoms: C15_20  and  O2_21 
ROOT
HETATM    1  C1  UNL     1       3.076  16.877  11.352  1.00  0.00     0.051 C 
HETATM    2  C2  UNL     1       4.037  16.047  10.582  1.00  0.00    -0.022 A 
HETATM    3  C3  UNL     1       3.682  15.515   9.364  1.00  0.00     0.022 A 
HETATM    4  C4  UNL     1       4.567  14.733   8.625  1.00  0.00    -0.015 A 
HETATM    5  C5  UNL     1       4.186  14.205   7.395  1.00  0.00    -0.029 A 
HETATM    6  C13 UNL     1       5.037  13.435   6.653  1.00  0.00     0.012 A 
HETATM    7  C14 UNL     1       6.328  13.149   7.104  1.00  0.00     0.038 A 
HETATM    8  C15 UNL     1       6.710  13.680   8.340  1.00  0.00     0.076 A 
HETATM    9  C16 UNL     1       5.835  14.453   9.072  1.00  0.00     0.011 A 
HETATM   10  C17 UNL     1       6.193  14.988  10.299  1.00  0.00     0.058 A 
HETATM   11  C18 UNL     1       5.305  15.775  11.042  1.00  0.00     0.123 A 
HETATM   12  F1  UNL     1       5.677  16.291  12.246  1.00  0.00    -0.206 F 
ENDROOT
BRANCH   5  13
HETATM   13  C6  UNL     1       2.807  14.508   6.965  1.00  0.00     0.163 C 
BRANCH  13  14
HETATM   14  N1  UNL     1       2.381  13.916   5.747  1.00  0.00    -0.339 N 
HETATM   15  C7  UNL     1       1.327  12.983   5.600  1.00  0.00     0.316 C 
HETATM   16  O1  UNL     1       0.706  12.626   6.656  1.00  0.00    -0.247 OA
HETATM   17  N2  UNL     1       0.962  12.460   4.342  1.00  0.00    -0.339 N 
ATOM     18  H2  UNL     1       1.463  12.751   3.502  1.00  0.00     0.164 HD
ATOM     19  H1  UNL     1       2.882  14.188   4.901  1.00  0.00     0.164 HD
BRANCH  17  20
HETATM   20  C8  UNL     1      -0.111  11.520   4.249  1.00  0.00     0.086 C 
HETATM   21  C9  UNL     1      -0.943  11.658   3.023  1.00  0.00     0.025 C 
HETATM   22  C10 UNL     1      -1.107  10.280   2.413  1.00  0.00     0.002 C 
HETATM   23  C11 UNL     1      -0.643   9.348   3.533  1.00  0.00     0.002 C 
HETATM   24  C12 UNL     1       0.525  10.134   4.090  1.00  0.00     0.025 C 
ENDBRANCH  17  20
ENDBRANCH  13  14
ENDBRANCH   5  13
BRANCH   8  25
HETATM   25  O2  UNL     1       7.986  13.390   8.775  1.00  0.00    -0.360 OA
ATOM     26  H2  UNL     1       8.069  12.733   9.456  1.00  0.00     0.217 HD
ENDBRANCH   8  25
TORSDOF 4
ENDMDL
MODEL 4
REMARK VINA RESULT: -6.882179804      5.407      7.114
REMARK  4 active torsions:
REMARK  status: ('A' for Active; 'I' for Inactive)
REMARK    1  A    between atoms: C5_5  and  C6_6 
REMARK    2  A    between atoms: C6_6  and  N1_7 
REMARK       I    between atoms: N1_7  and  C7_9 
REMARK       I    between atoms: C7_9  and  N2_11 
REMARK    3  A    between atoms: N2_11  and  C8_13 
REMARK    4  A    between atoms: C15_20  and  O2_21 
ROOT
HETATM    1  C1  UNL     1       3.174  17.310  10.698  1.00  0.00     0.051 C 
HETATM    2  C2  UNL     1       4.097  16.290  10.138  1.00  0.00    -0.022 A 
HETATM    3  C3  UNL     1       3.874  15.757   8.889  1.00  0.00     0.022 A 
HETATM    4  C4  UNL     1       4.726  14.799   8.343  1.00  0.00    -0.015 A 
HETATM    5  C5  UNL     1       4.481  14.274   7.078  1.00  0.00    -0.029 A 
HETATM    6  C13 UNL     1       5.302  13.333   6.523  1.00  0.00     0.012 A 
HETATM    7  C14 UNL     1       6.425  12.862   7.208  1.00  0.00     0.038 A 
HETATM    8  C15 UNL     1       6.670  13.391   8.479  1.00  0.00     0.076 A 
HETATM    9  C16 UNL     1       5.828  14.338   9.020  1.00  0.00     0.011 A 
HETATM   10  C17 UNL     1       6.053  14.874  10.279  1.00  0.00     0.058 A 
HETATM   11  C18 UNL     1       5.198  15.837  10.827  1.00  0.00     0.123 A 
HETATM   12  F1  UNL     1       5.437  16.351  12.065  1.00  0.00    -0.206 F 
ENDROOT
BRANCH   5  13
HETATM   13  C6  UNL     1       3.272  14.777   6.397  1.00  0.00     0.163 C 
BRANCH  13  14
HETATM   14  N1  UNL     1       3.458  15.307   5.093  1.00  0.00    -0.339 N 
HETATM   15  C7  UNL     1       2.939  14.765   3.893  1.00  0.00     0.316 C 
HETATM   16  O1  UNL     1       2.253  13.693   3.981  1.00  0.00    -0.247 OA
HETATM   17  N2  UNL     1       3.162  15.373   2.640  1.00  0.00    -0.339 N 
ATOM     18  H2  UNL     1       3.712  16.231   2.577  1.00  0.00     0.164 HD
ATOM     19  H1  UNL     1       4.017  16.157   5.015  1.00  0.00     0.164 HD
BRANCH  17  20
HETATM   20  C8  UNL     1       2.615  14.784   1.458  1.00  0.00     0.086 C 
HETATM   21  C9  UNL     1       1.430  15.496   0.908  1.00  0.00     0.025 C 
HETATM   22  C10 UNL     1       1.648  15.686  -0.579  1.00  0.00     0.002 C 
HETATM   23  C11 UNL     1       2.815  14.744  -0.881  1.00  0.00     0.002 C 
HETATM   24  C12 UNL     1       3.667  14.944   0.354  1.00  0.00     0.025 C 
ENDBRANCH  17  20
ENDBRANCH  13  14
ENDBRANCH   5  13
BRANCH   8  25
HETATM   25  O2  UNL     1       7.780  12.919   9.147  1.00  0.00    -0.360 OA
ATOM     26  H2  UNL     1       8.073  12.041   8.929  1.00  0.00     0.217 HD
ENDBRANCH   8  25
TORSDOF 4
ENDMDL
MODEL 5
REMARK VINA RESULT: -6.822370005      3.986      7.205
REMARK  4 active torsions:
REMARK  status: ('A' for Active; 'I' for Inactive)
REMARK    1  A    between atoms: C5_5  and  C6_6 
REMARK    2  A    between atoms: C6_6  and  N1_7 
REMARK       I    between atoms: N1_7  and  C7_9 
REMARK       I    between atoms: C7_9  and  N2_11 
REMARK    3  A    between atoms: N2_11  and  C8_13 
REMARK    4  A    between atoms: C15_20  and  O2_21 
ROOT
HETATM    1  C1  UNL     1       2.445  18.853  10.226  1.00  0.00     0.051 C 
HETATM    2  C2  UNL     1       3.245  17.607  10.341  1.00  0.00    -0.022 A 
HETATM    3  C3  UNL     1       3.251  16.684   9.320  1.00  0.00     0.022 A 
HETATM    4  C4  UNL     1       3.993  15.509   9.405  1.00  0.00    -0.015 A 
HETATM    5  C5  UNL     1       3.985  14.589   8.360  1.00  0.00    -0.029 A 
HETATM    6  C13 UNL     1       4.705  13.430   8.422  1.00  0.00     0.012 A 
HETATM    7  C14 UNL     1       5.481  13.123   9.543  1.00  0.00     0.038 A 
HETATM    8  C15 UNL     1       5.489  14.046  10.592  1.00  0.00     0.076 A 
HETATM    9  C16 UNL     1       4.754  15.209  10.509  1.00  0.00     0.011 A 
HETATM   10  C17 UNL     1       4.748  16.138  11.538  1.00  0.00     0.058 A 
HETATM   11  C18 UNL     1       4.003  17.320  11.452  1.00  0.00     0.123 A 
HETATM   12  F1  UNL     1       4.011  18.219  12.475  1.00  0.00    -0.206 F 
ENDROOT
BRANCH   5  13
HETATM   13  C6  UNL     1       3.134  14.938   7.206  1.00  0.00     0.163 C 
BRANCH  13  14
HETATM   14  N1  UNL     1       2.977  13.935   6.213  1.00  0.00    -0.339 N 
HETATM   15  C7  UNL     1       1.848  13.097   6.050  1.00  0.00     0.316 C 
HETATM   16  O1  UNL     1       0.885  13.239   6.875  1.00  0.00    -0.247 OA
HETATM   17  N2  UNL     1       1.773  12.136   5.020  1.00  0.00    -0.339 N 
ATOM     18  H2  UNL     1       2.547  12.028   4.363  1.00  0.00     0.164 HD
ATOM     19  H1  UNL     1       3.748  13.807   5.558  1.00  0.00     0.164 HD
BRANCH  17  20
HETATM   20  C8  UNL     1       0.609  11.315   4.899  1.00  0.00     0.086 C 
HETATM   21  C9  UNL     1      -0.354  11.763   3.857  1.00  0.00     0.025 C 
HETATM   22  C10 UNL     1      -0.728  10.558   3.019  1.00  0.00     0.002 C 
HETATM   23  C11 UNL     1      -0.220   9.382   3.854  1.00  0.00     0.002 C 
HETATM   24  C12 UNL     1       1.081   9.951   4.381  1.00  0.00     0.025 C 
ENDBRANCH  17  20
ENDBRANCH  13  14
ENDBRANCH   5  13
BRANCH   8  25
HETATM   25  O2  UNL     1       6.258  13.733  11.693  1.00  0.00    -0.360 OA
ATOM     26  H2  UNL     1       6.081  12.901  12.118  1.00  0.00     0.217 HD
ENDBRANCH   8  25
TORSDOF 4
ENDMDL
