MODEL 1
REMARK VINA RESULT: -7.831931122      0.000      0.000
REMARK  6 active torsions:
REMARK  status: ('A' for Active; 'I' for Inactive)
REMARK    1  A    between atoms: C1_2  and  C2_3 
REMARK       I    between atoms: C1_2  and  N1_6 
REMARK    2  A    between atoms: C2_3  and  O2_4 
REMARK    3  A    between atoms: N1_6  and  C3_8 
REMARK    4  A    between atoms: C8_14  and  C9_15 
REMARK    5  A    between atoms: C9_15  and  N2_16 
REMARK    6  A    between atoms: N2_16  and  C10_18 
ROOT
HETATM    1  C3  UNL     1       5.516  14.988  10.642  1.00  0.00     0.046 A 
HETATM    2  C4  UNL     1       5.981  14.095   9.711  1.00  0.00     0.038 A 
HETATM    3  C5  UNL     1       5.347  13.868   8.480  1.00  0.00    -0.047 A 
HETATM    4  C6  UNL     1       4.218  14.565   8.192  1.00  0.00    -0.013 A 
HETATM    5  C7  UNL     1       3.717  15.483   9.120  1.00  0.00     0.133 A 
HETATM    6  F1  UNL     1       2.553  16.117   8.767  1.00  0.00    -0.205 F 
HETATM    7  C8  UNL     1       4.337  15.694  10.304  1.00  0.00     0.025 A 
HETATM    8  C15 UNL     1       3.491  14.372   6.894  1.00  0.00     0.042 C 
HETATM    9  C16 UNL     1       3.886  13.010   6.366  1.00  0.00     0.005 C 
HETATM   10  C17 UNL     1       5.396  12.993   6.206  1.00  0.00     0.005 C 
HETATM   11  C18 UNL     1       5.985  12.856   7.573  1.00  0.00     0.039 C 
ENDROOT
BRANCH   7  12
HETATM   12  C9  UNL     1       3.842  16.614  11.319  1.00  0.00     0.164 C 
BRANCH  12  13
HETATM   13  N2  UNL     1       2.594  17.264  11.127  1.00  0.00    -0.386 N 
ATOM     14  H2  UNL     1       1.745  16.736  11.327  1.00  0.00     0.160 HD
BRANCH  13  15
HETATM   15  C10 UNL     1       2.450  18.627  10.666  1.00  0.00     0.024 A 
HETATM   16  C11 UNL     1       3.221  19.670  10.878  1.00  0.00     0.006 A 
HETATM   17  C12 UNL     1       2.679  20.867  10.206  1.00  0.00     0.056 A 
HETATM   18  C13 UNL     1       1.457  20.359   9.554  1.00  0.00    -0.021 A 
HETATM   19  C14 UNL     1       1.329  19.073   9.821  1.00  0.00     0.025 A 
ENDBRANCH  13  15
ENDBRANCH  12  13
ENDBRANCH   7  12
BRANCH   1  20
HETATM   20  N1  UNL     1       6.142  15.228  11.889  1.00  0.00    -0.325 N 
HETATM   21  C1  UNL     1       6.148  14.356  12.980  1.00  0.00     0.245 C 
HETATM   22  O1  UNL     1       5.617  13.242  13.041  1.00  0.00    -0.271 OA
ATOM     23  H1  UNL     1       6.631  16.116  12.001  1.00  0.00     0.169 HD
BRANCH  21  24
HETATM   24  C2  UNL     1       6.884  14.814  14.230  1.00  0.00     0.267 C 
BRANCH  24  25
HETATM   25  O2  UNL     1       7.302  16.129  14.110  1.00  0.00    -0.392 OA
ATOM     26  H2  UNL     1       7.042  16.641  14.867  1.00  0.00     0.210 HD
ENDBRANCH  24  25
ENDBRANCH  21  24
ENDBRANCH   1  20
TORSDOF 6
ENDMDL
MODEL 2
REMARK VINA RESULT: -7.750805524      1.092      1.298
REMARK  6 active torsions:
REMARK  status: ('A' for Active; 'I' for Inactive)
REMARK    1  A    between atoms: C1_2  and  C2_3 
REMARK       I    between atoms: C1_2  and  N1_6 
REMARK    2  A    between atoms: C2_3  and  O2_4 
REMARK    3  A    between atoms: N1_6  and  C3_8 
REMARK    4  A    between atoms: C8_14  and  C9_15 
REMARK    5  A    between atoms: C9_15  and  N2_16 
REMARK    6  A    between atoms: N2_16  and  C10_18 
ROOT
HETATM    1  C3  UNL     1       5.689  14.929   9.988  1.00  0.00     0.046 A 
HETATM    2  C4  UNL     1       6.574  14.195   9.241  1.00  0.00     0.038 A 
HETATM    3  C5  UNL     1       6.197  13.450   8.114  1.00  0.00    -0.047 A 
HETATM    4  C6  UNL     1       4.892  13.454   7.739  1.00  0.00    -0.013 A 
HETATM    5  C7  UNL     1       3.963  14.193   8.479  1.00  0.00     0.133 A 
HETATM    6  F1  UNL     1       2.661  14.112   8.056  1.00  0.00    -0.205 F 
HETATM    7  C8  UNL     1       4.339  14.908   9.564  1.00  0.00     0.025 A 
HETATM    8  C15 UNL     1       4.420  12.681   6.543  1.00  0.00     0.042 C 
HETATM    9  C16 UNL     1       5.442  11.593   6.291  1.00  0.00     0.005 C 
HETATM   10  C17 UNL     1       6.787  12.261   6.070  1.00  0.00     0.005 C 
HETATM   11  C18 UNL     1       7.289  12.701   7.408  1.00  0.00     0.039 C 
ENDROOT
BRANCH   7  12
HETATM   12  C9  UNL     1       3.409  15.667  10.389  1.00  0.00     0.164 C 
BRANCH  12  13
HETATM   13  N2  UNL     1       2.610  16.679   9.794  1.00  0.00    -0.386 N 
ATOM     14  H2  UNL     1       1.859  16.388   9.169  1.00  0.00     0.160 HD
BRANCH  13  15
HETATM   15  C10 UNL     1       2.792  18.096  10.018  1.00  0.00     0.024 A 
HETATM   16  C11 UNL     1       3.882  18.763  10.322  1.00  0.00     0.006 A 
HETATM   17  C12 UNL     1       3.593  20.205  10.456  1.00  0.00     0.056 A 
HETATM   18  C13 UNL     1       2.147  20.283  10.175  1.00  0.00    -0.021 A 
HETATM   19  C14 UNL     1       1.691  19.070   9.924  1.00  0.00     0.025 A 
ENDBRANCH  13  15
ENDBRANCH  12  13
ENDBRANCH   7  12
BRANCH   1  20
HETATM   20  N1  UNL     1       6.052  15.685  11.129  1.00  0.00    -0.325 N 
HETATM   21  C1  UNL     1       6.252  15.176  12.414  1.00  0.00     0.245 C 
HETATM   22  O1  UNL     1       6.148  13.997  12.769  1.00  0.00    -0.271 OA
ATOM     23  H1  UNL     1       6.179  16.688  11.001  1.00  0.00     0.169 HD
BRANCH  21  24
HETATM   24  C2  UNL     1       6.640  16.168  13.500  1.00  0.00     0.267 C 
BRANCH  24  25
HETATM   25  O2  UNL     1       7.356  15.548  14.510  1.00  0.00    -0.392 OA
ATOM     26  H2  UNL     1       7.496  16.137  15.242  1.00  0.00     0.210 HD
ENDBRANCH  24  25
ENDBRANCH  21  24
ENDBRANCH   1  20
TORSDOF 6
ENDMDL
MODEL 3
REMARK VINA RESULT: -7.489081039      0.753      1.090
REMARK  6 active torsions:
REMARK  status: ('A' for Active; 'I' for Inactive)
REMARK    1  A    between atoms: C1_2  and  C2_3 
REMARK       I    between atoms: C1_2  and  N1_6 
REMARK    2  A    between atoms: C2_3  and  O2_4 
REMARK    3  A    between atoms: N1_6  and  C3_8 
REMARK    4  A    between atoms: C8_14  and  C9_15 
REMARK    5  A    between atoms: C9_15  and  N2_16 
REMARK    6  A    between atoms: N2_16  and  C10_18 
ROOT
HETATM    1  C3  UNL     1       5.368  14.708  10.320  1.00  0.00     0.046 A 
HETATM    2  C4  UNL     1       5.802  13.856   9.337  1.00  0.00     0.038 A 
HETATM    3  C5  UNL     1       5.154  13.715   8.101  1.00  0.00    -0.047 A 
HETATM    4  C6  UNL     1       4.041  14.456   7.862  1.00  0.00    -0.013 A 
HETATM    5  C7  UNL     1       3.572  15.335   8.844  1.00  0.00     0.133 A 
HETATM    6  F1  UNL     1       2.423  16.017   8.537  1.00  0.00    -0.205 F 
HETATM    7  C8  UNL     1       4.207  15.463  10.032  1.00  0.00     0.025 A 
HETATM    8  C15 UNL     1       3.300  14.354   6.562  1.00  0.00     0.042 C 
HETATM    9  C16 UNL     1       3.654  13.014   5.957  1.00  0.00     0.005 C 
HETATM   10  C17 UNL     1       5.161  12.966   5.782  1.00  0.00     0.005 C 
HETATM   11  C18 UNL     1       5.757  12.738   7.134  1.00  0.00     0.039 C 
ENDROOT
BRANCH   7  12
HETATM   12  C9  UNL     1       3.744  16.338  11.101  1.00  0.00     0.164 C 
BRANCH  12  13
HETATM   13  N2  UNL     1       2.519  17.040  10.951  1.00  0.00    -0.386 N 
ATOM     14  H2  UNL     1       1.653  16.530  11.121  1.00  0.00     0.160 HD
BRANCH  13  15
HETATM   15  C10 UNL     1       2.421  18.433  10.574  1.00  0.00     0.024 A 
HETATM   16  C11 UNL     1       1.491  19.051   9.882  1.00  0.00     0.006 A 
HETATM   17  C12 UNL     1       1.809  20.485   9.741  1.00  0.00     0.056 A 
HETATM   18  C13 UNL     1       3.084  20.617  10.470  1.00  0.00    -0.021 A 
HETATM   19  C14 UNL     1       3.433  19.437  10.947  1.00  0.00     0.025 A 
ENDBRANCH  13  15
ENDBRANCH  12  13
ENDBRANCH   7  12
BRANCH   1  20
HETATM   20  N1  UNL     1       6.010  14.862  11.573  1.00  0.00    -0.325 N 
HETATM   21  C1  UNL     1       5.890  13.997  12.662  1.00  0.00     0.245 C 
HETATM   22  O1  UNL     1       5.215  12.964  12.717  1.00  0.00    -0.271 OA
ATOM     23  H1  UNL     1       6.612  15.676  11.690  1.00  0.00     0.169 HD
BRANCH  21  24
HETATM   24  C2  UNL     1       6.669  14.352  13.919  1.00  0.00     0.267 C 
BRANCH  24  25
HETATM   25  O2  UNL     1       6.759  13.267  14.775  1.00  0.00    -0.392 OA
ATOM     26  H2  UNL     1       6.916  13.547  15.668  1.00  0.00     0.210 HD
ENDBRANCH  24  25
ENDBRANCH  21  24
ENDBRANCH   1  20
TORSDOF 6
ENDMDL
MODEL 4
REMARK VINA RESULT: -7.156594853      1.862      2.487
REMARK  6 active torsions:
REMARK  status: ('A' for Active; 'I' for Inactive)
REMARK    1  A    between atoms: C1_2  and  C2_3 
REMARK       I    between atoms: C1_2  and  N1_6 
REMARK    2  A    between atoms: C2_3  and  O2_4 
REMARK    3  A    between atoms: N1_6  and  C3_8 
REMARK    4  A    between atoms: C8_14  and  C9_15 
REMARK    5  A    between atoms: C9_15  and  N2_16 
REMARK    6  A    between atoms: N2_16  and  C10_18 
ROOT
HETATM    1  C3  UNL     1       5.366  12.884   9.579  1.00  0.00     0.046 A 
HETATM    2  C4  UNL     1       5.059  12.075   8.515  1.00  0.00     0.038 A 
HETATM    3  C5  UNL     1       4.646  12.568   7.268  1.00  0.00    -0.047 A 
HETATM    4  C6  UNL     1       4.545  13.912   7.101  1.00  0.00    -0.013 A 
HETATM    5  C7  UNL     1       4.850  14.765   8.166  1.00  0.00     0.133 A 
HETATM    6  F1  UNL     1       4.685  16.105   7.927  1.00  0.00    -0.205 F 
HETATM    7  C8  UNL     1       5.248  14.278   9.365  1.00  0.00     0.025 A 
HETATM    8  C15 UNL     1       4.110  14.506   5.795  1.00  0.00     0.042 C 
HETATM    9  C16 UNL     1       3.343  13.431   5.056  1.00  0.00     0.005 C 
HETATM   10  C17 UNL     1       4.264  12.237   4.884  1.00  0.00     0.005 C 
HETATM   11  C18 UNL     1       4.348  11.548   6.209  1.00  0.00     0.039 C 
ENDROOT
BRANCH   7  12
HETATM   12  C9  UNL     1       5.546  15.118  10.516  1.00  0.00     0.164 C 
BRANCH  12  13
HETATM   13  N2  UNL     1       4.482  15.636  11.301  1.00  0.00    -0.386 N 
ATOM     14  H2  UNL     1       4.138  15.067  12.074  1.00  0.00     0.160 HD
BRANCH  13  15
HETATM   15  C10 UNL     1       3.854  16.920  11.075  1.00  0.00     0.024 A 
HETATM   16  C11 UNL     1       4.086  18.078  11.648  1.00  0.00     0.006 A 
HETATM   17  C12 UNL     1       3.199  19.122  11.097  1.00  0.00     0.056 A 
HETATM   18  C13 UNL     1       2.404  18.388  10.094  1.00  0.00    -0.021 A 
HETATM   19  C14 UNL     1       2.783  17.124  10.085  1.00  0.00     0.025 A 
ENDBRANCH  13  15
ENDBRANCH  12  13
ENDBRANCH   7  12
BRANCH   1  20
HETATM   20  N1  UNL     1       5.782  12.404  10.844  1.00  0.00    -0.325 N 
HETATM   21  C1  UNL     1       7.026  11.840  11.133  1.00  0.00     0.245 C 
HETATM   22  O1  UNL     1       7.963  11.669  10.347  1.00  0.00    -0.271 OA
ATOM     23  H1  UNL     1       5.114  12.475  11.612  1.00  0.00     0.169 HD
BRANCH  21  24
HETATM   24  C2  UNL     1       7.267  11.387  12.565  1.00  0.00     0.267 C 
BRANCH  24  25
HETATM   25  O2  UNL     1       7.468  12.470  13.405  1.00  0.00    -0.392 OA
ATOM     26  H2  UNL     1       6.688  12.660  13.913  1.00  0.00     0.210 HD
ENDBRANCH  24  25
ENDBRANCH  21  24
ENDBRANCH   1  20
TORSDOF 6
ENDMDL
MODEL 5
REMARK VINA RESULT: -7.113558800      2.814      5.699
REMARK  6 active torsions:
REMARK  status: ('A' for Active; 'I' for Inactive)
REMARK    1  A    between atoms: C1_2  and  C2_3 
REMARK       I    between atoms: C1_2  and  N1_6 
REMARK    2  A    between atoms: C2_3  and  O2_4 
REMARK    3  A    between atoms: N1_6  and  C3_8 
REMARK    4  A    between atoms: C8_14  and  C9_15 
REMARK    5  A    between atoms: C9_15  and  N2_16 
REMARK    6  A    between atoms: N2_16  and  C10_18 
ROOT
HETATM    1  C3  UNL     1       3.715  15.921  10.063  1.00  0.00     0.046 A 
HETATM    2  C4  UNL     1       3.956  15.265  11.243  1.00  0.00     0.038 A 
HETATM    3  C5  UNL     1       4.894  14.230  11.370  1.00  0.00    -0.047 A 
HETATM    4  C6  UNL     1       5.602  13.855  10.272  1.00  0.00    -0.013 A 
HETATM    5  C7  UNL     1       5.380  14.504   9.053  1.00  0.00     0.133 A 
HETATM    6  F1  UNL     1       6.107  14.041   7.987  1.00  0.00    -0.205 F 
HETATM    7  C8  UNL     1       4.472  15.502   8.944  1.00  0.00     0.025 A 
HETATM    8  C15 UNL     1       6.620  12.757  10.337  1.00  0.00     0.042 C 
HETATM    9  C16 UNL     1       6.271  11.902  11.536  1.00  0.00     0.005 C 
HETATM   10  C17 UNL     1       6.286  12.795  12.763  1.00  0.00     0.005 C 
HETATM   11  C18 UNL     1       5.037  13.615  12.731  1.00  0.00     0.039 C 
ENDROOT
BRANCH   7  12
HETATM   12  C9  UNL     1       4.178  16.189   7.694  1.00  0.00     0.164 C 
BRANCH  12  13
HETATM   13  N2  UNL     1       4.305  15.491   6.464  1.00  0.00    -0.386 N 
ATOM     14  H2  UNL     1       5.121  15.687   5.885  1.00  0.00     0.160 HD
BRANCH  13  15
HETATM   15  C10 UNL     1       3.350  14.519   5.979  1.00  0.00     0.024 A 
HETATM   16  C11 UNL     1       3.159  14.067   4.760  1.00  0.00     0.006 A 
HETATM   17  C12 UNL     1       2.066  13.075   4.735  1.00  0.00     0.056 A 
HETATM   18  C13 UNL     1       1.641  13.010   6.146  1.00  0.00    -0.021 A 
HETATM   19  C14 UNL     1       2.381  13.841   6.857  1.00  0.00     0.025 A 
ENDBRANCH  13  15
ENDBRANCH  12  13
ENDBRANCH   7  12
BRANCH   1  20
HETATM   20  N1  UNL     1       2.771  16.966   9.918  1.00  0.00    -0.325 N 
HETATM   21  C1  UNL     1       2.959  18.294  10.309  1.00  0.00     0.245 C 
HETATM   22  O1  UNL     1       3.965  18.776  10.838  1.00  0.00    -0.271 OA
ATOM     23  H1  UNL     1       1.876  16.729   9.491  1.00  0.00     0.169 HD
BRANCH  21  24
HETATM   24  C2  UNL     1       1.809  19.259  10.059  1.00  0.00     0.267 C 
BRANCH  24  25
HETATM   25  O2  UNL     1       0.699  18.596   9.564  1.00  0.00    -0.392 OA
ATOM     26  H2  UNL     1       0.165  18.247  10.268  1.00  0.00     0.210 HD
ENDBRANCH  24  25
ENDBRANCH  21  24
ENDBRANCH   1  20
TORSDOF 6
ENDMDL
