MODEL 1
REMARK VINA RESULT: -7.187968309      0.000      0.000
REMARK  3 active torsions:
REMARK  status: ('A' for Active; 'I' for Inactive)
REMARK    1  A    between atoms: C6_7  and  N2_8 
REMARK    2  A    between atoms: C9_12  and  C10_13 
REMARK    3  A    between atoms: C13_16  and  O2_17 
ROOT
HETATM    1  N2  UNL     1       4.552  14.752   9.230  1.00  0.00    -0.374 N 
HETATM    2  C7  UNL     1       4.488  14.145  10.568  1.00  0.00     0.149 C 
HETATM    3  C8  UNL     1       3.167  14.472  11.214  1.00  0.00     0.188 C 
HETATM    4  O1  UNL     1       2.750  15.766  10.905  1.00  0.00    -0.378 OA
HETATM    5  C9  UNL     1       3.816  16.579  10.592  1.00  0.00     0.172 C 
HETATM    6  C17 UNL     1       4.441  16.197   9.235  1.00  0.00     0.160 C 
ENDROOT
BRANCH   5   7
HETATM    7  C10 UNL     1       3.339  18.002  10.469  1.00  0.00    -0.027 A 
HETATM    8  C11 UNL     1       4.067  19.045  10.992  1.00  0.00     0.012 A 
HETATM    9  C12 UNL     1       3.641  20.359  10.887  1.00  0.00     0.037 A 
HETATM   10  C13 UNL     1       2.439  20.625  10.233  1.00  0.00     0.071 A 
HETATM   11  C14 UNL     1       1.702  19.594   9.705  1.00  0.00    -0.028 A 
HETATM   12  C15 UNL     1       0.401  19.844   8.992  1.00  0.00     0.051 C 
HETATM   13  C16 UNL     1       2.159  18.303   9.830  1.00  0.00     0.019 A 
BRANCH  10  14
HETATM   14  O2  UNL     1       1.966  21.932  10.099  1.00  0.00    -0.360 OA
ATOM     15  H2  UNL     1       1.061  22.105   9.864  1.00  0.00     0.217 HD
ENDBRANCH  10  14
ENDBRANCH   5   7
BRANCH   1  16
HETATM   16  C6  UNL     1       4.676  13.924   8.113  1.00  0.00     0.055 A 
HETATM   17  C5  UNL     1       3.572  13.562   7.386  1.00  0.00     0.072 A 
HETATM   18  C4  UNL     1       3.712  12.704   6.290  1.00  0.00     0.029 A 
HETATM   19  N1  UNL     1       2.304  14.076   7.745  1.00  0.00    -0.100 NA
HETATM   20  C3  UNL     1       4.963  12.235   5.958  1.00  0.00     0.009 A 
HETATM   21  C2  UNL     1       6.096  12.576   6.663  1.00  0.00    -0.060 A 
HETATM   22  C1  UNL     1       7.422  12.040   6.260  1.00  0.00     0.048 C 
HETATM   23  C18 UNL     1       5.936  13.426   7.745  1.00  0.00     0.038 A 
ENDBRANCH   1  16
TORSDOF 3
ENDMDL
MODEL 2
REMARK VINA RESULT: -6.979924965      0.932      1.903
REMARK  3 active torsions:
REMARK  status: ('A' for Active; 'I' for Inactive)
REMARK    1  A    between atoms: C6_7  and  N2_8 
REMARK    2  A    between atoms: C9_12  and  C10_13 
REMARK    3  A    between atoms: C13_16  and  O2_17 
ROOT
HETATM    1  N2  UNL     1       4.260  14.631   9.771  1.00  0.00    -0.374 N 
HETATM    2  C7  UNL     1       4.180  14.147  11.158  1.00  0.00     0.149 C 
HETATM    3  C8  UNL     1       2.878  14.586  11.776  1.00  0.00     0.188 C 
HETATM    4  O1  UNL     1       2.514  15.864  11.355  1.00  0.00    -0.378 OA
HETATM    5  C9  UNL     1       3.611  16.600  10.969  1.00  0.00     0.172 C 
HETATM    6  C17 UNL     1       4.211  16.073   9.649  1.00  0.00     0.160 C 
ENDROOT
BRANCH   5   7
HETATM    7  C10 UNL     1       3.194  18.026  10.722  1.00  0.00    -0.027 A 
HETATM    8  C11 UNL     1       3.932  19.078  11.210  1.00  0.00     0.012 A 
HETATM    9  C12 UNL     1       3.561  20.395  10.991  1.00  0.00     0.037 A 
HETATM   10  C13 UNL     1       2.405  20.654  10.256  1.00  0.00     0.071 A 
HETATM   11  C14 UNL     1       1.659  19.613   9.762  1.00  0.00    -0.028 A 
HETATM   12  C15 UNL     1       0.405  19.855   8.965  1.00  0.00     0.051 C 
HETATM   13  C16 UNL     1       2.060  18.320  10.001  1.00  0.00     0.019 A 
BRANCH  10  14
HETATM   14  O2  UNL     1       1.988  21.963  10.007  1.00  0.00    -0.360 OA
ATOM     15  H2  UNL     1       1.089  22.153   9.763  1.00  0.00     0.217 HD
ENDBRANCH  10  14
ENDBRANCH   5   7
BRANCH   1  16
HETATM   16  C6  UNL     1       4.342  13.702   8.731  1.00  0.00     0.055 A 
HETATM   17  C5  UNL     1       5.553  13.380   8.177  1.00  0.00     0.072 A 
HETATM   18  C4  UNL     1       5.610  12.472   7.113  1.00  0.00     0.029 A 
HETATM   19  N1  UNL     1       6.733  13.956   8.700  1.00  0.00    -0.100 NA
HETATM   20  C3  UNL     1       4.443  11.917   6.639  1.00  0.00     0.009 A 
HETATM   21  C2  UNL     1       3.207  12.216   7.170  1.00  0.00    -0.060 A 
HETATM   22  C1  UNL     1       1.980  11.586   6.618  1.00  0.00     0.048 C 
HETATM   23  C18 UNL     1       3.172  13.117   8.222  1.00  0.00     0.038 A 
ENDBRANCH   1  16
TORSDOF 3
ENDMDL
MODEL 3
REMARK VINA RESULT: -6.697039853      0.460      1.456
REMARK  3 active torsions:
REMARK  status: ('A' for Active; 'I' for Inactive)
REMARK    1  A    between atoms: C6_7  and  N2_8 
REMARK    2  A    between atoms: C9_12  and  C10_13 
REMARK    3  A    between atoms: C13_16  and  O2_17 
ROOT
HETATM    1  N2  UNL     1       4.609  14.566   9.354  1.00  0.00    -0.374 N 
HETATM    2  C7  UNL     1       4.628  14.021  10.721  1.00  0.00     0.149 C 
HETATM    3  C8  UNL     1       3.310  14.293  11.397  1.00  0.00     0.188 C 
HETATM    4  O1  UNL     1       2.799  15.541  11.044  1.00  0.00    -0.378 OA
HETATM    5  C9  UNL     1       3.798  16.405  10.657  1.00  0.00     0.172 C 
HETATM    6  C17 UNL     1       4.403  15.998   9.297  1.00  0.00     0.160 C 
ENDROOT
BRANCH   5   7
HETATM    7  C10 UNL     1       3.225  17.787  10.485  1.00  0.00    -0.027 A 
HETATM    8  C11 UNL     1       2.154  18.015   9.653  1.00  0.00     0.012 A 
HETATM    9  C12 UNL     1       1.617  19.281   9.485  1.00  0.00     0.037 A 
HETATM   10  C13 UNL     1       2.181  20.349  10.181  1.00  0.00     0.071 A 
HETATM   11  C14 UNL     1       3.250  20.135  11.015  1.00  0.00    -0.028 A 
HETATM   12  C15 UNL     1       3.885  21.264  11.782  1.00  0.00     0.051 C 
HETATM   13  C16 UNL     1       3.755  18.864  11.155  1.00  0.00     0.019 A 
BRANCH  10  14
HETATM   14  O2  UNL     1       1.676  21.643  10.047  1.00  0.00    -0.360 OA
ATOM     15  H2  UNL     1       1.824  22.300  10.719  1.00  0.00     0.217 HD
ENDBRANCH  10  14
ENDBRANCH   5   7
BRANCH   1  16
HETATM   16  C6  UNL     1       4.750  13.694   8.273  1.00  0.00     0.055 A 
HETATM   17  C5  UNL     1       3.648  13.170   7.650  1.00  0.00     0.072 A 
HETATM   18  C4  UNL     1       3.811  12.271   6.589  1.00  0.00     0.029 A 
HETATM   19  N1  UNL     1       2.357  13.558   8.077  1.00  0.00    -0.100 NA
HETATM   20  C3  UNL     1       5.083  11.927   6.188  1.00  0.00     0.009 A 
HETATM   21  C2  UNL     1       6.215  12.433   6.788  1.00  0.00    -0.060 A 
HETATM   22  C1  UNL     1       7.563  12.027   6.314  1.00  0.00     0.048 C 
HETATM   23  C18 UNL     1       6.032  13.321   7.837  1.00  0.00     0.038 A 
ENDBRANCH   1  16
TORSDOF 3
ENDMDL
MODEL 4
REMARK VINA RESULT: -6.650462904      3.242      6.964
REMARK  3 active torsions:
REMARK  status: ('A' for Active; 'I' for Inactive)
REMARK    1  A    between atoms: C6_7  and  N2_8 
REMARK    2  A    between atoms: C9_12  and  C10_13 
REMARK    3  A    between atoms: C13_16  and  O2_17 
ROOT
HETATM    1  N2  UNL     1       3.676  14.539   8.612  1.00  0.00    -0.374 N 
HETATM    2  C7  UNL     1       4.900  13.725   8.565  1.00  0.00     0.149 C 
HETATM    3  C8  UNL     1       5.627  13.972   7.269  1.00  0.00     0.188 C 
HETATM    4  O1  UNL     1       4.741  14.142   6.207  1.00  0.00    -0.378 OA
HETATM    5  C9  UNL     1       3.537  13.522   6.449  1.00  0.00     0.172 C 
HETATM    6  C17 UNL     1       2.736  14.249   7.549  1.00  0.00     0.160 C 
ENDROOT
BRANCH   5   7
HETATM    7  C10 UNL     1       2.696  13.557   5.200  1.00  0.00    -0.027 A 
HETATM    8  C11 UNL     1       2.954  14.460   4.194  1.00  0.00     0.012 A 
HETATM    9  C12 UNL     1       2.188  14.504   3.040  1.00  0.00     0.037 A 
HETATM   10  C13 UNL     1       1.130  13.608   2.899  1.00  0.00     0.071 A 
HETATM   11  C14 UNL     1       0.863  12.702   3.895  1.00  0.00    -0.028 A 
HETATM   12  C15 UNL     1      -0.271  11.719   3.778  1.00  0.00     0.051 C 
HETATM   13  C16 UNL     1       1.645  12.689   5.026  1.00  0.00     0.019 A 
BRANCH  10  14
HETATM   14  O2  UNL     1       0.330  13.611   1.756  1.00  0.00    -0.360 OA
ATOM     15  H2  UNL     1       0.596  14.079   0.972  1.00  0.00     0.217 HD
ENDBRANCH  10  14
ENDBRANCH   5   7
BRANCH   1  16
HETATM   16  C6  UNL     1       3.540  15.505   9.613  1.00  0.00     0.055 A 
HETATM   17  C5  UNL     1       3.175  15.146  10.884  1.00  0.00     0.072 A 
HETATM   18  C4  UNL     1       3.012  16.131  11.864  1.00  0.00     0.029 A 
HETATM   19  N1  UNL     1       2.985  13.779  11.193  1.00  0.00    -0.100 NA
HETATM   20  C3  UNL     1       3.221  17.451  11.532  1.00  0.00     0.009 A 
HETATM   21  C2  UNL     1       3.589  17.851  10.266  1.00  0.00    -0.060 A 
HETATM   22  C1  UNL     1       3.801  19.290   9.965  1.00  0.00     0.048 C 
HETATM   23  C18 UNL     1       3.745  16.860   9.310  1.00  0.00     0.038 A 
ENDBRANCH   1  16
TORSDOF 3
ENDMDL
MODEL 5
REMARK VINA RESULT: -6.574758104      4.015      5.032
REMARK  3 active torsions:
REMARK  status: ('A' for Active; 'I' for Inactive)
REMARK    1  A    between atoms: C6_7  and  N2_8 
REMARK    2  A    between atoms: C9_12  and  C10_13 
REMARK    3  A    between atoms: C13_16  and  O2_17 
ROOT
HETATM    1  N2  UNL     1       4.093  12.330   8.454  1.00  0.00    -0.374 N 
HETATM    2  C7  UNL     1       3.343  11.229   9.081  1.00  0.00     0.149 C 
HETATM    3  C8  UNL     1       2.547  11.754  10.247  1.00  0.00     0.188 C 
HETATM    4  O1  UNL     1       3.242  12.742  10.942  1.00  0.00    -0.378 OA
HETATM    5  C9  UNL     1       4.602  12.613  10.777  1.00  0.00     0.172 C 
HETATM    6  C17 UNL     1       5.037  12.977   9.342  1.00  0.00     0.160 C 
ENDROOT
BRANCH   5   7
HETATM    7  C10 UNL     1       5.311  13.567  11.704  1.00  0.00    -0.027 A 
HETATM    8  C11 UNL     1       5.532  14.875  11.345  1.00  0.00     0.012 A 
HETATM    9  C12 UNL     1       6.182  15.763  12.187  1.00  0.00     0.037 A 
HETATM   10  C13 UNL     1       6.622  15.312  13.429  1.00  0.00     0.071 A 
HETATM   11  C14 UNL     1       6.407  14.008  13.801  1.00  0.00    -0.028 A 
HETATM   12  C15 UNL     1       6.868  13.485  15.135  1.00  0.00     0.051 C 
HETATM   13  C16 UNL     1       5.758  13.157  12.937  1.00  0.00     0.019 A 
BRANCH  10  14
HETATM   14  O2  UNL     1       7.282  16.166  14.314  1.00  0.00    -0.360 OA
ATOM     15  H2  UNL     1       8.088  15.903  14.743  1.00  0.00     0.217 HD
ENDBRANCH  10  14
ENDBRANCH   5   7
BRANCH   1  16
HETATM   16  C6  UNL     1       3.823  12.666   7.126  1.00  0.00     0.055 A 
HETATM   17  C5  UNL     1       3.032  13.744   6.827  1.00  0.00     0.072 A 
HETATM   18  C4  UNL     1       2.745  14.046   5.490  1.00  0.00     0.029 A 
HETATM   19  N1  UNL     1       2.529  14.551   7.874  1.00  0.00    -0.100 NA
HETATM   20  C3  UNL     1       3.265  13.249   4.495  1.00  0.00     0.009 A 
HETATM   21  C2  UNL     1       4.064  12.158   4.756  1.00  0.00    -0.060 A 
HETATM   22  C1  UNL     1       4.598  11.334   3.641  1.00  0.00     0.048 C 
HETATM   23  C18 UNL     1       4.335  11.876   6.085  1.00  0.00     0.038 A 
ENDBRANCH   1  16
TORSDOF 3
ENDMDL
