MODEL 1
REMARK VINA RESULT: -6.984787498      0.000      0.000
REMARK  4 active torsions:
REMARK  status: ('A' for Active; 'I' for Inactive)
REMARK    1  A    between atoms: C4_7  and  C5_8 
REMARK       I    between atoms: C5_8  and  N2_10 
REMARK    2  A    between atoms: N2_10  and  C6_12 
REMARK    3  A    between atoms: C6_12  and  C7_13 
REMARK    4  A    between atoms: C18_24  and  O2_25 
ROOT
HETATM    1  C5  UNL     1       4.943  15.302   9.961  1.00  0.00     0.268 C 
HETATM    2  O1  UNL     1       4.337  16.341  10.366  1.00  0.00    -0.266 OA
HETATM    3  N2  UNL     1       5.005  14.975   8.586  1.00  0.00    -0.351 N 
ATOM      4  H2  UNL     1       5.502  14.133   8.298  1.00  0.00     0.163 HD
ENDROOT
BRANCH   1   5
HETATM    5  C4  UNL     1       5.569  14.460  10.949  1.00  0.00     0.101 A 
HETATM    6  N1  UNL     1       5.919  13.127  10.650  1.00  0.00    -0.347 N 
HETATM    7  C3  UNL     1       6.532  12.306  11.645  1.00  0.00     0.100 A 
ATOM      8  H1  UNL     1       5.735  12.748   9.721  1.00  0.00     0.166 HD
HETATM    9  C2  UNL     1       6.864  11.060  11.373  1.00  0.00     0.119 C 
HETATM   10  C18 UNL     1       6.778  12.882  12.954  1.00  0.00     0.095 A 
HETATM   11  C1  UNL     1       6.622  10.469  10.052  1.00  0.00     0.084 C 
HETATM   12  F1  UNL     1       7.440  10.309  12.337  1.00  0.00    -0.209 F 
HETATM   13  C17 UNL     1       6.437  14.132  13.194  1.00  0.00     0.041 A 
HETATM   14  C16 UNL     1       5.809  14.953  12.157  1.00  0.00     0.038 A 
BRANCH  10  15
HETATM   15  O2  UNL     1       7.368  12.144  13.964  1.00  0.00    -0.358 OA
ATOM     16  H2  UNL     1       8.135  12.464  14.424  1.00  0.00     0.217 HD
ENDBRANCH  10  15
ENDBRANCH   1   5
BRANCH   3  17
HETATM   17  C6  UNL     1       4.376  15.815   7.568  1.00  0.00     0.161 C 
BRANCH  17  18
HETATM   18  C7  UNL     1       3.556  14.879   6.724  1.00  0.00    -0.040 A 
HETATM   19  C8  UNL     1       3.727  14.848   5.352  1.00  0.00     0.009 A 
HETATM   20  C9  UNL     1       2.981  13.993   4.574  1.00  0.00     0.008 A 
HETATM   21  C10 UNL     1       2.051  13.159   5.172  1.00  0.00    -0.052 A 
HETATM   22  C11 UNL     1       1.874  13.180   6.513  1.00  0.00    -0.051 A 
HETATM   23  C15 UNL     1       1.120  12.145   4.575  1.00  0.00     0.039 A 
HETATM   24  C12 UNL     1       2.628  14.045   7.311  1.00  0.00     0.016 A 
HETATM   25  C13 UNL     1       0.838  12.226   6.983  1.00  0.00     0.039 A 
HETATM   26  C14 UNL     1       0.361  11.573   5.730  1.00  0.00     0.009 A 
ENDBRANCH  17  18
ENDBRANCH   3  17
TORSDOF 4
ENDMDL
MODEL 2
REMARK VINA RESULT: -6.865088392      4.194      8.122
REMARK  4 active torsions:
REMARK  status: ('A' for Active; 'I' for Inactive)
REMARK    1  A    between atoms: C4_7  and  C5_8 
REMARK       I    between atoms: C5_8  and  N2_10 
REMARK    2  A    between atoms: N2_10  and  C6_12 
REMARK    3  A    between atoms: C6_12  and  C7_13 
REMARK    4  A    between atoms: C18_24  and  O2_25 
ROOT
HETATM    1  C5  UNL     1       3.977  13.025   5.956  1.00  0.00     0.268 C 
HETATM    2  O1  UNL     1       4.024  11.829   6.381  1.00  0.00    -0.266 OA
HETATM    3  N2  UNL     1       4.819  14.028   6.490  1.00  0.00    -0.351 N 
ATOM      4  H2  UNL     1       4.754  14.978   6.123  1.00  0.00     0.163 HD
ENDROOT
BRANCH   1   5
HETATM    5  C4  UNL     1       3.036  13.330   4.909  1.00  0.00     0.101 A 
HETATM    6  N1  UNL     1       1.985  12.442   4.596  1.00  0.00    -0.347 N 
HETATM    7  C3  UNL     1       1.067  12.759   3.549  1.00  0.00     0.100 A 
ATOM      8  H1  UNL     1       1.881  11.572   5.118  1.00  0.00     0.166 HD
HETATM    9  C2  UNL     1       0.081  11.936   3.252  1.00  0.00     0.119 C 
HETATM   10  C18 UNL     1       1.249  14.006   2.831  1.00  0.00     0.095 A 
HETATM   11  C1  UNL     1      -0.112  10.673   3.974  1.00  0.00     0.084 C 
HETATM   12  F1  UNL     1      -0.769  12.263   2.254  1.00  0.00    -0.209 F 
HETATM   13  C17 UNL     1       2.242  14.810   3.153  1.00  0.00     0.041 A 
HETATM   14  C16 UNL     1       3.171  14.462   4.231  1.00  0.00     0.038 A 
BRANCH  10  15
HETATM   15  O2  UNL     1       0.396  14.375   1.806  1.00  0.00    -0.358 OA
ATOM     16  H2  UNL     1      -0.030  13.723   1.261  1.00  0.00     0.217 HD
ENDBRANCH  10  15
ENDBRANCH   1   5
BRANCH   3  17
HETATM   17  C6  UNL     1       5.780  13.740   7.553  1.00  0.00     0.161 C 
BRANCH  17  18
HETATM   18  C7  UNL     1       5.381  14.619   8.707  1.00  0.00    -0.040 A 
HETATM   19  C8  UNL     1       6.050  14.529   9.914  1.00  0.00     0.009 A 
HETATM   20  C9  UNL     1       5.691  15.330  10.973  1.00  0.00     0.008 A 
HETATM   21  C10 UNL     1       4.651  16.233  10.826  1.00  0.00    -0.052 A 
HETATM   22  C11 UNL     1       3.989  16.331   9.650  1.00  0.00    -0.051 A 
HETATM   23  C15 UNL     1       4.063  17.213  11.798  1.00  0.00     0.039 A 
HETATM   24  C12 UNL     1       4.347  15.520   8.570  1.00  0.00     0.016 A 
HETATM   25  C13 UNL     1       2.905  17.345   9.670  1.00  0.00     0.039 A 
HETATM   26  C14 UNL     1       2.961  17.899  11.053  1.00  0.00     0.009 A 
ENDBRANCH  17  18
ENDBRANCH   3  17
TORSDOF 4
ENDMDL
MODEL 3
REMARK VINA RESULT: -6.801369457      1.465      1.758
REMARK  4 active torsions:
REMARK  status: ('A' for Active; 'I' for Inactive)
REMARK    1  A    between atoms: C4_7  and  C5_8 
REMARK       I    between atoms: C5_8  and  N2_10 
REMARK    2  A    between atoms: N2_10  and  C6_12 
REMARK    3  A    between atoms: C6_12  and  C7_13 
REMARK    4  A    between atoms: C18_24  and  O2_25 
ROOT
HETATM    1  C5  UNL     1       4.981  15.141   9.858  1.00  0.00     0.268 C 
HETATM    2  O1  UNL     1       4.214  16.098  10.187  1.00  0.00    -0.266 OA
HETATM    3  N2  UNL     1       5.228  14.829   8.500  1.00  0.00    -0.351 N 
ATOM      4  H2  UNL     1       5.851  14.054   8.275  1.00  0.00     0.163 HD
ENDROOT
BRANCH   1   5
HETATM    5  C4  UNL     1       5.595  14.378  10.915  1.00  0.00     0.101 A 
HETATM    6  N1  UNL     1       5.984  13.037  10.710  1.00  0.00    -0.347 N 
HETATM    7  C3  UNL     1       6.584  12.295  11.773  1.00  0.00     0.100 A 
ATOM      8  H1  UNL     1       5.836  12.597   9.801  1.00  0.00     0.166 HD
HETATM    9  C2  UNL     1       6.952  11.042  11.589  1.00  0.00     0.119 C 
HETATM   10  C18 UNL     1       6.777  12.957  13.048  1.00  0.00     0.095 A 
HETATM   11  C1  UNL     1       6.763  10.365  10.301  1.00  0.00     0.084 C 
HETATM   12  F1  UNL     1       7.515  10.367  12.614  1.00  0.00    -0.209 F 
HETATM   13  C17 UNL     1       6.402  14.211  13.200  1.00  0.00     0.041 A 
HETATM   14  C16 UNL     1       5.788  14.950  12.095  1.00  0.00     0.038 A 
BRANCH  10  15
HETATM   15  O2  UNL     1       7.353  12.297  14.120  1.00  0.00    -0.358 OA
ATOM     16  H2  UNL     1       6.858  12.117  14.910  1.00  0.00     0.217 HD
ENDBRANCH  10  15
ENDBRANCH   1   5
BRANCH   3  17
HETATM   17  C6  UNL     1       4.614  15.590   7.413  1.00  0.00     0.161 C 
BRANCH  17  18
HETATM   18  C7  UNL     1       4.267  14.577   6.357  1.00  0.00    -0.040 A 
HETATM   19  C8  UNL     1       4.742  13.282   6.453  1.00  0.00     0.009 A 
HETATM   20  C9  UNL     1       4.427  12.349   5.492  1.00  0.00     0.008 A 
HETATM   21  C10 UNL     1       3.629  12.713   4.420  1.00  0.00    -0.052 A 
HETATM   22  C11 UNL     1       3.157  13.978   4.316  1.00  0.00    -0.051 A 
HETATM   23  C15 UNL     1       3.136  11.913   3.251  1.00  0.00     0.039 A 
HETATM   24  C12 UNL     1       3.473  14.931   5.288  1.00  0.00     0.016 A 
HETATM   25  C13 UNL     1       2.322  14.194   3.108  1.00  0.00     0.039 A 
HETATM   26  C14 UNL     1       2.321  12.865   2.433  1.00  0.00     0.009 A 
ENDBRANCH  17  18
ENDBRANCH   3  17
TORSDOF 4
ENDMDL
MODEL 4
REMARK VINA RESULT: -6.779767681      3.829      5.587
REMARK  4 active torsions:
REMARK  status: ('A' for Active; 'I' for Inactive)
REMARK    1  A    between atoms: C4_7  and  C5_8 
REMARK       I    between atoms: C5_8  and  N2_10 
REMARK    2  A    between atoms: N2_10  and  C6_12 
REMARK    3  A    between atoms: C6_12  and  C7_13 
REMARK    4  A    between atoms: C18_24  and  O2_25 
ROOT
HETATM    1  C5  UNL     1       6.207  13.431  11.923  1.00  0.00     0.268 C 
HETATM    2  O1  UNL     1       6.227  13.317  13.187  1.00  0.00    -0.266 OA
HETATM    3  N2  UNL     1       6.024  14.688  11.300  1.00  0.00    -0.351 N 
ATOM      4  H2  UNL     1       6.016  14.740  10.282  1.00  0.00     0.163 HD
ENDROOT
BRANCH   1   5
HETATM    5  C4  UNL     1       6.379  12.235  11.138  1.00  0.00     0.101 A 
HETATM    6  N1  UNL     1       6.653  12.308   9.756  1.00  0.00    -0.347 N 
HETATM    7  C3  UNL     1       6.812  11.110   8.993  1.00  0.00     0.100 A 
ATOM      8  H1  UNL     1       6.737  13.217   9.300  1.00  0.00     0.166 HD
HETATM    9  C2  UNL     1       7.070  11.170   7.702  1.00  0.00     0.119 C 
HETATM   10  C18 UNL     1       6.684   9.838   9.678  1.00  0.00     0.095 A 
HETATM   11  C1  UNL     1       7.203  12.452   7.001  1.00  0.00     0.084 C 
HETATM   12  F1  UNL     1       7.212  10.020   7.008  1.00  0.00    -0.209 F 
HETATM   13  C17 UNL     1       6.429   9.812  10.970  1.00  0.00     0.041 A 
HETATM   14  C16 UNL     1       6.270  11.054  11.731  1.00  0.00     0.038 A 
BRANCH  10  15
HETATM   15  O2  UNL     1       6.827   8.641   9.000  1.00  0.00    -0.358 OA
ATOM     16  H2  UNL     1       6.117   8.011   8.959  1.00  0.00     0.217 HD
ENDBRANCH  10  15
ENDBRANCH   1   5
BRANCH   3  17
HETATM   17  C6  UNL     1       5.848  15.913  12.078  1.00  0.00     0.161 C 
BRANCH  17  18
HETATM   18  C7  UNL     1       4.725  16.657  11.409  1.00  0.00    -0.040 A 
HETATM   19  C8  UNL     1       3.840  15.987  10.585  1.00  0.00     0.009 A 
HETATM   20  C9  UNL     1       2.810  16.662   9.970  1.00  0.00     0.008 A 
HETATM   21  C10 UNL     1       2.661  18.022  10.180  1.00  0.00    -0.052 A 
HETATM   22  C11 UNL     1       3.521  18.689  10.986  1.00  0.00    -0.051 A 
HETATM   23  C15 UNL     1       1.645  18.989   9.649  1.00  0.00     0.039 A 
HETATM   24  C12 UNL     1       4.569  18.012  11.613  1.00  0.00     0.016 A 
HETATM   25  C13 UNL     1       3.216  20.138  11.096  1.00  0.00     0.039 A 
HETATM   26  C14 UNL     1       2.015  20.317  10.231  1.00  0.00     0.009 A 
ENDBRANCH  17  18
ENDBRANCH   3  17
TORSDOF 4
ENDMDL
MODEL 5
REMARK VINA RESULT: -6.719998352      3.765      6.097
REMARK  4 active torsions:
REMARK  status: ('A' for Active; 'I' for Inactive)
REMARK    1  A    between atoms: C4_7  and  C5_8 
REMARK       I    between atoms: C5_8  and  N2_10 
REMARK    2  A    between atoms: N2_10  and  C6_12 
REMARK    3  A    between atoms: C6_12  and  C7_13 
REMARK    4  A    between atoms: C18_24  and  O2_25 
ROOT
HETATM    1  C5  UNL     1       6.967  11.743  10.410  1.00  0.00     0.268 C 
HETATM    2  O1  UNL     1       7.762  11.595  11.388  1.00  0.00    -0.266 OA
HETATM    3  N2  UNL     1       6.130  12.879  10.308  1.00  0.00    -0.351 N 
ATOM      4  H2  UNL     1       5.505  12.965   9.506  1.00  0.00     0.163 HD
ENDROOT
BRANCH   1   5
HETATM    5  C4  UNL     1       6.942  10.714   9.402  1.00  0.00     0.101 A 
HETATM    6  N1  UNL     1       7.276  11.003   8.062  1.00  0.00    -0.347 N 
HETATM    7  C3  UNL     1       7.237   9.971   7.075  1.00  0.00     0.100 A 
ATOM      8  H1  UNL     1       7.545  11.951   7.797  1.00  0.00     0.166 HD
HETATM    9  C2  UNL     1       7.550  10.232   5.822  1.00  0.00     0.119 C 
HETATM   10  C18 UNL     1       6.850   8.637   7.493  1.00  0.00     0.095 A 
HETATM   11  C1  UNL     1       7.945  11.578   5.391  1.00  0.00     0.084 C 
HETATM   12  F1  UNL     1       7.501   9.235   4.912  1.00  0.00    -0.209 F 
HETATM   13  C17 UNL     1       6.546   8.406   8.754  1.00  0.00     0.041 A 
HETATM   14  C16 UNL     1       6.592   9.482   9.747  1.00  0.00     0.038 A 
BRANCH  10  15
HETATM   15  O2  UNL     1       6.792   7.591   6.589  1.00  0.00    -0.358 OA
ATOM     16  H2  UNL     1       6.018   7.440   6.060  1.00  0.00     0.217 HD
ENDBRANCH  10  15
ENDBRANCH   1   5
BRANCH   3  17
HETATM   17  C6  UNL     1       6.140  13.934  11.320  1.00  0.00     0.161 C 
BRANCH  17  18
HETATM   18  C7  UNL     1       5.153  14.963  10.839  1.00  0.00    -0.040 A 
HETATM   19  C8  UNL     1       4.367  14.709   9.731  1.00  0.00     0.009 A 
HETATM   20  C9  UNL     1       3.462  15.645   9.287  1.00  0.00     0.008 A 
HETATM   21  C10 UNL     1       3.341  16.851   9.955  1.00  0.00    -0.052 A 
HETATM   22  C11 UNL     1       4.105  17.112  11.042  1.00  0.00    -0.051 A 
HETATM   23  C15 UNL     1       2.450  18.030   9.695  1.00  0.00     0.039 A 
HETATM   24  C12 UNL     1       5.026  16.167  11.500  1.00  0.00     0.016 A 
HETATM   25  C13 UNL     1       3.847  18.449  11.633  1.00  0.00     0.039 A 
HETATM   26  C14 UNL     1       2.788  19.028  10.757  1.00  0.00     0.009 A 
ENDBRANCH  17  18
ENDBRANCH   3  17
TORSDOF 4
ENDMDL
