MODEL 1
REMARK VINA RESULT: -7.027442279      0.000      0.000
REMARK  3 active torsions:
REMARK  status: ('A' for Active; 'I' for Inactive)
REMARK    1  A    between atoms: C4_5  and  C5_6 
REMARK    2  A    between atoms: C6_7  and  C7_8 
REMARK       I    between atoms: C7_8  and  N2_10 
REMARK    3  A    between atoms: N2_10  and  C8_12 
ROOT
HETATM    1  C7  UNL     1       6.808  12.642   9.510  1.00  0.00     0.245 C 
HETATM    2  O1  UNL     1       7.684  12.155  10.245  1.00  0.00    -0.268 OA
HETATM    3  N2  UNL     1       6.252  11.928   8.439  1.00  0.00    -0.323 N 
ATOM      4  H2  UNL     1       5.541  12.427   7.904  1.00  0.00     0.169 HD
ENDROOT
BRANCH   1   5
HETATM    5  C6  UNL     1       6.373  14.026   9.815  1.00  0.00     0.075 C 
HETATM    6  C5  UNL     1       5.139  14.283  10.083  1.00  0.00     0.020 C 
BRANCH   6   7
HETATM    7  C4  UNL     1       4.515  15.547  10.403  1.00  0.00     0.003 A 
HETATM    8  C3  UNL     1       3.510  15.992   9.545  1.00  0.00     0.016 A 
HETATM    9  C2  UNL     1       2.830  17.172   9.724  1.00  0.00     0.027 A 
HETATM   10  C1  UNL     1       3.133  17.976  10.792  1.00  0.00     0.049 A 
HETATM   11  N1  UNL     1       2.439  19.206  10.996  1.00  0.00    -0.102 NA
HETATM   12  C18 UNL     1       4.114  17.568  11.652  1.00  0.00     0.069 A 
HETATM   13  C17 UNL     1       4.804  16.359  11.461  1.00  0.00     0.128 A 
HETATM   14  F1  UNL     1       5.752  16.018  12.337  1.00  0.00    -0.205 F 
ENDBRANCH   6   7
ENDBRANCH   1   5
BRANCH   3  15
HETATM   15  C8  UNL     1       6.532  10.625   7.998  1.00  0.00     0.042 A 
HETATM   16  C9  UNL     1       6.100   9.515   8.663  1.00  0.00     0.030 A 
HETATM   17  C10 UNL     1       6.418   8.219   8.205  1.00  0.00     0.003 A 
HETATM   18  C11 UNL     1       7.180   8.071   7.067  1.00  0.00     0.010 A 
HETATM   19  C12 UNL     1       7.629   9.181   6.376  1.00  0.00    -0.026 A 
HETATM   20  C13 UNL     1       7.298  10.411   6.851  1.00  0.00    -0.021 A 
HETATM   21  C16 UNL     1       8.445   8.924   5.179  1.00  0.00     0.206 C 
HETATM   22  C14 UNL     1       7.766  11.607   6.106  1.00  0.00     0.068 C 
HETATM   23  C15 UNL     1       8.161  11.161   4.720  1.00  0.00     0.172 C 
HETATM   24  O2  UNL     1       9.008  10.091   4.668  1.00  0.00    -0.386 OA
ENDBRANCH   3  15
TORSDOF 3
ENDMDL
MODEL 2
REMARK VINA RESULT: -6.874474496      1.098      1.467
REMARK  3 active torsions:
REMARK  status: ('A' for Active; 'I' for Inactive)
REMARK    1  A    between atoms: C4_5  and  C5_6 
REMARK    2  A    between atoms: C6_7  and  C7_8 
REMARK       I    between atoms: C7_8  and  N2_10 
REMARK    3  A    between atoms: N2_10  and  C8_12 
ROOT
HETATM    1  C7  UNL     1       6.680  12.334   9.937  1.00  0.00     0.245 C 
HETATM    2  O1  UNL     1       7.648  11.879  10.569  1.00  0.00    -0.268 OA
HETATM    3  N2  UNL     1       6.113  11.655   8.850  1.00  0.00    -0.323 N 
ATOM      4  H2  UNL     1       5.321  12.124   8.407  1.00  0.00     0.169 HD
ENDROOT
BRANCH   1   5
HETATM    5  C6  UNL     1       6.145  13.642  10.387  1.00  0.00     0.075 C 
HETATM    6  C5  UNL     1       5.132  14.177   9.795  1.00  0.00     0.020 C 
BRANCH   6   7
HETATM    7  C4  UNL     1       4.466  15.429  10.072  1.00  0.00     0.003 A 
HETATM    8  C3  UNL     1       4.840  16.101  11.235  1.00  0.00     0.016 A 
HETATM    9  C2  UNL     1       4.293  17.299  11.626  1.00  0.00     0.027 A 
HETATM   10  C1  UNL     1       3.326  17.889  10.853  1.00  0.00     0.049 A 
HETATM   11  N1  UNL     1       2.745  19.133  11.242  1.00  0.00    -0.102 NA
HETATM   12  C18 UNL     1       2.938  17.255   9.707  1.00  0.00     0.069 A 
HETATM   13  C17 UNL     1       3.504  16.030   9.315  1.00  0.00     0.128 A 
HETATM   14  F1  UNL     1       3.079  15.463   8.183  1.00  0.00    -0.205 F 
ENDBRANCH   6   7
ENDBRANCH   1   5
BRANCH   3  15
HETATM   15  C8  UNL     1       6.476  10.424   8.282  1.00  0.00     0.042 A 
HETATM   16  C9  UNL     1       6.187   9.228   8.871  1.00  0.00     0.030 A 
HETATM   17  C10 UNL     1       6.586   8.009   8.286  1.00  0.00     0.003 A 
HETATM   18  C11 UNL     1       7.283   8.025   7.098  1.00  0.00     0.010 A 
HETATM   19  C12 UNL     1       7.588   9.225   6.481  1.00  0.00    -0.026 A 
HETATM   20  C13 UNL     1       7.183  10.376   7.079  1.00  0.00    -0.021 A 
HETATM   21  C16 UNL     1       8.345   9.142   5.222  1.00  0.00     0.206 C 
HETATM   22  C14 UNL     1       7.495  11.667   6.415  1.00  0.00     0.068 C 
HETATM   23  C15 UNL     1       7.838  11.372   4.975  1.00  0.00     0.172 C 
HETATM   24  O2  UNL     1       8.770  10.393   4.782  1.00  0.00    -0.386 OA
ENDBRANCH   3  15
TORSDOF 3
ENDMDL
MODEL 3
REMARK VINA RESULT: -6.766665504      5.196      8.227
REMARK  3 active torsions:
REMARK  status: ('A' for Active; 'I' for Inactive)
REMARK    1  A    between atoms: C4_5  and  C5_6 
REMARK    2  A    between atoms: C6_7  and  C7_8 
REMARK       I    between atoms: C7_8  and  N2_10 
REMARK    3  A    between atoms: N2_10  and  C8_12 
ROOT
HETATM    1  C7  UNL     1       4.945  14.062   7.264  1.00  0.00     0.245 C 
HETATM    2  O1  UNL     1       6.186  14.105   7.213  1.00  0.00    -0.268 OA
HETATM    3  N2  UNL     1       4.230  14.461   8.402  1.00  0.00    -0.323 N 
ATOM      4  H2  UNL     1       3.215  14.382   8.330  1.00  0.00     0.169 HD
ENDROOT
BRANCH   1   5
HETATM    5  C6  UNL     1       4.245  13.564   6.056  1.00  0.00     0.075 C 
HETATM    6  C5  UNL     1       3.355  14.288   5.466  1.00  0.00     0.020 C 
BRANCH   6   7
HETATM    7  C4  UNL     1       2.567  13.993   4.291  1.00  0.00     0.003 A 
HETATM    8  C3  UNL     1       1.641  12.955   4.395  1.00  0.00     0.016 A 
HETATM    9  C2  UNL     1       0.824  12.565   3.362  1.00  0.00     0.027 A 
HETATM   10  C1  UNL     1       0.899  13.209   2.155  1.00  0.00     0.049 A 
HETATM   11  N1  UNL     1       0.059  12.819   1.069  1.00  0.00    -0.102 NA
HETATM   12  C18 UNL     1       1.796  14.231   2.021  1.00  0.00     0.069 A 
HETATM   13  C17 UNL     1       2.628  14.624   3.084  1.00  0.00     0.128 A 
HETATM   14  F1  UNL     1       3.484  15.630   2.888  1.00  0.00    -0.205 F 
ENDBRANCH   6   7
ENDBRANCH   1   5
BRANCH   3  15
HETATM   15  C8  UNL     1       4.710  14.951   9.627  1.00  0.00     0.042 A 
HETATM   16  C9  UNL     1       5.707  14.336  10.326  1.00  0.00     0.030 A 
HETATM   17  C10 UNL     1       6.150  14.843  11.565  1.00  0.00     0.003 A 
HETATM   18  C11 UNL     1       5.565  15.979  12.080  1.00  0.00     0.010 A 
HETATM   19  C12 UNL     1       4.554  16.620  11.390  1.00  0.00    -0.026 A 
HETATM   20  C13 UNL     1       4.158  16.099  10.199  1.00  0.00    -0.021 A 
HETATM   21  C16 UNL     1       3.983  17.819  12.025  1.00  0.00     0.206 C 
HETATM   22  C14 UNL     1       3.081  16.790   9.446  1.00  0.00     0.068 C 
HETATM   23  C15 UNL     1       2.960  18.190   9.998  1.00  0.00     0.172 C 
HETATM   24  O2  UNL     1       2.851  18.277  11.356  1.00  0.00    -0.386 OA
ENDBRANCH   3  15
TORSDOF 3
ENDMDL
MODEL 4
REMARK VINA RESULT: -6.765539700      5.205      8.312
REMARK  3 active torsions:
REMARK  status: ('A' for Active; 'I' for Inactive)
REMARK    1  A    between atoms: C4_5  and  C5_6 
REMARK    2  A    between atoms: C6_7  and  C7_8 
REMARK       I    between atoms: C7_8  and  N2_10 
REMARK    3  A    between atoms: N2_10  and  C8_12 
ROOT
HETATM    1  C7  UNL     1       3.193  13.550   7.834  1.00  0.00     0.245 C 
HETATM    2  O1  UNL     1       2.724  12.831   8.733  1.00  0.00    -0.268 OA
HETATM    3  N2  UNL     1       4.095  14.588   8.104  1.00  0.00    -0.323 N 
ATOM      4  H2  UNL     1       4.414  15.113   7.289  1.00  0.00     0.169 HD
ENDROOT
BRANCH   1   5
HETATM    5  C6  UNL     1       2.750  13.262   6.450  1.00  0.00     0.075 C 
HETATM    6  C5  UNL     1       2.891  14.141   5.517  1.00  0.00     0.020 C 
BRANCH   6   7
HETATM    7  C4  UNL     1       2.529  14.060   4.120  1.00  0.00     0.003 A 
HETATM    8  C3  UNL     1       1.741  12.978   3.732  1.00  0.00     0.016 A 
HETATM    9  C2  UNL     1       1.320  12.773   2.440  1.00  0.00     0.027 A 
HETATM   10  C1  UNL     1       1.680  13.661   1.459  1.00  0.00     0.049 A 
HETATM   11  N1  UNL     1       1.254  13.467   0.111  1.00  0.00    -0.102 NA
HETATM   12  C18 UNL     1       2.453  14.733   1.808  1.00  0.00     0.069 A 
HETATM   13  C17 UNL     1       2.877  14.935   3.133  1.00  0.00     0.128 A 
HETATM   14  F1  UNL     1       3.631  16.003   3.407  1.00  0.00    -0.205 F 
ENDBRANCH   6   7
ENDBRANCH   1   5
BRANCH   3  15
HETATM   15  C8  UNL     1       4.624  15.010   9.335  1.00  0.00     0.042 A 
HETATM   16  C9  UNL     1       5.678  14.386   9.934  1.00  0.00     0.030 A 
HETATM   17  C10 UNL     1       6.172  14.820  11.182  1.00  0.00     0.003 A 
HETATM   18  C11 UNL     1       5.577  15.894  11.808  1.00  0.00     0.010 A 
HETATM   19  C12 UNL     1       4.507  16.543  11.220  1.00  0.00    -0.026 A 
HETATM   20  C13 UNL     1       4.065  16.092  10.017  1.00  0.00    -0.021 A 
HETATM   21  C16 UNL     1       3.931  17.671  11.969  1.00  0.00     0.206 C 
HETATM   22  C14 UNL     1       2.925  16.792   9.373  1.00  0.00     0.068 C 
HETATM   23  C15 UNL     1       2.785  18.144  10.030  1.00  0.00     0.172 C 
HETATM   24  O2  UNL     1       2.748  18.131  11.395  1.00  0.00    -0.386 OA
ENDBRANCH   3  15
TORSDOF 3
ENDMDL
MODEL 5
REMARK VINA RESULT: -6.751664854      4.766      7.176
REMARK  3 active torsions:
REMARK  status: ('A' for Active; 'I' for Inactive)
REMARK    1  A    between atoms: C4_5  and  C5_6 
REMARK    2  A    between atoms: C6_7  and  C7_8 
REMARK       I    between atoms: C7_8  and  N2_10 
REMARK    3  A    between atoms: N2_10  and  C8_12 
ROOT
HETATM    1  C7  UNL     1       4.614  15.024   8.071  1.00  0.00     0.245 C 
HETATM    2  O1  UNL     1       5.816  14.976   7.758  1.00  0.00    -0.268 OA
HETATM    3  N2  UNL     1       4.190  15.013   9.407  1.00  0.00    -0.323 N 
ATOM      4  H2  UNL     1       3.180  15.056   9.545  1.00  0.00     0.169 HD
ENDROOT
BRANCH   1   5
HETATM    5  C6  UNL     1       3.637  15.093   6.959  1.00  0.00     0.075 C 
HETATM    6  C5  UNL     1       3.730  14.294   5.951  1.00  0.00     0.020 C 
BRANCH   6   7
HETATM    7  C4  UNL     1       2.892  14.198   4.777  1.00  0.00     0.003 A 
HETATM    8  C3  UNL     1       2.036  13.101   4.699  1.00  0.00     0.016 A 
HETATM    9  C2  UNL     1       1.183  12.881   3.645  1.00  0.00     0.027 A 
HETATM   10  C1  UNL     1       1.150  13.768   2.600  1.00  0.00     0.049 A 
HETATM   11  N1  UNL     1       0.272  13.557   1.495  1.00  0.00    -0.102 NA
HETATM   12  C18 UNL     1       1.978  14.854   2.647  1.00  0.00     0.069 A 
HETATM   13  C17 UNL     1       2.846  15.071   3.731  1.00  0.00     0.128 A 
HETATM   14  F1  UNL     1       3.630  16.153   3.715  1.00  0.00    -0.205 F 
ENDBRANCH   6   7
ENDBRANCH   1   5
BRANCH   3  15
HETATM   15  C8  UNL     1       4.955  14.950  10.583  1.00  0.00     0.042 A 
HETATM   16  C9  UNL     1       5.252  16.054  11.327  1.00  0.00     0.030 A 
HETATM   17  C10 UNL     1       6.042  15.961  12.491  1.00  0.00     0.003 A 
HETATM   18  C11 UNL     1       6.524  14.732  12.884  1.00  0.00     0.010 A 
HETATM   19  C12 UNL     1       6.236  13.598  12.147  1.00  0.00    -0.026 A 
HETATM   20  C13 UNL     1       5.470  13.733  11.033  1.00  0.00    -0.021 A 
HETATM   21  C16 UNL     1       6.805  12.333  12.639  1.00  0.00     0.206 C 
HETATM   22  C14 UNL     1       5.146  12.518  10.244  1.00  0.00     0.068 C 
HETATM   23  C15 UNL     1       5.405  11.317  11.122  1.00  0.00     0.172 C 
HETATM   24  O2  UNL     1       6.626  11.290  11.733  1.00  0.00    -0.386 OA
ENDBRANCH   3  15
TORSDOF 3
ENDMDL
