MODEL 1
REMARK VINA RESULT: -6.988951467      0.000      0.000
REMARK  3 active torsions:
REMARK  status: ('A' for Active; 'I' for Inactive)
REMARK    1  A    between atoms: N1_2  and  C2_4 
REMARK    2  A    between atoms: C5_8  and  C6_9 
REMARK    3  A    between atoms: C8_11  and  O2_12 
ROOT
HETATM    1  C6  UNL     1       5.688  13.380  10.603  1.00  0.00    -0.014 A 
HETATM    2  C7  UNL     1       6.403  12.223  10.942  1.00  0.00     0.049 A 
HETATM    3  C8  UNL     1       6.902  11.988  12.194  1.00  0.00     0.066 A 
HETATM    4  C9  UNL     1       6.678  12.951  13.152  1.00  0.00     0.037 A 
HETATM    5  C10 UNL     1       5.984  14.097  12.868  1.00  0.00     0.016 A 
HETATM    6  C11 UNL     1       5.475  14.315  11.559  1.00  0.00    -0.015 A 
HETATM    7  C12 UNL     1       4.699  15.520  11.377  1.00  0.00    -0.025 A 
HETATM    8  C13 UNL     1       3.426  15.461  10.880  1.00  0.00     0.015 A 
HETATM    9  C14 UNL     1       2.664  16.629  10.717  1.00  0.00     0.043 A 
HETATM   10  C15 UNL     1       3.227  17.834  11.068  1.00  0.00     0.116 A 
HETATM   11  F1  UNL     1       2.527  19.006  10.928  1.00  0.00    -0.206 F 
HETATM   12  C16 UNL     1       4.501  17.911  11.567  1.00  0.00     0.043 A 
HETATM   13  C17 UNL     1       5.228  16.736  11.716  1.00  0.00     0.015 A 
ENDROOT
BRANCH   1  14
HETATM   14  C5  UNL     1       5.194  13.540   9.231  1.00  0.00    -0.016 C 
HETATM   15  C4  UNL     1       5.848  14.413   8.234  1.00  0.00     0.068 C 
HETATM   16  C3  UNL     1       4.912  14.851   7.158  1.00  0.00     0.182 C 
HETATM   17  O1  UNL     1       4.334  13.703   6.540  1.00  0.00    -0.334 OA
HETATM   18  C2  UNL     1       3.677  12.854   7.454  1.00  0.00     0.163 C 
HETATM   19  C18 UNL     1       4.158  12.809   8.815  1.00  0.00     0.104 C 
HETATM   20  N2  UNL     1       3.505  11.962   9.755  1.00  0.00    -0.097 NA
BRANCH  18  21
HETATM   21  N1  UNL     1       2.656  12.124   7.071  1.00  0.00    -0.374 N 
HETATM   22  C1  UNL     1       1.380  12.762   6.804  1.00  0.00     0.148 C 
ATOM     23  H1  UNL     1       2.759  11.115   6.963  1.00  0.00     0.161 HD
ENDBRANCH  18  21
ENDBRANCH   1  14
BRANCH   3  24
HETATM   24  O2  UNL     1       7.603  10.822  12.470  1.00  0.00    -0.361 OA
ATOM     25  H2  UNL     1       7.169  10.079  12.872  1.00  0.00     0.217 HD
ENDBRANCH   3  24
TORSDOF 3
ENDMDL
MODEL 2
REMARK VINA RESULT: -6.933308394      2.969      5.408
REMARK  3 active torsions:
REMARK  status: ('A' for Active; 'I' for Inactive)
REMARK    1  A    between atoms: N1_2  and  C2_4 
REMARK    2  A    between atoms: C5_8  and  C6_9 
REMARK    3  A    between atoms: C8_11  and  O2_12 
ROOT
HETATM    1  C6  UNL     1       4.684  15.201  10.092  1.00  0.00    -0.014 A 
HETATM    2  C7  UNL     1       4.633  16.109  11.159  1.00  0.00     0.049 A 
HETATM    3  C8  UNL     1       3.776  17.175  11.198  1.00  0.00     0.066 A 
HETATM    4  C9  UNL     1       2.930  17.343  10.125  1.00  0.00     0.037 A 
HETATM    5  C10 UNL     1       2.943  16.481   9.060  1.00  0.00     0.016 A 
HETATM    6  C11 UNL     1       3.843  15.381   9.047  1.00  0.00    -0.015 A 
HETATM    7  C12 UNL     1       3.732  14.491   7.915  1.00  0.00    -0.025 A 
HETATM    8  C13 UNL     1       3.526  13.151   8.098  1.00  0.00     0.015 A 
HETATM    9  C14 UNL     1       3.402  12.285   6.999  1.00  0.00     0.043 A 
HETATM   10  C15 UNL     1       3.493  12.816   5.733  1.00  0.00     0.116 A 
HETATM   11  F1  UNL     1       3.380  12.015   4.624  1.00  0.00    -0.206 F 
HETATM   12  C16 UNL     1       3.700  14.156   5.531  1.00  0.00     0.043 A 
HETATM   13  C17 UNL     1       3.817  14.984   6.641  1.00  0.00     0.015 A 
ENDROOT
BRANCH   1  14
HETATM   14  C5  UNL     1       5.640  14.090  10.144  1.00  0.00    -0.016 C 
HETATM   15  C4  UNL     1       6.881  14.056   9.343  1.00  0.00     0.068 C 
HETATM   16  C3  UNL     1       7.379  12.667   9.123  1.00  0.00     0.182 C 
HETATM   17  O1  UNL     1       7.560  12.026  10.383  1.00  0.00    -0.334 OA
HETATM   18  C2  UNL     1       6.390  12.014  11.171  1.00  0.00     0.163 C 
HETATM   19  C18 UNL     1       5.444  13.092  11.008  1.00  0.00     0.104 C 
HETATM   20  N2  UNL     1       4.254  13.097  11.790  1.00  0.00    -0.097 NA
BRANCH  18  21
HETATM   21  N1  UNL     1       6.173  11.046  12.029  1.00  0.00    -0.374 N 
HETATM   22  C1  UNL     1       6.466   9.675  11.652  1.00  0.00     0.148 C 
ATOM     23  H1  UNL     1       5.801  11.255  12.956  1.00  0.00     0.161 HD
ENDBRANCH  18  21
ENDBRANCH   1  14
BRANCH   3  24
HETATM   24  O2  UNL     1       3.771  18.042  12.283  1.00  0.00    -0.361 OA
ATOM     25  H2  UNL     1       2.961  18.257  12.729  1.00  0.00     0.217 HD
ENDBRANCH   3  24
TORSDOF 3
ENDMDL
MODEL 3
REMARK VINA RESULT: -6.643965318      1.336      1.658
REMARK  3 active torsions:
REMARK  status: ('A' for Active; 'I' for Inactive)
REMARK    1  A    between atoms: N1_2  and  C2_4 
REMARK    2  A    between atoms: C5_8  and  C6_9 
REMARK    3  A    between atoms: C8_11  and  O2_12 
ROOT
HETATM    1  C6  UNL     1       5.029  12.460   9.470  1.00  0.00    -0.014 A 
HETATM    2  C7  UNL     1       5.452  11.128   9.356  1.00  0.00     0.049 A 
HETATM    3  C8  UNL     1       6.095  10.456  10.359  1.00  0.00     0.066 A 
HETATM    4  C9  UNL     1       6.328  11.144  11.529  1.00  0.00     0.037 A 
HETATM    5  C10 UNL     1       5.932  12.445  11.687  1.00  0.00     0.016 A 
HETATM    6  C11 UNL     1       5.264  13.119  10.629  1.00  0.00    -0.015 A 
HETATM    7  C12 UNL     1       4.827  14.465  10.916  1.00  0.00    -0.025 A 
HETATM    8  C13 UNL     1       3.516  14.822  10.756  1.00  0.00     0.015 A 
HETATM    9  C14 UNL     1       3.084  16.125  11.049  1.00  0.00     0.043 A 
HETATM   10  C15 UNL     1       4.011  17.036  11.502  1.00  0.00     0.116 A 
HETATM   11  F1  UNL     1       3.643  18.324  11.803  1.00  0.00    -0.206 F 
HETATM   12  C16 UNL     1       5.328  16.696  11.668  1.00  0.00     0.043 A 
HETATM   13  C17 UNL     1       5.721  15.397  11.369  1.00  0.00     0.015 A 
ENDROOT
BRANCH   1  14
HETATM   14  C5  UNL     1       4.348  13.094   8.335  1.00  0.00    -0.016 C 
HETATM   15  C4  UNL     1       5.032  13.993   7.383  1.00  0.00     0.068 C 
HETATM   16  C3  UNL     1       4.088  14.924   6.700  1.00  0.00     0.182 C 
HETATM   17  O1  UNL     1       3.066  14.168   6.054  1.00  0.00    -0.334 OA
HETATM   18  C2  UNL     1       2.370  13.314   6.933  1.00  0.00     0.163 C 
HETATM   19  C18 UNL     1       3.073  12.794   8.082  1.00  0.00     0.104 C 
HETATM   20  N2  UNL     1       2.387  11.933   8.986  1.00  0.00    -0.097 NA
BRANCH  18  21
HETATM   21  N1  UNL     1       1.116  13.001   6.707  1.00  0.00    -0.374 N 
HETATM   22  C1  UNL     1       0.799  11.947   5.762  1.00  0.00     0.148 C 
ATOM     23  H1  UNL     1       0.368  13.497   7.194  1.00  0.00     0.161 HD
ENDBRANCH  18  21
ENDBRANCH   1  14
BRANCH   3  24
HETATM   24  O2  UNL     1       6.491   9.137  10.188  1.00  0.00    -0.361 OA
ATOM     25  H2  UNL     1       6.201   8.637   9.434  1.00  0.00     0.217 HD
ENDBRANCH   3  24
TORSDOF 3
ENDMDL
MODEL 4
REMARK VINA RESULT: -6.610267226      3.425      5.181
REMARK  3 active torsions:
REMARK  status: ('A' for Active; 'I' for Inactive)
REMARK    1  A    between atoms: N1_2  and  C2_4 
REMARK    2  A    between atoms: C5_8  and  C6_9 
REMARK    3  A    between atoms: C8_11  and  O2_12 
ROOT
HETATM    1  C6  UNL     1       3.701  14.899   8.475  1.00  0.00    -0.014 A 
HETATM    2  C7  UNL     1       3.015  15.933   9.127  1.00  0.00     0.049 A 
HETATM    3  C8  UNL     1       3.213  16.252  10.444  1.00  0.00     0.066 A 
HETATM    4  C9  UNL     1       4.137  15.506  11.140  1.00  0.00     0.037 A 
HETATM    5  C10 UNL     1       4.832  14.487  10.545  1.00  0.00     0.016 A 
HETATM    6  C11 UNL     1       4.608  14.178   9.175  1.00  0.00    -0.015 A 
HETATM    7  C12 UNL     1       5.438  13.134   8.621  1.00  0.00    -0.025 A 
HETATM    8  C13 UNL     1       6.196  13.363   7.507  1.00  0.00     0.015 A 
HETATM    9  C14 UNL     1       7.016  12.355   6.974  1.00  0.00     0.043 A 
HETATM   10  C15 UNL     1       7.039  11.131   7.601  1.00  0.00     0.116 A 
HETATM   11  F1  UNL     1       7.822  10.109   7.123  1.00  0.00    -0.206 F 
HETATM   12  C16 UNL     1       6.285  10.883   8.719  1.00  0.00     0.043 A 
HETATM   13  C17 UNL     1       5.485  11.904   9.219  1.00  0.00     0.015 A 
ENDROOT
BRANCH   1  14
HETATM   14  C5  UNL     1       3.417  14.634   7.060  1.00  0.00    -0.016 C 
HETATM   15  C4  UNL     1       4.122  15.315   5.955  1.00  0.00     0.068 C 
HETATM   16  C3  UNL     1       3.327  15.326   4.693  1.00  0.00     0.182 C 
HETATM   17  O1  UNL     1       2.983  13.988   4.340  1.00  0.00    -0.334 OA
HETATM   18  C2  UNL     1       2.285  13.309   5.360  1.00  0.00     0.163 C 
HETATM   19  C18 UNL     1       2.545  13.679   6.731  1.00  0.00     0.104 C 
HETATM   20  N2  UNL     1       1.848  13.010   7.777  1.00  0.00    -0.097 NA
BRANCH  18  21
HETATM   21  N1  UNL     1       1.423  12.366   5.065  1.00  0.00    -0.374 N 
HETATM   22  C1  UNL     1       0.776  12.367   3.766  1.00  0.00     0.148 C 
ATOM     23  H1  UNL     1       1.208  11.636   5.745  1.00  0.00     0.161 HD
ENDBRANCH  18  21
ENDBRANCH   1  14
BRANCH   3  24
HETATM   24  O2  UNL     1       2.503  17.288  11.036  1.00  0.00    -0.361 OA
ATOM     25  H2  UNL     1       1.655  17.129  11.434  1.00  0.00     0.217 HD
ENDBRANCH   3  24
TORSDOF 3
ENDMDL
MODEL 5
REMARK VINA RESULT: -6.584066624      1.480      1.917
REMARK  3 active torsions:
REMARK  status: ('A' for Active; 'I' for Inactive)
REMARK    1  A    between atoms: N1_2  and  C2_4 
REMARK    2  A    between atoms: C5_8  and  C6_9 
REMARK    3  A    between atoms: C8_11  and  O2_12 
ROOT
HETATM    1  C6  UNL     1       5.307  12.396  10.492  1.00  0.00    -0.014 A 
HETATM    2  C7  UNL     1       5.963  11.166  10.641  1.00  0.00     0.049 A 
HETATM    3  C8  UNL     1       6.825  10.893  11.668  1.00  0.00     0.066 A 
HETATM    4  C9  UNL     1       7.043  11.893  12.589  1.00  0.00     0.037 A 
HETATM    5  C10 UNL     1       6.423  13.111  12.486  1.00  0.00     0.016 A 
HETATM    6  C11 UNL     1       5.531  13.367  11.409  1.00  0.00    -0.015 A 
HETATM    7  C12 UNL     1       4.877  14.654  11.426  1.00  0.00    -0.025 A 
HETATM    8  C13 UNL     1       3.513  14.743  11.383  1.00  0.00     0.015 A 
HETATM    9  C14 UNL     1       2.872  15.992  11.415  1.00  0.00     0.043 A 
HETATM   10  C15 UNL     1       3.649  17.125  11.490  1.00  0.00     0.116 A 
HETATM   11  F1  UNL     1       3.076  18.372  11.523  1.00  0.00    -0.206 F 
HETATM   12  C16 UNL     1       5.017  17.054  11.533  1.00  0.00     0.043 A 
HETATM   13  C17 UNL     1       5.618  15.802  11.500  1.00  0.00     0.015 A 
ENDROOT
BRANCH   1  14
HETATM   14  C5  UNL     1       4.402  12.591   9.354  1.00  0.00    -0.016 C 
HETATM   15  C4  UNL     1       2.997  12.131   9.353  1.00  0.00     0.068 C 
HETATM   16  C3  UNL     1       2.467  11.924   7.974  1.00  0.00     0.182 C 
HETATM   17  O1  UNL     1       2.619  13.127   7.224  1.00  0.00    -0.334 OA
HETATM   18  C2  UNL     1       3.951  13.588   7.179  1.00  0.00     0.163 C 
HETATM   19  C18 UNL     1       4.817  13.286   8.293  1.00  0.00     0.104 C 
HETATM   20  N2  UNL     1       6.168  13.737   8.266  1.00  0.00    -0.097 NA
BRANCH  18  21
HETATM   21  N1  UNL     1       4.385  14.273   6.149  1.00  0.00    -0.374 N 
HETATM   22  C1  UNL     1       3.481  14.572   5.054  1.00  0.00     0.148 C 
ATOM     23  H1  UNL     1       5.353  14.595   6.118  1.00  0.00     0.161 HD
ENDBRANCH  18  21
ENDBRANCH   1  14
BRANCH   3  24
HETATM   24  O2  UNL     1       7.445   9.656  11.763  1.00  0.00    -0.361 OA
ATOM     25  H2  UNL     1       6.976   8.902  12.101  1.00  0.00     0.217 HD
ENDBRANCH   3  24
TORSDOF 3
ENDMDL
