MODEL 1
REMARK VINA RESULT: -6.953559236      0.000      0.000
REMARK  3 active torsions:
REMARK  status: ('A' for Active; 'I' for Inactive)
REMARK    1  A    between atoms: C7_8  and  N1_9 
REMARK       I    between atoms: N1_9  and  C8_11 
REMARK    2  A    between atoms: C8_11  and  C9_13 
REMARK    3  A    between atoms: C18_24  and  O2_25 
ROOT
HETATM    1  C9  UNL     1       3.178  14.358   6.958  1.00  0.00     0.108 A 
HETATM    2  N2  UNL     1       3.454  15.076   5.859  1.00  0.00    -0.352 N 
ATOM      3  H2  UNL     1       3.966  15.958   5.851  1.00  0.00     0.166 HD
HETATM    4  C10 UNL     1       2.956  14.463   4.771  1.00  0.00     0.045 A 
HETATM    5  C11 UNL     1       2.330  13.294   5.191  1.00  0.00    -0.025 A 
HETATM    6  C12 UNL     1       2.487  13.259   6.561  1.00  0.00    -0.021 A 
HETATM    7  C13 UNL     1       1.961  12.163   7.425  1.00  0.00     0.051 C 
HETATM    8  C14 UNL     1       1.629  12.274   4.362  1.00  0.00     0.041 C 
HETATM    9  C15 UNL     1       0.872  13.032   3.284  1.00  0.00     0.005 C 
HETATM   10  C16 UNL     1       1.716  13.286   2.070  1.00  0.00     0.003 C 
HETATM   11  C17 UNL     1       3.091  13.782   2.418  1.00  0.00     0.038 C 
HETATM   12  C18 UNL     1       3.065  14.962   3.365  1.00  0.00     0.168 C 
ENDROOT
BRANCH   1  13
HETATM   13  C8  UNL     1       3.534  14.656   8.369  1.00  0.00     0.273 C 
HETATM   14  N1  UNL     1       4.613  13.996   8.935  1.00  0.00    -0.321 N 
ATOM     15  H1  UNL     1       5.106  13.334   8.336  1.00  0.00     0.169 HD
HETATM   16  O1  UNL     1       2.852  15.490   9.007  1.00  0.00    -0.266 OA
BRANCH  14  17
HETATM   17  C7  UNL     1       5.101  14.140  10.241  1.00  0.00     0.041 A 
HETATM   18  C2  UNL     1       4.979  13.041  11.105  1.00  0.00    -0.032 A 
HETATM   19  C1  UNL     1       4.342  11.773  10.616  1.00  0.00     0.050 C 
HETATM   20  C3  UNL     1       5.429  13.102  12.385  1.00  0.00     0.051 A 
HETATM   21  C4  UNL     1       6.021  14.237  12.890  1.00  0.00     0.117 A 
HETATM   22  F1  UNL     1       6.460  14.276  14.163  1.00  0.00    -0.206 F 
HETATM   23  C5  UNL     1       6.159  15.323  12.090  1.00  0.00     0.044 A 
HETATM   24  C6  UNL     1       5.697  15.256  10.777  1.00  0.00     0.033 A 
ENDBRANCH  14  17
ENDBRANCH   1  13
BRANCH  12  25
HETATM   25  O2  UNL     1       2.092  15.879   3.056  1.00  0.00    -0.389 OA
ATOM     26  H2  UNL     1       2.320  16.413   2.304  1.00  0.00     0.210 HD
ENDBRANCH  12  25
TORSDOF 3
ENDMDL
MODEL 2
REMARK VINA RESULT: -6.864594245      1.861      2.241
REMARK  3 active torsions:
REMARK  status: ('A' for Active; 'I' for Inactive)
REMARK    1  A    between atoms: C7_8  and  N1_9 
REMARK       I    between atoms: N1_9  and  C8_11 
REMARK    2  A    between atoms: C8_11  and  C9_13 
REMARK    3  A    between atoms: C18_24  and  O2_25 
ROOT
HETATM    1  C9  UNL     1       3.028  13.664   6.085  1.00  0.00     0.108 A 
HETATM    2  N2  UNL     1       2.064  14.149   5.287  1.00  0.00    -0.352 N 
ATOM      3  H2  UNL     1       1.351  14.819   5.573  1.00  0.00     0.166 HD
HETATM    4  C10 UNL     1       2.176  13.621   4.055  1.00  0.00     0.045 A 
HETATM    5  C11 UNL     1       3.264  12.755   4.062  1.00  0.00    -0.025 A 
HETATM    6  C12 UNL     1       3.773  12.805   5.343  1.00  0.00    -0.021 A 
HETATM    7  C13 UNL     1       4.959  12.020   5.793  1.00  0.00     0.051 C 
HETATM    8  C14 UNL     1       3.795  11.932   2.939  1.00  0.00     0.041 C 
HETATM    9  C15 UNL     1       2.592  11.412   2.172  1.00  0.00     0.005 C 
HETATM   10  C16 UNL     1       2.135  12.372   1.113  1.00  0.00     0.003 C 
HETATM   11  C17 UNL     1       2.070  13.789   1.610  1.00  0.00     0.038 C 
HETATM   12  C18 UNL     1       1.282  13.923   2.895  1.00  0.00     0.168 C 
ENDROOT
BRANCH   1  13
HETATM   13  C8  UNL     1       3.282  13.970   7.516  1.00  0.00     0.273 C 
HETATM   14  N1  UNL     1       4.213  14.946   7.831  1.00  0.00    -0.321 N 
ATOM     15  H1  UNL     1       4.676  15.403   7.045  1.00  0.00     0.169 HD
HETATM   16  O1  UNL     1       2.652  13.340   8.396  1.00  0.00    -0.266 OA
BRANCH  14  17
HETATM   17  C7  UNL     1       4.590  15.374   9.111  1.00  0.00     0.041 A 
HETATM   18  C2  UNL     1       5.744  14.808   9.672  1.00  0.00    -0.032 A 
HETATM   19  C1  UNL     1       6.524  13.783   8.902  1.00  0.00     0.050 C 
HETATM   20  C3  UNL     1       6.174  15.172  10.908  1.00  0.00     0.051 A 
HETATM   21  C4  UNL     1       5.501  16.106  11.662  1.00  0.00     0.117 A 
HETATM   22  F1  UNL     1       5.944  16.453  12.886  1.00  0.00    -0.206 F 
HETATM   23  C5  UNL     1       4.380  16.679  11.158  1.00  0.00     0.044 A 
HETATM   24  C6  UNL     1       3.942  16.304   9.890  1.00  0.00     0.033 A 
ENDBRANCH  14  17
ENDBRANCH   1  13
BRANCH  12  25
HETATM   25  O2  UNL     1       0.136  13.167   2.905  1.00  0.00    -0.389 OA
ATOM     26  H2  UNL     1       0.309  12.242   2.772  1.00  0.00     0.210 HD
ENDBRANCH  12  25
TORSDOF 3
ENDMDL
MODEL 3
REMARK VINA RESULT: -6.672304073      1.517      2.083
REMARK  3 active torsions:
REMARK  status: ('A' for Active; 'I' for Inactive)
REMARK    1  A    between atoms: C7_8  and  N1_9 
REMARK       I    between atoms: N1_9  and  C8_11 
REMARK    2  A    between atoms: C8_11  and  C9_13 
REMARK    3  A    between atoms: C18_24  and  O2_25 
ROOT
HETATM    1  C9  UNL     1       3.726  14.022   6.166  1.00  0.00     0.108 A 
HETATM    2  N2  UNL     1       3.405  14.744   5.082  1.00  0.00    -0.352 N 
ATOM      3  H2  UNL     1       3.714  15.699   4.904  1.00  0.00     0.166 HD
HETATM    4  C10 UNL     1       2.616  14.024   4.265  1.00  0.00     0.045 A 
HETATM    5  C11 UNL     1       2.420  12.779   4.853  1.00  0.00    -0.025 A 
HETATM    6  C12 UNL     1       3.126  12.810   6.038  1.00  0.00    -0.021 A 
HETATM    7  C13 UNL     1       3.189  11.667   6.993  1.00  0.00     0.051 C 
HETATM    8  C14 UNL     1       1.622  11.631   4.339  1.00  0.00     0.041 C 
HETATM    9  C15 UNL     1       0.376  12.218   3.697  1.00  0.00     0.005 C 
HETATM   10  C16 UNL     1       0.595  12.576   2.256  1.00  0.00     0.003 C 
HETATM   11  C17 UNL     1       1.888  13.308   2.035  1.00  0.00     0.038 C 
HETATM   12  C18 UNL     1       2.056  14.493   2.960  1.00  0.00     0.168 C 
ENDROOT
BRANCH   1  13
HETATM   13  C8  UNL     1       4.572  14.417   7.321  1.00  0.00     0.273 C 
HETATM   14  N1  UNL     1       3.956  14.688   8.533  1.00  0.00    -0.321 N 
ATOM     15  H1  UNL     1       2.940  14.597   8.556  1.00  0.00     0.169 HD
HETATM   16  O1  UNL     1       5.812  14.497   7.171  1.00  0.00    -0.266 OA
BRANCH  14  17
HETATM   17  C7  UNL     1       4.576  15.073   9.730  1.00  0.00     0.041 A 
HETATM   18  C2  UNL     1       4.173  16.285  10.309  1.00  0.00    -0.032 A 
HETATM   19  C1  UNL     1       3.112  17.115   9.646  1.00  0.00     0.050 C 
HETATM   20  C3  UNL     1       4.726  16.726  11.469  1.00  0.00     0.051 A 
HETATM   21  C4  UNL     1       5.702  16.009  12.123  1.00  0.00     0.117 A 
HETATM   22  F1  UNL     1       6.238  16.464  13.272  1.00  0.00    -0.206 F 
HETATM   23  C5  UNL     1       6.122  14.832  11.597  1.00  0.00     0.044 A 
HETATM   24  C6  UNL     1       5.551  14.382  10.408  1.00  0.00     0.033 A 
ENDBRANCH  14  17
ENDBRANCH   1  13
BRANCH  12  25
HETATM   25  O2  UNL     1       0.904  15.223   3.114  1.00  0.00    -0.389 OA
ATOM     26  H2  UNL     1       0.480  15.063   3.949  1.00  0.00     0.210 HD
ENDBRANCH  12  25
TORSDOF 3
ENDMDL
MODEL 4
REMARK VINA RESULT: -6.658005621      1.862      1.974
REMARK  3 active torsions:
REMARK  status: ('A' for Active; 'I' for Inactive)
REMARK    1  A    between atoms: C7_8  and  N1_9 
REMARK       I    between atoms: N1_9  and  C8_11 
REMARK    2  A    between atoms: C8_11  and  C9_13 
REMARK    3  A    between atoms: C18_24  and  O2_25 
ROOT
HETATM    1  C9  UNL     1       4.980  13.516   7.181  1.00  0.00     0.108 A 
HETATM    2  N2  UNL     1       4.260  14.308   6.371  1.00  0.00    -0.352 N 
ATOM      3  H2  UNL     1       4.112  15.307   6.512  1.00  0.00     0.166 HD
HETATM    4  C10 UNL     1       3.763  13.591   5.348  1.00  0.00     0.045 A 
HETATM    5  C11 UNL     1       4.183  12.275   5.508  1.00  0.00    -0.025 A 
HETATM    6  C12 UNL     1       4.941  12.263   6.660  1.00  0.00    -0.021 A 
HETATM    7  C13 UNL     1       5.593  11.038   7.207  1.00  0.00     0.051 C 
HETATM    8  C14 UNL     1       3.894  11.103   4.635  1.00  0.00     0.041 C 
HETATM    9  C15 UNL     1       2.452  11.243   4.178  1.00  0.00     0.005 C 
HETATM   10  C16 UNL     1       2.331  12.068   2.930  1.00  0.00     0.003 C 
HETATM   11  C17 UNL     1       3.156  13.322   2.986  1.00  0.00     0.038 C 
HETATM   12  C18 UNL     1       2.911  14.129   4.243  1.00  0.00     0.168 C 
ENDROOT
BRANCH   1  13
HETATM   13  C8  UNL     1       5.705  13.882   8.424  1.00  0.00     0.273 C 
HETATM   14  N1  UNL     1       4.976  14.059   9.590  1.00  0.00    -0.321 N 
ATOM     15  H1  UNL     1       3.968  13.924   9.520  1.00  0.00     0.169 HD
HETATM   16  O1  UNL     1       6.949  14.022   8.388  1.00  0.00    -0.266 OA
BRANCH  14  17
HETATM   17  C7  UNL     1       5.474  14.403  10.854  1.00  0.00     0.041 A 
HETATM   18  C2  UNL     1       5.714  13.362  11.763  1.00  0.00    -0.032 A 
HETATM   19  C1  UNL     1       5.437  11.942  11.364  1.00  0.00     0.050 C 
HETATM   20  C3  UNL     1       6.197  13.615  13.007  1.00  0.00     0.051 A 
HETATM   21  C4  UNL     1       6.471  14.896  13.430  1.00  0.00     0.117 A 
HETATM   22  F1  UNL     1       6.949  15.124  14.669  1.00  0.00    -0.206 F 
HETATM   23  C5  UNL     1       6.252  15.932  12.584  1.00  0.00     0.044 A 
HETATM   24  C6  UNL     1       5.758  15.669  11.308  1.00  0.00     0.033 A 
ENDBRANCH  14  17
ENDBRANCH   1  13
BRANCH  12  25
HETATM   25  O2  UNL     1       1.583  14.197   4.588  1.00  0.00    -0.389 OA
ATOM     26  H2  UNL     1       1.044  14.549   3.890  1.00  0.00     0.210 HD
ENDBRANCH  12  25
TORSDOF 3
ENDMDL
MODEL 5
REMARK VINA RESULT: -6.612717224      0.859      1.347
REMARK  3 active torsions:
REMARK  status: ('A' for Active; 'I' for Inactive)
REMARK    1  A    between atoms: C7_8  and  N1_9 
REMARK       I    between atoms: N1_9  and  C8_11 
REMARK    2  A    between atoms: C8_11  and  C9_13 
REMARK    3  A    between atoms: C18_24  and  O2_25 
ROOT
HETATM    1  C9  UNL     1       2.906  14.191   6.534  1.00  0.00     0.108 A 
HETATM    2  N2  UNL     1       3.251  14.958   5.489  1.00  0.00    -0.352 N 
ATOM      3  H2  UNL     1       3.795  15.819   5.550  1.00  0.00     0.166 HD
HETATM    4  C10 UNL     1       2.776  14.426   4.349  1.00  0.00     0.045 A 
HETATM    5  C11 UNL     1       2.092  13.261   4.677  1.00  0.00    -0.025 A 
HETATM    6  C12 UNL     1       2.193  13.143   6.048  1.00  0.00    -0.021 A 
HETATM    7  C13 UNL     1       1.594  12.021   6.827  1.00  0.00     0.051 C 
HETATM    8  C14 UNL     1       1.389  12.316   3.765  1.00  0.00     0.041 C 
HETATM    9  C15 UNL     1       0.703  13.161   2.705  1.00  0.00     0.005 C 
HETATM   10  C16 UNL     1       1.603  13.450   1.540  1.00  0.00     0.003 C 
HETATM   11  C17 UNL     1       2.980  13.874   1.968  1.00  0.00     0.038 C 
HETATM   12  C18 UNL     1       2.959  14.999   2.980  1.00  0.00     0.168 C 
ENDROOT
BRANCH   1  13
HETATM   13  C8  UNL     1       3.216  14.396   7.972  1.00  0.00     0.273 C 
HETATM   14  N1  UNL     1       4.017  13.468   8.617  1.00  0.00    -0.321 N 
ATOM     15  H1  UNL     1       4.351  12.686   8.054  1.00  0.00     0.169 HD
HETATM   16  O1  UNL     1       2.747  15.396   8.561  1.00  0.00    -0.266 OA
BRANCH  14  17
HETATM   17  C7  UNL     1       4.419  13.486   9.960  1.00  0.00     0.041 A 
HETATM   18  C2  UNL     1       5.758  13.801  10.234  1.00  0.00    -0.032 A 
HETATM   19  C1  UNL     1       6.701  14.101   9.105  1.00  0.00     0.050 C 
HETATM   20  C3  UNL     1       6.223  13.839  11.509  1.00  0.00     0.051 A 
HETATM   21  C4  UNL     1       5.406  13.573  12.585  1.00  0.00     0.117 A 
HETATM   22  F1  UNL     1       5.887  13.617  13.843  1.00  0.00    -0.206 F 
HETATM   23  C5  UNL     1       4.104  13.264  12.366  1.00  0.00     0.044 A 
HETATM   24  C6  UNL     1       3.631  13.226  11.056  1.00  0.00     0.033 A 
ENDBRANCH  14  17
ENDBRANCH   1  13
BRANCH  12  25
HETATM   25  O2  UNL     1       2.032  15.968   2.687  1.00  0.00    -0.389 OA
ATOM     26  H2  UNL     1       2.248  16.452   1.898  1.00  0.00     0.210 HD
ENDBRANCH  12  25
TORSDOF 3
ENDMDL
