REMARK  1 active torsions:
REMARK  status: ('A' for Active; 'I' for Inactive)
REMARK    1  A    between atoms: C6_6  and  N1_7 
ROOT
HETATM    1  C1  UNL     1      -1.623   1.157  -0.267  1.00  0.00     0.012 C 
HETATM    2  C2  UNL     1      -0.620   0.556   0.642  1.00  0.00     0.013 C 
HETATM    3  C3  UNL     1      -0.603  -0.937   0.770  1.00  0.00    -0.006 C 
HETATM    4  C4  UNL     1      -0.482  -1.482  -0.632  1.00  0.00     0.007 C 
HETATM    5  C5  UNL     1       0.504  -0.441  -1.199  1.00  0.00     0.031 C 
HETATM    6  C6  UNL     1       0.775   0.346   0.040  1.00  0.00     0.027 C 
HETATM    7  C7  UNL     1       0.887  -0.748   1.110  1.00  0.00     0.035 C 
ENDROOT
BRANCH   6   8
HETATM    8  N1  UNL     1       1.672   1.388   0.061  1.00  0.00    -0.421 N 
ATOM      9  H12 UNL     1       1.398   2.280   0.474  1.00  0.00     0.150 HD
ATOM     10  H11 UNL     1       2.600   1.248  -0.339  1.00  0.00     0.150 HD
ENDBRANCH   6   8
TORSDOF 1
