REMARK  0 active torsions:
REMARK  status: ('A' for Active; 'I' for Inactive)
ROOT
HETATM    1  C1  UNL     1       0.235  -1.598   0.230  1.00  0.00     0.000 C 
HETATM    2  C2  UNL     1      -1.120  -1.001   0.288  1.00  0.00     0.000 C 
HETATM    3  C3  UNL     1      -1.327   0.155  -0.659  1.00  0.00     0.005 C 
HETATM    4  C4  UNL     1      -0.893   1.425   0.033  1.00  0.00    -0.005 A 
HETATM    5  C5  UNL     1       0.228   1.177   0.893  1.00  0.00    -0.001 A 
HETATM    6  C6  UNL     1       1.451   0.590   0.404  1.00  0.00    -0.005 A 
HETATM    7  C7  UNL     1       1.296  -0.710  -0.322  1.00  0.00     0.005 C 
HETATM    8  C8  UNL     1       0.617   1.712  -0.326  1.00  0.00    -0.001 A 
ENDROOT
TORSDOF 0
