REMARK  11 active torsions:
REMARK  status: ('A' for Active; 'I' for Inactive)
REMARK    1  A    between atoms: N2_6  and  C4_8 
REMARK    2  A    between atoms: C4_8  and  C5_9 
REMARK    3  A    between atoms: C5_9  and  C6_10 
REMARK    4  A    between atoms: C6_10  and  C7_11 
REMARK    5  A    between atoms: C7_11  and  C8_12 
REMARK    6  A    between atoms: C8_12  and  C9_13 
REMARK    7  A    between atoms: C9_13  and  C10_14 
REMARK    8  A    between atoms: C10_14  and  C11_15 
REMARK    9  A    between atoms: C11_15  and  C12_16 
REMARK   10  A    between atoms: C12_16  and  N3_17 
REMARK   11  A    between atoms: C15_25  and  C16_26 
ROOT
HETATM    1  C1  UNL     1      -2.484   2.230  -1.032  1.00  0.00     0.070 C 
HETATM    2  C2  UNL     1      -2.528   0.756  -0.901  1.00  0.00     0.035 A 
HETATM    3  N1  UNL     1      -1.461  -0.003  -1.295  1.00  0.00    -0.195 N 
ATOM      4  H1  UNL     1      -0.642   0.486  -1.657  1.00  0.00     0.184 HD
HETATM    5  C3  UNL     1      -1.411  -1.327  -1.242  1.00  0.00     0.678 A 
HETATM    6  N2  UNL     1      -0.375  -2.018  -1.627  1.00  0.00    -0.226 N 
ATOM      7  H2  UNL     1      -0.375  -3.036  -1.570  1.00  0.00     0.177 HD
HETATM    8  N4  UNL     1      -2.481  -1.987  -0.769  1.00  0.00    -0.193 N 
ATOM      9  H4  UNL     1      -2.475  -3.006  -0.717  1.00  0.00     0.184 HD
HETATM   10  C13 UNL     1      -3.539  -1.308  -0.373  1.00  0.00     0.056 A 
HETATM   11  C14 UNL     1      -3.625   0.099  -0.414  1.00  0.00     0.016 A 
HETATM   12  C15 UNL     1      -4.877   0.618   0.069  1.00  0.00    -0.044 C 
HETATM   13  C19 UNL     1      -5.965  -0.050  -0.787  1.00  0.00     0.150 C 
HETATM   14  N5  UNL     1      -5.975  -1.470  -0.488  1.00  0.00    -0.412 N 
ATOM     15  H5  UNL     1      -6.768  -2.071  -0.713  1.00  0.00     0.153 HD
HETATM   16  C20 UNL     1      -4.790  -1.967   0.146  1.00  0.00     0.173 C 
ENDROOT
BRANCH   6  17
HETATM   17  C4  UNL     1       0.768  -1.308  -2.134  1.00  0.00     0.138 C 
BRANCH  17  18
HETATM   18  C5  UNL     1       1.948  -2.177  -2.397  1.00  0.00     0.020 C 
BRANCH  18  19
HETATM   19  C6  UNL     1       2.457  -2.901  -1.200  1.00  0.00     0.002 C 
BRANCH  19  20
HETATM   20  C7  UNL     1       2.885  -1.944  -0.109  1.00  0.00     0.000 C 
BRANCH  20  21
HETATM   21  C8  UNL     1       3.993  -1.029  -0.609  1.00  0.00     0.000 C 
BRANCH  21  22
HETATM   22  C9  UNL     1       4.370  -0.104   0.539  1.00  0.00     0.000 C 
BRANCH  22  23
HETATM   23  C10 UNL     1       5.462   0.842   0.140  1.00  0.00     0.002 C 
BRANCH  23  24
HETATM   24  C11 UNL     1       5.845   1.767   1.265  1.00  0.00     0.027 C 
BRANCH  24  25
HETATM   25  C12 UNL     1       6.339   1.015   2.468  1.00  0.00     0.229 C 
BRANCH  25  26
HETATM   26  N3  UNL     1       6.704   1.950   3.539  1.00  0.00    -0.079 N 
ATOM     27  H33 UNL     1       7.379   2.646   3.222  1.00  0.00     0.274 HD
ATOM     28  H32 UNL     1       5.936   2.579   3.773  1.00  0.00     0.274 HD
ATOM     29  H31 UNL     1       7.039   1.439   4.356  1.00  0.00     0.274 HD
ENDBRANCH  25  26
ENDBRANCH  24  25
ENDBRANCH  23  24
ENDBRANCH  22  23
ENDBRANCH  21  22
ENDBRANCH  20  21
ENDBRANCH  19  20
ENDBRANCH  18  19
ENDBRANCH  17  18
ENDBRANCH   6  17
BRANCH  12  30
HETATM   30  C16 UNL     1      -5.131   1.996   0.425  1.00  0.00     0.017 A 
HETATM   31  C17 UNL     1      -4.443   2.680   1.563  1.00  0.00     0.010 A 
HETATM   32  C18 UNL     1      -5.844   2.304   1.760  1.00  0.00     0.010 A 
ENDBRANCH  12  30
TORSDOF 11
