REMARK  10 active torsions:
REMARK  status: ('A' for Active; 'I' for Inactive)
REMARK       I    between atoms: C2_2  and  N1_4 
REMARK    1  A    between atoms: N1_4  and  C3_6 
REMARK    2  A    between atoms: C5_10  and  C6_11 
REMARK    3  A    between atoms: N3_13  and  N4_15 
REMARK    4  A    between atoms: C8_17  and  O2_18 
REMARK    5  A    between atoms: C8_17  and  C12_34 
REMARK    6  A    between atoms: O2_18  and  C9_19 
REMARK    7  A    between atoms: C10_22  and  N6_23 
REMARK    8  A    between atoms: C11_28  and  N8_29 
REMARK    9  A    between atoms: N13_41  and  N14_42 
REMARK   10  A    between atoms: C14_47  and  N16_48 
ROOT
HETATM    1  N4  UNL     1       1.692  -0.168   0.456  1.00  0.00    -0.277 N 
ATOM      2  H4  UNL     1       2.090  -0.626  -0.364  1.00  0.00     0.189 HD
HETATM    3  C8  UNL     1       2.620   0.101   1.213  1.00  0.00     0.200 C 
ENDROOT
BRANCH   3   4
HETATM    4  O2  UNL     1       3.908  -0.301   0.714  1.00  0.00    -0.257 OA
BRANCH   4   5
HETATM    5  C9  UNL     1       4.071  -0.550  -0.631  1.00  0.00     0.259 A 
HETATM    6  N5  UNL     1       3.074  -0.436  -1.519  1.00  0.00    -0.154 N 
HETATM    7  C10 UNL     1       3.267  -0.689  -2.840  1.00  0.00     0.693 A 
ATOM      8  H5  UNL     1       2.149  -0.153  -1.196  1.00  0.00     0.188 HD
HETATM    9  N7  UNL     1       4.486  -1.060  -3.258  1.00  0.00    -0.023 N 
HETATM   10  C11 UNL     1       5.505  -1.182  -2.388  1.00  0.00     0.693 A 
ATOM     11  H7  UNL     1       4.643  -1.252  -4.247  1.00  0.00     0.203 HD
HETATM   12  N9  UNL     1       5.273  -0.921  -1.077  1.00  0.00    -0.154 N 
ATOM     13  H9  UNL     1       6.041  -1.011  -0.412  1.00  0.00     0.188 HD
BRANCH   7  14
HETATM   14  N6  UNL     1       2.323  -0.585  -3.699  1.00  0.00    -0.234 N 
ATOM     15  H62 UNL     1       1.396  -0.303  -3.381  1.00  0.00     0.174 HD
ATOM     16  H61 UNL     1       2.468  -0.775  -4.691  1.00  0.00     0.174 HD
ENDBRANCH   7  14
BRANCH  10  17
HETATM   17  N8  UNL     1       6.655  -1.538  -2.826  1.00  0.00    -0.234 N 
ATOM     18  H82 UNL     1       6.829  -1.734  -3.812  1.00  0.00     0.174 HD
ATOM     19  H81 UNL     1       7.428  -1.630  -2.166  1.00  0.00     0.174 HD
ENDBRANCH  10  17
ENDBRANCH   4   5
ENDBRANCH   3   4
BRANCH   3  20
HETATM   20  C12 UNL     1       2.618   0.750   2.512  1.00  0.00     0.170 A 
HETATM   21  C13 UNL     1       1.575   1.246   3.245  1.00  0.00     0.167 A 
HETATM   22  N10 UNL     1       0.199   1.269   2.937  1.00  0.00    -0.079 NA
HETATM   23  N11 UNL     1       2.052   1.765   4.408  1.00  0.00    -0.270 N 
HETATM   24  N12 UNL     1       3.341   1.592   4.388  1.00  0.00    -0.220 N 
ATOM     25  H11 UNL     1       1.506   2.204   5.150  1.00  0.00     0.190 HD
HETATM   26  N13 UNL     1       3.722   0.992   3.278  1.00  0.00    -0.181 N 
ATOM     27  H12 UNL     1       3.974   1.882   5.133  1.00  0.00     0.210 HD
BRANCH  26  28
HETATM   28  N14 UNL     1       5.054   0.681   2.992  1.00  0.00    -0.322 N 
ATOM     29 2H14 UNL     1       5.349   0.217   2.133  1.00  0.00     0.179 HD
ATOM     30 1H14 UNL     1       5.879   0.862   3.564  1.00  0.00     0.179 HD
ENDBRANCH  26  28
ENDBRANCH   3  20
BRANCH   1  31
HETATM   31  N3  UNL     1       0.389  -0.103   0.276  1.00  0.00    -0.299 N 
HETATM   32  C6  UNL     1      -0.478  -0.954  -0.063  1.00  0.00     0.066 C 
HETATM   33  C7  UNL     1      -0.167  -2.367  -0.363  1.00  0.00     0.074 C 
ATOM     34  H3  UNL     1       0.002   0.825   0.445  1.00  0.00     0.186 HD
BRANCH  32  35
HETATM   35  C5  UNL     1      -1.881  -0.511  -0.165  1.00  0.00     0.130 A 
HETATM   36  N2  UNL     1      -2.854  -1.359  -0.519  1.00  0.00    -0.348 N 
HETATM   37  C4  UNL     1      -4.138  -0.912  -0.602  1.00  0.00     0.123 A 
ATOM     38  H2  UNL     1      -2.635  -2.334  -0.725  1.00  0.00     0.167 HD
HETATM   39  C3  UNL     1      -4.508   0.385  -0.340  1.00  0.00     0.094 A 
HETATM   40  C14 UNL     1      -3.459   1.231   0.025  1.00  0.00     0.129 A 
HETATM   41  N15 UNL     1      -2.223   0.755   0.094  1.00  0.00    -0.325 N 
ATOM     42  H15 UNL     1      -1.481   1.401   0.364  1.00  0.00     0.169 HD
BRANCH  39  43
HETATM   43  N1  UNL     1      -5.810   0.910  -0.406  1.00  0.00    -0.323 N 
HETATM   44  C2  UNL     1      -7.004   0.265  -0.743  1.00  0.00     0.218 C 
HETATM   45  C1  UNL     1      -8.301   1.039  -0.748  1.00  0.00     0.117 C 
HETATM   46  O1  UNL     1      -7.120  -0.938  -1.056  1.00  0.00    -0.274 OA
ATOM     47  H1  UNL     1      -5.896   1.900  -0.176  1.00  0.00     0.169 HD
ENDBRANCH  39  43
BRANCH  40  48
HETATM   48  N16 UNL     1      -3.722   2.460   0.288  1.00  0.00    -0.384 N 
ATOM     49 2H16 UNL     1      -4.673   2.826   0.235  1.00  0.00     0.157 HD
ATOM     50 1H16 UNL     1      -2.956   3.078   0.555  1.00  0.00     0.157 HD
ENDBRANCH  40  48
ENDBRANCH  32  35
ENDBRANCH   1  31
TORSDOF 10
