REMARK  16 active torsions:
REMARK  status: ('A' for Active; 'I' for Inactive)
REMARK    1  A    between atoms: C2_2  and  C3_3 
REMARK    2  A    between atoms: C3_3  and  N1_5 
REMARK    3  A    between atoms: C3_3  and  C28_43 
REMARK       I    between atoms: N1_5  and  C5_7 
REMARK    4  A    between atoms: C5_7  and  C6_9 
REMARK       I    between atoms: N2_12  and  C9_13 
REMARK    5  A    between atoms: C9_13  and  C10_15 
REMARK    6  A    between atoms: C10_15  and  N3_16 
REMARK    7  A    between atoms: C10_15  and  C16_25 
REMARK       I    between atoms: N3_16  and  C11_18 
REMARK    8  A    between atoms: C11_18  and  O4_20 
REMARK    9  A    between atoms: O4_20  and  C12_21 
REMARK       I    between atoms: N4_31  and  C22_32 
REMARK   10  A    between atoms: C22_32  and  C23_34 
REMARK   11  A    between atoms: C23_34  and  N5_35 
REMARK   12  A    between atoms: C23_34  and  C24_39 
REMARK   13  A    between atoms: C24_39  and  C26_41 
REMARK       I    between atoms: C28_43  and  N6_45 
REMARK   14  A    between atoms: N6_45  and  C29_47 
REMARK   15  A    between atoms: C29_47  and  C30_48 
REMARK   16  A    between atoms: C30_48  and  N7_49 
ROOT
HETATM    1  C6  UNL     1       0.991   2.107   0.282  1.00  0.00     0.185 C 
HETATM    2  C7  UNL     1      -0.465   2.007   0.139  1.00  0.00     0.043 C 
HETATM    3  C8  UNL     1      -1.125   0.819  -0.437  1.00  0.00     0.133 C 
HETATM    4  N2  UNL     1      -2.360   1.426  -0.911  1.00  0.00    -0.349 N 
HETATM    5  C9  UNL     1      -3.598   0.818  -1.223  1.00  0.00     0.243 C 
HETATM    6  O2  UNL     1      -4.605   1.527  -1.582  1.00  0.00    -0.271 OA
HETATM    7  C19 UNL     1      -2.161   2.883  -1.059  1.00  0.00     0.132 C 
HETATM    8  C20 UNL     1      -0.665   2.922  -1.096  1.00  0.00     0.030 C 
HETATM    9  C21 UNL     1       0.026   4.099  -0.610  1.00  0.00     0.133 C 
HETATM   10  N4  UNL     1       1.219   3.525   0.065  1.00  0.00    -0.336 N 
HETATM   11  C22 UNL     1       2.322   4.362   0.392  1.00  0.00     0.251 C 
HETATM   12  O5  UNL     1       2.203   5.588   0.019  1.00  0.00    -0.271 OA
ENDROOT
BRANCH   1  13
HETATM   13  C5  UNL     1       1.763   1.275  -0.652  1.00  0.00     0.242 C 
HETATM   14  N1  UNL     1       1.860  -0.132  -0.506  1.00  0.00    -0.338 N 
ATOM     15  H1  UNL     1       1.371  -0.559   0.281  1.00  0.00     0.164 HD
HETATM   16  O1  UNL     1       2.357   1.816  -1.607  1.00  0.00    -0.271 OA
BRANCH  14  17
HETATM   17  C3  UNL     1       2.590  -0.996  -1.377  1.00  0.00     0.128 C 
HETATM   18  C4  UNL     1       2.015  -0.978  -2.768  1.00  0.00     0.054 C 
BRANCH  17  19
HETATM   19  C2  UNL     1       4.041  -0.621  -1.440  1.00  0.00     0.003 C 
HETATM   20  C1  UNL     1       4.568  -0.209  -2.565  1.00  0.00     0.010 C 
ENDBRANCH  17  19
BRANCH  17  21
HETATM   21  C28 UNL     1       2.541  -2.386  -0.841  1.00  0.00     0.249 C 
HETATM   22  O6  UNL     1       1.936  -2.642   0.223  1.00  0.00    -0.270 OA
HETATM   23  N6  UNL     1       3.185  -3.427  -1.540  1.00  0.00    -0.357 N 
ATOM     24  H6  UNL     1       3.675  -3.218  -2.410  1.00  0.00     0.162 HD
BRANCH  23  25
HETATM   25  C29 UNL     1       3.164  -4.763  -1.053  1.00  0.00     0.150 C 
BRANCH  25  26
HETATM   26  C30 UNL     1       3.793  -4.989   0.283  1.00  0.00     0.251 C 
BRANCH  26  27
HETATM   27  N7  UNL     1       3.670  -6.411   0.594  1.00  0.00    -0.077 N 
HETATM   28  C31 UNL     1       4.501  -7.188  -0.300  1.00  0.00     0.267 C 
ATOM     29  H72 UNL     1       3.876  -6.607   1.574  1.00  0.00     0.276 HD
ATOM     30  H71 UNL     1       2.699  -6.722   0.580  1.00  0.00     0.276 HD
ENDBRANCH  26  27
ENDBRANCH  25  26
ENDBRANCH  23  25
ENDBRANCH  17  21
ENDBRANCH  14  17
ENDBRANCH   1  13
BRANCH  11  31
HETATM   31  C23 UNL     1       3.548   3.987   1.089  1.00  0.00     0.278 C 
BRANCH  31  32
HETATM   32  N5  UNL     1       3.592   2.623   1.571  1.00  0.00    -0.066 N 
ATOM     33  H53 UNL     1       2.782   2.433   2.161  1.00  0.00     0.275 HD
ATOM     34  H52 UNL     1       3.412   1.974   0.805  1.00  0.00     0.275 HD
ATOM     35  H51 UNL     1       4.449   2.361   2.058  1.00  0.00     0.275 HD
ENDBRANCH  31  32
BRANCH  31  36
HETATM   36  C24 UNL     1       3.963   4.858   2.234  1.00  0.00     0.021 C 
HETATM   37  C25 UNL     1       5.258   4.243   2.784  1.00  0.00     0.012 C 
BRANCH  36  38
HETATM   38  C26 UNL     1       4.256   6.284   1.907  1.00  0.00     0.002 C 
HETATM   39  C27 UNL     1       4.672   6.950   3.238  1.00  0.00     0.005 C 
ENDBRANCH  36  38
ENDBRANCH  31  36
ENDBRANCH  11  31
BRANCH   5  40
HETATM   40  C10 UNL     1      -3.877  -0.634  -1.177  1.00  0.00     0.182 C 
BRANCH  40  41
HETATM   41  N3  UNL     1      -5.223  -0.815  -0.593  1.00  0.00    -0.323 N 
HETATM   42  C11 UNL     1      -5.384  -1.645   0.557  1.00  0.00     0.362 C 
HETATM   43  O3  UNL     1      -4.384  -2.210   1.047  1.00  0.00    -0.238 OA
ATOM     44  H3  UNL     1      -6.030  -0.350  -1.009  1.00  0.00     0.165 HD
BRANCH  42  45
HETATM   45  O4  UNL     1      -6.617  -1.828   1.127  1.00  0.00    -0.294 OA
BRANCH  45  46
HETATM   46  C12 UNL     1      -6.798  -2.649   2.256  1.00  0.00     0.061 C 
HETATM   47  C13 UNL     1      -8.271  -2.592   2.609  1.00  0.00     0.046 C 
HETATM   48  C14 UNL     1      -6.494  -4.104   1.938  1.00  0.00     0.046 C 
HETATM   49  C15 UNL     1      -5.998  -2.209   3.452  1.00  0.00     0.046 C 
ENDBRANCH  45  46
ENDBRANCH  42  45
ENDBRANCH  40  41
BRANCH  40  50
HETATM   50  C16 UNL     1      -3.881  -1.239  -2.577  1.00  0.00     0.009 C 
HETATM   51  C17 UNL     1      -2.528  -1.009  -3.191  1.00  0.00     0.012 C 
HETATM   52  C18 UNL     1      -4.892  -0.571  -3.476  1.00  0.00     0.012 C 
ENDBRANCH  40  50
ENDBRANCH   5  40
TORSDOF 16
