REMARK  2 active torsions:
REMARK  status: ('A' for Active; 'I' for Inactive)
REMARK    1  A    between atoms: C3_3  and  N1_4 
REMARK    2  A    between atoms: N1_4  and  C4_6 
ROOT
HETATM    1  N1  UNL     1       1.274  -0.165   0.993  1.00  0.00    -0.345 N 
ATOM      2  H1  UNL     1       1.262  -0.236   2.010  1.00  0.00     0.167 HD
ENDROOT
BRANCH   1   3
HETATM    3  C3  UNL     1       0.155  -0.354   0.168  1.00  0.00     0.086 C 
HETATM    4  C2  UNL     1      -0.945   0.374   0.239  1.00  0.00    -0.014 C 
HETATM    5  C1  UNL     1      -2.092   0.126  -0.658  1.00  0.00     0.037 C 
ENDBRANCH   1   3
BRANCH   1   6
HETATM    6  C4  UNL     1       2.422   0.138   0.221  1.00  0.00     0.352 C 
HETATM    7  O1  UNL     1       2.309   0.194  -0.986  1.00  0.00    -0.283 OA
ENDBRANCH   1   6
TORSDOF 2
