REMARK  2 active torsions:
REMARK  status: ('A' for Active; 'I' for Inactive)
REMARK    1  A    between atoms: C4_5  and  N2_6 
REMARK    2  A    between atoms: N2_6  and  C5_8 
ROOT
HETATM    1  N2  UNL     1       1.401  -0.007  -0.529  1.00  0.00    -0.357 N 
ATOM      2  H2  UNL     1       1.438  -0.637  -1.330  1.00  0.00     0.162 HD
ENDROOT
BRANCH   1   3
HETATM    3  C4  UNL     1       0.240   0.812  -0.314  1.00  0.00     0.315 A 
HETATM    4  N1  UNL     1      -0.926   0.074   0.138  1.00  0.00    -0.049 N 
HETATM    5  C1  UNL     1      -1.774   0.635   1.153  1.00  0.00     0.274 C 
HETATM    6  C2  UNL     1      -0.884  -1.380   0.021  1.00  0.00     0.274 C 
HETATM    7  C3  UNL     1      -0.914   0.801  -1.187  1.00  0.00     0.293 A 
ENDBRANCH   1   3
BRANCH   1   8
HETATM    8  C5  UNL     1       2.488   0.059   0.364  1.00  0.00     0.170 C 
HETATM    9  N3  UNL     1       3.617  -0.532   0.150  1.00  0.00    -0.395 N 
ATOM     10  H32 UNL     1       3.709  -1.068  -0.713  1.00  0.00     0.156 HD
ATOM     11  H31 UNL     1       4.404  -0.484   0.797  1.00  0.00     0.156 HD
ENDBRANCH   1   8
TORSDOF 2
