REMARK  5 active torsions:
REMARK  status: ('A' for Active; 'I' for Inactive)
REMARK    1  A    between atoms: C3_7  and  N3_8 
REMARK    2  A    between atoms: N4_11  and  C4_12 
REMARK    3  A    between atoms: C4_12  and  N5_13 
REMARK    4  A    between atoms: C4_12  and  C5_17 
REMARK    5  A    between atoms: C5_17  and  N6_18 
ROOT
HETATM    1  N6  UNL     1       2.898  -0.194   0.060  1.00  0.00    -0.325 N 
ATOM      2  H6  UNL     1       3.570   0.160  -0.621  1.00  0.00     0.171 HD
HETATM    3  C6  UNL     1       3.126  -1.423   0.727  1.00  0.00     0.177 C 
HETATM    4  N7  UNL     1       3.324  -2.425   1.269  1.00  0.00    -0.172 NA
ENDROOT
BRANCH   1   5
HETATM    5  C5  UNL     1       1.670   0.564   0.369  1.00  0.00     0.186 C 
BRANCH   5   6
HETATM    6  C4  UNL     1       0.550  -0.230  -0.169  1.00  0.00     0.324 C 
BRANCH   6   7
HETATM    7  N4  UNL     1      -0.744   0.328   0.040  1.00  0.00    -0.139 N 
HETATM    8  C2  UNL     1      -1.910  -0.392   0.145  1.00  0.00     0.113 A 
HETATM    9  C1  UNL     1      -1.956  -1.864   0.046  1.00  0.00     0.091 C 
HETATM   10  N1  UNL     1      -2.905   0.481   0.337  1.00  0.00    -0.274 N 
HETATM   11  N2  UNL     1      -2.435   1.700   0.358  1.00  0.00    -0.131 N 
ATOM     12  H1  UNL     1      -3.887   0.232   0.450  1.00  0.00     0.189 HD
HETATM   13  C3  UNL     1      -1.086   1.617   0.175  1.00  0.00     0.696 A 
ATOM     14  H2  UNL     1      -2.976   2.555   0.487  1.00  0.00     0.205 HD
BRANCH  13  15
HETATM   15  N3  UNL     1      -0.369   2.675   0.156  1.00  0.00    -0.233 N 
ATOM     16  H32 UNL     1      -0.629   3.656   0.259  1.00  0.00     0.174 HD
ATOM     17  H31 UNL     1       0.640   2.613   0.019  1.00  0.00     0.174 HD
ENDBRANCH  13  15
ENDBRANCH   6   7
BRANCH   6  18
HETATM   18  N5  UNL     1       0.794  -0.652  -1.528  1.00  0.00    -0.056 N 
ATOM     19  H53 UNL     1       0.070  -1.300  -1.837  1.00  0.00     0.276 HD
ATOM     20  H52 UNL     1       0.626   0.116  -2.177  1.00  0.00     0.276 HD
ATOM     21  H51 UNL     1       1.720  -1.052  -1.678  1.00  0.00     0.276 HD
ENDBRANCH   6  18
ENDBRANCH   5   6
ENDBRANCH   1   5
TORSDOF 5
