REMARK  11 active torsions:
REMARK  status: ('A' for Active; 'I' for Inactive)
REMARK    1  A    between atoms: C2_2  and  C3_3 
REMARK    2  A    between atoms: C3_3  and  N1_4 
REMARK       I    between atoms: N1_4  and  C4_6 
REMARK    3  A    between atoms: C4_6  and  C5_8 
REMARK    4  A    between atoms: C6_10  and  S1_11 
REMARK    5  A    between atoms: S1_11  and  C7_12 
REMARK    6  A    between atoms: C8_14  and  C9_15 
REMARK    7  A    between atoms: C9_15  and  N2_16 
REMARK    8  A    between atoms: C10_20  and  O4_21 
REMARK    9  A    between atoms: C11_23  and  O5_24 
REMARK   10  A    between atoms: C12_26  and  N3_27 
REMARK   11  A    between atoms: C17_35  and  N4_36 
REMARK       I    between atoms: N4_36  and  C18_38 
ROOT
HETATM    1  C5  UNL     1      -2.492   0.280   1.045  1.00  0.00     0.237 C 
HETATM    2  O2  UNL     1      -1.331  -0.461   1.248  1.00  0.00    -0.358 OA
HETATM    3  C6  UNL     1      -0.320  -0.057   0.353  1.00  0.00     0.194 C 
HETATM    4  C13 UNL     1       0.207   1.311   0.767  1.00  0.00    -0.010 C 
HETATM    5  C14 UNL     1       1.207   1.221   1.879  1.00  0.00     0.018 C 
HETATM    6  C15 UNL     1       0.739   2.100  -0.410  1.00  0.00     0.018 C 
HETATM    7  C16 UNL     1      -0.983   2.156   1.285  1.00  0.00     0.040 C 
HETATM    8  C17 UNL     1      -2.197   1.662   0.530  1.00  0.00     0.123 C 
ENDROOT
BRANCH   3   9
HETATM    9  S1  UNL     1       0.988  -1.277   0.503  1.00  0.00    -0.103 SA
BRANCH   9  10
HETATM   10  C7  UNL     1       2.352  -1.071  -0.655  1.00  0.00     0.218 C 
HETATM   11  O3  UNL     1       3.043   0.050  -0.367  1.00  0.00    -0.364 OA
HETATM   12  C8  UNL     1       4.406   0.017  -0.443  1.00  0.00     0.179 C 
HETATM   13  C10 UNL     1       4.890  -1.072   0.493  1.00  0.00     0.179 C 
HETATM   14  C11 UNL     1       4.441  -2.379  -0.097  1.00  0.00     0.183 C 
HETATM   15  C12 UNL     1       3.142  -2.330  -0.802  1.00  0.00     0.253 C 
BRANCH  12  16
HETATM   16  C9  UNL     1       4.909   1.358   0.108  1.00  0.00     0.264 C 
BRANCH  16  17
HETATM   17  N2  UNL     1       6.340   1.432   0.074  1.00  0.00    -0.077 N 
ATOM     18  H23 UNL     1       6.767   0.644   0.560  1.00  0.00     0.274 HD
ATOM     19  H22 UNL     1       6.702   1.253  -0.863  1.00  0.00     0.274 HD
ATOM     20  H21 UNL     1       6.674   2.323   0.440  1.00  0.00     0.274 HD
ENDBRANCH  16  17
ENDBRANCH  12  16
BRANCH  13  21
HETATM   21  O4  UNL     1       4.319  -0.913   1.732  1.00  0.00    -0.390 OA
ATOM     22  H4  UNL     1       4.622  -1.596   2.319  1.00  0.00     0.210 HD
ENDBRANCH  13  21
BRANCH  14  23
HETATM   23  O5  UNL     1       5.467  -2.781  -0.985  1.00  0.00    -0.391 OA
ATOM     24  H5  UNL     1       5.183  -3.607  -1.358  1.00  0.00     0.210 HD
ENDBRANCH  14  23
BRANCH  15  25
HETATM   25  N3  UNL     1       3.331  -2.696  -2.203  1.00  0.00    -0.069 N 
ATOM     26  H33 UNL     1       2.439  -2.760  -2.693  1.00  0.00     0.275 HD
ATOM     27  H32 UNL     1       3.751  -1.932  -2.732  1.00  0.00     0.275 HD
ATOM     28  H31 UNL     1       3.871  -3.556  -2.303  1.00  0.00     0.275 HD
ENDBRANCH  15  25
ENDBRANCH   9  10
ENDBRANCH   3   9
BRANCH   1  29
HETATM   29  C4  UNL     1      -3.455  -0.463   0.152  1.00  0.00     0.248 C 
HETATM   30  N1  UNL     1      -3.084  -1.722  -0.321  1.00  0.00    -0.359 N 
ATOM     31  H1  UNL     1      -2.159  -2.027  -0.017  1.00  0.00     0.162 HD
HETATM   32  O1  UNL     1      -4.520   0.116  -0.093  1.00  0.00    -0.271 OA
BRANCH  30  33
HETATM   33  C3  UNL     1      -3.759  -2.653  -1.147  1.00  0.00     0.122 C 
BRANCH  33  34
HETATM   34  C2  UNL     1      -5.011  -3.287  -0.683  1.00  0.00     0.015 C 
HETATM   35  C1  UNL     1      -6.192  -2.414  -0.407  1.00  0.00     0.006 C 
ENDBRANCH  33  34
ENDBRANCH  30  33
ENDBRANCH   1  29
BRANCH   8  36
HETATM   36  N4  UNL     1      -3.300   2.564   0.830  1.00  0.00    -0.354 N 
HETATM   37  C18 UNL     1      -3.890   3.317  -0.215  1.00  0.00     0.214 C 
HETATM   38  C19 UNL     1      -5.015   4.251   0.035  1.00  0.00     0.117 C 
HETATM   39  O6  UNL     1      -3.462   3.203  -1.388  1.00  0.00    -0.274 OA
ATOM     40  H4  UNL     1      -3.645   2.653   1.786  1.00  0.00     0.162 HD
ENDBRANCH   8  36
TORSDOF 11
