REMARK  7 active torsions:
REMARK  status: ('A' for Active; 'I' for Inactive)
REMARK    1  A    between atoms: C2_2  and  C4_4 
REMARK    2  A    between atoms: C4_4  and  C5_5 
REMARK    3  A    between atoms: C5_5  and  S1_6 
REMARK    4  A    between atoms: S1_6  and  N1_9 
REMARK    5  A    between atoms: N1_9  and  C6_11 
REMARK    6  A    between atoms: C7_12  and  O3_13 
REMARK    7  A    between atoms: C12_21  and  C13_22 
ROOT
HETATM    1  C6  UNL     1       0.059   2.328   0.047  1.00  0.00     0.088 A 
HETATM    2  C7  UNL     1       0.505   3.369   0.904  1.00  0.00     0.101 A 
HETATM    3  C8  UNL     1      -0.266   3.819   1.943  1.00  0.00    -0.003 A 
HETATM    4  C9  UNL     1       0.222   4.916   2.836  1.00  0.00     0.053 C 
HETATM    5  C10 UNL     1      -1.507   3.260   2.179  1.00  0.00     0.065 A 
HETATM    6 CL1  UNL     1      -2.483   3.843   3.511  1.00  0.00    -0.082 Cl
HETATM    7  C11 UNL     1      -1.940   2.252   1.348  1.00  0.00     0.070 A 
HETATM    8 CL2  UNL     1      -3.530   1.600   1.687  1.00  0.00    -0.082 Cl
HETATM    9  C12 UNL     1      -1.169   1.772   0.276  1.00  0.00     0.031 A 
ENDROOT
BRANCH   9  10
HETATM   10  C13 UNL     1      -1.795   0.739  -0.509  1.00  0.00     0.017 A 
HETATM   11  C14 UNL     1      -2.105  -0.518  -0.161  1.00  0.00     0.004 A 
HETATM   12  C15 UNL     1      -1.949  -1.237   0.992  1.00  0.00     0.015 A 
HETATM   13  C20 UNL     1      -2.712  -1.170  -1.221  1.00  0.00     0.044 A 
HETATM   14  C16 UNL     1      -2.382  -2.545   1.074  1.00  0.00     0.007 A 
HETATM   15  C17 UNL     1      -2.983  -3.198   0.028  1.00  0.00    -0.060 A 
HETATM   16  C18 UNL     1      -3.444  -4.609   0.133  1.00  0.00     0.048 C 
HETATM   17  C19 UNL     1      -3.145  -2.482  -1.138  1.00  0.00     0.037 A 
HETATM   18  N2  UNL     1      -2.808  -0.386  -2.239  1.00  0.00    -0.355 N 
HETATM   19  C21 UNL     1      -2.245   0.874  -1.884  1.00  0.00     0.035 A 
ATOM     20  H2  UNL     1      -3.216  -0.626  -3.142  1.00  0.00     0.166 HD
HETATM   21  C22 UNL     1      -2.176   1.947  -2.678  1.00  0.00     0.044 C 
ENDBRANCH   9  10
BRANCH   1  22
HETATM   22  N1  UNL     1       0.938   1.922  -0.981  1.00  0.00    -0.281 N 
ATOM     23  H1  UNL     1       0.810   2.349  -1.899  1.00  0.00     0.178 HD
BRANCH  22  24
HETATM   24  S1  UNL     1       2.217   0.760  -0.818  1.00  0.00     0.231 S 
HETATM   25  O1  UNL     1       3.263   1.239   0.141  1.00  0.00    -0.206 OA
HETATM   26  O2  UNL     1       2.869   0.693  -2.188  1.00  0.00    -0.206 OA
BRANCH  24  27
HETATM   27  C5  UNL     1       1.686  -0.829  -0.370  1.00  0.00     0.168 C 
BRANCH  27  28
HETATM   28  C4  UNL     1       2.680  -1.892  -0.146  1.00  0.00     0.049 C 
BRANCH  28  29
HETATM   29  C2  UNL     1       3.589  -2.315  -1.187  1.00  0.00    -0.092 C 
HETATM   30  C1  UNL     1       3.382  -3.519  -1.765  1.00  0.00     0.014 C 
HETATM   31  C3  UNL     1       4.794  -1.583  -1.643  1.00  0.00     0.042 C 
ENDBRANCH  28  29
ENDBRANCH  27  28
ENDBRANCH  24  27
ENDBRANCH  22  24
ENDBRANCH   1  22
BRANCH   2  32
HETATM   32  O3  UNL     1       1.747   3.930   0.671  1.00  0.00    -0.358 OA
ATOM     33  H3  UNL     1       2.045   4.626   1.244  1.00  0.00     0.217 HD
ENDBRANCH   2  32
TORSDOF 7
