REMARK  9 active torsions:
REMARK  status: ('A' for Active; 'I' for Inactive)
REMARK    1  A    between atoms: C3_3  and  C4_4 
REMARK    2  A    between atoms: C4_4  and  O1_5 
REMARK    3  A    between atoms: C4_4  and  N1_7 
REMARK    4  A    between atoms: N1_7  and  C5_9 
REMARK    5  A    between atoms: C5_9  and  C6_10 
REMARK       I    between atoms: N2_11  and  C7_13 
REMARK    6  A    between atoms: C7_13  and  C8_15 
REMARK    7  A    between atoms: C8_15  and  C9_16 
REMARK    8  A    between atoms: C9_16  and  C10_17 
REMARK    9  A    between atoms: C16_26  and  C17_27 
ROOT
HETATM    1  C1  UNL     1       1.578  -2.829  -0.927  1.00  0.00     0.055 C 
HETATM    2  C2  UNL     1       2.203  -1.572  -0.520  1.00  0.00     0.020 A 
HETATM    3  C3  UNL     1       1.495  -0.475  -0.169  1.00  0.00     0.093 A 
HETATM    4  N3  UNL     1       2.172   0.642   0.234  1.00  0.00    -0.351 N 
ATOM      5  H3  UNL     1       1.631   1.465   0.499  1.00  0.00     0.166 HD
HETATM    6  C13 UNL     1       3.501   0.714   0.299  1.00  0.00     0.048 A 
HETATM    7  C14 UNL     1       4.183   1.840   0.705  1.00  0.00     0.054 A 
HETATM    8  C15 UNL     1       5.557   1.913   0.772  1.00  0.00     0.044 A 
HETATM    9 CL1  UNL     1       6.310   3.403   1.304  1.00  0.00    -0.084 Cl
HETATM   10  C16 UNL     1       6.320   0.817   0.421  1.00  0.00    -0.013 A 
HETATM   11  C20 UNL     1       5.654  -0.326   0.011  1.00  0.00     0.028 A 
HETATM   12  C21 UNL     1       4.277  -0.376  -0.049  1.00  0.00     0.042 A 
HETATM   13  C22 UNL     1       3.607  -1.493  -0.450  1.00  0.00     0.192 A 
HETATM   14  O3  UNL     1       4.260  -2.516  -0.779  1.00  0.00    -0.287 OA
ENDROOT
BRANCH   3  15
HETATM   15  C4  UNL     1       0.060  -0.355  -0.228  1.00  0.00     0.164 C 
BRANCH  15  16
HETATM   16  O1  UNL     1      -0.474   0.613   0.475  1.00  0.00    -0.345 OA
ATOM     17  H1  UNL     1      -1.420   0.692   0.436  1.00  0.00     0.219 HD
ENDBRANCH  15  16
BRANCH  15  18
HETATM   18  N1  UNL     1      -0.885  -1.095  -0.916  1.00  0.00    -0.364 N 
ATOM     19  H1  UNL     1      -0.592  -1.873  -1.508  1.00  0.00     0.162 HD
BRANCH  18  20
HETATM   20  C5  UNL     1      -2.310  -0.760  -0.794  1.00  0.00     0.166 C 
BRANCH  20  21
HETATM   21  C6  UNL     1      -3.149  -1.667  -1.603  1.00  0.00     0.083 C 
HETATM   22  N2  UNL     1      -4.407  -1.540  -1.621  1.00  0.00    -0.339 N 
HETATM   23  C7  UNL     1      -5.142  -0.568  -0.908  1.00  0.00     0.221 C 
ATOM     24  H2  UNL     1      -4.935  -2.194  -2.199  1.00  0.00     0.167 HD
HETATM   25  O2  UNL     1      -5.342   0.539  -1.442  1.00  0.00    -0.273 OA
BRANCH  23  26
HETATM   26  C8  UNL     1      -5.649  -0.867   0.422  1.00  0.00     0.103 C 
BRANCH  26  27
HETATM   27  C9  UNL     1      -6.449   0.193   1.085  1.00  0.00     0.013 C 
BRANCH  27  28
HETATM   28  C10 UNL     1      -7.695   0.615   0.390  1.00  0.00    -0.022 C 
HETATM   29  C11 UNL     1      -8.334   1.705   1.264  1.00  0.00     0.009 C 
HETATM   30  C12 UNL     1      -8.732  -0.504   0.339  1.00  0.00     0.009 C 
ENDBRANCH  27  28
ENDBRANCH  26  27
ENDBRANCH  23  26
ENDBRANCH  20  21
ENDBRANCH  18  20
ENDBRANCH  15  18
ENDBRANCH   3  15
BRANCH  10  31
HETATM   31  C17 UNL     1       7.807   0.883   0.489  1.00  0.00     0.058 C 
HETATM   32  C18 UNL     1       8.329   1.968  -0.416  1.00  0.00     0.037 C 
HETATM   33  C19 UNL     1       8.284   1.021   1.911  1.00  0.00     0.037 C 
HETATM   34 CL2  UNL     1       8.460  -0.668  -0.132  1.00  0.00    -0.115 Cl
ENDBRANCH  10  31
TORSDOF 9
