REMARK  3 active torsions:
REMARK  status: ('A' for Active; 'I' for Inactive)
REMARK    1  A    between atoms: O1_2  and  C2_3 
REMARK    2  A    between atoms: C5_9  and  C6_10 
REMARK    3  A    between atoms: C7_11  and  C8_12 
ROOT
HETATM    1  C2  UNL     1       1.486  -0.599   0.615  1.00  0.00     0.194 C 
HETATM    2  C3  UNL     1       2.933  -0.169   0.560  1.00  0.00     0.118 C 
HETATM    3  N1  UNL     1       4.059  -1.038   0.537  1.00  0.00    -0.085 NA
HETATM    4  N2  UNL     1       3.021   1.108   0.534  1.00  0.00    -0.379 N 
ATOM      5  H2  UNL     1       3.904   1.617   0.495  1.00  0.00     0.160 HD
HETATM    6  C4  UNL     1       1.738   1.739   0.566  1.00  0.00     0.132 C 
HETATM    7  C5  UNL     1       0.790   0.638   1.024  1.00  0.00     0.061 C 
ENDROOT
BRANCH   7   8
HETATM    8  C6  UNL     1      -0.561   0.860   0.505  1.00  0.00    -0.021 C 
HETATM    9  C7  UNL     1      -1.229   0.060  -0.276  1.00  0.00    -0.026 C 
BRANCH   9  10
HETATM   10  C8  UNL     1      -2.604   0.326  -0.780  1.00  0.00    -0.001 C 
HETATM   11  C9  UNL     1      -3.157   1.631  -0.251  1.00  0.00     0.013 C 
HETATM   12  C10 UNL     1      -2.537   0.356  -2.293  1.00  0.00     0.013 C 
ENDBRANCH   9  10
ENDBRANCH   7   8
BRANCH   1  13
HETATM   13  O1  UNL     1       1.340  -1.580   1.602  1.00  0.00    -0.383 OA
HETATM   14  C1  UNL     1       0.911  -2.797   1.145  1.00  0.00     0.202 C 
ENDBRANCH   1  13
TORSDOF 3
