REMARK  10 active torsions:
REMARK  status: ('A' for Active; 'I' for Inactive)
REMARK    1  A    between atoms: O1_2  and  C2_3 
REMARK    2  A    between atoms: C2_3  and  C3_4 
REMARK    3  A    between atoms: C3_4  and  C5_6 
REMARK    4  A    between atoms: C5_6  and  O2_7 
REMARK    5  A    between atoms: O2_7  and  N1_8 
REMARK    6  A    between atoms: N1_8  and  C6_10 
REMARK    7  A    between atoms: C6_10  and  O3_11 
REMARK    8  A    between atoms: C6_10  and  C7_13 
REMARK    9  A    between atoms: C7_13  and  C8_14 
REMARK   10  A    between atoms: C8_14  and  C9_15 
ROOT
HETATM    1  C6  UNL     1       0.039   0.769   0.692  1.00  0.00     0.238 C 
ENDROOT
BRANCH   1   2
HETATM    2  N1  UNL     1       0.756  -0.421   0.966  1.00  0.00    -0.274 N 
ATOM      3  H1  UNL     1       0.266  -1.239   1.328  1.00  0.00     0.190 HD
BRANCH   2   4
HETATM    4  O2  UNL     1       2.050  -0.472   0.755  1.00  0.00    -0.282 OA
BRANCH   4   5
HETATM    5  C5  UNL     1       2.567  -0.121  -0.446  1.00  0.00     0.207 C 
BRANCH   5   6
HETATM    6  C3  UNL     1       4.091  -0.272  -0.490  1.00  0.00     0.032 C 
HETATM    7  C4  UNL     1       4.448  -1.722  -0.362  1.00  0.00     0.014 C 
BRANCH   6   8
HETATM    8  C2  UNL     1       4.761   0.579   0.529  1.00  0.00     0.173 C 
BRANCH   8   9
HETATM    9  O1  UNL     1       6.131   0.502   0.444  1.00  0.00    -0.396 OA
HETATM   10  C1  UNL     1       6.693   0.897  -0.736  1.00  0.00     0.201 C 
ENDBRANCH   8   9
ENDBRANCH   6   8
ENDBRANCH   5   6
ENDBRANCH   4   5
ENDBRANCH   2   4
ENDBRANCH   1   2
BRANCH   1  11
HETATM   11  O3  UNL     1      -0.046   1.081  -0.637  1.00  0.00    -0.375 OA
ATOM     12  H3  UNL     1      -0.527   1.879  -0.821  1.00  0.00     0.212 HD
ENDBRANCH   1  11
BRANCH   1  13
HETATM   13  C7  UNL     1      -1.255   0.885   1.462  1.00  0.00     0.056 C 
BRANCH  13  14
HETATM   14  C8  UNL     1      -2.245  -0.191   1.227  1.00  0.00     0.009 C 
BRANCH  14  15
HETATM   15  C9  UNL     1      -2.762  -0.353  -0.159  1.00  0.00    -0.014 C 
HETATM   16  C10 UNL     1      -3.744  -1.532  -0.118  1.00  0.00     0.004 C 
HETATM   17  C11 UNL     1      -5.066  -1.080   0.422  1.00  0.00     0.000 C 
HETATM   18  C12 UNL     1      -5.647  -0.126  -0.611  1.00  0.00     0.000 C 
HETATM   19  C13 UNL     1      -4.794   1.096  -0.591  1.00  0.00     0.000 C 
HETATM   20  C14 UNL     1      -3.334   0.870  -0.781  1.00  0.00     0.004 C 
ENDBRANCH  14  15
ENDBRANCH  13  14
ENDBRANCH   1  13
TORSDOF 10
