REMARK  3 active torsions:
REMARK  status: ('A' for Active; 'I' for Inactive)
REMARK    1  A    between atoms: C2_2  and  C3_3 
REMARK    2  A    between atoms: C3_3  and  C4_4 
REMARK    3  A    between atoms: C11_14  and  N2_15 
ROOT
HETATM    1  C4  UNL     1       0.909   0.198  -0.383  1.00  0.00     0.222 C 
HETATM    2  N1  UNL     1       0.772  -1.005  -1.188  1.00  0.00    -0.068 N 
ATOM      3  H11 UNL     1       1.652  -1.427  -1.484  1.00  0.00     0.277 HD
ATOM      4  H12 UNL     1       0.414  -0.853  -2.131  1.00  0.00     0.277 HD
HETATM    5  C5  UNL     1      -0.050  -1.840  -0.355  1.00  0.00     0.240 C 
HETATM    6  C6  UNL     1      -1.033  -0.924   0.356  1.00  0.00     0.049 C 
HETATM    7  C7  UNL     1      -2.347  -1.035  -0.393  1.00  0.00     0.009 C 
HETATM    8  C8  UNL     1      -3.301  -0.008   0.165  1.00  0.00     0.001 C 
HETATM    9  C9  UNL     1      -2.689   1.360   0.044  1.00  0.00     0.002 C 
HETATM   10  C10 UNL     1      -1.332   1.307  -0.630  1.00  0.00     0.041 C 
HETATM   11  C11 UNL     1      -0.457   0.440   0.219  1.00  0.00     0.157 C 
ENDROOT
BRANCH  11  12
HETATM   12  N2  UNL     1      -0.252   1.119   1.485  1.00  0.00    -0.068 N 
ATOM     13  H23 UNL     1       0.378   0.617   2.111  1.00  0.00     0.275 HD
ATOM     14  H22 UNL     1       0.303   1.970   1.397  1.00  0.00     0.275 HD
ATOM     15  H21 UNL     1      -1.173   1.282   1.891  1.00  0.00     0.275 HD
ENDBRANCH  11  12
BRANCH   1  16
HETATM   16  C3  UNL     1       1.837  -0.144   0.764  1.00  0.00     0.035 C 
BRANCH  16  17
HETATM   17  C2  UNL     1       3.198  -0.587   0.296  1.00  0.00    -0.002 C 
HETATM   18  C1  UNL     1       3.844   0.514  -0.504  1.00  0.00     0.005 C 
ENDBRANCH  16  17
ENDBRANCH   1  16
TORSDOF 3
