REMARK  5 active torsions:
REMARK  status: ('A' for Active; 'I' for Inactive)
REMARK    1  A    between atoms: N1_1  and  C1_5 
REMARK    2  A    between atoms: C1_5  and  N2_6 
REMARK    3  A    between atoms: C1_5  and  C2_10 
REMARK    4  A    between atoms: C2_10  and  N3_11 
REMARK    5  A    between atoms: C2_10  and  C3_15 
ROOT
HETATM    1  C2  UNL     1      -0.946  -0.136  -1.060  1.00  0.00     0.245 C 
ENDROOT
BRANCH   1   2
HETATM    2  C1  UNL     1      -2.000   0.415  -0.171  1.00  0.00     0.408 C 
BRANCH   2   3
HETATM    3  N1  UNL     1      -2.126  -0.280   1.084  1.00  0.00    -0.048 N 
ATOM      4  H13 UNL     1      -2.927   0.025   1.637  1.00  0.00     0.276 HD
ATOM      5  H12 UNL     1      -2.408  -1.255   0.981  1.00  0.00     0.276 HD
ATOM      6  H11 UNL     1      -1.234  -0.166   1.565  1.00  0.00     0.276 HD
ENDBRANCH   2   3
BRANCH   2   7
HETATM    7  N2  UNL     1      -3.286   0.250  -0.865  1.00  0.00    -0.048 N 
ATOM      8  H23 UNL     1      -3.568  -0.725  -0.968  1.00  0.00     0.276 HD
ATOM      9  H22 UNL     1      -4.087   0.555  -0.312  1.00  0.00     0.276 HD
ATOM     10  H21 UNL     1      -3.197   0.742  -1.754  1.00  0.00     0.276 HD
ENDBRANCH   2   7
ENDBRANCH   1   2
BRANCH   1  11
HETATM   11  N3  UNL     1      -1.248  -1.521  -1.356  1.00  0.00    -0.071 N 
ATOM     12  H33 UNL     1      -1.373  -2.079  -0.511  1.00  0.00     0.274 HD
ATOM     13  H32 UNL     1      -2.183  -1.638  -1.746  1.00  0.00     0.274 HD
ATOM     14  H31 UNL     1      -0.524  -1.899  -1.967  1.00  0.00     0.274 HD
ENDBRANCH   1  11
BRANCH   1  15
HETATM   15  C3  UNL     1       0.450  -0.008  -0.571  1.00  0.00     0.023 C 
HETATM   16  C4  UNL     1       0.684  -0.706   0.749  1.00  0.00     0.034 C 
HETATM   17  C5  UNL     1       2.200  -0.856   0.880  1.00  0.00     0.232 C 
HETATM   18  N4  UNL     1       2.713   0.491   1.036  1.00  0.00    -0.075 N 
HETATM   19  C6  UNL     1       2.443   1.295  -0.126  1.00  0.00     0.232 C 
ATOM     20  H42 UNL     1       2.357   0.930   1.885  1.00  0.00     0.277 HD
ATOM     21  H41 UNL     1       3.707   0.488   1.265  1.00  0.00     0.277 HD
HETATM   22  C7  UNL     1       0.942   1.402  -0.419  1.00  0.00     0.034 C 
ENDBRANCH   1  15
TORSDOF 5
