REMARK  2 active torsions:
REMARK  status: ('A' for Active; 'I' for Inactive)
REMARK    1  A    between atoms: C1_2  and  N1_3 
REMARK       I    between atoms: N1_3  and  C2_5 
REMARK    2  A    between atoms: C2_5  and  C3_7 
ROOT
HETATM    1  N1  UNL     1       1.283   0.284   0.174  1.00  0.00    -0.305 N 
ATOM      2  H1  UNL     1       0.851   1.123   0.561  1.00  0.00     0.171 HD
HETATM    3  C2  UNL     1       0.489  -0.706  -0.481  1.00  0.00     0.227 C 
HETATM    4  O2  UNL     1       1.050  -1.733  -0.950  1.00  0.00    -0.273 OA
ENDROOT
BRANCH   3   5
HETATM    5  C3  UNL     1      -0.975  -0.570  -0.632  1.00  0.00     0.078 A 
HETATM    6  C4  UNL     1      -1.692  -0.051   0.636  1.00  0.00     0.015 A 
HETATM    7  C5  UNL     1      -1.617   0.769  -0.582  1.00  0.00     0.015 A 
ENDBRANCH   3   5
BRANCH   1   8
HETATM    8  C1  UNL     1       2.677   0.081   0.277  1.00  0.00     0.355 C 
HETATM    9  O1  UNL     1       3.432   0.917   0.844  1.00  0.00    -0.283 OA
ENDBRANCH   1   8
TORSDOF 2
