REMARK  5 active torsions:
REMARK  status: ('A' for Active; 'I' for Inactive)
REMARK    1  A    between atoms: N1_2  and  C3_4 
REMARK    2  A    between atoms: C3_4  and  C4_5 
REMARK    3  A    between atoms: C5_8  and  N3_9 
REMARK    4  A    between atoms: C6_15  and  N6_16 
REMARK    5  A    between atoms: N8_22  and  O1_23 
ROOT
HETATM    1  C4  UNL     1      -0.460   0.420  -0.147  1.00  0.00     0.172 A 
HETATM    2  N2  UNL     1      -0.252  -0.900  -0.247  1.00  0.00    -0.174 N 
ATOM      3  H2  UNL     1      -1.059  -1.524  -0.253  1.00  0.00     0.185 HD
HETATM    4  C5  UNL     1       0.979  -1.436  -0.340  1.00  0.00     0.714 A 
HETATM    5  N4  UNL     1       2.045  -0.629  -0.333  1.00  0.00     0.107 N 
HETATM    6  N5  UNL     1       3.346  -0.897  -0.411  1.00  0.00    -0.096 N 
ATOM      7  H5  UNL     1       3.760  -1.825  -0.493  1.00  0.00     0.207 HD
HETATM    8  C6  UNL     1       4.020   0.263  -0.363  1.00  0.00     0.706 A 
HETATM    9  N7  UNL     1       3.095   1.230  -0.254  1.00  0.00    -0.017 N 
ATOM     10  H7  UNL     1       3.294   2.229  -0.194  1.00  0.00     0.203 HD
HETATM   11  C7  UNL     1       1.872   0.685  -0.236  1.00  0.00     0.761 A 
HETATM   12  N8  UNL     1       0.619   1.217  -0.142  1.00  0.00    -0.034 N 
ENDROOT
BRANCH   1  13
HETATM   13  C3  UNL     1      -1.848   0.932  -0.049  1.00  0.00     0.351 C 
BRANCH  13  14
HETATM   14  N1  UNL     1      -2.825  -0.117  -0.070  1.00  0.00     0.087 N 
HETATM   15  C1  UNL     1      -2.699  -1.062   0.997  1.00  0.00     0.309 C 
HETATM   16  C2  UNL     1      -4.140   0.494   0.003  1.00  0.00     0.309 C 
ENDBRANCH  13  14
ENDBRANCH   1  13
BRANCH  12  17
HETATM   17  O1  UNL     1       0.452   2.573  -0.042  1.00  0.00    -0.268 OA
ATOM     18  H1  UNL     1       1.216   3.137  -0.038  1.00  0.00     0.246 HD
ENDBRANCH  12  17
BRANCH   4  19
HETATM   19  N3  UNL     1       1.084  -2.726  -0.433  1.00  0.00    -0.232 N 
ATOM     20  H32 UNL     1       0.271  -3.342  -0.438  1.00  0.00     0.174 HD
ATOM     21  H31 UNL     1       2.017  -3.132  -0.503  1.00  0.00     0.174 HD
ENDBRANCH   4  19
BRANCH   8  22
HETATM   22  N6  UNL     1       5.319   0.409  -0.412  1.00  0.00    -0.233 N 
ATOM     23  H62 UNL     1       6.022  -0.326  -0.495  1.00  0.00     0.174 HD
ATOM     24  H61 UNL     1       5.831   1.290  -0.376  1.00  0.00     0.174 HD
ENDBRANCH   8  22
TORSDOF 5
