REMARK  13 active torsions:
REMARK  status: ('A' for Active; 'I' for Inactive)
REMARK    1  A    between atoms: C2_2  and  C4_4 
REMARK    2  A    between atoms: C4_4  and  C5_5 
REMARK    3  A    between atoms: C5_5  and  C35_53 
REMARK       I    between atoms: N1_6  and  C6_8 
REMARK    4  A    between atoms: C6_8  and  C7_10 
REMARK    5  A    between atoms: C7_10  and  C8_11 
REMARK    6  A    between atoms: C7_10  and  N3_24 
REMARK    7  A    between atoms: C8_11  and  C9_12 
REMARK    8  A    between atoms: C9_12  and  C10_13 
REMARK       I    between atoms: C10_13  and  N2_15 
REMARK    9  A    between atoms: C11_16  and  O3_17 
REMARK       I    between atoms: N3_24  and  C17_26 
REMARK   10  A    between atoms: C17_26  and  C18_28 
REMARK   11  A    between atoms: C27_40  and  C28_41 
REMARK       I    between atoms: C28_41  and  N5_43 
REMARK   12  A    between atoms: N5_43  and  C29_45 
REMARK   13  A    between atoms: C29_45  and  C30_46 
ROOT
HETATM    1  N3  UNL     1      -0.351  -0.584   0.604  1.00  0.00    -0.346 N 
ATOM      2  H3  UNL     1       0.345  -0.223   1.256  1.00  0.00     0.163 HD
HETATM    3  C17 UNL     1      -0.021  -0.702  -0.777  1.00  0.00     0.250 C 
HETATM    4  O4  UNL     1      -0.910  -1.155  -1.544  1.00  0.00    -0.271 OA
ENDROOT
BRANCH   1   5
HETATM    5  C7  UNL     1      -1.667  -0.970   1.103  1.00  0.00     0.177 C 
BRANCH   5   6
HETATM    6  C6  UNL     1      -1.530  -2.289   1.856  1.00  0.00     0.244 C 
HETATM    7  N1  UNL     1      -2.614  -2.890   2.437  1.00  0.00    -0.324 N 
HETATM    8  C5  UNL     1      -3.348  -3.883   2.135  1.00  0.00     0.077 C 
ATOM      9  H1  UNL     1      -2.896  -2.440   3.308  1.00  0.00     0.169 HD
HETATM   10  O1  UNL     1      -0.384  -2.778   1.909  1.00  0.00    -0.271 OA
BRANCH   8  11
HETATM   11  C4  UNL     1      -4.441  -4.196   3.068  1.00  0.00     0.066 C 
BRANCH  11  12
HETATM   12  C2  UNL     1      -4.294  -5.358   3.961  1.00  0.00    -0.017 C 
HETATM   13  C1  UNL     1      -3.084  -5.265   4.877  1.00  0.00     0.010 C 
HETATM   14  C3  UNL     1      -4.426  -6.728   3.413  1.00  0.00     0.010 C 
ENDBRANCH  11  12
ENDBRANCH   8  11
BRANCH   8  15
HETATM   15  C35 UNL     1      -3.094  -4.661   0.961  1.00  0.00     0.277 C 
HETATM   16  N7  UNL     1      -2.012  -4.403   0.059  1.00  0.00    -0.056 NA
HETATM   17  O7  UNL     1      -3.833  -5.640   0.650  1.00  0.00    -0.270 OA
ENDBRANCH   8  15
ENDBRANCH   5   6
BRANCH   5  18
HETATM   18  C8  UNL     1      -2.279   0.034   2.009  1.00  0.00     0.044 C 
BRANCH  18  19
HETATM   19  C9  UNL     1      -2.465   1.392   1.439  1.00  0.00     0.105 C 
BRANCH  19  20
HETATM   20  C10 UNL     1      -3.348   1.509   0.281  1.00  0.00     0.222 C 
HETATM   21  O2  UNL     1      -3.765   0.495  -0.335  1.00  0.00    -0.273 OA
HETATM   22  N2  UNL     1      -3.791   2.759  -0.224  1.00  0.00    -0.320 N 
HETATM   23  C11 UNL     1      -3.581   4.135   0.161  1.00  0.00     0.229 C 
HETATM   24  C16 UNL     1      -4.616   3.235  -1.286  1.00  0.00     0.098 C 
HETATM   25  C12 UNL     1      -4.874   4.548  -0.565  1.00  0.00     0.057 C 
HETATM   26  C13 UNL     1      -4.708   5.659  -1.544  1.00  0.00     0.011 C 
HETATM   27  C14 UNL     1      -4.688   4.963  -2.884  1.00  0.00     0.003 C 
HETATM   28  C15 UNL     1      -3.967   3.677  -2.554  1.00  0.00     0.026 C 
BRANCH  23  29
HETATM   29  O3  UNL     1      -2.452   4.764  -0.294  1.00  0.00    -0.376 OA
ATOM     30  H3  UNL     1      -2.314   5.669  -0.041  1.00  0.00     0.212 HD
ENDBRANCH  23  29
ENDBRANCH  19  20
ENDBRANCH  18  19
ENDBRANCH   5  18
ENDBRANCH   1   5
BRANCH   3  31
HETATM   31  C18 UNL     1       1.323  -0.298  -1.241  1.00  0.00     0.290 C 
HETATM   32  N4  UNL     1       1.329  -0.568  -2.691  1.00  0.00    -0.057 N 
HETATM   33  C19 UNL     1       2.414   0.131  -3.297  1.00  0.00     0.195 C 
ATOM     34  H42 UNL     1       1.349  -1.567  -2.898  1.00  0.00     0.278 HD
ATOM     35  H41 UNL     1       0.435  -0.347  -3.129  1.00  0.00     0.278 HD
HETATM   36  C20 UNL     1       3.736  -0.289  -2.696  1.00  0.00     0.018 C 
HETATM   37  C24 UNL     1       2.467  -0.100  -4.769  1.00  0.00     0.016 C 
HETATM   38  C21 UNL     1       4.518  -0.956  -3.823  1.00  0.00     0.011 C 
HETATM   39  C26 UNL     1       3.578  -1.293  -1.602  1.00  0.00     0.023 C 
HETATM   40  C22 UNL     1       3.882  -0.454  -5.103  1.00  0.00    -0.013 C 
HETATM   41  C23 UNL     1       4.583   0.768  -5.634  1.00  0.00     0.010 C 
HETATM   42  C27 UNL     1       2.464  -1.029  -0.640  1.00  0.00     0.118 C 
HETATM   43  C25 UNL     1       1.558  -1.211  -5.240  1.00  0.00     0.012 C 
BRANCH  42  44
HETATM   44  C28 UNL     1       2.978  -0.372   0.606  1.00  0.00     0.225 C 
HETATM   45  O5  UNL     1       3.082  -0.959   1.709  1.00  0.00    -0.273 OA
HETATM   46  N5  UNL     1       3.373   0.992   0.544  1.00  0.00    -0.343 N 
ATOM     47  H5  UNL     1       3.291   1.473  -0.351  1.00  0.00     0.163 HD
BRANCH  46  48
HETATM   48  C29 UNL     1       3.882   1.737   1.668  1.00  0.00     0.111 C 
HETATM   49  C31 UNL     1       2.914   1.831   2.816  1.00  0.00     0.040 C 
HETATM   50  C32 UNL     1       3.735   1.731   4.082  1.00  0.00     0.003 C 
HETATM   51  C33 UNL     1       4.919   0.909   3.689  1.00  0.00     0.003 C 
HETATM   52  C34 UNL     1       5.155   1.136   2.218  1.00  0.00     0.040 C 
BRANCH  48  53
HETATM   53  C30 UNL     1       4.192   3.117   1.237  1.00  0.00     0.259 C 
HETATM   54  N6  UNL     1       4.684   4.023   2.208  1.00  0.00    -0.060 NA
HETATM   55  O6  UNL     1       4.010   3.436   0.037  1.00  0.00    -0.274 OA
ENDBRANCH  48  53
ENDBRANCH  46  48
ENDBRANCH  42  44
ENDBRANCH   3  31
TORSDOF 13
