REMARK  5 active torsions:
REMARK  status: ('A' for Active; 'I' for Inactive)
REMARK    1  A    between atoms: N1_1  and  N2_4 
REMARK       I    between atoms: N2_4  and  C1_6 
REMARK       I    between atoms: C1_6  and  N3_8 
REMARK    2  A    between atoms: N3_8  and  N4_9 
REMARK       I    between atoms: N4_9  and  C2_11 
REMARK    3  A    between atoms: C2_11  and  C3_13 
REMARK       I    between atoms: N5_18  and  C8_19 
REMARK       I    between atoms: C8_19  and  N7_24 
REMARK    4  A    between atoms: N6_20  and  O3_22 
REMARK    5  A    between atoms: N7_24  and  N8_26 
ROOT
HETATM    1  C3  UNL     1      -0.545  -0.646  -0.484  1.00  0.00     0.197 C 
HETATM    2  C4  UNL     1      -0.308  -1.948   0.276  1.00  0.00     0.036 C 
HETATM    3  C5  UNL     1      -1.493  -2.846   0.113  1.00  0.00     0.004 C 
HETATM    4  C6  UNL     1      -2.765  -2.166   0.547  1.00  0.00     0.020 C 
HETATM    5  C7  UNL     1      -2.971  -1.007  -0.408  1.00  0.00     0.142 C 
HETATM    6  N5  UNL     1      -1.810  -0.126  -0.152  1.00  0.00    -0.201 N 
HETATM    7  C8  UNL     1      -2.144   1.146   0.372  1.00  0.00     0.714 C 
HETATM    8  N6  UNL     1      -2.462   1.237   1.603  1.00  0.00    -0.097 N 
ATOM      9  H6  UNL     1      -2.463   0.392   2.174  1.00  0.00     0.213 HD
HETATM   10  N7  UNL     1      -2.151   2.298  -0.442  1.00  0.00    -0.137 N 
ATOM     11  H7  UNL     1      -1.596   3.110  -0.171  1.00  0.00     0.205 HD
ENDROOT
BRANCH   1  12
HETATM   12  C2  UNL     1       0.616   0.266  -0.216  1.00  0.00     0.270 C 
HETATM   13  N4  UNL     1       1.840  -0.066  -0.841  1.00  0.00    -0.196 N 
ATOM     14  H4  UNL     1       1.807  -0.896  -1.433  1.00  0.00     0.205 HD
HETATM   15  O2  UNL     1       0.495   1.242   0.508  1.00  0.00    -0.269 OA
BRANCH  13  16
HETATM   16  N3  UNL     1       3.037   0.535  -0.781  1.00  0.00    -0.261 NA
HETATM   17  C1  UNL     1       4.232   1.137  -0.722  1.00  0.00     0.430 C 
HETATM   18  N2  UNL     1       5.307   0.383  -0.077  1.00  0.00    -0.245 N 
HETATM   19  O1  UNL     1       4.533   2.303  -1.180  1.00  0.00    -0.227 OA
ATOM     20  H2  UNL     1       5.128  -0.547   0.302  1.00  0.00     0.192 HD
BRANCH  18  21
HETATM   21  N1  UNL     1       6.569   0.942   0.015  1.00  0.00    -0.340 N 
ATOM     22  H12 UNL     1       6.732   1.873  -0.369  1.00  0.00     0.177 HD
ATOM     23  H11 UNL     1       7.319   0.416   0.465  1.00  0.00     0.177 HD
ENDBRANCH  18  21
ENDBRANCH  13  16
ENDBRANCH   1  12
BRANCH   8  24
HETATM   24  O3  UNL     1      -2.802   2.427   2.186  1.00  0.00    -0.276 OA
ATOM     25  H3  UNL     1      -3.039   2.495   3.103  1.00  0.00     0.245 HD
ENDBRANCH   8  24
BRANCH  10  26
HETATM   26  N8  UNL     1      -2.914   2.342  -1.624  1.00  0.00    -0.331 N 
ATOM     27  H82 UNL     1      -3.463   1.522  -1.881  1.00  0.00     0.177 HD
ATOM     28  H81 UNL     1      -2.919   3.175  -2.213  1.00  0.00     0.177 HD
ENDBRANCH  10  26
TORSDOF 5
