REMARK  6 active torsions:
REMARK  status: ('A' for Active; 'I' for Inactive)
REMARK    1  A    between atoms: C2_2  and  C4_4 
REMARK    2  A    between atoms: C4_4  and  N1_5 
REMARK    3  A    between atoms: C4_4  and  C12_18 
REMARK       I    between atoms: N1_5  and  C5_7 
REMARK    4  A    between atoms: C5_7  and  C6_9 
REMARK    5  A    between atoms: C7_10  and  C8_11 
REMARK       I    between atoms: C12_18  and  N4_20 
REMARK    6  A    between atoms: N4_20  and  C13_22 
ROOT
HETATM    1  C4  UNL     1       0.456   0.475  -0.677  1.00  0.00     0.180 C 
ENDROOT
BRANCH   1   2
HETATM    2  C2  UNL     1       0.096   1.357  -1.860  1.00  0.00     0.009 C 
HETATM    3  C1  UNL     1      -0.164   0.524  -3.084  1.00  0.00     0.012 C 
HETATM    4  C3  UNL     1       1.208   2.338  -2.167  1.00  0.00     0.012 C 
ENDBRANCH   1   2
BRANCH   1   5
HETATM    5  N1  UNL     1       1.620  -0.307  -0.904  1.00  0.00    -0.344 N 
HETATM    6  C5  UNL     1       2.764  -0.159  -0.027  1.00  0.00     0.241 C 
HETATM    7  O1  UNL     1       2.616   0.667   0.874  1.00  0.00    -0.269 OA
ATOM      8  H1  UNL     1       1.650  -0.969  -1.680  1.00  0.00     0.163 HD
BRANCH   6   9
HETATM    9  C6  UNL     1       3.926  -0.946  -0.264  1.00  0.00     0.075 C 
HETATM   10  C7  UNL     1       5.080  -1.111   0.244  1.00  0.00     0.020 C 
BRANCH  10  11
HETATM   11  C8  UNL     1       5.818  -0.568   1.348  1.00  0.00    -0.002 A 
HETATM   12  C9  UNL     1       5.489   0.378   2.279  1.00  0.00     0.120 A 
HETATM   13  N2  UNL     1       6.540   0.549   3.132  1.00  0.00    -0.310 N 
HETATM   14  N3  UNL     1       7.502  -0.237   2.781  1.00  0.00    -0.307 N 
ATOM     15  H2  UNL     1       6.562   1.195   3.921  1.00  0.00     0.186 HD
HETATM   16  C10 UNL     1       8.776  -0.305   3.485  1.00  0.00     0.177 C 
HETATM   17  C11 UNL     1       7.132  -0.936   1.715  1.00  0.00     0.122 A 
ENDBRANCH  10  11
ENDBRANCH   6   9
ENDBRANCH   1   5
BRANCH   1  18
HETATM   18  C12 UNL     1      -0.698  -0.417  -0.415  1.00  0.00     0.241 C 
HETATM   19  O2  UNL     1      -0.513  -1.660  -0.428  1.00  0.00    -0.271 OA
HETATM   20  N4  UNL     1      -1.980   0.139  -0.158  1.00  0.00    -0.354 N 
ATOM     21  H4  UNL     1      -2.114   1.150  -0.152  1.00  0.00     0.162 HD
BRANCH  20  22
HETATM   22  C13 UNL     1      -3.083  -0.742   0.093  1.00  0.00     0.089 C 
HETATM   23  C14 UNL     1      -3.600  -0.452   1.481  1.00  0.00     0.030 C 
HETATM   24  C15 UNL     1      -5.059  -0.126   1.401  1.00  0.00    -0.012 C 
HETATM   25  C16 UNL     1      -5.770  -1.259   0.717  1.00  0.00     0.010 C 
HETATM   26  C20 UNL     1      -5.189   1.132   0.553  1.00  0.00     0.010 C 
HETATM   27  C17 UNL     1      -5.404  -1.271  -0.739  1.00  0.00    -0.007 C 
HETATM   28  C18 UNL     1      -6.095  -0.050  -1.367  1.00  0.00     0.010 C 
HETATM   29  C21 UNL     1      -4.105  -0.542  -0.979  1.00  0.00     0.017 C 
HETATM   30  C19 UNL     1      -4.881   0.747  -0.861  1.00  0.00    -0.007 C 
ENDBRANCH  20  22
ENDBRANCH   1  18
TORSDOF 6
