REMARK  1 active torsions:
REMARK  status: ('A' for Active; 'I' for Inactive)
REMARK    1  A    between atoms: O1_1  and  N1_3 
ROOT
HETATM    1  N1  UNL     1       0.961  -1.127  -0.126  1.00  0.00    -0.149 N 
HETATM    2  N2  UNL     1      -0.295  -1.530  -0.202  1.00  0.00    -0.246 N 
ATOM      3  H2  UNL     1      -0.485  -2.524  -0.333  1.00  0.00     0.192 HD
HETATM    4  C1  UNL     1      -1.329  -0.682  -0.113  1.00  0.00     0.243 A 
HETATM    5  F1  UNL     1      -2.608  -1.151  -0.198  1.00  0.00    -0.181 F 
HETATM    6  C2  UNL     1      -1.119   0.666   0.064  1.00  0.00     0.176 A 
HETATM    7  F2  UNL     1      -2.180   1.537   0.155  1.00  0.00    -0.201 F 
HETATM    8  C3  UNL     1       0.175   1.114   0.146  1.00  0.00     0.093 A 
HETATM    9  C4  UNL     1       1.191   0.194   0.048  1.00  0.00     0.153 A 
HETATM   10 CL1  UNL     1       2.836   0.800   0.157  1.00  0.00    -0.060 Cl
ENDROOT
BRANCH   1  11
HETATM   11  O1  UNL     1       2.025  -2.003  -0.218  1.00  0.00    -0.267 OA
ATOM     12  H1  UNL     1       2.928  -1.713  -0.163  1.00  0.00     0.247 HD
ENDBRANCH   1  11
TORSDOF 1
