REMARK  5 active torsions:
REMARK  status: ('A' for Active; 'I' for Inactive)
REMARK    1  A    between atoms: C2_3  and  N2_4 
REMARK    2  A    between atoms: C4_6  and  S1_7 
REMARK    3  A    between atoms: S1_7  and  N3_8 
REMARK    4  A    between atoms: C5_13  and  N4_14 
REMARK    5  A    between atoms: C6_19  and  N6_20 
ROOT
HETATM    1  N1  UNL     1      -2.622  -0.234   3.457  1.00  0.00    -0.196 NA
HETATM    2  C1  UNL     1      -2.449   0.324   2.457  1.00  0.00     0.079 C 
HETATM    3  C2  UNL     1      -2.228   1.007   1.180  1.00  0.00     0.270 C 
ENDROOT
BRANCH   3   4
HETATM    4  N2  UNL     1      -1.263   0.304   0.370  1.00  0.00    -0.179 N 
HETATM    5  C3  UNL     1       0.061   0.567   0.440  1.00  0.00     0.139 A 
HETATM    6  C4  UNL     1       0.992  -0.091  -0.322  1.00  0.00     0.139 A 
HETATM    7  C5  UNL     1       0.582  -1.066  -1.204  1.00  0.00     0.139 A 
HETATM    8  N5  UNL     1      -0.741  -1.316  -1.262  1.00  0.00    -0.176 N 
HETATM    9  C6  UNL     1      -1.635  -0.655  -0.502  1.00  0.00     0.680 A 
ATOM     10  H5  UNL     1      -1.078  -2.032  -1.905  1.00  0.00     0.186 HD
BRANCH   6  11
HETATM   11  S1  UNL     1       2.700   0.250  -0.230  1.00  0.00     0.261 S 
HETATM   12  O1  UNL     1       3.139   0.679  -1.618  1.00  0.00    -0.201 OA
HETATM   13  O2  UNL     1       3.402  -1.004   0.142  1.00  0.00    -0.201 OA
BRANCH  11  14
HETATM   14  N3  UNL     1       3.047   1.482   0.908  1.00  0.00    -0.324 N 
ATOM     15  H32 UNL     1       2.328   1.951   1.459  1.00  0.00     0.169 HD
ATOM     16  H31 UNL     1       4.046   1.681   0.962  1.00  0.00     0.169 HD
ENDBRANCH  11  14
ENDBRANCH   6  11
BRANCH   7  17
HETATM   17  N4  UNL     1       1.427  -1.711  -1.941  1.00  0.00    -0.384 N 
ATOM     18  H42 UNL     1       2.428  -1.522  -1.897  1.00  0.00     0.157 HD
ATOM     19  H41 UNL     1       1.123  -2.433  -2.594  1.00  0.00     0.157 HD
ENDBRANCH   7  17
BRANCH   9  20
HETATM   20  N6  UNL     1      -2.903  -0.923  -0.585  1.00  0.00    -0.234 N 
ATOM     21  H62 UNL     1      -3.580  -0.422  -0.009  1.00  0.00     0.174 HD
ATOM     22  H61 UNL     1      -3.184  -1.648  -1.245  1.00  0.00     0.174 HD
ENDBRANCH   9  20
ENDBRANCH   3   4
TORSDOF 5
