REMARK  4 active torsions:
REMARK  status: ('A' for Active; 'I' for Inactive)
REMARK    1  A    between atoms: C2_2  and  C3_3 
REMARK    2  A    between atoms: C3_3  and  N1_4 
REMARK    3  A    between atoms: C6_7  and  N2_8 
REMARK       I    between atoms: N2_8  and  C7_10 
REMARK       I    between atoms: C7_10  and  N3_12 
REMARK    4  A    between atoms: N3_12  and  C8_14 
ROOT
HETATM    1  N2  UNL     1       1.579  -0.105   0.083  1.00  0.00    -0.332 N 
ATOM      2  H2  UNL     1       1.477  -1.119   0.053  1.00  0.00     0.165 HD
HETATM    3  C7  UNL     1       0.445   0.746   0.115  1.00  0.00     0.317 C 
HETATM    4  O1  UNL     1       0.589   2.005   0.150  1.00  0.00    -0.247 OA
HETATM    5  N3  UNL     1      -0.842   0.146   0.106  1.00  0.00    -0.338 N 
ATOM      6  H3  UNL     1      -0.938  -0.869   0.078  1.00  0.00     0.164 HD
ENDROOT
BRANCH   1   7
HETATM    7  C6  UNL     1       2.890   0.517   0.094  1.00  0.00     0.155 C 
HETATM    8  C5  UNL     1       3.549   0.148  -1.238  1.00  0.00     0.049 C 
HETATM    9  C4  UNL     1       4.992   0.543  -1.124  1.00  0.00     0.116 C 
HETATM   10  N1  UNL     1       5.669  -0.450  -0.306  1.00  0.00    -0.227 NA
HETATM   11  N5  UNL     1       4.938  -0.757   0.816  1.00  0.00    -0.307 N 
HETATM   12  C19 UNL     1       3.728  -0.087   1.158  1.00  0.00     0.108 C 
ATOM     13  H5  UNL     1       5.276  -1.497   1.431  1.00  0.00     0.182 HD
HETATM   14  N4  UNL     1       3.338   0.008   2.375  1.00  0.00    -0.386 N 
ATOM     15  H42 UNL     1       2.472   0.488   2.620  1.00  0.00     0.157 HD
ATOM     16  H41 UNL     1       3.914  -0.407   3.107  1.00  0.00     0.157 HD
BRANCH  10  17
HETATM   17  C3  UNL     1       6.048  -1.586  -1.108  1.00  0.00     0.140 C 
BRANCH  17  18
HETATM   18  C2  UNL     1       6.746  -2.633  -0.337  1.00  0.00    -0.021 C 
HETATM   19  C1  UNL     1       6.241  -3.843  -0.266  1.00  0.00     0.008 C 
ENDBRANCH  17  18
ENDBRANCH  10  17
ENDBRANCH   1   7
BRANCH   5  20
HETATM   20  C8  UNL     1      -1.994   0.975   0.137  1.00  0.00     0.094 C 
HETATM   21  C9  UNL     1      -2.752   0.706   1.430  1.00  0.00     0.009 C 
HETATM   22  C10 UNL     1      -3.234  -0.713   1.403  1.00  0.00     0.011 C 
HETATM   23  C14 UNL     1      -3.907   1.685   1.584  1.00  0.00     0.011 C 
HETATM   24  C11 UNL     1      -4.147  -0.934   0.223  1.00  0.00    -0.013 C 
HETATM   25  C12 UNL     1      -5.306   0.030   0.376  1.00  0.00     0.009 C 
HETATM   26  C18 UNL     1      -3.424  -0.629  -1.045  1.00  0.00     0.011 C 
HETATM   27  C13 UNL     1      -4.831   1.445   0.406  1.00  0.00    -0.010 C 
HETATM   28  C15 UNL     1      -4.049   1.798  -0.841  1.00  0.00    -0.009 C 
HETATM   29  C16 UNL     1      -4.948   1.918  -2.012  1.00  0.00     0.011 C 
HETATM   30  C17 UNL     1      -2.935   0.791  -1.022  1.00  0.00     0.013 C 
ENDBRANCH   5  20
TORSDOF 4
