REMARK  4 active torsions:
REMARK  status: ('A' for Active; 'I' for Inactive)
REMARK    1  A    between atoms: C2_2  and  C4_4 
REMARK    2  A    between atoms: C6_9  and  C7_10 
REMARK    3  A    between atoms: C7_10  and  C8_11 
REMARK    4  A    between atoms: N2_13  and  O1_15 
ROOT
HETATM    1  C4  UNL     1      -1.020   0.295   0.324  1.00  0.00     0.036 A 
HETATM    2  N1  UNL     1      -0.909  -0.916   0.904  1.00  0.00    -0.348 N 
ATOM      3  H1  UNL     1      -1.691  -1.498   1.204  1.00  0.00     0.167 HD
HETATM    4  C5  UNL     1       0.403  -1.242   1.027  1.00  0.00     0.117 A 
HETATM    5 CL1  UNL     1       0.977  -2.764   1.683  1.00  0.00    -0.063 Cl
HETATM    6  C6  UNL     1       1.148  -0.210   0.516  1.00  0.00     0.052 A 
HETATM    7  C9  UNL     1       0.265   0.730   0.082  1.00  0.00     0.072 A 
HETATM    8 CL3  UNL     1       0.675   2.280  -0.668  1.00  0.00    -0.081 Cl
ENDROOT
BRANCH   6   9
HETATM    9  C7  UNL     1       2.618  -0.045   0.449  1.00  0.00     0.060 C 
HETATM   10  N2  UNL     1       3.070   1.054  -0.087  1.00  0.00    -0.271 N 
ATOM     11  H2  UNL     1       2.379   1.724  -0.424  1.00  0.00     0.194 HD
BRANCH   9  12
HETATM   12  C8  UNL     1       3.667  -0.999   0.840  1.00  0.00     0.174 C 
HETATM   13 CL2  UNL     1       4.197  -1.924  -0.626  1.00  0.00    -0.124 Cl
ENDBRANCH   9  12
BRANCH  10  14
HETATM   14  O1  UNL     1       4.370   1.386  -0.236  1.00  0.00    -0.290 OA
ATOM     15  H1  UNL     1       4.699   2.187  -0.627  1.00  0.00     0.244 HD
ENDBRANCH  10  14
ENDBRANCH   6   9
BRANCH   1  16
HETATM   16  C2  UNL     1      -2.262   0.917  -0.179  1.00  0.00     0.029 C 
HETATM   17  C1  UNL     1      -3.367   1.071   0.894  1.00  0.00     0.016 C 
HETATM   18  C3  UNL     1      -2.923  -0.248  -1.068  1.00  0.00     0.016 C 
ENDBRANCH   1  16
TORSDOF 4
