REMARK  7 active torsions:
REMARK  status: ('A' for Active; 'I' for Inactive)
REMARK    1  A    between atoms: C2_2  and  C3_3 
REMARK    2  A    between atoms: C2_2  and  C4_6 
REMARK    3  A    between atoms: C3_3  and  O1_4 
REMARK    4  A    between atoms: C9_11  and  O2_12 
REMARK    5  A    between atoms: C15_19  and  O4_20 
REMARK    6  A    between atoms: C15_19  and  C16_22 
REMARK    7  A    between atoms: C16_22  and  O6_24 
ROOT
HETATM    1  C4  UNL     1      -2.265  -0.863  -0.052  1.00  0.00     0.023 C 
HETATM    2  C5  UNL     1      -3.666  -0.329   0.142  1.00  0.00     0.010 C 
HETATM    3  C6  UNL     1      -3.580   0.584   1.314  1.00  0.00     0.006 C 
HETATM    4  C7  UNL     1      -2.148   1.097   1.312  1.00  0.00    -0.005 C 
HETATM    5  C8  UNL     1      -2.032   2.188   0.316  1.00  0.00     0.037 C 
HETATM    6  C9  UNL     1      -0.578   2.401  -0.160  1.00  0.00     0.132 C 
HETATM    7  C11 UNL     1       0.246   1.610   0.757  1.00  0.00     0.075 C 
HETATM    8  C12 UNL     1       1.696   1.582   0.599  1.00  0.00    -0.038 C 
HETATM    9  C13 UNL     1       2.692   2.257   0.077  1.00  0.00     0.005 C 
HETATM   10  C14 UNL     1       4.114   1.852   0.145  1.00  0.00     0.200 C 
HETATM   11  O3  UNL     1       4.332   0.867   1.047  1.00  0.00    -0.341 OA
HETATM   12  C15 UNL     1       3.414  -0.151   1.024  1.00  0.00     0.284 C 
HETATM   13  C18 UNL     1       2.024   0.293   1.331  1.00  0.00     0.224 C 
HETATM   14  O7  UNL     1       1.011  -0.570   1.017  1.00  0.00    -0.369 OA
HETATM   15  C19 UNL     1      -0.033   0.126   0.463  1.00  0.00     0.138 C 
HETATM   16  C20 UNL     1      -1.396  -0.178   0.960  1.00  0.00     0.028 C 
ENDROOT
BRANCH  12  17
HETATM   17  O4  UNL     1       3.787  -1.009   2.100  1.00  0.00    -0.355 OA
ATOM     18  H4  UNL     1       3.151  -1.714   2.084  1.00  0.00     0.213 HD
ENDBRANCH  12  17
BRANCH  12  19
HETATM   19  C16 UNL     1       3.551  -0.976  -0.183  1.00  0.00     0.325 C 
HETATM   20  O5  UNL     1       3.244  -0.507  -1.302  1.00  0.00    -0.259 OA
BRANCH  19  21
HETATM   21  O6  UNL     1       4.014  -2.293  -0.186  1.00  0.00    -0.322 OA
HETATM   22  C17 UNL     1       4.140  -3.069  -1.344  1.00  0.00     0.213 C 
ENDBRANCH  19  21
ENDBRANCH  12  19
BRANCH   6  23
HETATM   23  O2  UNL     1      -0.595   1.990  -1.487  1.00  0.00    -0.390 OA
HETATM   24  C10 UNL     1      -0.305   3.086  -2.282  1.00  0.00     0.202 C 
ENDBRANCH   6  23
BRANCH   1  25
HETATM   25  C2  UNL     1      -2.283  -2.338   0.021  1.00  0.00    -0.061 C 
HETATM   26  C1  UNL     1      -1.596  -3.050   0.887  1.00  0.00     0.017 C 
BRANCH  25  27
HETATM   27  C3  UNL     1      -3.148  -3.072  -0.959  1.00  0.00     0.198 C 
BRANCH  27  28
HETATM   28  O1  UNL     1      -2.760  -2.800  -2.270  1.00  0.00    -0.397 OA
ATOM     29  H1  UNL     1      -3.308  -3.265  -2.891  1.00  0.00     0.209 HD
ENDBRANCH  27  28
ENDBRANCH  25  27
ENDBRANCH   1  25
TORSDOF 7
