REMARK  7 active torsions:
REMARK  status: ('A' for Active; 'I' for Inactive)
REMARK    1  A    between atoms: C2_3  and  C3_4 
REMARK    2  A    between atoms: C11_13  and  N2_14 
REMARK    3  A    between atoms: N3_17  and  C14_18 
REMARK    4  A    between atoms: C14_18  and  C15_19 
REMARK    5  A    between atoms: C15_19  and  O1_20 
REMARK    6  A    between atoms: C15_19  and  C16_22 
REMARK    7  A    between atoms: C16_22  and  O2_23 
ROOT
HETATM    1  C1  UNL     1      -2.905   1.778   0.937  1.00  0.00     0.147 C 
HETATM    2  N1  UNL     1      -3.111   0.446   0.396  1.00  0.00    -0.378 N 
HETATM    3  C2  UNL     1      -4.292   0.253  -0.291  1.00  0.00     0.098 C 
HETATM    4  C7  UNL     1      -4.160  -0.093  -1.722  1.00  0.00     0.104 C 
HETATM    5  S1  UNL     1      -2.344  -0.260  -1.943  1.00  0.00    -0.114 SA
HETATM    6  C8  UNL     1      -1.946  -0.060  -0.191  1.00  0.00     0.154 C 
HETATM    7  C9  UNL     1      -1.322  -1.255   0.420  1.00  0.00     0.073 C 
HETATM    8  C10 UNL     1       0.143  -1.100  -0.000  1.00  0.00     0.081 C 
HETATM    9  C11 UNL     1       0.259   0.395   0.004  1.00  0.00     0.077 C 
HETATM   10  N4  UNL     1      -0.887   0.944  -0.101  1.00  0.00    -0.345 N 
ATOM     11  H4  UNL     1      -1.044   1.952  -0.120  1.00  0.00     0.164 HD
ENDROOT
BRANCH   9  12
HETATM   12  N2  UNL     1       1.499   1.055   0.114  1.00  0.00    -0.367 N 
HETATM   13  C12 UNL     1       1.975   1.879  -0.975  1.00  0.00     0.154 C 
HETATM   14  C13 UNL     1       3.479   1.739  -1.055  1.00  0.00     0.292 C 
HETATM   15  N3  UNL     1       3.926   0.452  -0.545  1.00  0.00     0.094 N 
HETATM   16  C17 UNL     1       3.666   0.317   0.869  1.00  0.00     0.292 C 
HETATM   17  C18 UNL     1       2.361   0.966   1.277  1.00  0.00     0.154 C 
BRANCH  15  18
HETATM   18  C14 UNL     1       5.359   0.433  -0.733  1.00  0.00     0.306 C 
BRANCH  18  19
HETATM   19  C15 UNL     1       6.046  -0.820  -0.332  1.00  0.00     0.170 C 
BRANCH  19  20
HETATM   20  O1  UNL     1       5.941  -1.196   0.977  1.00  0.00    -0.392 OA
ATOM     21  H1  UNL     1       6.381  -1.998   1.234  1.00  0.00     0.210 HD
ENDBRANCH  19  20
BRANCH  19  22
HETATM   22  C16 UNL     1       7.540  -0.612  -0.619  1.00  0.00     0.197 C 
BRANCH  22  23
HETATM   23  O2  UNL     1       8.091   0.367   0.190  1.00  0.00    -0.398 OA
ATOM     24  H2  UNL     1       9.015   0.496   0.012  1.00  0.00     0.209 HD
ENDBRANCH  22  23
ENDBRANCH  19  22
ENDBRANCH  18  19
ENDBRANCH  15  18
ENDBRANCH   9  12
BRANCH   3  25
HETATM   25  C3  UNL     1      -5.277  -0.729   0.345  1.00  0.00    -0.030 C 
HETATM   26  C4  UNL     1      -4.743  -2.104   0.510  1.00  0.00     0.016 C 
HETATM   27  C5  UNL     1      -5.803  -0.230   1.657  1.00  0.00     0.016 C 
HETATM   28  C6  UNL     1      -6.478  -0.819  -0.607  1.00  0.00     0.016 C 
ENDBRANCH   3  25
TORSDOF 7
