REMARK  15 active torsions:
REMARK  status: ('A' for Active; 'I' for Inactive)
REMARK    1  A    between atoms: C2_2  and  C3_3 
REMARK    2  A    between atoms: C3_3  and  C4_4 
REMARK    3  A    between atoms: C4_4  and  C5_5 
REMARK    4  A    between atoms: C5_5  and  C6_6 
REMARK    5  A    between atoms: C6_6  and  C7_7 
REMARK    6  A    between atoms: C8_8  and  C9_9 
REMARK    7  A    between atoms: C9_9  and  N1_10 
REMARK       I    between atoms: N1_10  and  C10_12 
REMARK    8  A    between atoms: C10_12  and  C11_14 
REMARK    9  A    between atoms: C11_14  and  O2_15 
REMARK   10  A    between atoms: C19_24  and  O3_25 
REMARK   11  A    between atoms: C26_35  and  O5_36 
REMARK   12  A    between atoms: O5_36  and  C27_37 
REMARK   13  A    between atoms: C30_41  and  O7_42 
REMARK   14  A    between atoms: C31_44  and  O8_45 
REMARK   15  A    between atoms: C32_47  and  O9_48 
ROOT
HETATM    1  C11 UNL     1       0.602   1.959  -0.850  1.00  0.00     0.148 C 
HETATM    2  C12 UNL     1       0.935   3.427  -1.097  1.00  0.00     0.049 C 
HETATM    3  C13 UNL     1      -0.453   4.082  -1.129  1.00  0.00     0.015 C 
HETATM    4  C14 UNL     1      -1.222   3.225  -0.104  1.00  0.00     0.046 C 
HETATM    5  C15 UNL     1      -2.583   3.738   0.066  1.00  0.00    -0.002 C 
HETATM    6  C16 UNL     1      -3.089   4.734  -0.916  1.00  0.00     0.054 C 
HETATM    7  C17 UNL     1      -4.530   4.549  -1.359  1.00  0.00     0.015 C 
HETATM    8  C18 UNL     1      -5.272   4.290  -0.140  1.00  0.00     0.043 C 
HETATM    9  C19 UNL     1      -6.734   4.395  -0.119  1.00  0.00     0.124 C 
HETATM   10  C20 UNL     1      -6.997   3.840   1.282  1.00  0.00     0.034 C 
HETATM   11  C21 UNL     1      -5.862   2.832   1.525  1.00  0.00     0.034 C 
HETATM   12  C22 UNL     1      -5.001   2.866   0.299  1.00  0.00     0.042 C 
HETATM   13  C23 UNL     1      -5.518   1.826  -0.645  1.00  0.00     0.039 C 
HETATM   14  N2  UNL     1      -3.587   2.778   0.528  1.00  0.00    -0.315 N 
HETATM   15  C24 UNL     1      -3.252   1.624   1.283  1.00  0.00     0.227 C 
HETATM   16  O4  UNL     1      -4.141   1.012   1.865  1.00  0.00    -0.273 OA
HETATM   17  C25 UNL     1      -1.899   1.014   1.481  1.00  0.00     0.136 C 
HETATM   18  C26 UNL     1      -1.392   0.710   0.068  1.00  0.00     0.145 C 
HETATM   19  C33 UNL     1      -0.887   1.897  -0.645  1.00  0.00     0.031 C 
HETATM   20  C34 UNL     1      -1.470   1.835  -2.072  1.00  0.00     0.022 C 
ENDROOT
BRANCH   1  21
HETATM   21  C10 UNL     1       1.477   1.565   0.243  1.00  0.00     0.253 C 
HETATM   22  N1  UNL     1       2.535   0.633  -0.104  1.00  0.00    -0.355 N 
ATOM     23  H1  UNL     1       2.614   0.304  -1.066  1.00  0.00     0.162 HD
HETATM   24  O1  UNL     1       1.457   1.902   1.420  1.00  0.00    -0.270 OA
BRANCH  22  25
HETATM   25  C9  UNL     1       3.468   0.167   0.873  1.00  0.00     0.149 C 
BRANCH  25  26
HETATM   26  C8  UNL     1       4.500  -0.769   0.450  1.00  0.00    -0.011 C 
HETATM   27  C7  UNL     1       4.683  -1.257  -0.739  1.00  0.00    -0.029 C 
BRANCH  27  28
HETATM   28  C6  UNL     1       5.725  -2.206  -1.160  1.00  0.00     0.027 C 
BRANCH  28  29
HETATM   29  C5  UNL     1       6.625  -2.760  -0.131  1.00  0.00     0.004 C 
BRANCH  29  30
HETATM   30  C4  UNL     1       5.936  -3.673   0.841  1.00  0.00     0.000 C 
BRANCH  30  31
HETATM   31  C3  UNL     1       6.974  -4.140   1.851  1.00  0.00    -0.000 C 
BRANCH  31  32
HETATM   32  C2  UNL     1       6.310  -5.058   2.834  1.00  0.00    -0.005 C 
HETATM   33  C1  UNL     1       7.338  -5.527   3.841  1.00  0.00     0.005 C 
ENDBRANCH  31  32
ENDBRANCH  30  31
ENDBRANCH  29  30
ENDBRANCH  28  29
ENDBRANCH  27  28
ENDBRANCH  25  26
ENDBRANCH  22  25
ENDBRANCH   1  21
BRANCH   1  34
HETATM   34  O2  UNL     1       0.963   1.334  -2.075  1.00  0.00    -0.379 OA
ATOM     35  H2  UNL     1       0.391   1.591  -2.789  1.00  0.00     0.211 HD
ENDBRANCH   1  34
BRANCH  18  36
HETATM   36  O5  UNL     1      -0.545  -0.339   0.029  1.00  0.00    -0.352 OA
BRANCH  36  37
HETATM   37  C27 UNL     1      -1.015  -1.539  -0.415  1.00  0.00     0.291 C 
HETATM   38  O6  UNL     1      -0.456  -2.041  -1.567  1.00  0.00    -0.351 OA
HETATM   39  C28 UNL     1       0.697  -2.789  -1.325  1.00  0.00     0.152 C 
HETATM   40  C29 UNL     1       1.449  -3.119  -2.569  1.00  0.00     0.042 C 
HETATM   41  C30 UNL     1       0.315  -4.117  -0.650  1.00  0.00     0.178 C 
HETATM   42  C31 UNL     1      -1.113  -3.959  -0.117  1.00  0.00     0.183 C 
HETATM   43  C32 UNL     1      -1.098  -2.628   0.609  1.00  0.00     0.204 C 
BRANCH  41  44
HETATM   44  O7  UNL     1       0.410  -5.133  -1.564  1.00  0.00    -0.390 OA
ATOM     45  H7  UNL     1       0.174  -5.953  -1.147  1.00  0.00     0.210 HD
ENDBRANCH  41  44
BRANCH  42  46
HETATM   46  O8  UNL     1      -1.268  -4.945   0.856  1.00  0.00    -0.390 OA
ATOM     47  H8  UNL     1      -2.153  -4.847   1.186  1.00  0.00     0.210 HD
ENDBRANCH  42  46
BRANCH  43  48
HETATM   48  O9  UNL     1       0.036  -2.680   1.431  1.00  0.00    -0.388 OA
ATOM     49  H9  UNL     1      -0.017  -3.371   2.081  1.00  0.00     0.210 HD
ENDBRANCH  43  48
ENDBRANCH  36  37
ENDBRANCH  18  36
BRANCH   9  50
HETATM   50  O3  UNL     1      -7.413   3.724  -1.091  1.00  0.00    -0.395 OA
ATOM     51  H3  UNL     1      -8.360   3.792  -1.077  1.00  0.00     0.210 HD
ENDBRANCH   9  50
TORSDOF 15
