REMARK  4 active torsions:
REMARK  status: ('A' for Active; 'I' for Inactive)
REMARK    1  A    between atoms: C4_8  and  C5_9 
REMARK    2  A    between atoms: C5_9  and  N3_10 
REMARK    3  A    between atoms: N3_10  and  C6_13 
REMARK    4  A    between atoms: C13_24  and  N5_25 
ROOT
HETATM    1  C1  UNL     1       6.438   0.829   1.300  1.00  0.00     0.089 C 
HETATM    2  C2  UNL     1       5.279   0.433   0.448  1.00  0.00     0.080 A 
HETATM    3  N1  UNL     1       4.027   0.462   0.949  1.00  0.00    -0.330 N 
ATOM      4  H1  UNL     1       3.892   0.759   1.915  1.00  0.00     0.168 HD
HETATM    5  C3  UNL     1       2.948   0.113   0.221  1.00  0.00     0.139 A 
HETATM    6  N2  UNL     1       1.625   0.046   0.451  1.00  0.00    -0.329 N 
ATOM      7  H2  UNL     1       1.171   0.282   1.333  1.00  0.00     0.168 HD
HETATM    8  C4  UNL     1       0.991  -0.378  -0.654  1.00  0.00     0.109 A 
HETATM    9  N4  UNL     1       1.935  -0.577  -1.579  1.00  0.00    -0.338 N 
ATOM     10  H4  UNL     1       1.759  -0.904  -2.529  1.00  0.00     0.167 HD
HETATM   11  C12 UNL     1       3.146  -0.287  -1.083  1.00  0.00     0.122 A 
HETATM   12  C13 UNL     1       4.439  -0.301  -1.551  1.00  0.00     0.131 A 
HETATM   13  N6  UNL     1       5.508   0.048  -0.821  1.00  0.00    -0.331 N 
ATOM     14  H6  UNL     1       6.451   0.023  -1.209  1.00  0.00     0.168 HD
ENDROOT
BRANCH   8  15
HETATM   15  C5  UNL     1      -0.482  -0.573  -0.763  1.00  0.00     0.308 C 
BRANCH  15  16
HETATM   16  N3  UNL     1      -1.099  -0.145   0.442  1.00  0.00    -0.064 N 
ATOM     17  H32 UNL     1      -0.688  -0.603   1.255  1.00  0.00     0.278 HD
ATOM     18  H31 UNL     1      -0.855   0.820   0.664  1.00  0.00     0.278 HD
BRANCH  16  19
HETATM   19  C6  UNL     1      -2.529  -0.331   0.398  1.00  0.00     0.192 C 
HETATM   20  C7  UNL     1      -3.210   0.473  -0.652  1.00  0.00     0.033 C 
HETATM   21  C8  UNL     1      -4.638  -0.044  -0.695  1.00  0.00     0.008 C 
HETATM   22  C9  UNL     1      -5.343   0.220   0.583  1.00  0.00     0.079 C 
HETATM   23  C10 UNL     1      -4.584   0.012   1.823  1.00  0.00     0.245 C 
HETATM   24  F1  UNL     1      -4.959   0.971   2.764  1.00  0.00    -0.206 F 
HETATM   25  F2  UNL     1      -5.009  -1.202   2.392  1.00  0.00    -0.206 F 
HETATM   26  C11 UNL     1      -3.111  -0.022   1.751  1.00  0.00     0.112 C 
ENDBRANCH  16  19
ENDBRANCH  15  16
ENDBRANCH   8  15
BRANCH  12  27
HETATM   27  N5  UNL     1       4.651  -0.672  -2.768  1.00  0.00    -0.383 N 
ATOM     28  H52 UNL     1       3.838  -0.938  -3.323  1.00  0.00     0.157 HD
ATOM     29  H51 UNL     1       5.610  -0.682  -3.115  1.00  0.00     0.157 HD
ENDBRANCH  12  27
TORSDOF 4
