REMARK  8 active torsions:
REMARK  status: ('A' for Active; 'I' for Inactive)
REMARK    1  A    between atoms: C2_2  and  N1_3 
REMARK    2  A    between atoms: N1_3  and  C3_5 
REMARK    3  A    between atoms: C4_6  and  O1_7 
REMARK    4  A    between atoms: C5_9  and  O2_10 
REMARK    5  A    between atoms: C6_12  and  O3_13 
REMARK    6  A    between atoms: C8_16  and  O4_17 
REMARK    7  A    between atoms: C16_26  and  O5_27 
REMARK    8  A    between atoms: C17_29  and  O6_30 
ROOT
HETATM    1  C3  UNL     1       2.936  -0.565   0.084  1.00  0.00     0.078 A 
HETATM    2  C4  UNL     1       3.526  -1.476  -0.795  1.00  0.00     0.129 A 
HETATM    3  C5  UNL     1       2.767  -2.111  -1.774  1.00  0.00     0.135 A 
HETATM    4  C6  UNL     1       1.434  -1.803  -1.828  1.00  0.00     0.115 A 
HETATM    5  C7  UNL     1       0.834  -0.892  -0.945  1.00  0.00     0.050 A 
HETATM    6  C8  UNL     1      -0.545  -0.649  -1.031  1.00  0.00     0.093 A 
HETATM    7  C9  UNL     1      -1.191   0.224  -0.148  1.00  0.00     0.036 A 
HETATM    8  C10 UNL     1      -2.608   0.493  -0.261  1.00  0.00    -0.064 C 
HETATM    9  C11 UNL     1      -3.238   1.136   0.938  1.00  0.00     0.035 C 
HETATM   10  C12 UNL     1      -4.754   1.138   0.950  1.00  0.00     0.004 C 
HETATM   11  C13 UNL     1      -5.332  -0.235   0.662  1.00  0.00     0.001 C 
HETATM   12  C14 UNL     1      -4.926  -0.433  -0.767  1.00  0.00     0.004 C 
HETATM   13  C15 UNL     1      -3.431  -0.553  -0.947  1.00  0.00     0.035 C 
HETATM   14  C16 UNL     1      -0.406   0.823   0.798  1.00  0.00     0.113 A 
HETATM   15  C17 UNL     1       0.971   0.605   0.912  1.00  0.00     0.113 A 
HETATM   16  C18 UNL     1       1.592  -0.271   0.017  1.00  0.00     0.045 A 
ENDROOT
BRANCH   6  17
HETATM   17  O4  UNL     1      -1.231  -1.255  -1.960  1.00  0.00    -0.359 OA
ATOM     18  H4  UNL     1      -2.165  -1.090  -2.018  1.00  0.00     0.217 HD
ENDBRANCH   6  17
BRANCH  14  19
HETATM   19  O5  UNL     1      -0.936   1.677   1.699  1.00  0.00    -0.357 OA
ATOM     20  H5  UNL     1      -0.391   2.093   2.356  1.00  0.00     0.217 HD
ENDBRANCH  14  19
BRANCH  15  21
HETATM   21  O6  UNL     1       1.723   1.224   1.881  1.00  0.00    -0.357 OA
ATOM     22  H6  UNL     1       2.658   1.076   1.958  1.00  0.00     0.217 HD
ENDBRANCH  15  21
BRANCH   4  23
HETATM   23  O3  UNL     1       0.681  -2.429  -2.796  1.00  0.00    -0.357 OA
ATOM     24  H3  UNL     1      -0.244  -2.215  -2.833  1.00  0.00     0.217 HD
ENDBRANCH   4  23
BRANCH   3  25
HETATM   25  O2  UNL     1       3.416  -2.999  -2.613  1.00  0.00    -0.356 OA
ATOM     26  H2  UNL     1       2.898  -3.432  -3.281  1.00  0.00     0.218 HD
ENDBRANCH   3  25
BRANCH   1  27
HETATM   27  N1  UNL     1       3.740   0.106   1.052  1.00  0.00    -0.387 N 
ATOM     28  H1  UNL     1       3.795  -0.230   2.013  1.00  0.00     0.159 HD
BRANCH  27  29
HETATM   29  C2  UNL     1       4.479   1.284   0.627  1.00  0.00     0.115 C 
HETATM   30  C1  UNL     1       5.267   1.895   1.770  1.00  0.00     0.026 C 
ENDBRANCH  27  29
ENDBRANCH   1  27
BRANCH   2  31
HETATM   31  O1  UNL     1       4.875  -1.766  -0.702  1.00  0.00    -0.356 OA
ATOM     32  H1  UNL     1       5.276  -2.386  -1.300  1.00  0.00     0.218 HD
ENDBRANCH   2  31
TORSDOF 8
