REMARK  1 active torsions:
REMARK  status: ('A' for Active; 'I' for Inactive)
REMARK    1  A    between atoms: N1_7  and  C7_8 
ROOT
HETATM    1  C1  UNL     1      -2.171   0.331   0.237  1.00  0.00     0.011 C 
HETATM    2  C2  UNL     1      -0.763   0.650  -0.134  1.00  0.00     0.001 C 
HETATM    3  C3  UNL     1      -0.240  -0.276  -1.250  1.00  0.00     0.026 C 
HETATM    4  C4  UNL     1       0.823  -0.988  -0.438  1.00  0.00     0.067 C 
HETATM    5  C5  UNL     1       0.108  -1.298   0.837  1.00  0.00     0.040 C 
HETATM    6  C6  UNL     1       0.180   0.232   0.956  1.00  0.00     0.071 C 
HETATM    7  N1  UNL     1       1.474   0.088   0.327  1.00  0.00    -0.251 NA
ENDROOT
BRANCH   7   8
HETATM    8  C7  UNL     1       1.948   1.161  -0.421  1.00  0.00     0.324 C 
HETATM    9  O1  UNL     1       2.682   0.967  -1.360  1.00  0.00    -0.289 OA
ENDBRANCH   7   8
TORSDOF 1
