REMARK  2 active torsions:
REMARK  status: ('A' for Active; 'I' for Inactive)
REMARK       I    between atoms: N2_9  and  C6_10 
REMARK       I    between atoms: C6_10  and  N3_12 
REMARK    1  A    between atoms: N3_12  and  C7_14 
REMARK    2  A    between atoms: C7_14  and  N4_16 
ROOT
HETATM    1  C1  UNL     1       3.192  -1.916   1.248  1.00  0.00     0.042 C 
HETATM    2  C2  UNL     1       2.818  -1.151   0.002  1.00  0.00     0.176 C 
HETATM    3  C3  UNL     1       3.975  -1.285  -0.945  1.00  0.00     0.240 C 
HETATM    4  O1  UNL     1       4.432  -2.433  -1.155  1.00  0.00    -0.271 OA
HETATM    5  N1  UNL     1       4.543  -0.156  -1.588  1.00  0.00    -0.358 N 
ATOM      6  H1  UNL     1       5.173  -0.296  -2.378  1.00  0.00     0.162 HD
HETATM    7  C4  UNL     1       4.245   1.207  -1.143  1.00  0.00     0.142 C 
HETATM    8  C5  UNL     1       3.878   1.049   0.339  1.00  0.00     0.148 C 
HETATM    9  N2  UNL     1       2.683   0.239   0.374  1.00  0.00    -0.320 N 
HETATM   10  C6  UNL     1       1.425   0.754   0.753  1.00  0.00     0.320 C 
HETATM   11  O2  UNL     1       1.365   1.969   1.064  1.00  0.00    -0.247 OA
HETATM   12  N3  UNL     1       0.223   0.004   0.809  1.00  0.00    -0.315 N 
ATOM     13  H3  UNL     1       0.270  -0.983   0.557  1.00  0.00     0.166 HD
ENDROOT
BRANCH  12  14
HETATM   14  C7  UNL     1      -1.045   0.526   1.191  1.00  0.00     0.291 C 
HETATM   15  C8  UNL     1      -1.483  -0.133   2.497  1.00  0.00     0.064 C 
BRANCH  14  16
HETATM   16  N4  UNL     1      -2.090   0.404   0.230  1.00  0.00    -0.020 N 
HETATM   17  C9  UNL     1      -3.188   1.263   0.687  1.00  0.00     0.278 C 
HETATM   18  C10 UNL     1      -2.629  -0.925   0.095  1.00  0.00     0.243 C 
HETATM   19  C11 UNL     1      -3.925  -0.841  -0.682  1.00  0.00     0.028 C 
HETATM   20  C12 UNL     1      -3.571  -0.428  -2.093  1.00  0.00     0.006 C 
HETATM   21  C13 UNL     1      -2.749   0.819  -2.101  1.00  0.00     0.067 C 
HETATM   22  C14 UNL     1      -1.667   0.851  -1.063  1.00  0.00     0.374 C 
HETATM   23  F1  UNL     1      -0.659  -0.003  -1.529  1.00  0.00    -0.218 F 
ENDBRANCH  14  16
ENDBRANCH  12  14
TORSDOF 2
