REMARK  3 active torsions:
REMARK  status: ('A' for Active; 'I' for Inactive)
REMARK    1  A    between atoms: N2_9  and  C8_10 
REMARK    2  A    between atoms: C8_10  and  C9_11 
REMARK    3  A    between atoms: C9_11  and  N3_12 
ROOT
HETATM    1  C1  UNL     1      -3.831   4.699   0.256  1.00  0.00     0.309 C 
HETATM    2  N1  UNL     1      -3.526   3.297   0.307  1.00  0.00     0.084 N 
HETATM    3  C2  UNL     1      -2.196   3.046  -0.203  1.00  0.00     0.271 C 
HETATM    4  C3  UNL     1      -1.129   3.629   0.716  1.00  0.00     0.030 C 
HETATM    5  C4  UNL     1      -0.075   4.282  -0.165  1.00  0.00     0.002 C 
HETATM    6  C5  UNL     1       1.191   3.443  -0.157  1.00  0.00     0.002 C 
HETATM    7  C6  UNL     1       0.979   2.134  -0.848  1.00  0.00     0.020 C 
HETATM    8  C7  UNL     1       1.175   0.935   0.096  1.00  0.00     0.122 C 
HETATM    9  N2  UNL     1       2.103   0.074  -0.597  1.00  0.00    -0.390 N 
HETATM   10  C14 UNL     1       1.583  -1.187  -0.951  1.00  0.00     0.085 C 
HETATM   11  C15 UNL     1       1.550  -2.239   0.106  1.00  0.00     0.276 C 
HETATM   12  N5  UNL     1       0.611  -3.276  -0.354  1.00  0.00    -0.071 N 
ATOM     13  H51 UNL     1       0.846  -3.589  -1.296  1.00  0.00     0.277 HD
ATOM     14  H52 UNL     1      -0.311  -2.879  -0.536  1.00  0.00     0.277 HD
HETATM   15  C16 UNL     1       0.522  -4.386   0.549  1.00  0.00     0.234 C 
HETATM   16  C17 UNL     1      -0.871  -4.599   1.103  1.00  0.00     0.055 C 
HETATM   17  C18 UNL     1      -1.921  -4.726   0.042  1.00  0.00     0.233 C 
HETATM   18  N6  UNL     1      -3.129  -4.080   0.554  1.00  0.00    -0.075 N 
ATOM     19  H61 UNL     1      -2.944  -3.504   1.375  1.00  0.00     0.277 HD
ATOM     20  H62 UNL     1      -3.771  -4.744   0.988  1.00  0.00     0.277 HD
HETATM   21  C19 UNL     1      -3.751  -3.330  -0.518  1.00  0.00     0.233 C 
HETATM   22  C20 UNL     1      -5.081  -2.782  -0.087  1.00  0.00     0.055 C 
HETATM   23  C21 UNL     1      -5.376  -1.421  -0.682  1.00  0.00     0.233 C 
HETATM   24  N7  UNL     1      -6.039  -0.618   0.332  1.00  0.00    -0.075 N 
ATOM     25  H71 UNL     1      -5.536  -0.650   1.219  1.00  0.00     0.277 HD
ATOM     26  H72 UNL     1      -6.916  -1.045   0.630  1.00  0.00     0.277 HD
HETATM   27  C22 UNL     1      -6.240   0.743  -0.111  1.00  0.00     0.234 C 
HETATM   28  C23 UNL     1      -5.203   1.603   0.560  1.00  0.00     0.057 C 
HETATM   29  C24 UNL     1      -4.456   2.473  -0.424  1.00  0.00     0.273 C 
ENDROOT
BRANCH   9  30
HETATM   30  C8  UNL     1       3.436   0.139  -0.100  1.00  0.00     0.141 C 
BRANCH  30  31
HETATM   31  C9  UNL     1       4.350  -0.556  -1.050  1.00  0.00     0.136 C 
BRANCH  31  32
HETATM   32  N3  UNL     1       5.748  -0.522  -0.724  1.00  0.00    -0.408 N 
HETATM   33  C10 UNL     1       6.379   0.737  -0.897  1.00  0.00     0.144 C 
HETATM   34  C11 UNL     1       7.185   1.293   0.201  1.00  0.00     0.251 C 
HETATM   35  N4  UNL     1       7.711   0.354   1.136  1.00  0.00    -0.072 N 
HETATM   36  C12 UNL     1       6.547  -0.409   1.620  1.00  0.00     0.251 C 
ATOM     37  H42 UNL     1       8.456  -0.230   0.757  1.00  0.00     0.277 HD
ATOM     38  H41 UNL     1       8.261   0.781   1.881  1.00  0.00     0.277 HD
HETATM   39  C13 UNL     1       6.085  -1.239   0.469  1.00  0.00     0.144 C 
ENDBRANCH  31  32
ENDBRANCH  30  31
ENDBRANCH   9  30
TORSDOF 3
