REMARK  21 active torsions:
REMARK  status: ('A' for Active; 'I' for Inactive)
REMARK    1  A    between atoms: N1_1  and  C1_5 
REMARK    2  A    between atoms: C1_5  and  C2_6 
REMARK    3  A    between atoms: C2_6  and  C3_7 
REMARK    4  A    between atoms: C3_7  and  C4_8 
REMARK    5  A    between atoms: C4_8  and  C5_9 
REMARK    6  A    between atoms: C5_9  and  N2_10 
REMARK    7  A    between atoms: C5_9  and  C17_27 
REMARK       I    between atoms: N2_10  and  C6_11 
REMARK    8  A    between atoms: C6_11  and  C7_13 
REMARK    9  A    between atoms: C7_13  and  C8_14 
REMARK   10  A    between atoms: C8_14  and  C9_15 
REMARK   11  A    between atoms: C9_15  and  C10_16 
REMARK   12  A    between atoms: C10_16  and  C11_17 
REMARK   13  A    between atoms: C11_17  and  N3_18 
REMARK       I    between atoms: C12_20  and  N5_22 
REMARK   14  A    between atoms: C17_27  and  O2_28 
REMARK   15  A    between atoms: C17_27  and  N6_30 
REMARK   16  A    between atoms: C21_34  and  S1_35 
REMARK   17  A    between atoms: S1_35  and  C22_37 
REMARK   18  A    between atoms: C22_37  and  C23_38 
REMARK   19  A    between atoms: C23_38  and  C24_39 
REMARK   20  A    between atoms: C24_39  and  C25_40 
REMARK       I    between atoms: C25_40  and  N7_42 
REMARK   21  A    between atoms: C27_47  and  C28_48 
ROOT
HETATM    1  C5  UNL     1       0.716   1.372  -1.419  1.00  0.00     0.240 C 
ENDROOT
BRANCH   1   2
HETATM    2  C4  UNL     1       0.565   0.709  -2.710  1.00  0.00     0.048 C 
BRANCH   2   3
HETATM    3  C3  UNL     1       1.624   0.645  -3.735  1.00  0.00     0.005 C 
BRANCH   3   4
HETATM    4  C2  UNL     1       1.043  -0.205  -4.849  1.00  0.00     0.027 C 
BRANCH   4   5
HETATM    5  C1  UNL     1      -0.219   0.383  -5.470  1.00  0.00     0.229 C 
BRANCH   5   6
HETATM    6  N1  UNL     1      -0.777  -0.513  -6.509  1.00  0.00    -0.079 N 
ATOM      7  H13 UNL     1      -0.081  -0.740  -7.220  1.00  0.00     0.274 HD
ATOM      8  H12 UNL     1      -0.942  -1.451  -6.144  1.00  0.00     0.274 HD
ATOM      9  H11 UNL     1      -1.621  -0.120  -6.924  1.00  0.00     0.274 HD
ENDBRANCH   5   6
ENDBRANCH   4   5
ENDBRANCH   3   4
ENDBRANCH   2   3
ENDBRANCH   1   2
BRANCH   1  10
HETATM   10  N2  UNL     1      -0.626   1.333  -0.818  1.00  0.00    -0.401 NA
HETATM   11  C6  UNL     1      -1.824   1.302  -0.280  1.00  0.00     0.287 C 
HETATM   12  O1  UNL     1      -2.381   2.023   0.537  1.00  0.00    -0.258 OA
BRANCH  11  13
HETATM   13  C7  UNL     1      -2.718   0.118  -0.754  1.00  0.00     0.119 C 
BRANCH  13  14
HETATM   14  C8  UNL     1      -4.074   0.129  -0.182  1.00  0.00     0.010 C 
BRANCH  14  15
HETATM   15  C9  UNL     1      -4.204  -0.073   1.306  1.00  0.00     0.002 C 
BRANCH  15  16
HETATM   16  C10 UNL     1      -5.681   0.183   1.623  1.00  0.00     0.020 C 
BRANCH  16  17
HETATM   17  C11 UNL     1      -6.543  -0.763   0.834  1.00  0.00     0.122 C 
BRANCH  17  18
HETATM   18  N3  UNL     1      -7.911  -0.483   1.036  1.00  0.00    -0.365 N 
HETATM   19  C12 UNL     1      -8.548  -0.115   2.035  1.00  0.00     0.186 C 
HETATM   20  N4  UNL     1      -8.024   0.145   3.344  1.00  0.00    -0.064 NA
HETATM   21  N5  UNL     1      -9.952   0.074   1.844  1.00  0.00    -0.356 N 
HETATM   22  C13 UNL     1     -10.889  -0.724   1.049  1.00  0.00     0.125 C 
HETATM   23  C16 UNL     1     -10.780   1.103   2.425  1.00  0.00     0.125 C 
HETATM   24  C14 UNL     1     -11.946  -1.013   2.144  1.00  0.00     0.021 C 
HETATM   25  C15 UNL     1     -12.050   0.345   2.832  1.00  0.00     0.021 C 
ATOM     26  H3  UNL     1      -8.485  -0.607   0.202  1.00  0.00     0.162 HD
ENDBRANCH  17  18
ENDBRANCH  16  17
ENDBRANCH  15  16
ENDBRANCH  14  15
ENDBRANCH  13  14
ENDBRANCH  11  13
ENDBRANCH   1  10
BRANCH   1  27
HETATM   27  C17 UNL     1       1.696   1.174  -0.386  1.00  0.00     0.151 C 
BRANCH  27  28
HETATM   28  O2  UNL     1       1.764   2.185   0.467  1.00  0.00    -0.347 OA
ATOM     29  H2  UNL     1       2.412   2.054   1.150  1.00  0.00     0.219 HD
ENDBRANCH  27  28
BRANCH  27  30
HETATM   30  N6  UNL     1       2.577   0.127  -0.089  1.00  0.00    -0.351 N 
HETATM   31  C18 UNL     1       2.662  -1.261  -0.411  1.00  0.00     0.102 C 
HETATM   32  C19 UNL     1       3.048  -1.332   1.143  1.00  0.00     0.052 C 
HETATM   33  C27 UNL     1       3.960  -1.718  -0.926  1.00  0.00     0.116 C 
HETATM   34  C20 UNL     1       3.785  -0.062   0.656  1.00  0.00     0.105 C 
HETATM   35  C21 UNL     1       4.822  -0.672  -0.288  1.00  0.00     0.117 C 
BRANCH  35  36
HETATM   36  S1  UNL     1       5.714   0.389  -1.266  1.00  0.00     0.022 S 
HETATM   37  O3  UNL     1       4.945   1.356  -2.277  1.00  0.00    -0.258 OA
BRANCH  36  38
HETATM   38  C22 UNL     1       7.077   1.106  -0.355  1.00  0.00     0.109 C 
BRANCH  38  39
HETATM   39  C23 UNL     1       7.970   0.014   0.140  1.00  0.00     0.022 C 
BRANCH  39  40
HETATM   40  C24 UNL     1       9.135   0.470   0.905  1.00  0.00     0.104 C 
BRANCH  40  41
HETATM   41  C25 UNL     1       8.839   1.204   2.145  1.00  0.00     0.223 C 
HETATM   42  O4  UNL     1       8.197   2.315   2.080  1.00  0.00    -0.273 OA
HETATM   43  N7  UNL     1       9.213   0.770   3.380  1.00  0.00    -0.304 N 
HETATM   44  C26 UNL     1      10.079   0.061   3.870  1.00  0.00     0.203 C 
ATOM     45  H7  UNL     1       8.595   1.142   4.101  1.00  0.00     0.171 HD
HETATM   46  N8  UNL     1      11.107  -0.609   3.185  1.00  0.00    -0.066 NA
HETATM   47  N9  UNL     1      10.025  -0.107   5.320  1.00  0.00    -0.066 NA
ENDBRANCH  40  41
ENDBRANCH  39  40
ENDBRANCH  38  39
ENDBRANCH  36  38
ENDBRANCH  35  36
BRANCH  33  48
HETATM   48  C28 UNL     1       4.118  -2.084  -2.288  1.00  0.00     0.238 C 
HETATM   49  N10 UNL     1       5.362  -2.028  -2.941  1.00  0.00    -0.062 NA
HETATM   50  O5  UNL     1       3.129  -2.486  -2.961  1.00  0.00    -0.276 OA
ENDBRANCH  33  48
ENDBRANCH  27  30
ENDBRANCH   1  27
TORSDOF 21
