REMARK  6 active torsions:
REMARK  status: ('A' for Active; 'I' for Inactive)
REMARK    1  A    between atoms: C2_2  and  C3_3 
REMARK    2  A    between atoms: C3_3  and  C4_4 
REMARK    3  A    between atoms: C4_4  and  C5_5 
REMARK    4  A    between atoms: C5_5  and  S1_6 
REMARK    5  A    between atoms: S1_6  and  C6_7 
REMARK    6  A    between atoms: C12_15  and  O1_16 
ROOT
HETATM    1  C6  UNL     1      -1.041  -0.763  -0.331  1.00  0.00     0.088 C 
HETATM    2  C7  UNL     1      -0.942   0.626   0.024  1.00  0.00     0.038 C 
HETATM    3  C8  UNL     1      -2.002   1.640  -0.407  1.00  0.00     0.115 C 
HETATM    4  N1  UNL     1      -3.099   1.760   0.486  1.00  0.00    -0.420 N 
ATOM      5  H1  UNL     1      -2.935   2.274   1.352  1.00  0.00     0.153 HD
HETATM    6  C9  UNL     1      -4.378   1.243   0.292  1.00  0.00     0.125 C 
HETATM    7  C10 UNL     1      -4.536  -0.266   0.742  1.00  0.00     0.102 C 
HETATM    8  C11 UNL     1      -3.267  -0.810   0.453  1.00  0.00    -0.149 C 
HETATM    9  C12 UNL     1      -2.161  -1.639   0.327  1.00  0.00     0.198 C 
ENDROOT
BRANCH   1  10
HETATM   10  S1  UNL     1       0.464  -1.672  -0.009  1.00  0.00    -0.161 SA
BRANCH  10  11
HETATM   11  C5  UNL     1       1.862  -1.339  -1.012  1.00  0.00     0.074 C 
BRANCH  11  12
HETATM   12  C4  UNL     1       3.120  -0.930  -0.331  1.00  0.00     0.010 C 
BRANCH  12  13
HETATM   13  C3  UNL     1       3.147   0.289   0.487  1.00  0.00     0.000 C 
BRANCH  13  14
HETATM   14  C2  UNL     1       4.538   0.506   1.055  1.00  0.00    -0.005 C 
HETATM   15  C1  UNL     1       5.610   0.717   0.040  1.00  0.00     0.005 C 
ENDBRANCH  13  14
ENDBRANCH  12  13
ENDBRANCH  11  12
ENDBRANCH  10  11
ENDBRANCH   1  10
BRANCH   9  16
HETATM   16  O1  UNL     1      -1.685  -2.239   1.486  1.00  0.00    -0.383 OA
ATOM     17  H1  UNL     1      -2.364  -2.770   1.885  1.00  0.00     0.211 HD
ENDBRANCH   9  16
TORSDOF 6
