REMARK  15 active torsions:
REMARK  status: ('A' for Active; 'I' for Inactive)
REMARK    1  A    between atoms: O1_2  and  C2_3 
REMARK    2  A    between atoms: C4_5  and  C5_6 
REMARK    3  A    between atoms: C5_6  and  C9_17 
REMARK    4  A    between atoms: C6_7  and  N1_8 
REMARK       I    between atoms: C7_10  and  N3_12 
REMARK    5  A    between atoms: N3_12  and  C8_14 
REMARK    6  A    between atoms: C11_19  and  O2_20 
REMARK    7  A    between atoms: C12_24  and  O3_25 
REMARK    8  A    between atoms: C15_30  and  C16_31 
REMARK    9  A    between atoms: C16_31  and  N5_32 
REMARK   10  A    between atoms: N5_32  and  C17_34 
REMARK   11  A    between atoms: C17_34  and  C18_35 
REMARK   12  A    between atoms: C18_35  and  C19_36 
REMARK   13  A    between atoms: C21_38  and  O4_39 
REMARK   14  A    between atoms: C23_41  and  O5_42 
REMARK   15  A    between atoms: C25_44  and  O6_45 
ROOT
HETATM    1  C2  UNL     1      -1.153   0.620  -0.965  1.00  0.00     0.080 A 
HETATM    2  C3  UNL     1      -2.506   0.308  -1.080  1.00  0.00     0.050 A 
HETATM    3  C4  UNL     1      -3.324   0.119  -0.042  1.00  0.00    -0.018 A 
HETATM    4  C13 UNL     1      -2.786   0.248   1.246  1.00  0.00     0.055 A 
HETATM    5  C14 UNL     1      -1.453   0.554   1.388  1.00  0.00     0.127 A 
HETATM    6  F4  UNL     1      -0.879   0.695   2.633  1.00  0.00    -0.205 F 
HETATM    7  C15 UNL     1      -0.626   0.744   0.315  1.00  0.00     0.031 A 
ENDROOT
BRANCH   3   8
HETATM    8  C5  UNL     1      -4.734  -0.328  -0.179  1.00  0.00     0.004 C 
HETATM    9  C6  UNL     1      -5.521   0.201   0.684  1.00  0.00     0.104 C 
BRANCH   9  10
HETATM   10  N1  UNL     1      -6.894   0.048   0.878  1.00  0.00    -0.338 N 
HETATM   11  C7  UNL     1      -7.702   1.082   0.788  1.00  0.00     0.224 C 
HETATM   12  N2  UNL     1      -7.170   2.359   0.493  1.00  0.00    -0.061 NA
HETATM   13  N3  UNL     1      -9.112   0.977   0.989  1.00  0.00    -0.124 N 
HETATM   14  F1  UNL     1      -9.871   1.452  -0.057  1.00  0.00    -0.091 F 
ATOM     15  H1  UNL     1      -7.275  -0.874   1.092  1.00  0.00     0.168 HD
BRANCH  13  16
HETATM   16  C8  UNL     1      -9.725   0.436   2.165  1.00  0.00     0.491 C 
HETATM   17  F2  UNL     1     -11.114   0.460   1.967  1.00  0.00    -0.188 F 
HETATM   18  F3  UNL     1      -9.263  -0.848   2.364  1.00  0.00    -0.188 F 
ENDBRANCH  13  16
ENDBRANCH   9  10
BRANCH   8  19
HETATM   19  C9  UNL     1      -5.058  -1.436  -1.064  1.00  0.00     0.031 A 
HETATM   20  C10 UNL     1      -4.309  -1.955  -2.128  1.00  0.00     0.072 A 
HETATM   21  C11 UNL     1      -4.926  -3.065  -2.651  1.00  0.00     0.142 A 
HETATM   22  N4  UNL     1      -6.018  -3.272  -1.971  1.00  0.00    -0.317 N 
HETATM   23  C12 UNL     1      -6.152  -2.318  -0.998  1.00  0.00     0.153 A 
ATOM     24  H4  UNL     1      -6.676  -4.033  -2.139  1.00  0.00     0.170 HD
BRANCH  21  25
HETATM   25  O2  UNL     1      -4.417  -3.816  -3.739  1.00  0.00    -0.346 OA
ATOM     26  H2  UNL     1      -4.844  -4.584  -4.101  1.00  0.00     0.219 HD
ENDBRANCH  21  25
BRANCH  23  27
HETATM   27  O3  UNL     1      -7.233  -2.323  -0.133  1.00  0.00    -0.345 OA
ATOM     28  H3  UNL     1      -7.972  -2.919  -0.088  1.00  0.00     0.219 HD
ENDBRANCH  23  27
ENDBRANCH   8  19
ENDBRANCH   3   8
BRANCH   1  29
HETATM   29  O1  UNL     1      -0.308   0.808  -2.021  1.00  0.00    -0.355 OA
HETATM   30  C1  UNL     1      -0.574   0.729  -3.379  1.00  0.00     0.210 C 
ENDBRANCH   1  29
BRANCH   7  31
HETATM   31  C16 UNL     1       0.831   1.116   0.456  1.00  0.00     0.159 C 
BRANCH  31  32
HETATM   32  N5  UNL     1       1.608   0.199  -0.305  1.00  0.00    -0.417 N 
ATOM     33  H5  UNL     1       1.140  -0.469  -0.918  1.00  0.00     0.153 HD
BRANCH  32  34
HETATM   34  C17 UNL     1       3.003   0.201  -0.225  1.00  0.00     0.118 C 
BRANCH  34  35
HETATM   35  C18 UNL     1       3.411  -0.458   1.116  1.00  0.00     0.058 C 
BRANCH  35  36
HETATM   36  C19 UNL     1       4.901  -0.465   1.092  1.00  0.00    -0.051 A 
HETATM   37  C20 UNL     1       5.717   0.349   1.823  1.00  0.00     0.047 A 
HETATM   38  C21 UNL     1       7.106   0.265   1.656  1.00  0.00     0.104 A 
HETATM   39  C23 UNL     1       7.662  -0.624   0.766  1.00  0.00     0.135 A 
HETATM   40  C25 UNL     1       6.834  -1.445   0.027  1.00  0.00     0.104 A 
HETATM   41  C27 UNL     1       5.454  -1.372   0.185  1.00  0.00     0.047 A 
BRANCH  38  42
HETATM   42  O4  UNL     1       7.950   1.072   2.388  1.00  0.00    -0.353 OA
HETATM   43  C22 UNL     1       7.395   1.977   3.317  1.00  0.00     0.210 C 
ENDBRANCH  38  42
BRANCH  39  44
HETATM   44  O5  UNL     1       9.007  -0.688   0.624  1.00  0.00    -0.351 OA
HETATM   45  C24 UNL     1       9.817   0.080  -0.213  1.00  0.00     0.210 C 
ENDBRANCH  39  44
BRANCH  40  46
HETATM   46  O6  UNL     1       7.398  -2.327  -0.867  1.00  0.00    -0.353 OA
HETATM   47  C26 UNL     1       6.527  -3.156  -1.627  1.00  0.00     0.210 C 
ENDBRANCH  40  46
ENDBRANCH  35  36
ENDBRANCH  34  35
ENDBRANCH  32  34
ENDBRANCH  31  32
ENDBRANCH   7  31
TORSDOF 15
