REMARK  3 active torsions:
REMARK  status: ('A' for Active; 'I' for Inactive)
REMARK    1  A    between atoms: O1_2  and  C2_3 
REMARK    2  A    between atoms: C4_9  and  N3_10 
REMARK       I    between atoms: N3_10  and  C5_12 
REMARK    3  A    between atoms: C6_15  and  N5_16 
ROOT
HETATM    1  C2  UNL     1       2.602   0.255   0.210  1.00  0.00     0.225 A 
HETATM    2  N1  UNL     1       1.481   0.690  -0.374  1.00  0.00    -0.306 N 
ATOM      3  H1  UNL     1       1.433   1.479  -1.019  1.00  0.00     0.171 HD
HETATM    4  C3  UNL     1       0.418  -0.058   0.006  1.00  0.00     0.143 A 
HETATM    5  N2  UNL     1      -0.851   0.126  -0.407  1.00  0.00    -0.323 N 
ATOM      6  H2  UNL     1      -0.993   0.881  -1.077  1.00  0.00     0.169 HD
HETATM    7  C4  UNL     1      -1.955  -0.555  -0.052  1.00  0.00     0.155 C 
HETATM    8  C6  UNL     1      -1.967  -1.767   0.611  1.00  0.00     0.147 C 
HETATM    9  N6  UNL     1      -1.029  -2.317   1.403  1.00  0.00    -0.305 N 
ATOM     10  H6  UNL     1      -1.354  -3.089   1.985  1.00  0.00     0.171 HD
HETATM   11  C7  UNL     1       0.272  -2.006   1.545  1.00  0.00     0.277 C 
HETATM   12  O3  UNL     1       0.973  -2.658   2.338  1.00  0.00    -0.265 OA
HETATM   13  C8  UNL     1       0.926  -1.004   0.874  1.00  0.00     0.148 A 
HETATM   14  N7  UNL     1       2.265  -0.805   0.993  1.00  0.00    -0.314 N 
ATOM     15  H7  UNL     1       2.904  -1.354   1.568  1.00  0.00     0.170 HD
ENDROOT
BRANCH   7  16
HETATM   16  N3  UNL     1      -3.112  -0.033  -0.357  1.00  0.00    -0.294 N 
HETATM   17  C5  UNL     1      -3.114   1.206  -1.036  1.00  0.00     0.334 C 
HETATM   18  N4  UNL     1      -2.964   2.444  -0.347  1.00  0.00    -0.040 NA
HETATM   19  O2  UNL     1      -3.249   1.243  -2.281  1.00  0.00    -0.251 OA
ATOM     20  H3  UNL     1      -3.984  -0.503  -0.114  1.00  0.00     0.172 HD
ENDBRANCH   7  16
BRANCH   8  21
HETATM   21  N5  UNL     1      -3.059  -2.467   0.431  1.00  0.00    -0.382 N 
ATOM     22  H52 UNL     1      -3.770  -2.050  -0.170  1.00  0.00     0.157 HD
ATOM     23  H51 UNL     1      -3.068  -3.362   0.920  1.00  0.00     0.157 HD
ENDBRANCH   8  21
BRANCH   1  24
HETATM   24  O1  UNL     1       3.910   0.736   0.097  1.00  0.00    -0.327 OA
HETATM   25  C1  UNL     1       4.160   1.846  -0.745  1.00  0.00     0.213 C 
ENDBRANCH   1  24
TORSDOF 3
