REMARK  14 active torsions:
REMARK  status: ('A' for Active; 'I' for Inactive)
REMARK    1  A    between atoms: C2_2  and  C3_3 
REMARK    2  A    between atoms: C3_3  and  C5_5 
REMARK    3  A    between atoms: C7_10  and  C8_11 
REMARK       I    between atoms: C8_11  and  N2_13 
REMARK    4  A    between atoms: N2_13  and  C9_15 
REMARK    5  A    between atoms: C9_15  and  C10_16 
REMARK    6  A    between atoms: C10_16  and  C11_17 
REMARK    7  A    between atoms: C11_17  and  N3_18 
REMARK    8  A    between atoms: C15_22  and  C16_23 
REMARK    9  A    between atoms: C16_23  and  C17_24 
REMARK   10  A    between atoms: C17_24  and  O3_25 
REMARK   11  A    between atoms: C24_33  and  O4_35 
REMARK   12  A    between atoms: C26_37  and  C27_38 
REMARK   13  A    between atoms: C30_42  and  C31_43 
REMARK   14  A    between atoms: C31_43  and  C32_44 
ROOT
HETATM    1  C5  UNL     1      -1.948  -2.699   0.794  1.00  0.00     0.180 C 
HETATM    2  N1  UNL     1      -1.121  -2.337  -0.337  1.00  0.00    -0.347 N 
ATOM      3  H1  UNL     1      -1.360  -2.713  -1.255  1.00  0.00     0.163 HD
HETATM    4  C6  UNL     1       0.020  -1.474  -0.227  1.00  0.00     0.231 C 
HETATM    5  O1  UNL     1       1.072  -1.745  -0.904  1.00  0.00    -0.273 OA
HETATM    6  C7  UNL     1       0.047  -0.271   0.639  1.00  0.00     0.169 C 
HETATM    7  C19 UNL     1      -1.025   0.740   0.282  1.00  0.00     0.026 C 
HETATM    8  C20 UNL     1      -1.758   1.236   1.506  1.00  0.00     0.039 C 
HETATM    9  C21 UNL     1      -3.234   1.556   1.195  1.00  0.00     0.063 C 
HETATM   10  C22 UNL     1      -3.552   2.772   2.088  1.00  0.00     0.041 C 
HETATM   11  C23 UNL     1      -2.968   4.018   1.473  1.00  0.00     0.043 C 
HETATM   12  C24 UNL     1      -3.529   4.287   0.070  1.00  0.00     0.080 C 
HETATM   13  C25 UNL     1      -4.735   5.236   0.243  1.00  0.00     0.048 C 
HETATM   14  C26 UNL     1      -3.990   2.996  -0.505  1.00  0.00     0.156 C 
HETATM   15  O5  UNL     1      -3.270   1.906  -0.110  1.00  0.00    -0.372 OA
HETATM   16  C29 UNL     1      -4.117   0.414   1.628  1.00  0.00     0.063 C 
HETATM   17  C30 UNL     1      -4.573  -0.482   0.483  1.00  0.00     0.087 C 
HETATM   18  N4  UNL     1      -4.417  -1.870   0.780  1.00  0.00    -0.355 N 
ATOM     19  H4  UNL     1      -5.173  -2.279   1.330  1.00  0.00     0.162 HD
HETATM   20  C35 UNL     1      -3.385  -2.765   0.434  1.00  0.00     0.241 C 
HETATM   21  O6  UNL     1      -3.648  -3.807  -0.290  1.00  0.00    -0.271 OA
ENDROOT
BRANCH   6  22
HETATM   22  C8  UNL     1       1.412   0.332   0.535  1.00  0.00     0.230 C 
HETATM   23  O2  UNL     1       2.082   0.460   1.577  1.00  0.00    -0.273 OA
HETATM   24  N2  UNL     1       1.968   0.756  -0.677  1.00  0.00    -0.360 N 
ATOM     25  H2  UNL     1       1.418   0.652  -1.529  1.00  0.00     0.162 HD
BRANCH  24  26
HETATM   26  C9  UNL     1       3.281   1.331  -0.772  1.00  0.00     0.124 C 
BRANCH  26  27
HETATM   27  C10 UNL     1       4.399   0.448  -0.328  1.00  0.00     0.050 C 
BRANCH  27  28
HETATM   28  C11 UNL     1       5.702   1.211  -0.503  1.00  0.00     0.274 C 
BRANCH  28  29
HETATM   29  N3  UNL     1       6.850   0.451  -0.100  1.00  0.00     0.088 N 
HETATM   30  C12 UNL     1       6.890   0.223   1.326  1.00  0.00     0.272 C 
HETATM   31  C13 UNL     1       8.285  -0.179   1.714  1.00  0.00     0.031 C 
HETATM   32  C14 UNL     1       8.699  -1.399   0.940  1.00  0.00     0.008 C 
HETATM   33  C15 UNL     1       8.488  -1.220  -0.560  1.00  0.00     0.016 C 
HETATM   34  C18 UNL     1       7.059  -0.768  -0.820  1.00  0.00     0.277 C 
BRANCH  33  35
HETATM   35  C16 UNL     1       9.496  -0.224  -1.067  1.00  0.00     0.032 C 
BRANCH  35  36
HETATM   36  C17 UNL     1       9.347   0.003  -2.546  1.00  0.00     0.164 C 
BRANCH  36  37
HETATM   37  O3  UNL     1       9.544  -1.225  -3.190  1.00  0.00    -0.401 OA
ATOM     38  H3  UNL     1       9.450  -1.082  -4.124  1.00  0.00     0.209 HD
ENDBRANCH  36  37
ENDBRANCH  35  36
ENDBRANCH  33  35
ENDBRANCH  28  29
ENDBRANCH  27  28
ENDBRANCH  26  27
ENDBRANCH  24  26
ENDBRANCH   6  22
BRANCH   1  39
HETATM   39  C3  UNL     1      -1.465  -3.910   1.529  1.00  0.00     0.013 C 
HETATM   40  C4  UNL     1      -0.170  -3.597   2.192  1.00  0.00     0.012 C 
BRANCH  39  41
HETATM   41  C2  UNL     1      -1.364  -5.183   0.792  1.00  0.00     0.002 C 
HETATM   42  C1  UNL     1      -0.329  -5.230  -0.302  1.00  0.00     0.005 C 
ENDBRANCH  39  41
ENDBRANCH   1  39
BRANCH  14  43
HETATM   43  C27 UNL     1      -3.976   2.981  -2.025  1.00  0.00     0.030 C 
HETATM   44  C28 UNL     1      -4.872   4.026  -2.620  1.00  0.00     0.007 C 
ENDBRANCH  14  43
BRANCH  17  45
HETATM   45  C31 UNL     1      -6.050  -0.115   0.288  1.00  0.00     0.029 C 
BRANCH  45  46
HETATM   46  C32 UNL     1      -6.736  -0.845  -0.804  1.00  0.00    -0.021 C 
HETATM   47  C33 UNL     1      -6.105  -0.651  -2.159  1.00  0.00     0.009 C 
HETATM   48  C34 UNL     1      -7.102  -2.257  -0.483  1.00  0.00     0.009 C 
ENDBRANCH  45  46
ENDBRANCH  17  45
BRANCH  12  49
HETATM   49  O4  UNL     1      -2.525   4.930  -0.611  1.00  0.00    -0.388 OA
ATOM     50  H4  UNL     1      -2.872   5.097  -1.479  1.00  0.00     0.210 HD
ENDBRANCH  12  49
TORSDOF 14
