REMARK  8 active torsions:
REMARK  status: ('A' for Active; 'I' for Inactive)
REMARK    1  A    between atoms: C2_2  and  C3_3 
REMARK    2  A    between atoms: C3_3  and  N1_4 
REMARK    3  A    between atoms: N1_4  and  C4_7 
REMARK    4  A    between atoms: C4_7  and  C5_8 
REMARK    5  A    between atoms: C5_8  and  N2_9 
REMARK    6  A    between atoms: N2_9  and  C6_12 
REMARK    7  A    between atoms: C6_12  and  C7_13 
REMARK    8  A    between atoms: C7_13  and  O1_14 
ROOT
HETATM    1  C7  UNL     1       1.272   0.722   0.856  1.00  0.00     0.089 C 
HETATM    2  C8  UNL     1       0.494   1.985   1.254  1.00  0.00     0.041 C 
HETATM    3  C9  UNL     1      -0.275   1.392   2.445  1.00  0.00     0.009 C 
HETATM    4  C10 UNL     1      -0.901   0.200   1.816  1.00  0.00     0.001 C 
HETATM    5  C11 UNL     1      -2.129   0.528   0.991  1.00  0.00    -0.005 C 
HETATM    6  C12 UNL     1      -3.190   1.144   1.888  1.00  0.00     0.006 C 
HETATM    7  C13 UNL     1      -4.345   1.514   0.991  1.00  0.00     0.006 C 
HETATM    8  C14 UNL     1      -4.912   0.382   0.231  1.00  0.00    -0.006 C 
HETATM    9  C15 UNL     1      -5.495   0.969  -1.065  1.00  0.00     0.005 C 
HETATM   10  C16 UNL     1      -5.317  -0.142  -2.052  1.00  0.00     0.001 C 
HETATM   11  C17 UNL     1      -3.951  -0.682  -1.666  1.00  0.00     0.010 C 
HETATM   12  C18 UNL     1      -4.020  -0.720  -0.133  1.00  0.00    -0.036 C 
HETATM   13  C19 UNL     1      -4.743  -2.043   0.177  1.00  0.00     0.016 C 
HETATM   14  C20 UNL     1      -2.689  -0.788   0.504  1.00  0.00    -0.002 C 
HETATM   15  C21 UNL     1      -1.634  -1.443  -0.352  1.00  0.00     0.007 C 
HETATM   16  C22 UNL     1      -0.379  -0.605  -0.471  1.00  0.00     0.013 C 
HETATM   17  C23 UNL     1       0.201  -0.304   0.875  1.00  0.00    -0.007 C 
HETATM   18  C24 UNL     1       0.778  -1.597   1.442  1.00  0.00     0.019 C 
ENDROOT
BRANCH   1  19
HETATM   19  C6  UNL     1       1.979   0.902  -0.454  1.00  0.00     0.270 C 
BRANCH  19  20
HETATM   20  N2  UNL     1       2.742  -0.307  -0.703  1.00  0.00    -0.071 N 
ATOM     21  H22 UNL     1       2.142  -1.131  -0.664  1.00  0.00     0.277 HD
ATOM     22  H21 UNL     1       3.361  -0.515   0.080  1.00  0.00     0.277 HD
BRANCH  20  23
HETATM   23  C5  UNL     1       3.475  -0.262  -1.940  1.00  0.00     0.260 C 
BRANCH  23  24
HETATM   24  C4  UNL     1       4.578   0.745  -1.872  1.00  0.00     0.260 C 
BRANCH  24  25
HETATM   25  N1  UNL     1       5.538   0.494  -0.845  1.00  0.00    -0.070 N 
ATOM     26  H12 UNL     1       5.089   0.445   0.070  1.00  0.00     0.277 HD
ATOM     27  H11 UNL     1       6.133   1.309  -0.695  1.00  0.00     0.277 HD
BRANCH  25  28
HETATM   28  C3  UNL     1       6.335  -0.691  -1.096  1.00  0.00     0.259 C 
BRANCH  28  29
HETATM   29  C2  UNL     1       7.325  -0.934  -0.027  1.00  0.00    -0.010 C 
HETATM   30  C1  UNL     1       8.609  -0.958  -0.322  1.00  0.00     0.008 C 
ENDBRANCH  28  29
ENDBRANCH  25  28
ENDBRANCH  24  25
ENDBRANCH  23  24
ENDBRANCH  20  23
ENDBRANCH  19  20
ENDBRANCH   1  19
BRANCH   1  31
HETATM   31  O1  UNL     1       2.186   0.513   1.875  1.00  0.00    -0.387 OA
ATOM     32  H1  UNL     1       1.738   0.399   2.705  1.00  0.00     0.210 HD
ENDBRANCH   1  31
TORSDOF 8
