REMARK  2 active torsions:
REMARK  status: ('A' for Active; 'I' for Inactive)
REMARK    1  A    between atoms: C2_2  and  C3_3 
REMARK    2  A    between atoms: C4_4  and  C5_5 
ROOT
HETATM    1  C5  UNL     1      -0.469   0.010   0.223  1.00  0.00     0.149 C 
HETATM    2  C6  UNL     1      -1.980   0.192   0.412  1.00  0.00     0.062 C 
HETATM    3  C7  UNL     1      -2.447   1.023  -0.767  1.00  0.00     0.173 C 
HETATM    4  O1  UNL     1      -1.747   2.225  -0.823  1.00  0.00    -0.367 OA
HETATM    5  C8  UNL     1      -0.384   2.018  -0.816  1.00  0.00     0.338 C 
HETATM    6  O2  UNL     1       0.076   1.293   0.265  1.00  0.00    -0.358 OA
ENDROOT
BRANCH   1   7
HETATM    7  C4  UNL     1       0.108  -0.815   1.288  1.00  0.00     0.005 C 
HETATM    8  C3  UNL     1       1.298  -1.367   1.202  1.00  0.00    -0.002 C 
BRANCH   8   9
HETATM    9  C2  UNL     1       2.136  -1.193   0.028  1.00  0.00    -0.010 C 
HETATM   10  C1  UNL     1       3.332  -1.731  -0.092  1.00  0.00     0.011 C 
ENDBRANCH   8   9
ENDBRANCH   1   7
TORSDOF 2
