REMARK  2 active torsions:
REMARK  status: ('A' for Active; 'I' for Inactive)
REMARK    1  A    between atoms: C3_3  and  O1_4 
REMARK    2  A    between atoms: O1_4  and  C4_5 
ROOT
HETATM    1  C4  UNL     1      -1.223   0.522   0.362  1.00  0.00     0.347 A 
HETATM    2  C5  UNL     1      -2.298   0.354   1.278  1.00  0.00     0.296 A 
HETATM    3  N1  UNL     1      -2.532  -0.004  -0.154  1.00  0.00    -0.043 N 
ATOM      4  H11 UNL     1      -2.854  -0.819  -0.676  1.00  0.00     0.280 HD
ATOM      5  H12 UNL     1      -3.199   0.244  -0.885  1.00  0.00     0.280 HD
ENDROOT
BRANCH   1   6
HETATM    6  O1  UNL     1      -0.183  -0.341   0.177  1.00  0.00    -0.352 OA
BRANCH   6   7
HETATM    7  C3  UNL     1       0.889   0.162  -0.516  1.00  0.00     0.124 A 
HETATM    8  C1  UNL     1       2.245  -0.201   0.127  1.00  0.00     0.034 A 
HETATM    9  C2  UNL     1       1.861  -0.670  -1.239  1.00  0.00     0.034 A 
ENDBRANCH   6   7
ENDBRANCH   1   6
TORSDOF 2
