REMARK  9 active torsions:
REMARK  status: ('A' for Active; 'I' for Inactive)
REMARK    1  A    between atoms: N1_1  and  C1_4 
REMARK    2  A    between atoms: C2_7  and  C3_8 
REMARK    3  A    between atoms: C3_8  and  C4_9 
REMARK    4  A    between atoms: C6_11  and  O1_12 
REMARK    5  A    between atoms: C8_15  and  O2_16 
REMARK    6  A    between atoms: C10_19  and  S1_20 
REMARK    7  A    between atoms: S1_20  and  C11_23 
REMARK    8  A    between atoms: C11_23  and  N3_24 
REMARK    9  A    between atoms: C11_23  and  N4_28 
ROOT
HETATM    1  C4  UNL     1      -0.084   0.188  -0.109  1.00  0.00     0.034 C 
HETATM    2  C5  UNL     1       1.083  -0.529  -0.501  1.00  0.00     0.018 A 
HETATM    3  C6  UNL     1       1.147  -1.711  -1.186  1.00  0.00     0.079 A 
HETATM    4  C7  UNL     1       2.366  -2.326  -1.520  1.00  0.00     0.074 A 
HETATM    5  C8  UNL     1       3.541  -1.731  -1.152  1.00  0.00     0.069 A 
HETATM    6  C9  UNL     1       3.497  -0.544  -0.465  1.00  0.00     0.061 A 
HETATM    7  C10 UNL     1       2.319   0.070  -0.131  1.00  0.00     0.078 A 
ENDROOT
BRANCH   1   8
HETATM    8  C3  UNL     1      -1.487  -0.199  -0.297  1.00  0.00     0.151 C 
HETATM    9  N5  UNL     1      -1.811  -0.167  -1.700  1.00  0.00    -0.340 N 
HETATM   10  C12 UNL     1      -2.820  -0.590  -2.379  1.00  0.00     0.192 C 
ATOM     11  H5  UNL     1      -1.096   0.282  -2.272  1.00  0.00     0.164 HD
HETATM   12  N6  UNL     1      -2.774  -0.364  -3.777  1.00  0.00    -0.063 NA
HETATM   13  N7  UNL     1      -3.952  -1.274  -1.867  1.00  0.00    -0.305 N 
HETATM   14  C13 UNL     1      -4.044  -1.935  -0.759  1.00  0.00     0.195 C 
ATOM     15  H7  UNL     1      -4.794  -1.241  -2.441  1.00  0.00     0.171 HD
HETATM   16  N8  UNL     1      -5.324  -2.541  -0.477  1.00  0.00    -0.063 NA
HETATM   17  N9  UNL     1      -3.031  -2.119   0.208  1.00  0.00    -0.320 N 
HETATM   18  C14 UNL     1      -1.961  -1.404   0.414  1.00  0.00     0.134 C 
ATOM     19  H9  UNL     1      -3.153  -2.919   0.829  1.00  0.00     0.169 HD
HETATM   20  N10 UNL     1      -1.198  -1.863   1.501  1.00  0.00    -0.084 NA
BRANCH   8  21
HETATM   21  C2  UNL     1      -2.321   0.986   0.319  1.00  0.00     0.057 A 
HETATM   22  N2  UNL     1      -2.497   1.058   1.624  1.00  0.00    -0.337 N 
HETATM   23  C1  UNL     1      -3.205   2.087   2.093  1.00  0.00     0.142 A 
ATOM     24  H2  UNL     1      -2.107   0.354   2.251  1.00  0.00     0.168 HD
HETATM   25  S2  UNL     1      -3.631   2.967   0.702  1.00  0.00    -0.064 SA
HETATM   26  C15 UNL     1      -2.863   1.949  -0.454  1.00  0.00     0.081 A 
BRANCH  23  27
HETATM   27  N1  UNL     1      -3.496   2.345   3.353  1.00  0.00    -0.380 N 
ATOM     28  H12 UNL     1      -3.240   1.817   4.187  1.00  0.00     0.158 HD
ATOM     29  H11 UNL     1      -4.037   3.132   3.712  1.00  0.00     0.158 HD
ENDBRANCH  23  27
ENDBRANCH   8  21
ENDBRANCH   1   8
BRANCH   3  30
HETATM   30  O1  UNL     1       0.030  -2.412  -1.616  1.00  0.00    -0.360 OA
ATOM     31  H1  UNL     1       0.074  -3.233  -2.092  1.00  0.00     0.217 HD
ENDBRANCH   3  30
BRANCH   7  32
HETATM   32  S1  UNL     1       2.420   1.586   0.725  1.00  0.00     0.231 S 
HETATM   33  O3  UNL     1       1.925   2.758  -0.109  1.00  0.00    -0.219 OA
HETATM   34  O4  UNL     1       1.705   1.605   2.027  1.00  0.00    -0.219 OA
BRANCH  32  35
HETATM   35  C11 UNL     1       4.150   1.996   1.051  1.00  0.00     0.502 C 
BRANCH  35  36
HETATM   36  N3  UNL     1       4.136   3.355   1.606  1.00  0.00    -0.036 N 
ATOM     37  H33 UNL     1       3.659   4.034   1.013  1.00  0.00     0.278 HD
ATOM     38  H32 UNL     1       3.530   3.458   2.420  1.00  0.00     0.278 HD
ATOM     39  H31 UNL     1       5.112   3.586   1.790  1.00  0.00     0.278 HD
ENDBRANCH  35  36
BRANCH  35  40
HETATM   40  N4  UNL     1       4.751   1.121   1.997  1.00  0.00    -0.036 N 
ATOM     41  H43 UNL     1       4.212   1.092   2.863  1.00  0.00     0.278 HD
ATOM     42  H42 UNL     1       4.653   0.147   1.709  1.00  0.00     0.278 HD
ATOM     43  H41 UNL     1       5.727   1.352   2.181  1.00  0.00     0.278 HD
ENDBRANCH  35  40
ENDBRANCH  32  35
ENDBRANCH   7  32
BRANCH   5  44
HETATM   44  O2  UNL     1       4.757  -2.313  -1.467  1.00  0.00    -0.361 OA
ATOM     45  H2  UNL     1       5.573  -1.900  -1.211  1.00  0.00     0.217 HD
ENDBRANCH   5  44
TORSDOF 9
