REMARK  6 active torsions:
REMARK  status: ('A' for Active; 'I' for Inactive)
REMARK       I    between atoms: C1_2  and  N1_3 
REMARK    1  A    between atoms: C1_2  and  C15_22 
REMARK    2  A    between atoms: N1_3  and  C2_5 
REMARK    3  A    between atoms: C5_8  and  C6_9 
REMARK    4  A    between atoms: C20_27  and  O2_28 
REMARK    5  A    between atoms: O2_28  and  C21_29 
REMARK    6  A    between atoms: C21_29  and  C22_30 
ROOT
HETATM    1  O1  UNL     1       0.614  -3.252   1.238  1.00  0.00    -0.267 OA
HETATM    2  C1  UNL     1       1.498  -2.452   0.778  1.00  0.00     0.259 C 
HETATM    3  N1  UNL     1       1.029  -1.234   0.320  1.00  0.00    -0.323 N 
ATOM      4  H1  UNL     1       1.718  -0.586  -0.061  1.00  0.00     0.169 HD
ENDROOT
BRANCH   3   5
HETATM    5  C2  UNL     1      -0.349  -0.795   0.331  1.00  0.00     0.035 A 
HETATM    6  C3  UNL     1      -1.289  -1.237   1.200  1.00  0.00     0.030 A 
HETATM    7  C4  UNL     1      -2.618  -0.772   1.106  1.00  0.00     0.017 A 
HETATM    8  C5  UNL     1      -3.016   0.131   0.153  1.00  0.00     0.008 A 
HETATM    9  C13 UNL     1      -2.056   0.581  -0.729  1.00  0.00     0.017 A 
HETATM   10  C14 UNL     1      -0.756   0.132  -0.645  1.00  0.00     0.030 A 
BRANCH   8  11
HETATM   11  C6  UNL     1      -4.391   0.610   0.058  1.00  0.00     0.116 A 
HETATM   12  N2  UNL     1      -5.408   0.244   0.859  1.00  0.00    -0.340 N 
HETATM   13  C7  UNL     1      -6.539   0.876   0.492  1.00  0.00     0.060 A 
ATOM     14  H2  UNL     1      -5.333  -0.417   1.632  1.00  0.00     0.167 HD
HETATM   15  C8  UNL     1      -7.831   0.866   0.959  1.00  0.00     0.032 A 
HETATM   16  C12 UNL     1      -6.226   1.682  -0.593  1.00  0.00     0.060 A 
HETATM   17  C9  UNL     1      -8.810   1.632   0.376  1.00  0.00     0.002 A 
HETATM   18  C10 UNL     1      -8.497   2.437  -0.707  1.00  0.00     0.002 A 
HETATM   19  C11 UNL     1      -7.211   2.459  -1.187  1.00  0.00     0.032 A 
HETATM   20  N3  UNL     1      -4.918   1.484  -0.813  1.00  0.00    -0.340 N 
ATOM     21  H3  UNL     1      -4.387   1.943  -1.554  1.00  0.00     0.167 HD
ENDBRANCH   8  11
ENDBRANCH   3   5
BRANCH   2  22
HETATM   22  C15 UNL     1       2.866  -2.900   0.787  1.00  0.00     0.065 A 
HETATM   23  C16 UNL     1       3.116  -4.203   1.308  1.00  0.00     0.020 A 
HETATM   24  C17 UNL     1       4.367  -4.740   1.370  1.00  0.00     0.001 A 
HETATM   25  C18 UNL     1       5.435  -4.016   0.920  1.00  0.00     0.003 A 
HETATM   26  C19 UNL     1       5.210  -2.762   0.416  1.00  0.00     0.038 A 
HETATM   27  C20 UNL     1       3.936  -2.187   0.341  1.00  0.00     0.084 A 
BRANCH  27  28
HETATM   28  O2  UNL     1       3.784  -0.922  -0.177  1.00  0.00    -0.346 OA
BRANCH  28  29
HETATM   29  C21 UNL     1       4.910  -0.221  -0.625  1.00  0.00     0.214 C 
BRANCH  29  30
HETATM   30  C22 UNL     1       4.583   1.116  -1.151  1.00  0.00    -0.034 A 
HETATM   31  C23 UNL     1       4.564   2.222  -0.342  1.00  0.00     0.009 A 
HETATM   32  C24 UNL     1       4.257   3.483  -0.831  1.00  0.00     0.001 A 
HETATM   33  C25 UNL     1       3.963   3.640  -2.153  1.00  0.00     0.000 A 
HETATM   34  C26 UNL     1       3.977   2.535  -2.988  1.00  0.00     0.001 A 
HETATM   35  C27 UNL     1       4.289   1.266  -2.481  1.00  0.00     0.009 A 
ENDBRANCH  29  30
ENDBRANCH  28  29
ENDBRANCH  27  28
ENDBRANCH   2  22
TORSDOF 6
