REMARK  4 active torsions:
REMARK  status: ('A' for Active; 'I' for Inactive)
REMARK    1  A    between atoms: N2_3  and  C2_4 
REMARK    2  A    between atoms: N2_3  and  N9_19 
REMARK    3  A    between atoms: C3_7  and  N4_8 
REMARK    4  A    between atoms: N5_11  and  N6_12 
ROOT
HETATM    1  N1  UNL     1      -0.986  -3.902   0.793  1.00  0.00    -0.170 NA
HETATM    2  C1  UNL     1      -0.885  -2.747   0.584  1.00  0.00     0.207 C 
HETATM    3  N2  UNL     1      -0.786  -1.391   0.351  1.00  0.00    -0.166 N 
ENDROOT
BRANCH   3   4
HETATM    4  C2  UNL     1       0.471  -0.747   0.392  1.00  0.00     0.181 A 
HETATM    5  N3  UNL     1       0.883  -0.354   1.624  1.00  0.00    -0.171 N 
HETATM    6  C3  UNL     1       2.062   0.306   1.758  1.00  0.00     0.700 A 
ATOM      7  H3  UNL     1       0.310  -0.553   2.444  1.00  0.00     0.186 HD
HETATM    8  N5  UNL     1       2.820   0.576   0.689  1.00  0.00    -0.077 N 
HETATM    9  C4  UNL     1       2.443   0.200  -0.556  1.00  0.00     0.183 A 
HETATM   10  N7  UNL     1       3.237   0.507  -1.690  1.00  0.00    -0.078 NA
HETATM   11  C5  UNL     1       1.246  -0.476  -0.703  1.00  0.00     0.137 A 
HETATM   12  N8  UNL     1       0.847  -0.917  -1.973  1.00  0.00    -0.095 NA
BRANCH   6  13
HETATM   13  N4  UNL     1       2.483   0.672   2.932  1.00  0.00    -0.233 N 
ATOM     14  H42 UNL     1       1.905   0.466   3.747  1.00  0.00     0.174 HD
ATOM     15  H41 UNL     1       3.369   1.168   3.033  1.00  0.00     0.174 HD
ENDBRANCH   6  13
BRANCH   8  16
HETATM   16  N6  UNL     1       4.029   1.255   0.844  1.00  0.00    -0.323 N 
ATOM     17  H62 UNL     1       4.313   1.538   1.782  1.00  0.00     0.178 HD
ATOM     18  H61 UNL     1       4.607   1.461   0.029  1.00  0.00     0.178 HD
ENDBRANCH   8  16
ENDBRANCH   3   4
BRANCH   3  19
HETATM   19  N9  UNL     1      -1.966  -0.666   0.090  1.00  0.00    -0.244 N 
HETATM   20  C6  UNL     1      -2.491  -0.190  -1.157  1.00  0.00     0.154 C 
HETATM   21  C7  UNL     1      -3.597   0.776  -0.762  1.00  0.00     0.031 C 
HETATM   22  C8  UNL     1      -3.443   1.033   0.697  1.00  0.00     0.106 C 
HETATM   23  C9  UNL     1      -2.868  -0.283   1.153  1.00  0.00     0.239 C 
HETATM   24  O1  UNL     1      -3.106  -0.916   2.208  1.00  0.00    -0.272 OA
ENDBRANCH   3  19
TORSDOF 4
