REMARK  10 active torsions:
REMARK  status: ('A' for Active; 'I' for Inactive)
REMARK    1  A    between atoms: C2_2  and  C3_3 
REMARK    2  A    between atoms: C2_2  and  N3_21 
REMARK    3  A    between atoms: C3_3  and  C4_4 
REMARK    4  A    between atoms: C4_4  and  C5_5 
REMARK    5  A    between atoms: C5_5  and  C6_6 
REMARK    6  A    between atoms: C6_6  and  N1_7 
REMARK       I    between atoms: N1_7  and  C7_8 
REMARK    7  A    between atoms: C7_8  and  C8_10 
REMARK    8  A    between atoms: C26_33  and  O2_34 
REMARK    9  A    between atoms: C27_36  and  C29_38 
REMARK   10  A    between atoms: C29_38  and  O3_39 
ROOT
HETATM    1  N3  UNL     1      -1.247  -1.479  -0.538  1.00  0.00    -0.392 N 
ATOM      2  H3  UNL     1      -0.965  -0.728  -1.168  1.00  0.00     0.159 HD
HETATM    3  C16 UNL     1      -2.453  -1.460  -0.209  1.00  0.00    -0.017 C 
HETATM    4  C17 UNL     1      -3.155  -2.414   0.689  1.00  0.00     0.052 C 
HETATM    5  C18 UNL     1      -4.419  -2.923   0.080  1.00  0.00     0.010 C 
HETATM    6  C19 UNL     1      -5.130  -1.860  -0.750  1.00  0.00    -0.009 C 
HETATM    7  C20 UNL     1      -6.571  -2.166  -0.717  1.00  0.00     0.006 C 
HETATM    8  C21 UNL     1      -7.482  -1.004  -0.721  1.00  0.00     0.010 C 
HETATM    9  C22 UNL     1      -6.842   0.258  -1.310  1.00  0.00    -0.039 C 
HETATM   10  C23 UNL     1      -6.412  -0.158  -2.730  1.00  0.00     0.015 C 
HETATM   11  C24 UNL     1      -7.885   1.290  -1.409  1.00  0.00     0.012 C 
HETATM   12  C25 UNL     1      -7.690   2.566  -0.689  1.00  0.00     0.033 C 
HETATM   13  C26 UNL     1      -6.357   2.844  -0.109  1.00  0.00     0.128 C 
HETATM   14  C27 UNL     1      -5.826   1.590   0.555  1.00  0.00     0.008 C 
HETATM   15  C28 UNL     1      -6.760   1.080   1.620  1.00  0.00     0.020 C 
HETATM   16  C30 UNL     1      -5.597   0.622  -0.583  1.00  0.00     0.011 C 
HETATM   17  C31 UNL     1      -4.692  -0.530  -0.243  1.00  0.00     0.001 C 
HETATM   18  C32 UNL     1      -3.296  -0.343  -0.783  1.00  0.00     0.057 C 
ENDROOT
BRANCH   1  19
HETATM   19  C2  UNL     1      -0.216  -2.366  -0.182  1.00  0.00     0.077 C 
HETATM   20  C1  UNL     1      -0.342  -3.602  -1.080  1.00  0.00     0.032 C 
BRANCH  19  21
HETATM   21  C3  UNL     1       1.140  -1.760  -0.534  1.00  0.00     0.025 C 
BRANCH  21  22
HETATM   22  C4  UNL     1       1.419  -0.535   0.271  1.00  0.00     0.008 C 
BRANCH  22  23
HETATM   23  C5  UNL     1       2.691   0.167  -0.036  1.00  0.00     0.060 C 
BRANCH  23  24
HETATM   24  C6  UNL     1       3.953  -0.650   0.160  1.00  0.00     0.159 C 
BRANCH  24  25
HETATM   25  N1  UNL     1       5.103   0.075  -0.124  1.00  0.00    -0.387 NA
HETATM   26  C7  UNL     1       6.218   0.778  -0.401  1.00  0.00     0.297 C 
HETATM   27  O1  UNL     1       6.486   1.308  -1.535  1.00  0.00    -0.257 OA
BRANCH  26  28
HETATM   28  C8  UNL     1       7.317   1.030   0.618  1.00  0.00     0.130 C 
HETATM   29  C9  UNL     1       8.371   1.930   0.027  1.00  0.00     0.055 C 
HETATM   30  C10 UNL     1       9.618   1.521   0.738  1.00  0.00     0.120 C 
HETATM   31  C11 UNL     1      10.830   1.534  -0.174  1.00  0.00     0.046 C 
HETATM   32  C12 UNL     1       9.812   2.466   1.922  1.00  0.00     0.046 C 
HETATM   33  N2  UNL     1       9.425   0.203   1.256  1.00  0.00    -0.058 N 
HETATM   34  C13 UNL     1       8.115  -0.247   0.851  1.00  0.00     0.132 C 
ATOM     35  H22 UNL     1      10.166  -0.442   0.981  1.00  0.00     0.279 HD
ATOM     36  H21 UNL     1       9.566   0.151   2.265  1.00  0.00     0.279 HD
HETATM   37  C14 UNL     1       7.537  -1.088   1.964  1.00  0.00     0.047 C 
HETATM   38  C15 UNL     1       8.231  -1.009  -0.426  1.00  0.00     0.047 C 
ENDBRANCH  26  28
ENDBRANCH  24  25
ENDBRANCH  23  24
ENDBRANCH  22  23
ENDBRANCH  21  22
ENDBRANCH  19  21
ENDBRANCH   1  19
BRANCH  14  39
HETATM   39  C29 UNL     1      -4.546   1.987   1.232  1.00  0.00     0.176 C 
BRANCH  39  40
HETATM   40  O3  UNL     1      -4.848   2.978   2.166  1.00  0.00    -0.400 OA
ATOM     41  H3  UNL     1      -4.038   3.229   2.594  1.00  0.00     0.209 HD
ENDBRANCH  39  40
ENDBRANCH  14  39
BRANCH  13  42
HETATM   42  O2  UNL     1      -6.437   3.935   0.726  1.00  0.00    -0.395 OA
ATOM     43  H2  UNL     1      -5.581   4.113   1.098  1.00  0.00     0.210 HD
ENDBRANCH  13  42
TORSDOF 10
