REMARK  9 active torsions:
REMARK  status: ('A' for Active; 'I' for Inactive)
REMARK    1  A    between atoms: N1_1  and  C1_5 
REMARK    2  A    between atoms: C1_5  and  C2_6 
REMARK    3  A    between atoms: C2_6  and  N2_7 
REMARK    4  A    between atoms: N2_7  and  C3_9 
REMARK    5  A    between atoms: C4_14  and  C5_15 
REMARK    6  A    between atoms: C6_20  and  N7_21 
REMARK       I    between atoms: N7_21  and  C7_23 
REMARK    7  A    between atoms: C7_23  and  C8_25 
REMARK    8  A    between atoms: C9_29  and  N8_30 
REMARK    9  A    between atoms: N8_30  and  N9_32 
ROOT
HETATM    1  C3  UNL     1      -2.256  -1.148  -0.903  1.00  0.00     0.694 A 
HETATM    2  N3  UNL     1      -1.369  -2.126  -1.048  1.00  0.00    -0.132 N 
ATOM      3  H3  UNL     1      -1.693  -3.016  -1.426  1.00  0.00     0.205 HD
HETATM    4  N4  UNL     1      -0.086  -2.013  -0.730  1.00  0.00    -0.280 N 
ATOM      5  H4  UNL     1       0.549  -2.800  -0.864  1.00  0.00     0.188 HD
HETATM    6  C4  UNL     1       0.368  -0.852  -0.229  1.00  0.00     0.130 A 
HETATM    7  C9  UNL     1      -0.519   0.180  -0.065  1.00  0.00     0.166 A 
HETATM    8  N10 UNL     1      -1.822   0.029  -0.402  1.00  0.00    -0.172 N 
ATOM      9  H10 UNL     1      -2.475   0.803  -0.278  1.00  0.00     0.186 HD
ENDROOT
BRANCH   6  10
HETATM   10  C5  UNL     1       1.770  -0.662   0.142  1.00  0.00     0.124 A 
HETATM   11  N5  UNL     1       2.308   0.437   0.639  1.00  0.00    -0.290 N 
HETATM   12  N6  UNL     1       3.544   0.478   0.922  1.00  0.00    -0.279 N 
ATOM     13  H5  UNL     1       1.725   1.259   0.797  1.00  0.00     0.188 HD
HETATM   14  C6  UNL     1       4.289  -0.613   0.707  1.00  0.00     0.168 A 
ATOM     15  H6  UNL     1       3.962   1.326   1.306  1.00  0.00     0.189 HD
HETATM   16  S1  UNL     1       3.125  -1.698   0.079  1.00  0.00    -0.031 SA
BRANCH  14  17
HETATM   17  N7  UNL     1       5.568  -0.779   0.929  1.00  0.00    -0.297 N 
HETATM   18  C7  UNL     1       6.288   0.300   1.459  1.00  0.00     0.324 C 
HETATM   19  O1  UNL     1       6.329   0.479   2.690  1.00  0.00    -0.260 OA
ATOM     20  H7  UNL     1       6.027  -1.666   0.723  1.00  0.00     0.171 HD
BRANCH  18  21
HETATM   21  C8  UNL     1       6.985   1.207   0.574  1.00  0.00     0.270 C 
HETATM   22  O2  UNL     1       6.977   1.073  -0.685  1.00  0.00    -0.640 OA
HETATM   23  O3  UNL     1       7.720   2.302   1.048  1.00  0.00    -0.640 OA
ENDBRANCH  18  21
ENDBRANCH  14  17
ENDBRANCH   6  10
BRANCH   7  24
HETATM   24  N8  UNL     1      -0.075   1.296   0.417  1.00  0.00    -0.290 N 
ATOM     25  H8  UNL     1       0.908   1.403   0.667  1.00  0.00     0.188 HD
BRANCH  24  26
HETATM   26  N9  UNL     1      -0.976   2.352   0.586  1.00  0.00    -0.344 N 
ATOM     27  H92 UNL     1      -1.956   2.229   0.331  1.00  0.00     0.176 HD
ATOM     28  H91 UNL     1      -0.626   3.232   0.966  1.00  0.00     0.176 HD
ENDBRANCH  24  26
ENDBRANCH   7  24
BRANCH   1  29
HETATM   29  N2  UNL     1      -3.503  -1.246  -1.209  1.00  0.00    -0.223 N 
ATOM     30  H2  UNL     1      -3.845  -2.128  -1.589  1.00  0.00     0.177 HD
BRANCH  29  31
HETATM   31  C2  UNL     1      -4.427  -0.171  -1.038  1.00  0.00     0.165 C 
BRANCH  31  32
HETATM   32  C1  UNL     1      -5.852  -0.710  -1.169  1.00  0.00     0.249 C 
BRANCH  32  33
HETATM   33  N1  UNL     1      -6.096  -1.720  -0.155  1.00  0.00    -0.078 N 
ATOM     34  H13 UNL     1      -5.401  -2.466  -0.183  1.00  0.00     0.274 HD
ATOM     35  H12 UNL     1      -5.903  -1.373   0.785  1.00  0.00     0.274 HD
ATOM     36  H11 UNL     1      -7.047  -2.080  -0.242  1.00  0.00     0.274 HD
ENDBRANCH  32  33
ENDBRANCH  31  32
ENDBRANCH  29  31
ENDBRANCH   1  29
TORSDOF 9
