REMARK  4 active torsions:
REMARK  status: ('A' for Active; 'I' for Inactive)
REMARK    1  A    between atoms: C1_2  and  N2_4 
REMARK    2  A    between atoms: N2_4  and  N3_6 
REMARK       I    between atoms: N3_6  and  C2_8 
REMARK    3  A    between atoms: C2_8  and  C3_10 
REMARK    4  A    between atoms: C3_10  and  N4_11 
ROOT
HETATM    1  N4  UNL     1      -0.972  -1.010  -0.414  1.00  0.00    -0.319 N 
HETATM    2  C4  UNL     1      -1.128  -0.942  -1.749  1.00  0.00     0.185 A 
HETATM    3  N5  UNL     1      -2.302  -0.355  -2.033  1.00  0.00    -0.349 N 
ATOM      4  H5  UNL     1      -2.677  -0.179  -2.965  1.00  0.00     0.166 HD
HETATM    5  C5  UNL     1      -2.900  -0.039  -0.857  1.00  0.00     0.077 A 
HETATM    6  C6  UNL     1      -4.124   0.576  -0.576  1.00  0.00     0.035 A 
HETATM    7  C7  UNL     1      -4.423   0.733   0.760  1.00  0.00     0.019 A 
HETATM    8  C8  UNL     1      -3.606   0.329   1.788  1.00  0.00     0.090 A 
HETATM    9  N6  UNL     1      -2.449  -0.252   1.433  1.00  0.00    -0.350 N 
ATOM     10  H6  UNL     1      -1.820  -0.563   2.174  1.00  0.00     0.166 HD
HETATM   11  C9  UNL     1      -2.073  -0.446   0.164  1.00  0.00     0.136 A 
ENDROOT
BRANCH   1  12
HETATM   12  C3  UNL     1       0.105  -1.556   0.351  1.00  0.00     0.235 C 
BRANCH  12  13
HETATM   13  C2  UNL     1       1.231  -0.677   0.646  1.00  0.00     0.254 C 
HETATM   14  N3  UNL     1       2.516  -0.857   0.068  1.00  0.00    -0.267 N 
ATOM     15  H3  UNL     1       2.620  -1.636  -0.582  1.00  0.00     0.190 HD
HETATM   16  O1  UNL     1       1.064   0.287   1.452  1.00  0.00    -0.270 OA
BRANCH  14  17
HETATM   17  N2  UNL     1       3.635  -0.089   0.294  1.00  0.00    -0.276 N 
ATOM     18  H2  UNL     1       4.438  -0.576   0.691  1.00  0.00     0.189 HD
BRANCH  17  19
HETATM   19  C1  UNL     1       3.809   1.287   0.045  1.00  0.00     0.199 C 
HETATM   20  N1  UNL     1       5.047   1.953   0.333  1.00  0.00    -0.068 NA
HETATM   21  S1  UNL     1       2.590   2.162  -0.591  1.00  0.00    -0.043 SA
ENDBRANCH  17  19
ENDBRANCH  14  17
ENDBRANCH  12  13
ENDBRANCH   1  12
TORSDOF 4
