REMARK  4 active torsions:
REMARK  status: ('A' for Active; 'I' for Inactive)
REMARK    1  A    between atoms: C5_5  and  S1_6 
REMARK    2  A    between atoms: S1_6  and  N1_9 
REMARK    3  A    between atoms: N1_9  and  C6_11 
REMARK    4  A    between atoms: C10_17  and  C11_18 
ROOT
HETATM    1  C6  UNL     1       1.020  -1.955   1.878  1.00  0.00     0.044 A 
HETATM    2  C7  UNL     1       0.767  -0.904   2.753  1.00  0.00     0.032 A 
HETATM    3  C8  UNL     1      -0.270  -0.025   2.548  1.00  0.00     0.034 A 
HETATM    4  C9  UNL     1      -1.075  -0.200   1.442  1.00  0.00     0.060 A 
HETATM    5  N2  UNL     1      -2.161   0.481   0.963  1.00  0.00    -0.339 N 
ATOM      6  H2  UNL     1      -2.569   1.303   1.409  1.00  0.00     0.167 HD
HETATM    7  C10 UNL     1      -2.612  -0.065  -0.151  1.00  0.00     0.136 A 
HETATM    8  N5  UNL     1      -1.783  -1.124  -0.381  1.00  0.00    -0.339 N 
ATOM      9  H5  UNL     1      -1.866  -1.759  -1.175  1.00  0.00     0.167 HD
HETATM   10  C18 UNL     1      -0.850  -1.222   0.568  1.00  0.00     0.062 A 
HETATM   11  C19 UNL     1       0.207  -2.098   0.798  1.00  0.00     0.062 A 
ENDROOT
BRANCH   1  12
HETATM   12  N1  UNL     1       2.110  -2.843   2.127  1.00  0.00    -0.281 N 
ATOM     13  H1  UNL     1       2.247  -3.217   3.066  1.00  0.00     0.179 HD
BRANCH  12  14
HETATM   14  S1  UNL     1       3.193  -3.293   0.878  1.00  0.00     0.263 S 
HETATM   15  O1  UNL     1       4.246  -4.259   1.413  1.00  0.00    -0.200 OA
HETATM   16  O2  UNL     1       2.477  -4.028  -0.202  1.00  0.00    -0.200 OA
BRANCH  14  17
HETATM   17  C5  UNL     1       4.001  -1.842   0.278  1.00  0.00     0.079 A 
HETATM   18  C4  UNL     1       3.483  -1.103  -0.755  1.00  0.00     0.026 A 
HETATM   19  C3  UNL     1       4.150   0.035  -1.200  1.00  0.00     0.008 A 
HETATM   20  C2  UNL     1       5.336   0.451  -0.625  1.00  0.00    -0.062 A 
HETATM   21  C1  UNL     1       6.054   1.681  -1.108  1.00  0.00     0.048 C 
HETATM   22  C21 UNL     1       5.848  -0.299   0.413  1.00  0.00     0.008 A 
HETATM   23  C20 UNL     1       5.194  -1.428   0.860  1.00  0.00     0.026 A 
ENDBRANCH  14  17
ENDBRANCH  12  14
ENDBRANCH   1  12
BRANCH   7  24
HETATM   24  C11 UNL     1      -3.727   0.313  -0.998  1.00  0.00     0.104 A 
HETATM   25  N3  UNL     1      -4.060  -0.384  -2.146  1.00  0.00    -0.296 N 
HETATM   26  N4  UNL     1      -5.093   0.153  -2.723  1.00  0.00    -0.299 N 
ATOM     27  H3  UNL     1      -3.563  -1.205  -2.491  1.00  0.00     0.187 HD
HETATM   28  C12 UNL     1      -5.526   1.218  -2.037  1.00  0.00     0.060 A 
ATOM     29  H4  UNL     1      -5.518  -0.191  -3.584  1.00  0.00     0.187 HD
HETATM   30  C13 UNL     1      -6.538   2.130  -2.178  1.00  0.00     0.032 A 
HETATM   31  C17 UNL     1      -4.652   1.311  -0.944  1.00  0.00     0.024 A 
HETATM   32  C14 UNL     1      -6.719   3.145  -1.261  1.00  0.00     0.002 A 
HETATM   33  C15 UNL     1      -5.886   3.261  -0.188  1.00  0.00     0.001 A 
HETATM   34  C16 UNL     1      -4.853   2.330  -0.046  1.00  0.00     0.016 A 
ENDBRANCH   7  24
TORSDOF 4
