REMARK  6 active torsions:
REMARK  status: ('A' for Active; 'I' for Inactive)
REMARK    1  A    between atoms: N2_8  and  C7_9 
REMARK    2  A    between atoms: C7_9  and  C8_10 
REMARK    3  A    between atoms: C8_10  and  C9_11 
REMARK    4  A    between atoms: C9_11  and  C10_12 
REMARK    5  A    between atoms: C16_25  and  C17_26 
REMARK    6  A    between atoms: C20_29  and  N6_30 
ROOT
HETATM    1  C1  UNL     1      -1.277   0.799   4.439  1.00  0.00     0.046 C 
HETATM    2  C2  UNL     1      -2.066   0.194   3.341  1.00  0.00    -0.055 C 
HETATM    3  C3  UNL     1      -2.741  -0.499   2.522  1.00  0.00     0.046 C 
HETATM    4  C4  UNL     1      -3.058  -1.954   2.805  1.00  0.00     0.126 C 
HETATM    5  N1  UNL     1      -1.913  -2.758   2.648  1.00  0.00    -0.322 N 
HETATM    6  C5  UNL     1      -0.936  -2.792   3.661  1.00  0.00     0.098 C 
HETATM    7  C6  UNL     1       0.251  -2.185   2.960  1.00  0.00     0.289 C 
HETATM    8  N2  UNL     1      -0.155  -1.927   1.563  1.00  0.00    -0.028 N 
HETATM    9  C14 UNL     1      -1.196  -2.876   1.466  1.00  0.00     0.300 C 
HETATM   10  C15 UNL     1      -0.124  -0.662   1.093  1.00  0.00     0.257 C 
HETATM   11  C16 UNL     1      -0.992   0.509   1.022  1.00  0.00     0.008 C 
HETATM   12  C26 UNL     1      -2.264   0.074   0.279  1.00  0.00     0.131 C 
HETATM   13  N7  UNL     1      -3.330   0.077   1.344  1.00  0.00    -0.388 N 
ATOM     14  H7  UNL     1      -4.285   0.421   1.248  1.00  0.00     0.159 HD
HETATM   15  C27 UNL     1      -1.473   1.283   2.167  1.00  0.00     0.049 C 
ENDROOT
BRANCH   8  16
HETATM   16  C7  UNL     1       1.002  -2.615   0.887  1.00  0.00     0.245 C 
BRANCH  16  17
HETATM   17  C8  UNL     1       0.861  -2.930  -0.529  1.00  0.00     0.036 C 
BRANCH  17  18
HETATM   18  C9  UNL     1       2.123  -3.667  -0.983  1.00  0.00     0.078 C 
BRANCH  18  19
HETATM   19  C10 UNL     1       3.361  -2.912  -0.898  1.00  0.00     0.082 A 
HETATM   20  N3  UNL     1       4.545  -3.511  -0.946  1.00  0.00    -0.332 N 
HETATM   21  C11 UNL     1       5.734  -2.915  -0.893  1.00  0.00     0.101 A 
ATOM     22  H3  UNL     1       4.543  -4.527  -1.032  1.00  0.00     0.168 HD
HETATM   23  N4  UNL     1       6.840  -3.557  -0.932  1.00  0.00    -0.385 N 
HETATM   24  C12 UNL     1       5.751  -1.515  -0.775  1.00  0.00     0.065 A 
ATOM     25  H42 UNL     1       6.828  -4.573  -1.018  1.00  0.00     0.157 HD
ATOM     26  H41 UNL     1       7.751  -3.100  -0.891  1.00  0.00     0.157 HD
HETATM   27  C13 UNL     1       4.535  -0.877  -0.725  1.00  0.00     0.093 A 
HETATM   28  N5  UNL     1       3.382  -1.581  -0.787  1.00  0.00    -0.356 N 
ATOM     29  H5  UNL     1       2.496  -1.077  -0.748  1.00  0.00     0.166 HD
ENDBRANCH  18  19
ENDBRANCH  17  18
ENDBRANCH  16  17
ENDBRANCH   8  16
BRANCH  11  30
HETATM   30  C17 UNL     1      -0.235   1.593   0.213  1.00  0.00     0.001 C 
HETATM   31  C18 UNL     1      -0.896   2.910   0.164  1.00  0.00     0.034 C 
HETATM   32  C19 UNL     1      -1.451   3.352  -1.170  1.00  0.00     0.006 C 
HETATM   33  C20 UNL     1      -0.776   3.104  -2.260  1.00  0.00     0.109 C 
HETATM   34  C24 UNL     1       0.498   2.368  -2.061  1.00  0.00     0.065 C 
HETATM   35  C25 UNL     1       0.343   1.214  -1.073  1.00  0.00     0.011 C 
BRANCH  33  36
HETATM   36  N6  UNL     1      -1.256   3.504  -3.525  1.00  0.00    -0.053 N 
HETATM   37  C21 UNL     1      -0.702   2.699  -4.599  1.00  0.00     0.278 C 
HETATM   38  C22 UNL     1      -2.688   3.531  -3.664  1.00  0.00     0.278 C 
HETATM   39  C23 UNL     1      -0.787   4.883  -3.787  1.00  0.00     0.278 C 
ENDBRANCH  33  36
ENDBRANCH  11  30
TORSDOF 6
