REMARK  4 active torsions:
REMARK  status: ('A' for Active; 'I' for Inactive)
REMARK    1  A    between atoms: C3_8  and  S1_9 
REMARK    2  A    between atoms: S1_9  and  C4_10 
REMARK    3  A    between atoms: C4_10  and  N4_11 
REMARK    4  A    between atoms: C4_10  and  N5_15 
ROOT
HETATM    1  S1  UNL     1      -0.831  -1.043   0.361  1.00  0.00    -0.048 SA
ENDROOT
BRANCH   1   2
HETATM    2  C3  UNL     1       0.805  -0.434   0.638  1.00  0.00     0.116 A 
HETATM    3  C1  UNL     1       1.806  -0.454  -0.335  1.00  0.00     0.151 A 
HETATM    4  N1  UNL     1       1.680  -0.957  -1.649  1.00  0.00    -0.080 NA
HETATM    5  N2  UNL     1       2.919   0.076   0.167  1.00  0.00    -0.339 N 
HETATM    6  C2  UNL     1       2.641   0.430   1.435  1.00  0.00     0.182 A 
ATOM      7  H2  UNL     1       3.810   0.191  -0.316  1.00  0.00     0.167 HD
HETATM    8  N3  UNL     1       1.358   0.119   1.717  1.00  0.00    -0.344 N 
ATOM      9  H3  UNL     1       0.889   0.281   2.608  1.00  0.00     0.167 HD
ENDBRANCH   1   2
BRANCH   1  10
HETATM   10  C4  UNL     1      -1.930   0.281  -0.279  1.00  0.00     0.446 C 
BRANCH  10  11
HETATM   11  N4  UNL     1      -2.071   1.230   0.795  1.00  0.00    -0.041 N 
ATOM     12  H43 UNL     1      -2.399   0.814   1.666  1.00  0.00     0.277 HD
ATOM     13  H42 UNL     1      -1.181   1.577   1.152  1.00  0.00     0.277 HD
ATOM     14  H41 UNL     1      -2.682   1.966   0.439  1.00  0.00     0.277 HD
ENDBRANCH  10  11
BRANCH  10  15
HETATM   15  N5  UNL     1      -3.153  -0.318  -0.709  1.00  0.00    -0.041 N 
ATOM     16  H53 UNL     1      -3.006  -1.067  -1.385  1.00  0.00     0.277 HD
ATOM     17  H52 UNL     1      -3.595  -0.876   0.022  1.00  0.00     0.277 HD
ATOM     18  H51 UNL     1      -3.764   0.418  -1.065  1.00  0.00     0.277 HD
ENDBRANCH  10  15
ENDBRANCH   1  10
TORSDOF 4
