REMARK  5 active torsions:
REMARK  status: ('A' for Active; 'I' for Inactive)
REMARK    1  A    between atoms: C2_2  and  O1_3 
REMARK    2  A    between atoms: O1_3  and  C3_4 
REMARK    3  A    between atoms: C3_4  and  N2_9 
REMARK    4  A    between atoms: N1_5  and  O2_7 
REMARK    5  A    between atoms: N2_9  and  N3_11 
ROOT
HETATM    1  C3  UNL     1      -0.994   0.083  -0.135  1.00  0.00     0.258 C 
HETATM    2  N1  UNL     1      -1.326  -0.309   1.032  1.00  0.00    -0.231 N 
ATOM      3  H1  UNL     1      -2.318  -0.320   1.268  1.00  0.00     0.198 HD
ENDROOT
BRANCH   1   4
HETATM    4  O1  UNL     1      -1.995   0.463  -0.994  1.00  0.00    -0.320 OA
BRANCH   4   5
HETATM    5  C2  UNL     1      -3.358   0.396  -0.765  1.00  0.00     0.174 C 
HETATM    6  C1  UNL     1      -3.897  -0.978  -0.496  1.00  0.00     0.034 C 
ENDBRANCH   4   5
ENDBRANCH   1   4
BRANCH   1   7
HETATM    7  N2  UNL     1       0.381   0.109  -0.493  1.00  0.00    -0.264 N 
ATOM      8  H2  UNL     1       0.718  -0.487  -1.249  1.00  0.00     0.190 HD
BRANCH   7   9
HETATM    9  N3  UNL     1       1.260   0.930   0.171  1.00  0.00    -0.307 N 
HETATM   10  C4  UNL     1       2.500   0.612   0.231  1.00  0.00    -0.004 C 
HETATM   11  C5  UNL     1       2.967  -0.631  -0.414  1.00  0.00     0.064 C 
HETATM   12  C6  UNL     1       3.452   1.481   0.940  1.00  0.00     0.064 C 
ATOM     13  H3  UNL     1       0.928   1.787   0.613  1.00  0.00     0.186 HD
ENDBRANCH   7   9
ENDBRANCH   1   7
BRANCH   2  14
HETATM   14  O2  UNL     1      -0.430  -0.718   1.994  1.00  0.00    -0.287 OA
ATOM     15  H2  UNL     1      -0.677  -1.010   2.863  1.00  0.00     0.244 HD
ENDBRANCH   2  14
TORSDOF 5
