REMARK  3 active torsions:
REMARK  status: ('A' for Active; 'I' for Inactive)
REMARK    1  A    between atoms: C1_2  and  C2_3 
REMARK       I    between atoms: C1_2  and  N2_10 
REMARK    2  A    between atoms: C2_3  and  N1_4 
REMARK    3  A    between atoms: N2_10  and  C7_12 
ROOT
HETATM    1  O1  UNL     1       0.990  -0.149   0.687  1.00  0.00    -0.272 OA
HETATM    2  C1  UNL     1       1.182   0.023  -0.529  1.00  0.00     0.235 C 
HETATM    3  N2  UNL     1       0.112   0.302  -1.400  1.00  0.00    -0.355 N 
ATOM      4  H2  UNL     1       0.389   0.425  -2.374  1.00  0.00     0.162 HD
ENDROOT
BRANCH   3   5
HETATM    5  C7  UNL     1      -1.266   0.442  -1.173  1.00  0.00     0.089 C 
HETATM    6  C8  UNL     1      -1.736   1.638  -0.397  1.00  0.00     0.030 C 
HETATM    7  C9  UNL     1      -3.253   1.610  -0.373  1.00  0.00    -0.012 C 
HETATM    8  C10 UNL     1      -3.825   1.072   0.917  1.00  0.00     0.009 C 
HETATM    9  C14 UNL     1      -3.806   0.760  -1.492  1.00  0.00     0.010 C 
HETATM   10  C11 UNL     1      -3.698  -0.430   1.038  1.00  0.00    -0.013 C 
HETATM   11  C12 UNL     1      -4.332  -1.153  -0.120  1.00  0.00     0.010 C 
HETATM   12  C16 UNL     1      -2.224  -0.769   0.833  1.00  0.00     0.011 C 
HETATM   13  C13 UNL     1      -3.436  -0.693  -1.256  1.00  0.00    -0.008 C 
HETATM   14  C15 UNL     1      -2.024  -0.748  -0.654  1.00  0.00     0.013 C 
ENDBRANCH   3   5
BRANCH   2  15
HETATM   15  C2  UNL     1       2.596  -0.083  -1.004  1.00  0.00     0.219 C 
BRANCH  15  16
HETATM   16  N1  UNL     1       3.514  -0.368   0.029  1.00  0.00    -0.400 N 
HETATM   17  C3  UNL     1       3.752   0.621   1.007  1.00  0.00     0.143 C 
HETATM   18  C4  UNL     1       5.145   0.507   1.578  1.00  0.00     0.187 C 
HETATM   19  O2  UNL     1       5.483  -0.776   1.934  1.00  0.00    -0.388 OA
HETATM   20  C5  UNL     1       5.243  -1.735   0.990  1.00  0.00     0.187 C 
HETATM   21  C6  UNL     1       4.603  -1.226  -0.275  1.00  0.00     0.143 C 
ENDBRANCH  15  16
ENDBRANCH   2  15
TORSDOF 3
