REMARK  16 active torsions:
REMARK  status: ('A' for Active; 'I' for Inactive)
REMARK    1  A    between atoms: C3_3  and  N1_4 
REMARK    2  A    between atoms: C4_6  and  C5_7 
REMARK    3  A    between atoms: C4_6  and  N4_12 
REMARK    4  A    between atoms: C5_7  and  N2_8 
REMARK    5  A    between atoms: N2_8  and  N3_9 
REMARK    6  A    between atoms: N4_12  and  C6_14 
REMARK    7  A    between atoms: C6_14  and  C7_15 
REMARK    8  A    between atoms: C7_15  and  C8_16 
REMARK    9  A    between atoms: C8_16  and  C9_17 
REMARK   10  A    between atoms: C9_17  and  N5_18 
REMARK   11  A    between atoms: N5_18  and  C10_20 
REMARK   12  A    between atoms: C11_23  and  N7_24 
REMARK   13  A    between atoms: N7_24  and  C12_26 
REMARK   14  A    between atoms: C12_26  and  C13_27 
REMARK   15  A    between atoms: C13_27  and  O1_28 
REMARK   16  A    between atoms: C16_34  and  N9_35 
ROOT
HETATM    1  C1  UNL     1       6.489   3.193   0.892  1.00  0.00     0.113 C 
HETATM    2  C2  UNL     1       6.438   1.740   0.684  1.00  0.00    -0.088 C 
HETATM    3  C3  UNL     1       6.399   0.538   0.534  1.00  0.00     0.011 C 
ENDROOT
BRANCH   3   4
HETATM    4  N1  UNL     1       6.370  -0.842   0.385  1.00  0.00    -0.299 N 
HETATM    5  C4  UNL     1       5.564  -1.482  -0.381  1.00  0.00     0.140 C 
ATOM      6  H1  UNL     1       7.040  -1.389   0.926  1.00  0.00     0.178 HD
BRANCH   5   7
HETATM    7  C5  UNL     1       5.658  -2.943  -0.431  1.00  0.00     0.257 C 
BRANCH   7   8
HETATM    8  N2  UNL     1       5.831  -3.572   0.632  1.00  0.00    -0.342 NA
BRANCH   8   9
HETATM    9  N3  UNL     1       6.162  -4.051   1.724  1.00  0.00    -0.281 N 
ATOM     10  H32 UNL     1       6.877  -3.328   1.798  1.00  0.00     0.191 HD
ATOM     11  H31 UNL     1       6.303  -4.565   2.593  1.00  0.00     0.191 HD
ENDBRANCH   8   9
ENDBRANCH   7   8
ENDBRANCH   5   7
BRANCH   5  12
HETATM   12  N4  UNL     1       4.622  -0.758  -1.142  1.00  0.00    -0.374 N 
ATOM     13  H4  UNL     1       4.871   0.177  -1.464  1.00  0.00     0.161 HD
BRANCH  12  14
HETATM   14  C6  UNL     1       3.311  -1.285  -1.488  1.00  0.00     0.121 C 
BRANCH  14  15
HETATM   15  C7  UNL     1       2.424  -1.423  -0.288  1.00  0.00     0.021 C 
BRANCH  15  16
HETATM   16  C8  UNL     1       2.219  -0.079   0.380  1.00  0.00     0.021 C 
BRANCH  16  17
HETATM   17  C9  UNL     1       1.329  -0.189   1.594  1.00  0.00     0.121 C 
BRANCH  17  18
HETATM   18  N5  UNL     1       0.051  -0.691   1.201  1.00  0.00    -0.375 N 
ATOM     19  H5  UNL     1      -0.060  -1.705   1.184  1.00  0.00     0.161 HD
BRANCH  18  20
HETATM   20  C10 UNL     1      -0.965   0.004   0.869  1.00  0.00     0.136 A 
HETATM   21  N6  UNL     1      -0.953   1.354   0.848  1.00  0.00    -0.176 N 
HETATM   22  C11 UNL     1      -2.124   1.934   0.479  1.00  0.00     0.680 A 
ATOM     23  H6  UNL     1      -0.125   1.898   1.091  1.00  0.00     0.186 HD
HETATM   24  N8  UNL     1      -3.227   1.284   0.152  1.00  0.00    -0.190 N 
HETATM   25  C14 UNL     1      -3.284  -0.089   0.159  1.00  0.00     0.072 A 
ATOM     26  H8  UNL     1      -4.057   1.815  -0.112  1.00  0.00     0.184 HD
HETATM   27  C15 UNL     1      -4.336  -0.879  -0.149  1.00  0.00     0.068 A 
HETATM   28  C19 UNL     1      -2.126  -0.709   0.526  1.00  0.00     0.078 A 
HETATM   29  C16 UNL     1      -4.149  -2.229  -0.067  1.00  0.00     0.074 A 
HETATM   30  S1  UNL     1      -2.523  -2.361   0.434  1.00  0.00    -0.067 SA
BRANCH  22  31
HETATM   31  N7  UNL     1      -2.089   3.224   0.465  1.00  0.00    -0.224 N 
ATOM     32  H7  UNL     1      -1.232   3.717   0.717  1.00  0.00     0.177 HD
BRANCH  31  33
HETATM   33  C12 UNL     1      -3.255   3.957   0.095  1.00  0.00     0.164 C 
BRANCH  33  34
HETATM   34  C13 UNL     1      -3.027   5.454   0.096  1.00  0.00     0.184 C 
BRANCH  34  35
HETATM   35  O1  UNL     1      -2.649   5.944   1.332  1.00  0.00    -0.399 OA
ATOM     36  H1  UNL     1      -2.506   6.883   1.333  1.00  0.00     0.209 HD
ENDBRANCH  34  35
ENDBRANCH  33  34
ENDBRANCH  31  33
ENDBRANCH  22  31
BRANCH  29  37
HETATM   37  N9  UNL     1      -5.078  -3.285  -0.337  1.00  0.00    -0.384 N 
HETATM   38  C17 UNL     1      -4.639  -4.646  -0.165  1.00  0.00     0.149 C 
HETATM   39  C18 UNL     1      -6.397  -2.993  -0.763  1.00  0.00     0.149 C 
ENDBRANCH  29  37
ENDBRANCH  18  20
ENDBRANCH  17  18
ENDBRANCH  16  17
ENDBRANCH  15  16
ENDBRANCH  14  15
ENDBRANCH  12  14
ENDBRANCH   5  12
ENDBRANCH   3   4
TORSDOF 16
