REMARK  6 active torsions:
REMARK  status: ('A' for Active; 'I' for Inactive)
REMARK    1  A    between atoms: C5_9  and  C6_10 
REMARK    2  A    between atoms: C6_10  and  N2_11 
REMARK    3  A    between atoms: N2_11  and  C7_14 
REMARK    4  A    between atoms: C7_14  and  C8_15 
REMARK    5  A    between atoms: C8_15  and  N3_16 
REMARK    6  A    between atoms: N3_16  and  S1_18 
ROOT
HETATM    1  O1  UNL     1      -5.776  -1.478  -1.798  1.00  0.00    -0.267 OA
HETATM    2  C1  UNL     1      -5.148  -0.595  -1.141  1.00  0.00     0.260 A 
HETATM    3  N1  UNL     1      -5.588   0.718  -0.834  1.00  0.00    -0.289 N 
ATOM      4  H1  UNL     1      -6.481   1.128  -1.106  1.00  0.00     0.172 HD
HETATM    5  C2  UNL     1      -4.569   1.364  -0.081  1.00  0.00     0.259 A 
HETATM    6  O2  UNL     1      -4.534   2.518   0.394  1.00  0.00    -0.267 OA
HETATM    7  C3  UNL     1      -3.458   0.405   0.078  1.00  0.00     0.051 A 
HETATM    8  C4  UNL     1      -2.234   0.512   0.717  1.00  0.00     0.044 A 
HETATM    9  C5  UNL     1      -1.342  -0.541   0.734  1.00  0.00     0.035 A 
HETATM   10  N4  UNL     1      -1.722  -1.666   0.102  1.00  0.00    -0.367 N 
ATOM     11  H4  UNL     1      -1.079  -2.458   0.100  1.00  0.00     0.165 HD
HETATM   12  C9  UNL     1      -2.902  -1.806  -0.528  1.00  0.00     0.106 A 
HETATM   13  C10 UNL     1      -3.820  -0.763  -0.561  1.00  0.00     0.063 A 
ENDROOT
BRANCH   9  14
HETATM   14  C6  UNL     1      -0.016  -0.438   1.420  1.00  0.00     0.289 C 
BRANCH  14  15
HETATM   15  N2  UNL     1       1.001   0.057   0.492  1.00  0.00    -0.068 N 
ATOM     16  H22 UNL     1       1.077  -0.492  -0.364  1.00  0.00     0.277 HD
ATOM     17  H21 UNL     1       0.754   0.941   0.046  1.00  0.00     0.277 HD
BRANCH  15  18
HETATM   18  C7  UNL     1       2.245   0.115   1.269  1.00  0.00     0.253 C 
BRANCH  18  19
HETATM   19  C8  UNL     1       3.356   0.625   0.362  1.00  0.00     0.162 C 
BRANCH  19  20
HETATM   20  N3  UNL     1       3.456  -0.323  -0.733  1.00  0.00    -0.299 N 
ATOM     21  H3  UNL     1       2.889  -1.161  -0.858  1.00  0.00     0.174 HD
BRANCH  20  22
HETATM   22  S1  UNL     1       4.710   0.227  -1.784  1.00  0.00     0.204 S 
HETATM   23  O3  UNL     1       4.789   1.727  -1.663  1.00  0.00    -0.578 OA
HETATM   24  O4  UNL     1       4.372  -0.169  -3.195  1.00  0.00    -0.578 OA
HETATM   25  O5  UNL     1       6.179  -0.434  -1.302  1.00  0.00    -0.578 OA
ENDBRANCH  20  22
ENDBRANCH  19  20
ENDBRANCH  18  19
ENDBRANCH  15  18
ENDBRANCH  14  15
ENDBRANCH   9  14
TORSDOF 6
