REMARK  2 active torsions:
REMARK  status: ('A' for Active; 'I' for Inactive)
REMARK    1  A    between atoms: N1_1  and  C1_5 
REMARK    2  A    between atoms: C3_7  and  C4_8 
ROOT
HETATM    1  C1  UNL     1      -1.477  -0.241  -0.259  1.00  0.00     0.190 A 
HETATM    2  C2  UNL     1      -1.373   1.203   0.050  1.00  0.00     0.041 A 
HETATM    3  C3  UNL     1      -0.405   0.190   0.638  1.00  0.00     0.040 A 
ENDROOT
BRANCH   1   4
HETATM    4  N1  UNL     1      -2.620  -0.919   0.341  1.00  0.00    -0.075 N 
ATOM      5  H13 UNL     1      -2.625  -0.774   1.351  1.00  0.00     0.274 HD
ATOM      6  H12 UNL     1      -3.485  -0.442   0.088  1.00  0.00     0.274 HD
ATOM      7  H11 UNL     1      -2.692  -1.914   0.128  1.00  0.00     0.274 HD
ENDBRANCH   1   4
BRANCH   3   8
HETATM    8  C4  UNL     1       1.014   0.372   0.210  1.00  0.00     0.117 C 
HETATM    9  C5  UNL     1       1.707  -0.851  -0.342  1.00  0.00     0.153 C 
HETATM   10  N2  UNL     1       2.887  -0.230   0.274  1.00  0.00    -0.146 NA
HETATM   11  N3  UNL     1       2.003   0.226   1.284  1.00  0.00    -0.142 NA
ENDBRANCH   3   8
TORSDOF 2
