REMARK  21 active torsions:
REMARK  status: ('A' for Active; 'I' for Inactive)
REMARK    1  A    between atoms: N1_1  and  C1_4 
REMARK    2  A    between atoms: N4_12  and  C5_13 
REMARK    3  A    between atoms: C5_13  and  C6_14 
REMARK    4  A    between atoms: C6_14  and  O1_15 
REMARK    5  A    between atoms: C6_14  and  N5_17 
REMARK    6  A    between atoms: N5_17  and  N6_18 
REMARK    7  A    between atoms: N5_17  and  C7_22 
REMARK    8  A    between atoms: N6_18  and  O2_20 
REMARK    9  A    between atoms: C7_22  and  O3_23 
REMARK   10  A    between atoms: C7_22  and  C8_25 
REMARK   11  A    between atoms: C8_25  and  O4_26 
REMARK   12  A    between atoms: C8_25  and  C9_28 
REMARK   13  A    between atoms: C9_28  and  O5_29 
REMARK   14  A    between atoms: C9_28  and  O6_31 
REMARK   15  A    between atoms: C10_33  and  N7_34 
REMARK   16  A    between atoms: C11_35  and  O7_36 
REMARK   17  A    between atoms: C13_40  and  C14_41 
REMARK   18  A    between atoms: C14_41  and  N9_42 
REMARK   19  A    between atoms: C14_41  and  O8_46 
REMARK   20  A    between atoms: C15_48  and  O9_49 
REMARK   21  A    between atoms: C16_51  and  N10_52 
ROOT
HETATM    1  C1  UNL     1      -0.836  -2.958  -1.934  1.00  0.00     0.679 A 
HETATM    2  N2  UNL     1       0.358  -2.340  -1.870  1.00  0.00    -0.174 N 
ATOM      3  H2  UNL     1       1.189  -2.802  -2.239  1.00  0.00     0.186 HD
HETATM    4  C2  UNL     1       0.461  -1.101  -1.314  1.00  0.00     0.155 A 
HETATM    5  C3  UNL     1      -0.683  -0.510  -0.826  1.00  0.00     0.124 A 
HETATM    6  N3  UNL     1      -0.341   0.693  -0.331  1.00  0.00    -0.346 N 
ATOM      7  H3  UNL     1      -0.968   1.372   0.101  1.00  0.00     0.167 HD
HETATM    8  C4  UNL     1       0.984   0.831  -0.514  1.00  0.00     0.185 A 
HETATM    9  N4  UNL     1       1.499  -0.260  -1.117  1.00  0.00    -0.323 N 
HETATM   10  C10 UNL     1      -1.911  -1.136  -0.887  1.00  0.00     0.162 A 
HETATM   11  N11 UNL     1      -1.957  -2.356  -1.446  1.00  0.00    -0.174 N 
ATOM     12  H11 UNL     1      -2.851  -2.843  -1.507  1.00  0.00     0.186 HD
ENDROOT
BRANCH  10  13
HETATM   13  N7  UNL     1      -3.071  -0.490  -0.371  1.00  0.00    -0.257 N 
HETATM   14  C11 UNL     1      -3.724   0.439  -1.088  1.00  0.00     0.175 A 
HETATM   15  C12 UNL     1      -4.830   1.040  -0.570  1.00  0.00     0.111 A 
HETATM   16  N8  UNL     1      -5.514   2.011  -1.318  1.00  0.00    -0.097 NA
HETATM   17  C13 UNL     1      -5.325   0.727   0.699  1.00  0.00     0.062 A 
HETATM   18  C15 UNL     1      -4.635  -0.229   1.411  1.00  0.00     0.122 A 
HETATM   19  C16 UNL     1      -3.501  -0.833   0.858  1.00  0.00     0.143 A 
BRANCH  14  20
HETATM   20  O7  UNL     1      -3.243   0.758  -2.347  1.00  0.00    -0.344 OA
ATOM     21  H7  UNL     1      -3.705   1.415  -2.854  1.00  0.00     0.219 HD
ENDBRANCH  14  20
BRANCH  17  22
HETATM   22  C14 UNL     1      -6.534   1.406   1.226  1.00  0.00     0.355 C 
BRANCH  22  23
HETATM   23  N9  UNL     1      -7.403   0.383   1.827  1.00  0.00    -0.049 N 
ATOM     24  H93 UNL     1      -7.626  -0.375   1.181  1.00  0.00     0.277 HD
ATOM     25  H92 UNL     1      -6.925  -0.176   2.533  1.00  0.00     0.277 HD
ATOM     26  H91 UNL     1      -8.234   0.850   2.189  1.00  0.00     0.277 HD
ENDBRANCH  22  23
BRANCH  22  27
HETATM   27  O8  UNL     1      -6.233   2.322   2.227  1.00  0.00    -0.366 OA
ATOM     28  H8  UNL     1      -7.007   2.757   2.565  1.00  0.00     0.212 HD
ENDBRANCH  22  27
ENDBRANCH  17  22
BRANCH  18  29
HETATM   29  O9  UNL     1      -5.098  -0.558   2.663  1.00  0.00    -0.356 OA
ATOM     30  H9  UNL     1      -4.622  -1.217   3.154  1.00  0.00     0.218 HD
ENDBRANCH  18  29
BRANCH  19  31
HETATM   31  N10 UNL     1      -2.897  -1.710   1.553  1.00  0.00    -0.383 N 
ATOM     32 2H10 UNL     1      -2.070  -2.150   1.150  1.00  0.00     0.157 HD
ATOM     33 1H10 UNL     1      -3.223  -1.970   2.484  1.00  0.00     0.157 HD
ENDBRANCH  19  31
ENDBRANCH  10  13
BRANCH   1  34
HETATM   34  N1  UNL     1      -1.002  -4.130  -2.448  1.00  0.00    -0.234 N 
ATOM     35  H12 UNL     1      -0.163  -4.581  -2.813  1.00  0.00     0.174 HD
ATOM     36  H11 UNL     1      -1.907  -4.598  -2.497  1.00  0.00     0.174 HD
ENDBRANCH   1  34
BRANCH   9  37
HETATM   37  C5  UNL     1       2.881  -0.500  -1.485  1.00  0.00     0.186 C 
BRANCH  37  38
HETATM   38  C6  UNL     1       3.634  -1.170  -0.377  1.00  0.00     0.258 C 
BRANCH  38  39
HETATM   39  O1  UNL     1       3.040  -2.389  -0.082  1.00  0.00    -0.373 OA
ATOM     40  H1  UNL     1       3.518  -2.814   0.621  1.00  0.00     0.212 HD
ENDBRANCH  38  39
BRANCH  38  41
HETATM   41  N5  UNL     1       3.781  -0.392   0.802  1.00  0.00    -0.247 N 
BRANCH  41  42
HETATM   42  N6  UNL     1       3.244  -0.889   1.997  1.00  0.00    -0.208 N 
ATOM     43  H6  UNL     1       2.266  -1.179   1.998  1.00  0.00     0.215 HD
BRANCH  42  44
HETATM   44  O2  UNL     1       3.884  -0.997   3.051  1.00  0.00    -0.274 OA
ATOM     45  H2  UNL     1       3.520  -1.334   3.861  1.00  0.00     0.246 HD
ENDBRANCH  42  44
ENDBRANCH  41  42
BRANCH  41  46
HETATM   46  C7  UNL     1       4.455   0.892   0.854  1.00  0.00     0.273 C 
BRANCH  46  47
HETATM   47  O3  UNL     1       4.467   1.392   2.143  1.00  0.00    -0.372 OA
ATOM     48  H3  UNL     1       4.908   2.233   2.177  1.00  0.00     0.212 HD
ENDBRANCH  46  47
BRANCH  46  49
HETATM   49  C8  UNL     1       5.886   0.696   0.411  1.00  0.00     0.223 C 
BRANCH  49  50
HETATM   50  O4  UNL     1       6.545  -0.191   1.227  1.00  0.00    -0.386 OA
ATOM     51  H4  UNL     1       7.445  -0.314   0.948  1.00  0.00     0.210 HD
ENDBRANCH  49  50
BRANCH  49  52
HETATM   52  C9  UNL     1       6.612   2.010   0.280  1.00  0.00     0.286 C 
BRANCH  52  53
HETATM   53  O5  UNL     1       5.874   2.845  -0.562  1.00  0.00    -0.369 OA
ATOM     54  H5  UNL     1       6.332   3.673  -0.645  1.00  0.00     0.212 HD
ENDBRANCH  52  53
BRANCH  52  55
HETATM   55  O6  UNL     1       7.878   1.755  -0.254  1.00  0.00    -0.369 OA
ATOM     56  H6  UNL     1       8.336   2.583  -0.337  1.00  0.00     0.212 HD
ENDBRANCH  52  55
ENDBRANCH  49  52
ENDBRANCH  46  49
ENDBRANCH  41  46
ENDBRANCH  38  41
ENDBRANCH  37  38
ENDBRANCH   9  37
TORSDOF 21
