REMARK  5 active torsions:
REMARK  status: ('A' for Active; 'I' for Inactive)
REMARK    1  A    between atoms: C2_2  and  C3_3 
REMARK    2  A    between atoms: C3_3  and  C4_4 
REMARK    3  A    between atoms: C4_4  and  C5_5 
REMARK    4  A    between atoms: C5_5  and  C6_6 
REMARK    5  A    between atoms: C10_12  and  C11_13 
ROOT
HETATM    1  C6  UNL     1       2.579  -1.501   0.904  1.00  0.00    -0.057 A 
HETATM    2  C7  UNL     1       2.437  -0.432   1.799  1.00  0.00     0.009 A 
HETATM    3  C8  UNL     1       1.251   0.225   1.916  1.00  0.00     0.031 A 
HETATM    4  C9  UNL     1       0.127  -0.100   1.184  1.00  0.00     0.043 A 
HETATM    5  N1  UNL     1      -1.132   0.370   1.106  1.00  0.00    -0.355 N 
ATOM      6  H1  UNL     1      -1.494   1.149   1.656  1.00  0.00     0.166 HD
HETATM    7  C10 UNL     1      -1.850  -0.328   0.202  1.00  0.00     0.045 A 
HETATM    8  C20 UNL     1      -0.984  -1.275  -0.299  1.00  0.00     0.044 A 
HETATM    9  C21 UNL     1       0.270  -1.159   0.299  1.00  0.00    -0.007 A 
HETATM   10  C22 UNL     1       1.461  -1.830   0.170  1.00  0.00     0.021 A 
ENDROOT
BRANCH   7  11
HETATM   11  C11 UNL     1      -3.249  -0.100  -0.146  1.00  0.00     0.007 A 
HETATM   12  C12 UNL     1      -3.883  -0.878  -1.089  1.00  0.00     0.102 A 
HETATM   13  N2  UNL     1      -5.181  -0.679  -1.423  1.00  0.00    -0.364 N 
HETATM   14  C13 UNL     1      -5.915   0.291  -0.849  1.00  0.00     0.042 A 
ATOM     15  H2  UNL     1      -5.612  -1.279  -2.126  1.00  0.00     0.165 HD
HETATM   16  C14 UNL     1      -7.237   0.433  -1.244  1.00  0.00     0.030 A 
HETATM   17  C18 UNL     1      -5.347   1.102   0.096  1.00  0.00    -0.009 A 
HETATM   18  C15 UNL     1      -7.939   1.436  -0.629  1.00  0.00     0.002 A 
HETATM   19  C16 UNL     1      -7.401   2.264   0.320  1.00  0.00     0.001 A 
HETATM   20  C17 UNL     1      -6.087   2.091   0.684  1.00  0.00     0.014 A 
HETATM   21  C19 UNL     1      -4.005   0.891   0.438  1.00  0.00     0.029 A 
ENDBRANCH   7  11
BRANCH   1  22
HETATM   22  C5  UNL     1       3.864  -2.201   0.787  1.00  0.00     0.038 C 
BRANCH  22  23
HETATM   23  C4  UNL     1       4.752  -1.644  -0.262  1.00  0.00     0.005 C 
BRANCH  23  24
HETATM   24  C3  UNL     1       5.096  -0.197  -0.007  1.00  0.00    -0.000 C 
BRANCH  24  25
HETATM   25  C2  UNL     1       6.023   0.272  -1.139  1.00  0.00    -0.005 C 
HETATM   26  C1  UNL     1       6.354   1.707  -0.872  1.00  0.00     0.005 C 
ENDBRANCH  24  25
ENDBRANCH  23  24
ENDBRANCH  22  23
ENDBRANCH   1  22
TORSDOF 5
