REMARK  5 active torsions:
REMARK  status: ('A' for Active; 'I' for Inactive)
REMARK    1  A    between atoms: C3_3  and  C4_4 
REMARK    2  A    between atoms: C4_4  and  O2_6 
REMARK    3  A    between atoms: O2_6  and  C5_7 
REMARK    4  A    between atoms: N1_16  and  C15_18 
REMARK    5  A    between atoms: C15_18  and  C16_19 
ROOT
HETATM    1  C1  UNL     1       1.462  -0.954  -0.761  1.00  0.00     0.013 C 
HETATM    2  C2  UNL     1       0.719  -0.692   0.533  1.00  0.00     0.031 C 
HETATM    3  C3  UNL     1       1.763  -0.195   1.526  1.00  0.00     0.092 C 
HETATM    4  C10 UNL     1       1.361   1.289   1.748  1.00  0.00     0.022 C 
HETATM    5  C11 UNL     1      -0.054   1.077   1.787  1.00  0.00     0.024 C 
HETATM    6  C12 UNL     1      -1.084   2.109   1.641  1.00  0.00     0.035 C 
HETATM    7  C13 UNL     1      -2.263   1.161   1.420  1.00  0.00     0.238 C 
HETATM    8  N1  UNL     1      -1.716  -0.045   0.757  1.00  0.00    -0.061 N 
HETATM    9  C14 UNL     1      -1.860  -1.133   1.674  1.00  0.00     0.273 C 
HETATM   10  C22 UNL     1      -0.344   0.299   0.492  1.00  0.00     0.133 C 
HETATM   11  C23 UNL     1      -0.191   1.189  -0.709  1.00  0.00     0.048 C 
ENDROOT
BRANCH   3  12
HETATM   12  C4  UNL     1       3.145  -0.366   1.161  1.00  0.00     0.263 C 
HETATM   13  O1  UNL     1       3.886  -1.148   1.852  1.00  0.00    -0.265 OA
BRANCH  12  14
HETATM   14  O2  UNL     1       3.806   0.239   0.107  1.00  0.00    -0.316 OA
BRANCH  14  15
HETATM   15  C5  UNL     1       5.162   0.034  -0.202  1.00  0.00     0.132 C 
HETATM   16  C6  UNL     1       5.878   1.358  -0.157  1.00  0.00     0.032 C 
HETATM   17  C7  UNL     1       7.170   1.046  -0.889  1.00  0.00     0.002 C 
HETATM   18  C8  UNL     1       6.854  -0.107  -1.815  1.00  0.00     0.002 C 
HETATM   19  C9  UNL     1       5.380  -0.405  -1.630  1.00  0.00     0.032 C 
ENDBRANCH  14  15
ENDBRANCH  12  14
ENDBRANCH   3  12
BRANCH   8  20
HETATM   20  C15 UNL     1      -2.513  -0.230  -0.407  1.00  0.00     0.242 C 
BRANCH  20  21
HETATM   21  C16 UNL     1      -3.427  -1.357  -0.559  1.00  0.00     0.012 C 
HETATM   22  C17 UNL     1      -4.060  -1.187  -1.961  1.00  0.00     0.006 C 
HETATM   23  C18 UNL     1      -5.456  -0.697  -1.927  1.00  0.00     0.000 C 
HETATM   24  C19 UNL     1      -5.805   0.219  -0.802  1.00  0.00     0.000 C 
HETATM   25  C20 UNL     1      -5.502  -0.391   0.551  1.00  0.00     0.000 C 
HETATM   26  C21 UNL     1      -4.576  -1.542   0.348  1.00  0.00     0.006 C 
ENDBRANCH  20  21
ENDBRANCH   8  20
TORSDOF 5
