REMARK  4 active torsions:
REMARK  status: ('A' for Active; 'I' for Inactive)
REMARK    1  A    between atoms: C3_4  and  C4_5 
REMARK    2  A    between atoms: C4_5  and  C5_6 
REMARK    3  A    between atoms: N1_12  and  C10_13 
REMARK    4  A    between atoms: N2_20  and  C17_21 
ROOT
HETATM    1  C10 UNL     1       0.796  -1.148   0.128  1.00  0.00     0.091 C 
HETATM    2  C11 UNL     1       0.332  -0.392  -1.097  1.00  0.00     0.050 C 
HETATM    3  C12 UNL     1      -1.070  -0.864  -1.472  1.00  0.00     0.082 C 
HETATM    4  C13 UNL     1      -0.988  -2.398  -1.538  1.00  0.00     0.027 C 
HETATM    5  C14 UNL     1      -1.300  -2.882  -0.132  1.00  0.00     0.027 C 
HETATM    6  C15 UNL     1      -1.627  -1.589   0.578  1.00  0.00     0.082 C 
HETATM    7  C16 UNL     1      -0.300  -1.074   1.162  1.00  0.00     0.050 C 
HETATM    8  N2  UNL     1      -1.986  -0.685  -0.418  1.00  0.00    -0.399 N 
ENDROOT
BRANCH   1   9
HETATM    9  N1  UNL     1       1.972  -0.515   0.696  1.00  0.00    -0.347 N 
HETATM   10  C1  UNL     1       3.232  -1.130   0.842  1.00  0.00     0.220 C 
HETATM   11  O1  UNL     1       3.726  -2.098   0.169  1.00  0.00    -0.273 OA
HETATM   12  C2  UNL     1       3.917  -0.418   1.974  1.00  0.00     0.109 C 
HETATM   13  C3  UNL     1       3.337   0.951   1.874  1.00  0.00     0.018 C 
HETATM   14  C9  UNL     1       2.018   0.848   1.188  1.00  0.00     0.131 C 
BRANCH  13  15
HETATM   15  C4  UNL     1       4.269   1.964   1.274  1.00  0.00     0.071 C 
BRANCH  15  16
HETATM   16  C5  UNL     1       4.688   1.606  -0.103  1.00  0.00     0.053 A 
HETATM   17  C6  UNL     1       5.793   0.852  -0.438  1.00  0.00     0.034 A 
HETATM   18  C7  UNL     1       5.805   0.765  -1.809  1.00  0.00     0.027 A 
HETATM   19  C8  UNL     1       4.706   1.471  -2.252  1.00  0.00     0.142 A 
HETATM   20  O2  UNL     1       4.069   1.955  -1.201  1.00  0.00    -0.327 OA
ENDBRANCH  15  16
ENDBRANCH  13  15
ENDBRANCH   1   9
BRANCH   8  21
HETATM   21  C17 UNL     1      -3.256  -0.201  -0.630  1.00  0.00     0.080 C 
HETATM   22  C18 UNL     1      -3.113   1.224  -1.176  1.00  0.00     0.025 C 
HETATM   23  C19 UNL     1      -4.364   2.028  -0.931  1.00  0.00     0.002 C 
HETATM   24  C20 UNL     1      -5.591   1.143  -0.993  1.00  0.00     0.000 C 
HETATM   25  C21 UNL     1      -5.571   0.283   0.246  1.00  0.00     0.002 C 
HETATM   26  C22 UNL     1      -4.207  -0.256   0.527  1.00  0.00     0.025 C 
ENDBRANCH   8  21
TORSDOF 4
