REMARK  4 active torsions:
REMARK  status: ('A' for Active; 'I' for Inactive)
REMARK    1  A    between atoms: N1_1  and  C1_4 
REMARK    2  A    between atoms: C4_13  and  C5_14 
REMARK    3  A    between atoms: C6_17  and  O3_18 
REMARK    4  A    between atoms: C9_26  and  N8_27 
ROOT
HETATM    1  C1  UNL     1       3.617  -0.023   1.097  1.00  0.00     0.679 A 
HETATM    2  N2  UNL     1       2.276   0.043   1.255  1.00  0.00    -0.174 N 
ATOM      3  H2  UNL     1       1.877   0.152   2.187  1.00  0.00     0.186 HD
HETATM    4  C2  UNL     1       1.470  -0.035   0.186  1.00  0.00     0.165 A 
HETATM    5  N3  UNL     1       0.134   0.029   0.331  1.00  0.00    -0.228 N 
HETATM    6  C3  UNL     1      -0.462   0.171   1.526  1.00  0.00     0.334 A 
HETATM    7  O1  UNL     1       0.231   0.250   2.571  1.00  0.00    -0.246 OA
HETATM    8  N4  UNL     1      -1.788   0.232   1.648  1.00  0.00    -0.301 N 
ATOM      9  H4  UNL     1      -2.222   0.340   2.565  1.00  0.00     0.171 HD
HETATM   10  C4  UNL     1      -2.550   0.147   0.526  1.00  0.00     0.139 A 
HETATM   11  C6  UNL     1      -1.986   0.001  -0.720  1.00  0.00     0.144 A 
HETATM   12  C7  UNL     1      -0.575  -0.059  -0.800  1.00  0.00     0.168 A 
HETATM   13  N6  UNL     1      -0.038  -0.199  -2.006  1.00  0.00    -0.282 N 
ATOM     14  H6  UNL     1      -0.654  -0.257  -2.817  1.00  0.00     0.188 HD
HETATM   15  N7  UNL     1       1.294  -0.267  -2.193  1.00  0.00    -0.292 N 
ATOM     16  H7  UNL     1       1.681  -0.376  -3.131  1.00  0.00     0.187 HD
HETATM   17  C8  UNL     1       2.099  -0.190  -1.133  1.00  0.00     0.138 A 
HETATM   18  C9  UNL     1       3.470  -0.253  -1.255  1.00  0.00     0.146 A 
HETATM   19  N9  UNL     1       4.184  -0.165  -0.119  1.00  0.00    -0.175 N 
ATOM     20  H9  UNL     1       5.201  -0.208  -0.179  1.00  0.00     0.186 HD
ENDROOT
BRANCH   1  21
HETATM   21  N1  UNL     1       4.416   0.052   2.134  1.00  0.00    -0.234 N 
ATOM     22  H12 UNL     1       3.987   0.159   3.053  1.00  0.00     0.174 HD
ATOM     23  H11 UNL     1       5.428   0.002   2.015  1.00  0.00     0.174 HD
ENDBRANCH   1  21
BRANCH  18  24
HETATM   24  N8  UNL     1       4.062  -0.388  -2.386  1.00  0.00    -0.383 N 
ATOM     25  H82 UNL     1       3.520  -0.455  -3.248  1.00  0.00     0.157 HD
ATOM     26  H81 UNL     1       5.077  -0.435  -2.476  1.00  0.00     0.157 HD
ENDBRANCH  18  24
BRANCH  11  27
HETATM   27  O3  UNL     1      -2.683  -0.090  -1.884  1.00  0.00    -0.355 OA
ATOM     28  H3  UNL     1      -2.293  -0.191  -2.745  1.00  0.00     0.218 HD
ENDBRANCH  11  27
BRANCH  10  29
HETATM   29  C5  UNL     1      -3.991   0.221   0.735  1.00  0.00     0.284 C 
HETATM   30  N5  UNL     1      -4.972   0.157  -0.268  1.00  0.00    -0.056 NA
HETATM   31  O2  UNL     1      -4.466   0.358   1.921  1.00  0.00    -0.269 OA
ENDBRANCH  10  29
TORSDOF 4
