REMARK  9 active torsions:
REMARK  status: ('A' for Active; 'I' for Inactive)
REMARK    1  A    between atoms: C2_2  and  C3_3 
REMARK    2  A    between atoms: C3_3  and  N1_4 
REMARK    3  A    between atoms: N1_4  and  C4_5 
REMARK    4  A    between atoms: N1_4  and  C7_8 
REMARK    5  A    between atoms: C4_5  and  C5_6 
REMARK    6  A    between atoms: C7_8  and  C8_9 
REMARK    7  A    between atoms: C8_9  and  C9_10 
REMARK    8  A    between atoms: C9_10  and  O1_11 
REMARK    9  A    between atoms: O1_11  and  C10_12 
ROOT
HETATM    1  C10 UNL     1      -0.624   1.865   1.478  1.00  0.00     0.069 A 
HETATM    2  C11 UNL     1       0.384   2.689   2.027  1.00  0.00     0.037 A 
HETATM    3  C12 UNL     1       1.710   2.345   1.762  1.00  0.00     0.015 A 
HETATM    4  C13 UNL     1       2.022   1.254   1.001  1.00  0.00    -0.022 A 
HETATM    5  C14 UNL     1       3.379   0.962   0.768  1.00  0.00     0.043 A 
HETATM    6  C15 UNL     1       3.713  -0.125   0.003  1.00  0.00     0.046 A 
HETATM    7  N2  UNL     1       2.732  -0.912  -0.524  1.00  0.00    -0.355 N 
HETATM    8  C16 UNL     1       1.417  -0.627  -0.293  1.00  0.00     0.103 A 
HETATM    9  C17 UNL     1       1.062   0.454   0.469  1.00  0.00    -0.008 A 
HETATM   10  C18 UNL     1      -0.289   0.768   0.714  1.00  0.00     0.050 A 
HETATM   11  C19 UNL     1       3.046  -2.010  -1.400  1.00  0.00     0.133 C 
HETATM   12  C20 UNL     1       4.353  -2.630  -1.138  1.00  0.00     0.060 C 
HETATM   13  C21 UNL     1       5.434  -1.672  -0.825  1.00  0.00    -0.043 A 
HETATM   14  C22 UNL     1       6.741  -2.012  -1.131  1.00  0.00     0.009 A 
HETATM   15  C23 UNL     1       7.748  -1.168  -0.755  1.00  0.00     0.019 A 
HETATM   16  C24 UNL     1       7.448  -0.002  -0.083  1.00  0.00     0.048 A 
HETATM   17  C25 UNL     1       6.135   0.375   0.243  1.00  0.00    -0.005 A 
HETATM   18  C26 UNL     1       5.138  -0.500  -0.153  1.00  0.00     0.007 A 
HETATM   19  C27 UNL     1       6.238   1.659   0.939  1.00  0.00     0.219 A 
HETATM   20  O2  UNL     1       7.632   2.016   0.976  1.00  0.00    -0.313 OA
HETATM   21  C28 UNL     1       8.368   1.026   0.379  1.00  0.00     0.294 A 
HETATM   22  O3  UNL     1       9.625   1.052   0.276  1.00  0.00    -0.259 OA
ENDROOT
BRANCH   1  23
HETATM   23  O1  UNL     1      -1.908   2.258   1.779  1.00  0.00    -0.351 OA
BRANCH  23  24
HETATM   24  C9  UNL     1      -3.057   1.631   1.322  1.00  0.00     0.180 C 
BRANCH  24  25
HETATM   25  C8  UNL     1      -3.301   1.684  -0.146  1.00  0.00     0.071 C 
BRANCH  25  26
HETATM   26  C7  UNL     1      -4.522   0.986  -0.643  1.00  0.00     0.065 C 
BRANCH  26  27
HETATM   27  N1  UNL     1      -4.676  -0.379  -0.401  1.00  0.00    -0.374 N 
BRANCH  27  28
HETATM   28  C3  UNL     1      -3.812  -1.321  -0.985  1.00  0.00     0.062 C 
BRANCH  28  29
HETATM   29  C2  UNL     1      -3.191  -0.985  -2.301  1.00  0.00     0.040 C 
HETATM   30  C1  UNL     1      -4.203  -0.754  -3.413  1.00  0.00     0.010 C 
ENDBRANCH  28  29
ENDBRANCH  27  28
BRANCH  27  31
HETATM   31  C4  UNL     1      -5.355  -0.817   0.765  1.00  0.00     0.126 C 
BRANCH  31  32
HETATM   32  C5  UNL     1      -6.390   0.089   1.331  1.00  0.00     0.016 C 
HETATM   33  C6  UNL     1      -6.970  -0.621   2.566  1.00  0.00     0.006 C 
ENDBRANCH  31  32
ENDBRANCH  27  31
ENDBRANCH  26  27
ENDBRANCH  25  26
ENDBRANCH  24  25
ENDBRANCH  23  24
ENDBRANCH   1  23
TORSDOF 9
