REMARK  8 active torsions:
REMARK  status: ('A' for Active; 'I' for Inactive)
REMARK    1  A    between atoms: O1_2  and  C2_3 
REMARK    2  A    between atoms: C6_7  and  N1_8 
REMARK    3  A    between atoms: N1_8  and  C7_9 
REMARK       I    between atoms: N1_8  and  C10_13 
REMARK    4  A    between atoms: C7_9  and  C8_10 
REMARK    5  A    between atoms: C10_13  and  C11_15 
REMARK    6  A    between atoms: C14_18  and  C15_19 
REMARK    7  A    between atoms: C15_19  and  N3_20 
REMARK    8  A    between atoms: C18_23  and  C19_24 
ROOT
HETATM    1  C8  UNL     1      -2.993   1.459   1.901  1.00  0.00     0.144 C 
HETATM    2  C9  UNL     1      -2.611   2.024   3.198  1.00  0.00     0.060 C 
HETATM    3  N2  UNL     1      -2.319   2.482   4.203  1.00  0.00    -0.197 NA
ENDROOT
BRANCH   1   4
HETATM    4  C7  UNL     1      -3.654   0.118   2.118  1.00  0.00     0.146 C 
BRANCH   4   5
HETATM    5  N1  UNL     1      -4.036  -0.477   0.868  1.00  0.00    -0.312 N 
HETATM    6  C10 UNL     1      -3.250  -1.335   0.080  1.00  0.00     0.275 C 
HETATM    7  O2  UNL     1      -3.784  -1.735  -1.018  1.00  0.00    -0.265 OA
BRANCH   5   8
HETATM    8  C6  UNL     1      -5.366  -0.148   0.371  1.00  0.00     0.040 A 
HETATM    9  C5  UNL     1      -6.405  -0.907   0.844  1.00  0.00     0.030 A 
HETATM   10  C4  UNL     1      -7.696  -0.613   0.385  1.00  0.00     0.005 A 
HETATM   11  C3  UNL     1      -7.895   0.419  -0.522  1.00  0.00     0.037 A 
HETATM   12  C2  UNL     1      -6.847   1.180  -0.994  1.00  0.00     0.070 A 
HETATM   13  C29 UNL     1      -5.575   0.865  -0.520  1.00  0.00     0.066 A 
BRANCH  12  14
HETATM   14  O1  UNL     1      -7.032   2.213  -1.899  1.00  0.00    -0.356 OA
HETATM   15  C1  UNL     1      -8.266   2.590  -2.420  1.00  0.00     0.210 C 
ENDBRANCH  12  14
ENDBRANCH   5   8
BRANCH   6  16
HETATM   16  C11 UNL     1      -1.930  -1.785   0.406  1.00  0.00     0.101 A 
HETATM   17  C12 UNL     1      -1.301  -2.643  -0.512  1.00  0.00     0.036 A 
HETATM   18  C13 UNL     1      -0.047  -3.085  -0.227  1.00  0.00     0.012 A 
HETATM   19  C14 UNL     1       0.605  -2.718   0.919  1.00  0.00    -0.025 A 
HETATM   20  C28 UNL     1      -0.013  -1.876   1.819  1.00  0.00     0.097 A 
HETATM   21  N4  UNL     1      -1.241  -1.462   1.507  1.00  0.00    -0.361 N 
ATOM     22  H4  UNL     1      -1.700  -0.839   2.171  1.00  0.00     0.165 HD
BRANCH  19  23
HETATM   23  C15 UNL     1       1.975  -3.195   1.239  1.00  0.00     0.167 C 
BRANCH  23  24
HETATM   24  N3  UNL     1       2.974  -2.278   0.711  1.00  0.00    -0.362 N 
HETATM   25  C16 UNL     1       3.505  -2.393  -0.518  1.00  0.00     0.091 A 
HETATM   26  C17 UNL     1       4.450  -1.515  -1.007  1.00  0.00     0.029 A 
HETATM   27  C18 UNL     1       4.897  -0.461  -0.232  1.00  0.00    -0.023 A 
HETATM   28  C26 UNL     1       4.356  -0.340   1.030  1.00  0.00     0.029 A 
HETATM   29  C27 UNL     1       3.413  -1.243   1.473  1.00  0.00     0.091 A 
BRANCH  27  30
HETATM   30  C19 UNL     1       5.890   0.470  -0.727  1.00  0.00    -0.026 A 
HETATM   31  C20 UNL     1       5.973   0.792  -2.065  1.00  0.00     0.013 A 
HETATM   32  C21 UNL     1       6.924   1.684  -2.532  1.00  0.00     0.007 A 
HETATM   33  C22 UNL     1       7.816   2.276  -1.669  1.00  0.00    -0.062 A 
HETATM   34  C23 UNL     1       8.841   3.234  -2.156  1.00  0.00     0.048 C 
HETATM   35  C24 UNL     1       7.751   1.968  -0.323  1.00  0.00     0.007 A 
HETATM   36  C25 UNL     1       6.799   1.078   0.129  1.00  0.00     0.013 A 
ENDBRANCH  27  30
ENDBRANCH  23  24
ENDBRANCH  19  23
ENDBRANCH   6  16
ENDBRANCH   4   5
ENDBRANCH   1   4
TORSDOF 8
