REMARK  15 active torsions:
REMARK  status: ('A' for Active; 'I' for Inactive)
REMARK    1  A    between atoms: C2_2  and  C3_3 
REMARK    2  A    between atoms: C3_3  and  N1_4 
REMARK    3  A    between atoms: C10_11  and  C11_12 
REMARK    4  A    between atoms: C11_12  and  O1_13 
REMARK    5  A    between atoms: O1_13  and  C12_14 
REMARK    6  A    between atoms: C12_14  and  C13_16 
REMARK    7  A    between atoms: C13_16  and  C14_17 
REMARK    8  A    between atoms: C13_16  and  C16_19 
REMARK    9  A    between atoms: C13_16  and  C20_23 
REMARK   10  A    between atoms: C16_19  and  C17_20 
REMARK   11  A    between atoms: C17_20  and  C18_21 
REMARK   12  A    between atoms: C21_24  and  C22_25 
REMARK   13  A    between atoms: C22_25  and  C23_26 
REMARK   14  A    between atoms: C24_27  and  C25_28 
REMARK   15  A    between atoms: N3_35  and  N4_36 
ROOT
HETATM    1  C13 UNL     1      -1.007   0.481   0.246  1.00  0.00     0.065 C 
ENDROOT
BRANCH   1   2
HETATM    2  C12 UNL     1       0.266   1.196  -0.225  1.00  0.00     0.271 C 
HETATM    3  O2  UNL     1       0.214   2.056  -1.158  1.00  0.00    -0.264 OA
BRANCH   2   4
HETATM    4  O1  UNL     1       1.500   0.964   0.307  1.00  0.00    -0.317 OA
BRANCH   4   5
HETATM    5  C11 UNL     1       2.620   1.670  -0.190  1.00  0.00     0.206 C 
BRANCH   5   6
HETATM    6  C10 UNL     1       3.865   1.303   0.491  1.00  0.00     0.004 C 
HETATM    7  C9  UNL     1       4.940   0.784  -0.077  1.00  0.00    -0.052 C 
HETATM    8  C6  UNL     1       5.049   0.487  -1.529  1.00  0.00     0.019 C 
HETATM    9  C30 UNL     1       6.165   0.450   0.730  1.00  0.00     0.272 C 
HETATM   10  C5  UNL     1       6.022   1.502  -2.106  1.00  0.00     0.037 C 
HETATM   11  C7  UNL     1       5.781  -0.860  -1.615  1.00  0.00     0.037 C 
HETATM   12  C4  UNL     1       7.162   1.614  -1.114  1.00  0.00     0.239 C 
HETATM   13  N1  UNL     1       7.258   0.462  -0.241  1.00  0.00    -0.060 N 
HETATM   14  C8  UNL     1       7.171  -0.726  -1.034  1.00  0.00     0.239 C 
BRANCH  13  15
HETATM   15  C3  UNL     1       8.490   0.554   0.496  1.00  0.00     0.264 C 
BRANCH  15  16
HETATM   16  C2  UNL     1       9.095  -0.754   0.785  1.00  0.00    -0.009 C 
HETATM   17  C1  UNL     1       9.288  -1.116   2.047  1.00  0.00     0.008 C 
ENDBRANCH  15  16
ENDBRANCH  13  15
ENDBRANCH   5   6
ENDBRANCH   4   5
ENDBRANCH   2   4
ENDBRANCH   1   2
BRANCH   1  18
HETATM   18  C14 UNL     1      -1.277   0.648   1.683  1.00  0.00     0.019 C 
HETATM   19  C15 UNL     1      -0.304   0.173   2.685  1.00  0.00     0.006 C 
ENDBRANCH   1  18
BRANCH   1  20
HETATM   20  C16 UNL     1      -0.934  -0.928  -0.258  1.00  0.00     0.024 C 
BRANCH  20  21
HETATM   21  C17 UNL     1       0.248  -1.739   0.176  1.00  0.00     0.001 C 
BRANCH  21  22
HETATM   22  C18 UNL     1       0.052  -3.123  -0.477  1.00  0.00    -0.005 C 
HETATM   23  C19 UNL     1      -1.216  -3.770  -0.035  1.00  0.00     0.005 C 
ENDBRANCH  21  22
ENDBRANCH  20  21
ENDBRANCH   1  20
BRANCH   1  24
HETATM   24  C20 UNL     1      -2.088   1.203  -0.518  1.00  0.00    -0.010 C 
HETATM   25  C21 UNL     1      -3.495   0.953  -0.394  1.00  0.00    -0.018 C 
BRANCH  25  26
HETATM   26  C22 UNL     1      -4.116  -0.375  -0.688  1.00  0.00     0.121 C 
BRANCH  26  27
HETATM   27  C23 UNL     1      -5.602  -0.148  -0.509  1.00  0.00    -0.097 C 
HETATM   28  C24 UNL     1      -6.784   0.045  -0.385  1.00  0.00    -0.061 C 
BRANCH  28  29
HETATM   29  C25 UNL     1      -8.196   0.302  -0.233  1.00  0.00     0.080 A 
HETATM   30  C26 UNL     1      -9.072  -0.755  -0.113  1.00  0.00     0.029 A 
HETATM   31  C27 UNL     1      -8.578  -2.166  -0.140  1.00  0.00     0.070 C 
HETATM   32  N2  UNL     1     -10.379  -0.477   0.027  1.00  0.00    -0.334 N 
HETATM   33  C28 UNL     1     -10.855   0.798   0.054  1.00  0.00     0.198 A 
ATOM     34  H2  UNL     1     -11.039  -1.250   0.116  1.00  0.00     0.168 HD
HETATM   35  S1  UNL     1     -12.454   1.057   0.227  1.00  0.00    -0.039 SA
HETATM   36  N3  UNL     1     -10.013   1.843  -0.061  1.00  0.00    -0.224 N 
HETATM   37  C29 UNL     1      -8.703   1.581  -0.202  1.00  0.00     0.145 A 
HETATM   38  S2  UNL     1      -7.642   2.841  -0.346  1.00  0.00    -0.057 SA
BRANCH  36  39
HETATM   39  N4  UNL     1     -10.450   3.173  -0.040  1.00  0.00    -0.335 N 
ATOM     40  H42 UNL     1     -11.445   3.372   0.067  1.00  0.00     0.177 HD
ATOM     41  H41 UNL     1      -9.812   3.964  -0.127  1.00  0.00     0.177 HD
ENDBRANCH  36  39
ENDBRANCH  28  29
ENDBRANCH  26  27
ENDBRANCH  25  26
ENDBRANCH   1  24
TORSDOF 15
