REMARK  3 active torsions:
REMARK  status: ('A' for Active; 'I' for Inactive)
REMARK    1  A    between atoms: N3_4  and  C2_6 
REMARK    2  A    between atoms: C2_6  and  C3_7 
REMARK    3  A    between atoms: C3_7  and  N4_8 
ROOT
HETATM    1  N4  UNL     1      -0.644   0.083  -0.757  1.00  0.00    -0.390 N 
HETATM    2  C4  UNL     1      -1.639  -0.885  -0.421  1.00  0.00     0.123 C 
HETATM    3  C5  UNL     1      -3.035  -0.399  -0.743  1.00  0.00     0.039 C 
HETATM    4  C6  UNL     1      -3.565   0.560   0.285  1.00  0.00     0.115 C 
HETATM    5  N5  UNL     1      -3.143   1.909   0.120  1.00  0.00    -0.420 N 
ATOM      6  H5  UNL     1      -3.685   2.696   0.477  1.00  0.00     0.153 HD
HETATM    7  C7  UNL     1      -1.901   2.089  -0.584  1.00  0.00     0.133 C 
HETATM    8  C8  UNL     1      -0.748   1.322  -0.038  1.00  0.00     0.141 C 
ENDROOT
BRANCH   1   9
HETATM    9  C3  UNL     1       0.672  -0.351  -0.926  1.00  0.00     0.077 C 
BRANCH   9  10
HETATM   10  C2  UNL     1       1.423  -0.834   0.263  1.00  0.00     0.166 C 
BRANCH  10  11
HETATM   11  N3  UNL     1       2.756  -1.219  -0.231  1.00  0.00    -0.362 N 
HETATM   12  C1  UNL     1       3.800  -1.050   0.507  1.00  0.00     0.197 C 
HETATM   13  N1  UNL     1       3.812  -0.511   1.799  1.00  0.00    -0.067 NA
HETATM   14  N2  UNL     1       5.051  -1.453  -0.056  1.00  0.00    -0.067 NA
ATOM     15  H3  UNL     1       2.854  -1.622  -1.163  1.00  0.00     0.162 HD
ENDBRANCH  10  11
ENDBRANCH   9  10
ENDBRANCH   1   9
TORSDOF 3
