REMARK  10 active torsions:
REMARK  status: ('A' for Active; 'I' for Inactive)
REMARK       I    between atoms: C1_2  and  N1_3 
REMARK    1  A    between atoms: C1_2  and  O2_8 
REMARK    2  A    between atoms: N1_3  and  C2_5 
REMARK    3  A    between atoms: O2_8  and  C5_9 
REMARK    4  A    between atoms: C5_9  and  C6_10 
REMARK    5  A    between atoms: C7_11  and  C8_12 
REMARK    6  A    between atoms: C9_13  and  C10_14 
REMARK    7  A    between atoms: C11_15  and  C12_16 
REMARK    8  A    between atoms: C14_18  and  C15_20 
REMARK    9  A    between atoms: C15_20  and  O3_21 
REMARK   10  A    between atoms: N2_23  and  O4_25 
ROOT
HETATM    1  C10 UNL     1      -1.853  -0.048   1.455  1.00  0.00    -0.077 C 
HETATM    2  C11 UNL     1      -2.594   0.343   0.583  1.00  0.00    -0.089 C 
ENDROOT
BRANCH   1   3
HETATM    3  C9  UNL     1      -0.990  -0.507   2.506  1.00  0.00     0.073 C 
HETATM    4  C8  UNL     1       0.264  -0.855   2.305  1.00  0.00     0.073 C 
BRANCH   4   5
HETATM    5  C7  UNL     1       0.827  -0.785   0.986  1.00  0.00    -0.076 C 
HETATM    6  C6  UNL     1       1.321  -0.732  -0.121  1.00  0.00    -0.075 C 
BRANCH   6   7
HETATM    7  C5  UNL     1       1.940  -0.676  -1.456  1.00  0.00     0.274 C 
BRANCH   7   8
HETATM    8  O2  UNL     1       3.318  -0.946  -1.265  1.00  0.00    -0.292 OA
BRANCH   8   9
HETATM    9  C1  UNL     1       4.108  -0.141  -0.461  1.00  0.00     0.361 C 
HETATM   10  O1  UNL     1       3.547   0.840   0.090  1.00  0.00    -0.238 OA
HETATM   11  N1  UNL     1       5.505  -0.412  -0.266  1.00  0.00    -0.332 N 
ATOM     12  H1  UNL     1       5.925  -1.217  -0.731  1.00  0.00     0.165 HD
BRANCH  11  13
HETATM   13  C2  UNL     1       6.331   0.426   0.572  1.00  0.00     0.086 A 
HETATM   14  C3  UNL     1       7.597  -0.049   1.142  1.00  0.00     0.027 A 
HETATM   15  C4  UNL     1       7.640   0.830  -0.078  1.00  0.00     0.027 A 
ENDBRANCH  11  13
ENDBRANCH   8   9
ENDBRANCH   7   8
ENDBRANCH   6   7
ENDBRANCH   4   5
ENDBRANCH   1   3
BRANCH   2  16
HETATM   16  C12 UNL     1      -3.513   0.826  -0.462  1.00  0.00     0.139 C 
HETATM   17  C13 UNL     1      -4.401  -0.319  -1.001  1.00  0.00     0.062 C 
HETATM   18  C14 UNL     1      -5.493   0.698  -1.016  1.00  0.00     0.147 C 
HETATM   19 BR1  UNL     1      -5.511   1.743  -2.667  1.00  0.00    -0.068 Br
HETATM   20  C16 UNL     1      -4.764   1.404   0.084  1.00  0.00     0.170 C 
HETATM   21  O5  UNL     1      -5.093   2.119   0.993  1.00  0.00    -0.294 OA
BRANCH  18  22
HETATM   22  C15 UNL     1      -6.862   0.269  -0.722  1.00  0.00     0.163 C 
HETATM   23  N2  UNL     1      -7.304  -0.896  -0.522  1.00  0.00    -0.249 N 
ATOM     24  H2  UNL     1      -8.304  -0.957  -0.332  1.00  0.00     0.196 HD
BRANCH  22  25
HETATM   25  O3  UNL     1      -7.824   1.312  -0.653  1.00  0.00    -0.347 OA
ATOM     26  H3  UNL     1      -8.712   1.034  -0.462  1.00  0.00     0.219 HD
ENDBRANCH  22  25
BRANCH  23  27
HETATM   27  O4  UNL     1      -6.646  -2.066  -0.524  1.00  0.00    -0.288 OA
ATOM     28  H4  UNL     1      -6.979  -2.943  -0.373  1.00  0.00     0.244 HD
ENDBRANCH  23  27
ENDBRANCH  18  22
ENDBRANCH   2  16
TORSDOF 10
