REMARK  5 active torsions:
REMARK  status: ('A' for Active; 'I' for Inactive)
REMARK    1  A    between atoms: C2_2  and  O1_3 
REMARK    2  A    between atoms: C5_7  and  N1_8 
REMARK    3  A    between atoms: N1_8  and  C6_10 
REMARK    4  A    between atoms: C7_13  and  O2_14 
REMARK    5  A    between atoms: O2_14  and  C8_15 
ROOT
HETATM    1  C6  UNL     1       1.381  -1.381  -0.015  1.00  0.00     0.680 A 
HETATM    2  N2  UNL     1       0.067  -1.131  -0.193  1.00  0.00    -0.169 N 
ATOM      3  H2  UNL     1      -0.363  -0.337   0.281  1.00  0.00     0.186 HD
HETATM    4  C7  UNL     1      -0.680  -1.914  -0.985  1.00  0.00     0.176 A 
HETATM    5  C15 UNL     1      -0.142  -3.000  -1.647  1.00  0.00     0.078 A 
HETATM    6 BR1  UNL     1      -1.191  -4.123  -2.776  1.00  0.00    -0.045 Br
HETATM    7  C16 UNL     1       1.197  -3.255  -1.465  1.00  0.00     0.129 A 
HETATM    8  N4  UNL     1       1.901  -2.439  -0.660  1.00  0.00    -0.201 N 
ATOM      9  H4  UNL     1       2.893  -2.636  -0.531  1.00  0.00     0.183 HD
ENDROOT
BRANCH   4  10
HETATM   10  O2  UNL     1      -2.035  -1.677  -1.185  1.00  0.00    -0.329 OA
BRANCH  10  11
HETATM   11  C8  UNL     1      -2.717  -0.593  -0.565  1.00  0.00     0.132 C 
HETATM   12  C9  UNL     1      -3.231   0.287  -1.681  1.00  0.00     0.032 C 
HETATM   13  C10 UNL     1      -3.472   1.700  -1.262  1.00  0.00     0.004 C 
HETATM   14  C11 UNL     1      -4.942   1.920  -0.986  1.00  0.00     0.027 C 
HETATM   15  C12 UNL     1      -5.160   1.814   0.496  1.00  0.00     0.232 C 
HETATM   16  N3  UNL     1      -4.064   1.128   1.106  1.00  0.00    -0.075 N 
HETATM   17  C13 UNL     1      -4.321  -0.255   1.339  1.00  0.00     0.235 C 
ATOM     18  H32 UNL     1      -3.211   1.250   0.560  1.00  0.00     0.277 HD
ATOM     19  H31 UNL     1      -3.781   1.594   1.968  1.00  0.00     0.277 HD
HETATM   20  C14 UNL     1      -3.804  -1.172   0.282  1.00  0.00     0.060 C 
ENDBRANCH  10  11
ENDBRANCH   4  10
BRANCH   1  21
HETATM   21  N1  UNL     1       2.064  -0.617   0.746  1.00  0.00    -0.221 N 
ATOM     22  H1  UNL     1       1.602   0.168   1.205  1.00  0.00     0.178 HD
BRANCH  21  23
HETATM   23  C5  UNL     1       3.458  -0.833   0.972  1.00  0.00     0.102 C 
HETATM   24  C4  UNL     1       4.327  -0.433  -0.177  1.00  0.00     0.029 C 
HETATM   25  C3  UNL     1       4.777   0.978   0.102  1.00  0.00     0.039 C 
HETATM   26  C2  UNL     1       4.895   1.020   1.598  1.00  0.00     0.056 C 
HETATM   27  C1  UNL     1       4.547   2.390   2.108  1.00  0.00     0.045 C 
HETATM   28  C17 UNL     1       3.952  -0.010   2.143  1.00  0.00     0.063 C 
BRANCH  26  29
HETATM   29  O1  UNL     1       6.225   0.760   1.992  1.00  0.00    -0.390 OA
ATOM     30  H1  UNL     1       6.445  -0.106   1.670  1.00  0.00     0.210 HD
ENDBRANCH  26  29
ENDBRANCH  21  23
ENDBRANCH   1  21
TORSDOF 5
