REMARK  12 active torsions:
REMARK  status: ('A' for Active; 'I' for Inactive)
REMARK    1  A    between atoms: N2_5  and  C4_6 
REMARK    2  A    between atoms: C4_6  and  C5_7 
REMARK    3  A    between atoms: C5_7  and  C6_8 
REMARK    4  A    between atoms: C6_8  and  C7_9 
REMARK    5  A    between atoms: C7_9  and  N3_10 
REMARK    6  A    between atoms: C10_13  and  C11_14 
REMARK    7  A    between atoms: C11_14  and  N4_15 
REMARK    8  A    between atoms: N4_15  and  C12_17 
REMARK    9  A    between atoms: C15_20  and  N5_21 
REMARK   10  A    between atoms: C17_23  and  C18_24 
REMARK   11  A    between atoms: C19_27  and  N7_28 
REMARK   12  A    between atoms: N7_28  and  C20_30 
ROOT
HETATM    1  C12 UNL     1       0.904  -0.915   0.926  1.00  0.00     0.078 C 
HETATM    2  C13 UNL     1       1.741  -1.097   2.134  1.00  0.00     0.027 C 
HETATM    3  C14 UNL     1       3.158  -0.986   1.680  1.00  0.00     0.029 C 
HETATM    4  C15 UNL     1       3.093  -1.826   0.394  1.00  0.00     0.109 C 
HETATM    5  C26 UNL     1       1.848  -1.293  -0.235  1.00  0.00     0.052 C 
ENDROOT
BRANCH   1   6
HETATM    6  N4  UNL     1       0.482   0.419   0.652  1.00  0.00    -0.417 N 
ATOM      7  H4  UNL     1       0.738   0.897  -0.212  1.00  0.00     0.153 HD
BRANCH   6   8
HETATM    8  C11 UNL     1      -0.310   1.043   1.642  1.00  0.00     0.120 C 
BRANCH   8   9
HETATM    9  C10 UNL     1      -1.681   0.461   1.854  1.00  0.00     0.033 C 
HETATM   10  C9  UNL     1      -2.378   1.267   2.953  1.00  0.00     0.038 C 
HETATM   11  C8  UNL     1      -3.600   1.851   2.296  1.00  0.00     0.273 C 
HETATM   12  N3  UNL     1      -3.930   0.858   1.281  1.00  0.00     0.088 N 
HETATM   13  C27 UNL     1      -2.600   0.635   0.691  1.00  0.00     0.278 C 
BRANCH  12  14
HETATM   14  C7  UNL     1      -4.375  -0.332   1.977  1.00  0.00     0.272 C 
BRANCH  14  15
HETATM   15  C6  UNL     1      -4.833  -1.418   1.010  1.00  0.00     0.032 C 
BRANCH  15  16
HETATM   16  C5  UNL     1      -5.994  -0.835   0.234  1.00  0.00     0.021 C 
BRANCH  16  17
HETATM   17  C4  UNL     1      -6.522  -1.854  -0.729  1.00  0.00     0.117 C 
BRANCH  17  18
HETATM   18  N2  UNL     1      -7.631  -1.435  -1.516  1.00  0.00    -0.409 N 
HETATM   19  C3  UNL     1      -7.386  -0.431  -2.491  1.00  0.00     0.147 C 
HETATM   20  C2  UNL     1      -8.750   0.114  -2.941  1.00  0.00     0.291 C 
HETATM   21  N1  UNL     1      -9.247   0.913  -1.848  1.00  0.00     0.087 N 
HETATM   22  C1  UNL     1      -8.384   2.071  -1.719  1.00  0.00     0.310 C 
HETATM   23  C29 UNL     1      -9.234   0.192  -0.593  1.00  0.00     0.291 C 
HETATM   24  C28 UNL     1      -8.846  -1.254  -0.765  1.00  0.00     0.147 C 
ENDBRANCH  17  18
ENDBRANCH  16  17
ENDBRANCH  15  16
ENDBRANCH  14  15
ENDBRANCH  12  14
ENDBRANCH   8   9
ENDBRANCH   6   8
ENDBRANCH   1   6
BRANCH   4  25
HETATM   25  N5  UNL     1       4.283  -1.631  -0.394  1.00  0.00    -0.296 N 
HETATM   26  C16 UNL     1       4.642  -2.189  -1.561  1.00  0.00     0.131 A 
HETATM   27  C17 UNL     1       5.886  -1.692  -1.931  1.00  0.00     0.091 A 
HETATM   28  C19 UNL     1       6.257  -0.815  -0.941  1.00  0.00     0.133 A 
HETATM   29  N8  UNL     1       5.268  -0.805  -0.034  1.00  0.00    -0.283 N 
ATOM     30  H8  UNL     1       5.269  -0.242   0.816  1.00  0.00     0.189 HD
BRANCH  27  31
HETATM   31  C18 UNL     1       6.615  -2.071  -3.144  1.00  0.00     0.270 C 
HETATM   32  N6  UNL     1       6.067  -3.032  -4.029  1.00  0.00    -0.057 NA
HETATM   33  O1  UNL     1       7.744  -1.511  -3.367  1.00  0.00    -0.271 OA
ENDBRANCH  27  31
BRANCH  28  34
HETATM   34  N7  UNL     1       7.359  -0.155  -0.933  1.00  0.00    -0.370 N 
ATOM     35  H7  UNL     1       8.007  -0.285  -1.710  1.00  0.00     0.161 HD
BRANCH  34  36
HETATM   36  C20 UNL     1       7.728   0.764   0.122  1.00  0.00     0.083 C 
HETATM   37  C21 UNL     1       9.191   0.698   0.429  1.00  0.00     0.025 C 
HETATM   38  C22 UNL     1       9.962   1.885  -0.113  1.00  0.00     0.002 C 
HETATM   39  C23 UNL     1       9.361   2.367  -1.415  1.00  0.00     0.000 C 
HETATM   40  C24 UNL     1       7.967   2.907  -1.173  1.00  0.00     0.002 C 
HETATM   41  C25 UNL     1       7.237   2.163  -0.094  1.00  0.00     0.025 C 
ENDBRANCH  34  36
ENDBRANCH  28  34
ENDBRANCH   4  25
TORSDOF 12
