REMARK  10 active torsions:
REMARK  status: ('A' for Active; 'I' for Inactive)
REMARK    1  A    between atoms: C2_2  and  C3_3 
REMARK    2  A    between atoms: C2_2  and  C14_20 
REMARK    3  A    between atoms: C3_3  and  N1_4 
REMARK       I    between atoms: N1_4  and  C4_6 
REMARK    4  A    between atoms: C4_6  and  C5_8 
REMARK       I    between atoms: N2_12  and  C9_13 
REMARK    5  A    between atoms: C9_13  and  O3_15 
REMARK    6  A    between atoms: O3_15  and  C10_16 
REMARK    7  A    between atoms: C14_20  and  O4_21 
REMARK    8  A    between atoms: C14_20  and  C15_23 
REMARK    9  A    between atoms: C15_23  and  C17_25 
REMARK   10  A    between atoms: C15_23  and  C18_28 
ROOT
HETATM    1  N1  UNL     1      -0.012  -1.099   0.848  1.00  0.00    -0.359 N 
ATOM      2  H1  UNL     1      -0.117  -1.553   1.755  1.00  0.00     0.162 HD
HETATM    3  C4  UNL     1       1.282  -0.890   0.335  1.00  0.00     0.240 C 
HETATM    4  O1  UNL     1       1.387  -0.333  -0.771  1.00  0.00    -0.271 OA
ENDROOT
BRANCH   1   5
HETATM    5  C3  UNL     1      -1.224  -0.679   0.110  1.00  0.00     0.129 C 
BRANCH   5   6
HETATM    6  C2  UNL     1      -2.444  -1.030   0.890  1.00  0.00     0.029 C 
HETATM    7  C1  UNL     1      -2.457  -2.581   1.119  1.00  0.00     0.014 C 
BRANCH   6   8
HETATM    8  C14 UNL     1      -3.768  -0.636   0.381  1.00  0.00     0.142 C 
BRANCH   8   9
HETATM    9  O4  UNL     1      -4.780  -0.977   1.325  1.00  0.00    -0.394 OA
ATOM     10  H4  UNL     1      -5.634  -0.723   0.997  1.00  0.00     0.210 HD
ENDBRANCH   8   9
BRANCH   8  11
HETATM   11  C15 UNL     1      -4.018   0.717  -0.186  1.00  0.00     0.077 C 
HETATM   12  C16 UNL     1      -3.188   0.921  -1.433  1.00  0.00     0.030 C 
BRANCH  11  13
HETATM   13  C17 UNL     1      -3.579   1.798   0.766  1.00  0.00     0.184 C 
HETATM   14  O5  UNL     1      -2.752   2.701   0.419  1.00  0.00    -0.647 OA
HETATM   15  O6  UNL     1      -4.021   1.906   2.066  1.00  0.00    -0.647 OA
ENDBRANCH  11  13
BRANCH  11  16
HETATM   16  C18 UNL     1      -5.471   0.911  -0.587  1.00  0.00    -0.032 C 
HETATM   17  C19 UNL     1      -5.635   2.310  -1.145  1.00  0.00     0.016 C 
HETATM   18  C20 UNL     1      -5.740  -0.035  -1.753  1.00  0.00     0.016 C 
HETATM   19  C21 UNL     1      -6.483   0.703   0.465  1.00  0.00     0.016 C 
ENDBRANCH  11  16
ENDBRANCH   8  11
ENDBRANCH   6   8
ENDBRANCH   5   6
ENDBRANCH   1   5
BRANCH   3  20
HETATM   20  C5  UNL     1       2.511  -1.303   1.058  1.00  0.00     0.181 C 
HETATM   21  C6  UNL     1       2.603  -2.807   1.200  1.00  0.00     0.037 C 
HETATM   22  C7  UNL     1       3.344  -3.249  -0.023  1.00  0.00     0.022 C 
HETATM   23  C8  UNL     1       3.853  -2.011  -0.702  1.00  0.00     0.129 C 
HETATM   24  N2  UNL     1       3.682  -0.984   0.289  1.00  0.00    -0.315 N 
HETATM   25  C9  UNL     1       4.515   0.139   0.476  1.00  0.00     0.364 C 
HETATM   26  O2  UNL     1       4.264   0.984   1.390  1.00  0.00    -0.238 OA
BRANCH  25  27
HETATM   27  O3  UNL     1       5.635   0.401  -0.294  1.00  0.00    -0.294 OA
BRANCH  27  28
HETATM   28  C10 UNL     1       6.473   1.524  -0.111  1.00  0.00     0.061 C 
HETATM   29  C11 UNL     1       5.775   2.834  -0.273  1.00  0.00     0.046 C 
HETATM   30  C12 UNL     1       7.149   1.438   1.246  1.00  0.00     0.046 C 
HETATM   31  C13 UNL     1       7.589   1.452  -1.152  1.00  0.00     0.046 C 
ENDBRANCH  27  28
ENDBRANCH  25  27
ENDBRANCH   3  20
TORSDOF 10
