REMARK  17 active torsions:
REMARK  status: ('A' for Active; 'I' for Inactive)
REMARK    1  A    between atoms: N1_2  and  C2_5 
REMARK    2  A    between atoms: C3_7  and  C4_8 
REMARK    3  A    between atoms: C4_8  and  N2_9 
REMARK       I    between atoms: N2_9  and  C5_11 
REMARK    4  A    between atoms: C5_11  and  C6_13 
REMARK    5  A    between atoms: C7_18  and  O3_19 
REMARK    6  A    between atoms: C8_21  and  N5_22 
REMARK    7  A    between atoms: N5_22  and  C9_25 
REMARK    8  A    between atoms: C9_25  and  C10_26 
REMARK    9  A    between atoms: C10_26  and  N6_27 
REMARK   10  A    between atoms: C11_31  and  O4_32 
REMARK   11  A    between atoms: C12_34  and  N7_35 
REMARK   12  A    between atoms: N7_35  and  C13_37 
REMARK   13  A    between atoms: C13_37  and  C14_38 
REMARK   14  A    between atoms: C14_38  and  N8_39 
REMARK   15  A    between atoms: N8_39  and  C15_42 
REMARK   16  A    between atoms: C15_42  and  C16_43 
REMARK   17  A    between atoms: C16_43  and  O5_44 
ROOT
HETATM    1  C2  UNL     1      -0.137  -0.711  -0.392  1.00  0.00     0.370 C 
HETATM    2  O1  UNL     1       0.859  -0.893   0.580  1.00  0.00    -0.345 OA
HETATM    3  C3  UNL     1       1.966  -0.120   0.467  1.00  0.00     0.173 C 
HETATM    4  C7  UNL     1       2.118   0.813  -0.657  1.00  0.00     0.182 C 
HETATM    5  C8  UNL     1       1.232   1.981  -0.455  1.00  0.00     0.251 C 
HETATM    6  C11 UNL     1      -0.083   1.763   0.231  1.00  0.00     0.201 C 
HETATM    7  C12 UNL     1      -0.841   0.591  -0.185  1.00  0.00     0.070 C 
ENDROOT
BRANCH   7   8
HETATM    8  N7  UNL     1      -2.101   0.531   0.480  1.00  0.00    -0.389 N 
ATOM      9  H7  UNL     1      -2.166   0.588   1.496  1.00  0.00     0.159 HD
BRANCH   8  10
HETATM   10  C13 UNL     1      -3.259   0.389  -0.323  1.00  0.00     0.147 C 
BRANCH  10  11
HETATM   11  C14 UNL     1      -4.446  -0.161   0.486  1.00  0.00     0.251 C 
BRANCH  11  12
HETATM   12  N8  UNL     1      -5.601  -0.101  -0.351  1.00  0.00    -0.072 N 
ATOM     13  H82 UNL     1      -5.903   0.865  -0.481  1.00  0.00     0.277 HD
ATOM     14  H81 UNL     1      -5.361  -0.334  -1.315  1.00  0.00     0.277 HD
BRANCH  12  15
HETATM   15  C15 UNL     1      -6.680  -0.910   0.111  1.00  0.00     0.258 C 
BRANCH  15  16
HETATM   16  C16 UNL     1      -6.305  -2.362  -0.242  1.00  0.00     0.191 C 
BRANCH  16  17
HETATM   17  O5  UNL     1      -7.299  -3.244   0.171  1.00  0.00    -0.399 OA
ATOM     18  H5  UNL     1      -7.068  -4.139  -0.047  1.00  0.00     0.209 HD
ENDBRANCH  16  17
ENDBRANCH  15  16
ENDBRANCH  12  15
ENDBRANCH  11  12
ENDBRANCH  10  11
ENDBRANCH   8  10
ENDBRANCH   7   8
BRANCH   1  19
HETATM   19  N1  UNL     1      -1.055  -1.802  -0.137  1.00  0.00    -0.047 N 
HETATM   20  C1  UNL     1      -0.323  -3.070   0.015  1.00  0.00     0.270 C 
ATOM     21  H12 UNL     1      -1.777  -1.865  -0.855  1.00  0.00     0.280 HD
ATOM     22  H11 UNL     1      -1.655  -1.612   0.666  1.00  0.00     0.280 HD
ENDBRANCH   1  19
BRANCH   6  23
HETATM   23  O4  UNL     1      -0.071   1.917   1.611  1.00  0.00    -0.387 OA
ATOM     24  H4  UNL     1      -0.904   1.779   2.046  1.00  0.00     0.210 HD
ENDBRANCH   6  23
BRANCH   5  25
HETATM   25  N5  UNL     1       1.897   2.986   0.343  1.00  0.00    -0.064 N 
ATOM     26  H52 UNL     1       1.513   3.023   1.287  1.00  0.00     0.277 HD
ATOM     27  H51 UNL     1       2.852   2.707   0.569  1.00  0.00     0.277 HD
BRANCH  25  28
HETATM   28  C9  UNL     1       1.865   4.292  -0.291  1.00  0.00     0.260 C 
BRANCH  28  29
HETATM   29  C10 UNL     1       2.525   5.264   0.663  1.00  0.00     0.257 C 
BRANCH  29  30
HETATM   30  N6  UNL     1       2.471   6.576   0.067  1.00  0.00    -0.078 N 
ATOM     31  H63 UNL     1       2.878   6.602  -0.868  1.00  0.00     0.274 HD
ATOM     32  H62 UNL     1       1.524   6.855  -0.189  1.00  0.00     0.274 HD
ATOM     33  H61 UNL     1       2.916   7.231   0.710  1.00  0.00     0.274 HD
ENDBRANCH  29  30
ENDBRANCH  28  29
ENDBRANCH  25  28
ENDBRANCH   5  25
BRANCH   3  34
HETATM   34  C4  UNL     1       3.229  -0.872   0.869  1.00  0.00     0.157 C 
BRANCH  34  35
HETATM   35  N2  UNL     1       3.406  -2.100   0.140  1.00  0.00    -0.352 N 
HETATM   36  C5  UNL     1       4.530  -2.902   0.491  1.00  0.00     0.282 C 
HETATM   37  O2  UNL     1       5.346  -2.511   1.392  1.00  0.00    -0.265 OA
ATOM     38  H2  UNL     1       2.757  -2.383  -0.594  1.00  0.00     0.162 HD
BRANCH  36  39
HETATM   39  C6  UNL     1       4.824  -4.164  -0.115  1.00  0.00     0.178 C 
HETATM   40  N3  UNL     1       4.015  -4.622  -1.052  1.00  0.00    -0.383 N 
ATOM     41  H32 UNL     1       3.198  -4.061  -1.291  1.00  0.00     0.157 HD
ATOM     42  H31 UNL     1       4.225  -5.522  -1.484  1.00  0.00     0.157 HD
HETATM   43  N4  UNL     1       5.937  -4.928   0.211  1.00  0.00    -0.077 NA
ENDBRANCH  36  39
ENDBRANCH  34  35
ENDBRANCH   3  34
BRANCH   4  44
HETATM   44  O3  UNL     1       3.446   1.308  -0.582  1.00  0.00    -0.391 OA
ATOM     45  H3  UNL     1       3.544   1.912  -1.309  1.00  0.00     0.210 HD
ENDBRANCH   4  44
TORSDOF 17
