REMARK  6 active torsions:
REMARK  status: ('A' for Active; 'I' for Inactive)
REMARK    1  A    between atoms: C3_3  and  C6_6 
REMARK    2  A    between atoms: C6_6  and  N1_8 
REMARK    3  A    between atoms: N1_8  and  N2_10 
REMARK    4  A    between atoms: N2_10  and  C7_12 
REMARK    5  A    between atoms: C7_12  and  N3_14 
REMARK    6  A    between atoms: N3_14  and  N4_16 
REMARK       I    between atoms: N4_16  and  C8_18 
ROOT
HETATM    1  C1  UNL     1      -2.427   2.505   0.153  1.00  0.00     0.018 C 
HETATM    2  C2  UNL     1      -2.739   1.332   0.072  1.00  0.00    -0.075 C 
HETATM    3  C3  UNL     1      -3.081  -0.046  -0.027  1.00  0.00     0.052 C 
HETATM    4  C4  UNL     1      -4.312  -0.416  -0.294  1.00  0.00    -0.007 C 
HETATM    5  C5  UNL     1      -5.354   0.612  -0.493  1.00  0.00     0.037 C 
ENDROOT
BRANCH   3   6
HETATM    6  C6  UNL     1      -2.062  -1.064   0.166  1.00  0.00     0.133 C 
HETATM    7  S1  UNL     1      -2.423  -2.667   0.057  1.00  0.00    -0.058 SA
BRANCH   6   8
HETATM    8  N1  UNL     1      -0.708  -0.745   0.459  1.00  0.00    -0.287 N 
ATOM      9  H1  UNL     1      -0.435   0.234   0.539  1.00  0.00     0.188 HD
BRANCH   8  10
HETATM   10  N2  UNL     1       0.254  -1.733   0.639  1.00  0.00    -0.274 N 
ATOM     11  H2  UNL     1      -0.038  -2.628   1.032  1.00  0.00     0.189 HD
BRANCH  10  12
HETATM   12  C7  UNL     1       1.616  -1.558   0.304  1.00  0.00     0.205 C 
HETATM   13  S2  UNL     1       2.657  -2.787   0.559  1.00  0.00    -0.038 SA
BRANCH  12  14
HETATM   14  N3  UNL     1       2.055  -0.312  -0.250  1.00  0.00    -0.273 N 
ATOM     15  H3  UNL     1       1.377   0.436  -0.395  1.00  0.00     0.189 HD
BRANCH  14  16
HETATM   16  N4  UNL     1       3.393  -0.100  -0.596  1.00  0.00    -0.268 N 
HETATM   17  C8  UNL     1       4.281   0.537   0.298  1.00  0.00     0.232 C 
HETATM   18  C9  UNL     1       5.687   0.747  -0.094  1.00  0.00     0.119 C 
HETATM   19  O1  UNL     1       3.877   0.920   1.420  1.00  0.00    -0.272 OA
ATOM     20  H4  UNL     1       3.732  -0.410  -1.507  1.00  0.00     0.190 HD
ENDBRANCH  14  16
ENDBRANCH  12  14
ENDBRANCH  10  12
ENDBRANCH   8  10
ENDBRANCH   6   8
ENDBRANCH   3   6
TORSDOF 6
