REMARK  5 active torsions:
REMARK  status: ('A' for Active; 'I' for Inactive)
REMARK    1  A    between atoms: O1_2  and  C2_3 
REMARK    2  A    between atoms: C2_3  and  N6_15 
REMARK    3  A    between atoms: N1_4  and  C3_6 
REMARK    4  A    between atoms: C3_6  and  N2_8 
REMARK    5  A    between atoms: N2_8  and  N3_10 
ROOT
HETATM    1  C2  UNL     1      -0.521   1.345  -0.095  1.00  0.00     0.223 C 
HETATM    2  N1  UNL     1       0.768   1.251  -0.129  1.00  0.00    -0.298 N 
ATOM      3  H1  UNL     1       1.294   2.083  -0.394  1.00  0.00     0.172 HD
ENDROOT
BRANCH   2   4
HETATM    4  C3  UNL     1       1.495   0.096   0.170  1.00  0.00     0.193 C 
HETATM    5  S1  UNL     1       1.386  -0.547   1.666  1.00  0.00    -0.039 SA
BRANCH   4   6
HETATM    6  N2  UNL     1       2.329  -0.546  -0.772  1.00  0.00    -0.274 N 
ATOM      7  H2  UNL     1       2.394  -0.140  -1.705  1.00  0.00     0.189 HD
BRANCH   6   8
HETATM    8  N3  UNL     1       3.064  -1.690  -0.513  1.00  0.00    -0.274 N 
HETATM    9  C4  UNL     1       4.323  -1.576  -0.252  1.00  0.00     0.215 C 
HETATM   10  N4  UNL     1       5.089  -2.742   0.017  1.00  0.00    -0.065 NA
HETATM   11  N5  UNL     1       4.978  -0.295  -0.224  1.00  0.00    -0.065 NA
ATOM     12  H3  UNL     1       2.618  -2.607  -0.528  1.00  0.00     0.189 HD
ENDBRANCH   6   8
ENDBRANCH   4   6
ENDBRANCH   2   4
BRANCH   1  13
HETATM   13  O1  UNL     1      -1.060   2.581  -0.427  1.00  0.00    -0.327 OA
HETATM   14  C1  UNL     1      -0.300   3.788  -0.257  1.00  0.00     0.213 C 
ENDBRANCH   1  13
BRANCH   1  15
HETATM   15  N6  UNL     1      -1.372   0.259   0.259  1.00  0.00    -0.347 N 
HETATM   16  C5  UNL     1      -2.229   0.302   1.450  1.00  0.00     0.126 C 
HETATM   17  C6  UNL     1      -3.643   0.210   0.991  1.00  0.00     0.020 C 
HETATM   18  C7  UNL     1      -3.925  -0.840  -0.011  1.00  0.00     0.003 C 
HETATM   19  C8  UNL     1      -2.863  -1.088  -1.018  1.00  0.00     0.020 C 
HETATM   20  C9  UNL     1      -1.466  -0.963  -0.512  1.00  0.00     0.126 C 
ENDBRANCH   1  15
TORSDOF 5
