REMARK  20 active torsions:
REMARK  status: ('A' for Active; 'I' for Inactive)
REMARK    1  A    between atoms: N2_4  and  N3_6 
REMARK    2  A    between atoms: N3_6  and  C1_8 
REMARK    3  A    between atoms: C1_8  and  C2_9 
REMARK    4  A    between atoms: C1_8  and  C11_20 
REMARK    5  A    between atoms: C2_9  and  C3_10 
REMARK       I    between atoms: C11_20  and  N5_22 
REMARK    6  A    between atoms: N5_22  and  C12_24 
REMARK    7  A    between atoms: C12_24  and  C13_25 
REMARK    8  A    between atoms: C12_24  and  C22_44 
REMARK    9  A    between atoms: C13_25  and  C14_26 
REMARK       I    between atoms: C14_26  and  N6_28 
REMARK   10  A    between atoms: N6_28  and  C15_30 
REMARK   11  A    between atoms: C15_30  and  C16_31 
REMARK   12  A    between atoms: C16_31  and  C17_32 
REMARK   13  A    between atoms: C17_32  and  N7_33 
REMARK   14  A    between atoms: N7_33  and  C18_36 
REMARK   15  A    between atoms: C18_36  and  C19_37 
REMARK   16  A    between atoms: C19_37  and  C20_38 
REMARK   17  A    between atoms: C20_38  and  N8_39 
REMARK       I    between atoms: C22_44  and  N11_46 
REMARK   18  A    between atoms: N11_46  and  C23_48 
REMARK   19  A    between atoms: C23_48  and  C24_49 
REMARK   20  A    between atoms: C24_49  and  C25_50 
ROOT
HETATM    1  C12 UNL     1      -0.718   2.336  -0.357  1.00  0.00     0.185 C 
ENDROOT
BRANCH   1   2
HETATM    2  N5  UNL     1      -1.083   0.972  -0.076  1.00  0.00    -0.346 N 
HETATM    3  C11 UNL     1      -1.508   0.106  -1.117  1.00  0.00     0.242 C 
HETATM    4  O1  UNL     1      -1.550   0.606  -2.293  1.00  0.00    -0.271 OA
ATOM      5  H5  UNL     1      -1.036   0.624   0.882  1.00  0.00     0.163 HD
BRANCH   3   6
HETATM    6  C1  UNL     1      -1.894  -1.304  -0.936  1.00  0.00     0.197 C 
BRANCH   6   7
HETATM    7  N3  UNL     1      -2.245  -1.850  -2.224  1.00  0.00    -0.308 N 
ATOM      8  H3  UNL     1      -3.174  -2.248  -2.364  1.00  0.00     0.182 HD
BRANCH   7   9
HETATM    9  N2  UNL     1      -1.341  -1.843  -3.275  1.00  0.00    -0.253 N 
HETATM   10  N1  UNL     1      -0.407  -2.694  -3.301  1.00  0.00    -0.331 N 
ATOM     11  H12 UNL     1      -0.333  -3.375  -2.545  1.00  0.00     0.178 HD
ATOM     12  H11 UNL     1       0.258  -2.689  -4.074  1.00  0.00     0.178 HD
ATOM     13  H2  UNL     1      -1.429  -1.155  -4.023  1.00  0.00     0.207 HD
ENDBRANCH   7   9
ENDBRANCH   6   7
BRANCH   6  14
HETATM   14  C2  UNL     1      -3.052  -1.471   0.048  1.00  0.00     0.077 C 
BRANCH  14  15
HETATM   15  C3  UNL     1      -3.328  -2.926   0.168  1.00  0.00    -0.028 A 
HETATM   16  C4  UNL     1      -4.397  -3.578  -0.411  1.00  0.00     0.096 A 
HETATM   17  N4  UNL     1      -4.272  -4.867  -0.056  1.00  0.00    -0.365 N 
HETATM   18  C5  UNL     1      -3.185  -5.057   0.712  1.00  0.00     0.042 A 
ATOM     19  H4  UNL     1      -4.918  -5.606  -0.333  1.00  0.00     0.165 HD
HETATM   20  C6  UNL     1      -2.661  -6.198   1.303  1.00  0.00     0.030 A 
HETATM   21  C10 UNL     1      -2.556  -3.824   0.874  1.00  0.00    -0.002 A 
HETATM   22  C7  UNL     1      -1.512  -6.116   2.055  1.00  0.00     0.002 A 
HETATM   23  C8  UNL     1      -0.882  -4.883   2.217  1.00  0.00     0.001 A 
HETATM   24  C9  UNL     1      -1.404  -3.749   1.630  1.00  0.00     0.014 A 
ENDBRANCH  14  15
ENDBRANCH   6  14
ENDBRANCH   3   6
ENDBRANCH   1   2
BRANCH   1  25
HETATM   25  C13 UNL     1       0.523   2.803   0.318  1.00  0.00     0.138 C 
BRANCH  25  26
HETATM   26  C14 UNL     1       1.692   1.944  -0.105  1.00  0.00     0.223 C 
HETATM   27  O2  UNL     1       1.430   0.985  -0.809  1.00  0.00    -0.273 OA
HETATM   28  N6  UNL     1       2.942   2.328   0.343  1.00  0.00    -0.341 N 
ATOM     29  H6  UNL     1       2.940   3.178   0.907  1.00  0.00     0.167 HD
BRANCH  28  30
HETATM   30  C15 UNL     1       4.223   1.758   0.163  1.00  0.00     0.065 C 
BRANCH  30  31
HETATM   31  C16 UNL     1       4.524   0.482   0.782  1.00  0.00     0.072 C 
BRANCH  31  32
HETATM   32  C17 UNL     1       3.824  -0.749   0.384  1.00  0.00     0.237 C 
BRANCH  32  33
HETATM   33  N7  UNL     1       4.045  -1.070  -0.996  1.00  0.00    -0.075 N 
ATOM     34  H72 UNL     1       3.801  -0.291  -1.607  1.00  0.00     0.277 HD
ATOM     35  H71 UNL     1       5.040  -1.131  -1.213  1.00  0.00     0.277 HD
BRANCH  33  36
HETATM   36  C18 UNL     1       3.351  -2.265  -1.363  1.00  0.00     0.234 C 
BRANCH  36  37
HETATM   37  C19 UNL     1       3.950  -3.459  -0.703  1.00  0.00     0.047 C 
BRANCH  37  38
HETATM   38  C20 UNL     1       5.408  -3.570  -1.124  1.00  0.00     0.123 C 
BRANCH  38  39
HETATM   39  N8  UNL     1       5.971  -4.739  -0.470  1.00  0.00    -0.367 N 
HETATM   40  C21 UNL     1       7.046  -4.630   0.251  1.00  0.00     0.196 C 
HETATM   41  N9  UNL     1       7.647  -3.345   0.378  1.00  0.00    -0.067 NA
HETATM   42  N10 UNL     1       7.567  -5.786   0.871  1.00  0.00    -0.067 NA
ATOM     43  H8  UNL     1       5.521  -5.648  -0.577  1.00  0.00     0.161 HD
ENDBRANCH  38  39
ENDBRANCH  37  38
ENDBRANCH  36  37
ENDBRANCH  33  36
ENDBRANCH  32  33
ENDBRANCH  31  32
ENDBRANCH  30  31
ENDBRANCH  28  30
ENDBRANCH  25  26
ENDBRANCH   1  25
BRANCH   1  44
HETATM   44  C22 UNL     1      -1.818   3.277   0.077  1.00  0.00     0.240 C 
HETATM   45  O3  UNL     1      -2.859   2.846   0.602  1.00  0.00    -0.271 OA
HETATM   46  N11 UNL     1      -1.646   4.663  -0.124  1.00  0.00    -0.359 N 
ATOM     47  H11 UNL     1      -0.787   5.006  -0.554  1.00  0.00     0.162 HD
BRANCH  46  48
HETATM   48  C23 UNL     1      -2.663   5.596   0.268  1.00  0.00     0.128 C 
BRANCH  48  49
HETATM   49  C24 UNL     1      -3.988   5.429  -0.408  1.00  0.00     0.076 C 
BRANCH  49  50
HETATM   50  C25 UNL     1      -4.901   6.509   0.119  1.00  0.00     0.010 A 
HETATM   51  C26 UNL     1      -6.217   6.594  -0.304  1.00  0.00     0.025 A 
HETATM   52  C27 UNL     1      -7.067   7.569   0.151  1.00  0.00     0.003 A 
HETATM   53  C28 UNL     1      -6.579   8.480   1.056  1.00  0.00     0.017 A 
HETATM   54  C29 UNL     1      -5.266   8.403   1.484  1.00  0.00     0.088 A 
HETATM   55  N12 UNL     1      -4.474   7.416   0.997  1.00  0.00    -0.369 N 
ATOM     56  H12 UNL     1      -3.507   7.365   1.317  1.00  0.00     0.165 HD
ENDBRANCH  49  50
ENDBRANCH  48  49
ENDBRANCH  46  48
ENDBRANCH   1  44
TORSDOF 20
