REMARK  10 active torsions:
REMARK  status: ('A' for Active; 'I' for Inactive)
REMARK    1  A    between atoms: C2_2  and  O1_3 
REMARK    2  A    between atoms: C4_7  and  O3_8 
REMARK    3  A    between atoms: C4_7  and  C5_10 
REMARK       I    between atoms: C5_10  and  N1_12 
REMARK    4  A    between atoms: N1_12  and  C6_14 
REMARK    5  A    between atoms: C6_14  and  O5_15 
REMARK    6  A    between atoms: C6_14  and  N2_17 
REMARK    7  A    between atoms: C7_20  and  N4_21 
REMARK    8  A    between atoms: C9_28  and  O7_29 
REMARK    9  A    between atoms: O7_29  and  N6_30 
REMARK   10  A    between atoms: C10_33  and  N7_34 
ROOT
HETATM    1  C1  UNL     1      -3.158  -1.511  -1.684  1.00  0.00     0.057 C 
HETATM    2  C2  UNL     1      -2.911  -0.020  -1.694  1.00  0.00     0.148 C 
HETATM    3  C3  UNL     1      -1.436   0.211  -1.694  1.00  0.00     0.209 C 
HETATM    4  O2  UNL     1      -0.668   0.053  -2.628  1.00  0.00    -0.291 OA
HETATM    5  C4  UNL     1      -0.994   0.680  -0.350  1.00  0.00     0.233 C 
HETATM    6  C9  UNL     1      -2.197   0.527   0.549  1.00  0.00     0.237 C 
HETATM    7  C10 UNL     1      -3.342   0.652  -0.435  1.00  0.00     0.260 C 
ENDROOT
BRANCH   5   8
HETATM    8  O3  UNL     1      -0.589   2.005  -0.388  1.00  0.00    -0.371 OA
ATOM      9  H3  UNL     1      -0.307   2.304   0.469  1.00  0.00     0.211 HD
ENDBRANCH   5   8
BRANCH   5  10
HETATM   10  C5  UNL     1       0.085  -0.189   0.199  1.00  0.00     0.266 C 
HETATM   11  O4  UNL     1      -0.160  -1.409   0.284  1.00  0.00    -0.269 OA
HETATM   12  N1  UNL     1       1.338   0.307   0.615  1.00  0.00    -0.313 N 
ATOM     13  H1  UNL     1       1.537   1.305   0.545  1.00  0.00     0.167 HD
BRANCH  12  14
HETATM   14  C6  UNL     1       2.330  -0.579   1.133  1.00  0.00     0.357 C 
BRANCH  14  15
HETATM   15  O5  UNL     1       2.637  -0.271   2.457  1.00  0.00    -0.358 OA
ATOM     16  H5  UNL     1       3.297  -0.861   2.802  1.00  0.00     0.214 HD
ENDBRANCH  14  15
BRANCH  14  17
HETATM   17  N2  UNL     1       3.576  -0.539   0.378  1.00  0.00    -0.180 N 
HETATM   18  N3  UNL     1       4.168   0.553  -0.074  1.00  0.00    -0.122 N 
HETATM   19  C7  UNL     1       5.277   0.208  -0.713  1.00  0.00     0.695 A 
ATOM     20  H3  UNL     1       3.827   1.506   0.049  1.00  0.00     0.206 HD
HETATM   21  N5  UNL     1       5.371  -1.114  -0.655  1.00  0.00    -0.139 N 
HETATM   22  C8  UNL     1       4.321  -1.584   0.019  1.00  0.00     0.359 A 
ATOM     23  H5  UNL     1       6.120  -1.676  -1.058  1.00  0.00     0.189 HD
HETATM   24  O6  UNL     1       4.122  -2.816   0.246  1.00  0.00    -0.244 OA
BRANCH  19  25
HETATM   25  N4  UNL     1       6.085   1.062  -1.275  1.00  0.00    -0.233 N 
ATOM     26  H42 UNL     1       6.013   2.078  -1.320  1.00  0.00     0.174 HD
ATOM     27  H41 UNL     1       6.938   0.797  -1.767  1.00  0.00     0.174 HD
ENDBRANCH  19  25
ENDBRANCH  14  17
ENDBRANCH  12  14
ENDBRANCH   5  10
BRANCH   6  28
HETATM   28  O7  UNL     1      -2.266   1.496   1.524  1.00  0.00    -0.276 OA
BRANCH  28  29
HETATM   29  N6  UNL     1      -2.406   0.962   2.766  1.00  0.00    -0.311 N 
ATOM     30  H62 UNL     1      -2.453  -0.042   2.939  1.00  0.00     0.184 HD
ATOM     31  H61 UNL     1      -2.457   1.680   3.489  1.00  0.00     0.184 HD
ENDBRANCH  28  29
ENDBRANCH   6  28
BRANCH   2  32
HETATM   32  O1  UNL     1      -3.447   0.520  -2.841  1.00  0.00    -0.380 OA
ATOM     33  H1  UNL     1      -3.292   1.457  -2.847  1.00  0.00     0.211 HD
ENDBRANCH   2  32
BRANCH   7  34
HETATM   34  N7  UNL     1      -4.583   0.127   0.096  1.00  0.00    -0.069 N 
ATOM     35  H73 UNL     1      -5.322   0.163  -0.606  1.00  0.00     0.275 HD
ATOM     36  H72 UNL     1      -4.524  -0.883   0.226  1.00  0.00     0.275 HD
ATOM     37  H71 UNL     1      -4.878   0.587   0.957  1.00  0.00     0.275 HD
ENDBRANCH   7  34
TORSDOF 10
