REMARK  2 active torsions:
REMARK  status: ('A' for Active; 'I' for Inactive)
REMARK    1  A    between atoms: N1_2  and  C2_4 
REMARK    2  A    between atoms: C3_8  and  C4_9 
ROOT
HETATM    1  C2  UNL     1      -1.235  -0.358  -0.869  1.00  0.00     0.313 A 
HETATM    2  N2  UNL     1      -1.239  -1.012   0.447  1.00  0.00    -0.042 N 
ATOM      3  H21 UNL     1      -1.050  -1.952   0.796  1.00  0.00     0.280 HD
ATOM      4  H22 UNL     1      -1.952  -1.292   1.121  1.00  0.00     0.280 HD
HETATM    5  C3  UNL     1      -0.437   0.207   0.199  1.00  0.00     0.268 A 
ENDROOT
BRANCH   5   6
HETATM    6  C4  UNL     1       1.019  -0.048   0.396  1.00  0.00     0.183 C 
HETATM    7  C5  UNL     1       1.924   1.094   0.065  1.00  0.00     0.268 C 
HETATM    8  N3  UNL     1       3.141   0.423  -0.425  1.00  0.00    -0.052 N 
HETATM    9  C6  UNL     1       2.880  -0.952  -0.083  1.00  0.00     0.400 C 
ATOM     10  H32 UNL     1       3.362   0.590  -1.407  1.00  0.00     0.279 HD
ATOM     11  H31 UNL     1       4.018   0.800  -0.065  1.00  0.00     0.279 HD
HETATM   12  O1  UNL     1       1.518  -1.046  -0.467  1.00  0.00    -0.355 OA
ENDBRANCH   5   6
BRANCH   1  13
HETATM   13  N1  UNL     1      -2.487   0.246  -1.221  1.00  0.00    -0.398 N 
HETATM   14  C1  UNL     1      -3.494   0.250  -0.196  1.00  0.00     0.142 C 
ATOM     15  H1  UNL     1      -2.653   0.649  -2.143  1.00  0.00     0.154 HD
ENDBRANCH   1  13
TORSDOF 2
