REMARK  1 active torsions:
REMARK  status: ('A' for Active; 'I' for Inactive)
REMARK    1  A    between atoms: N1_2  and  C3_4 
ROOT
HETATM    1  C3  UNL     1      -0.068  -0.036   0.188  1.00  0.00     0.527 C 
HETATM    2  N2  UNL     1       0.866  -0.911  -0.504  1.00  0.00    -0.010 N 
ATOM      3  H21 UNL     1       0.986  -0.642  -1.481  1.00  0.00     0.283 HD
ATOM      4  H22 UNL     1       0.477  -1.842  -0.650  1.00  0.00     0.283 HD
HETATM    5  C4  UNL     1       2.141  -0.960   0.206  1.00  0.00     0.363 C 
HETATM    6  N3  UNL     1       2.581   0.397   0.531  1.00  0.00    -0.319 N 
ATOM      7  H3  UNL     1       3.467   0.530   1.018  1.00  0.00     0.165 HD
HETATM    8  C5  UNL     1       1.797   1.541   0.181  1.00  0.00     0.320 C 
HETATM    9  O1  UNL     1       2.307   2.667   0.082  1.00  0.00    -0.247 OA
HETATM   10  N4  UNL     1       0.402   1.325  -0.049  1.00  0.00    -0.290 N 
ATOM     11  H4  UNL     1      -0.221   2.071  -0.357  1.00  0.00     0.168 HD
ENDROOT
BRANCH   1  12
HETATM   12  N1  UNL     1      -1.361  -0.156  -0.437  1.00  0.00     0.130 N 
HETATM   13  C1  UNL     1      -1.890  -1.495  -0.396  1.00  0.00     0.314 C 
HETATM   14  C2  UNL     1      -2.298   0.836   0.024  1.00  0.00     0.314 C 
ENDBRANCH   1  12
TORSDOF 1
