REMARK  3 active torsions:
REMARK  status: ('A' for Active; 'I' for Inactive)
REMARK    1  A    between atoms: C4_4  and  C5_5 
REMARK    2  A    between atoms: C5_5  and  N1_6 
REMARK    3  A    between atoms: N3_13  and  N4_15 
ROOT
HETATM    1  C1  UNL     1       1.145   2.664   0.148  1.00  0.00     0.027 C 
HETATM    2  C2  UNL     1       0.647   1.424   0.180  1.00  0.00     0.002 A 
HETATM    3  C3  UNL     1      -0.727   1.004   0.097  1.00  0.00     0.041 A 
HETATM    4  C4  UNL     1      -0.834  -0.317   0.163  1.00  0.00     0.037 A 
HETATM    5  N2  UNL     1       0.464  -0.856   0.295  1.00  0.00    -0.343 N 
ATOM      6  H2  UNL     1       0.680  -1.850   0.369  1.00  0.00     0.167 HD
HETATM    7  C6  UNL     1       1.439   0.207   0.310  1.00  0.00     0.129 A 
HETATM    8  N3  UNL     1       2.725   0.092   0.416  1.00  0.00    -0.291 N 
ATOM      9  H3  UNL     1       3.328   0.914   0.416  1.00  0.00     0.188 HD
ENDROOT
BRANCH   4  10
HETATM   10  C5  UNL     1      -2.068  -1.147   0.115  1.00  0.00     0.286 C 
BRANCH  10  11
HETATM   11  N1  UNL     1      -3.238  -0.297  -0.024  1.00  0.00    -0.074 N 
ATOM     12  H13 UNL     1      -3.283   0.412   0.708  1.00  0.00     0.274 HD
ATOM     13  H12 UNL     1      -3.165   0.324  -0.830  1.00  0.00     0.274 HD
ATOM     14  H11 UNL     1      -4.084  -0.866  -0.057  1.00  0.00     0.274 HD
ENDBRANCH  10  11
ENDBRANCH   4  10
BRANCH   8  15
HETATM   15  N4  UNL     1       3.260  -1.195   0.531  1.00  0.00    -0.344 N 
ATOM     16  H42 UNL     1       2.643  -2.007   0.530  1.00  0.00     0.176 HD
ATOM     17  H41 UNL     1       4.273  -1.286   0.614  1.00  0.00     0.176 HD
ENDBRANCH   8  15
TORSDOF 3
