REMARK  2 active torsions:
REMARK  status: ('A' for Active; 'I' for Inactive)
REMARK    1  A    between atoms: O1_1  and  C1_3 
REMARK    2  A    between atoms: C1_3  and  N1_4 
ROOT
HETATM    1  N1  UNL     1       0.549   0.095  -0.261  1.00  0.00    -0.034 N 
HETATM    2  C2  UNL     1       0.242  -0.962   0.691  1.00  0.00     0.245 C 
HETATM    3  C3  UNL     1      -1.256  -0.719   0.843  1.00  0.00     0.016 C 
HETATM    4  C4  UNL     1      -1.641  -0.712  -0.624  1.00  0.00     0.042 C 
HETATM    5  C5  UNL     1      -0.569   0.281  -1.111  1.00  0.00     0.225 A 
HETATM    6  C6  UNL     1      -0.341   1.184  -0.019  1.00  0.00     0.225 A 
HETATM    7  C7  UNL     1      -1.252   0.757   1.146  1.00  0.00     0.042 C 
ENDROOT
BRANCH   1   8
HETATM    8  C1  UNL     1       1.886   0.377  -0.636  1.00  0.00     0.402 C 
BRANCH   8   9
HETATM    9  O1  UNL     1       2.752  -0.702  -0.459  1.00  0.00    -0.374 OA
ATOM     10  H1  UNL     1       3.648  -0.513  -0.710  1.00  0.00     0.211 HD
ENDBRANCH   8   9
ENDBRANCH   1   8
TORSDOF 2
