REMARK  0 active torsions:
REMARK  status: ('A' for Active; 'I' for Inactive)
REMARK       I    between atoms: C1_2  and  N2_4 
ROOT
HETATM    1  N1  UNL     1       3.664  -0.189  -0.324  1.00  0.00    -0.039 NA
HETATM    2  C1  UNL     1       2.285   0.126  -0.618  1.00  0.00     0.340 C 
HETATM    3  O1  UNL     1       2.118   0.739  -1.639  1.00  0.00    -0.250 OA
HETATM    4  N2  UNL     1       1.330  -0.311   0.302  1.00  0.00    -0.258 N 
HETATM    5  C2  UNL     1       1.615  -1.012   1.452  1.00  0.00     0.193 A 
HETATM    6  N3  UNL     1       0.511  -1.289   2.124  1.00  0.00    -0.345 N 
ATOM      7  H3  UNL     1       0.465  -1.799   3.006  1.00  0.00     0.167 HD
HETATM    8  C3  UNL     1      -0.522  -0.798   1.467  1.00  0.00     0.132 A 
HETATM    9  C4  UNL     1      -1.866  -0.826   1.755  1.00  0.00     0.276 A 
HETATM   10  O2  UNL     1      -2.297  -1.397   2.811  1.00  0.00    -0.266 OA
HETATM   11  N4  UNL     1      -2.724  -0.251   0.923  1.00  0.00    -0.306 N 
ATOM     12  H4  UNL     1      -3.723  -0.266   1.128  1.00  0.00     0.170 HD
HETATM   13  C5  UNL     1      -2.265   0.362  -0.211  1.00  0.00     0.138 A 
HETATM   14  N5  UNL     1      -2.930   1.003  -1.191  1.00  0.00    -0.337 N 
ATOM     15  H5  UNL     1      -3.941   1.132  -1.232  1.00  0.00     0.168 HD
HETATM   16  C6  UNL     1      -2.062   1.441  -2.097  1.00  0.00     0.182 A 
HETATM   17  N6  UNL     1      -0.821   1.062  -1.669  1.00  0.00    -0.347 N 
ATOM     18  H6  UNL     1       0.053   1.256  -2.158  1.00  0.00     0.167 HD
HETATM   19  C7  UNL     1      -0.922   0.403  -0.521  1.00  0.00     0.108 A 
HETATM   20  C8  UNL     1      -0.004  -0.184   0.321  1.00  0.00     0.107 A 
ENDROOT
TORSDOF 0
