REMARK  13 active torsions:
REMARK  status: ('A' for Active; 'I' for Inactive)
REMARK    1  A    between atoms: C3_5  and  C4_6 
REMARK       I    between atoms: C4_6  and  N2_8 
REMARK    2  A    between atoms: N2_8  and  C5_10 
REMARK    3  A    between atoms: C5_10  and  C6_11 
REMARK    4  A    between atoms: C5_10  and  C7_14 
REMARK    5  A    between atoms: C13_22  and  N4_23 
REMARK    6  A    between atoms: N4_23  and  C14_24 
REMARK    7  A    between atoms: N4_23  and  C21_36 
REMARK    8  A    between atoms: C14_24  and  C15_25 
REMARK    9  A    between atoms: C15_25  and  C16_26 
REMARK   10  A    between atoms: C16_26  and  N5_27 
REMARK       I    between atoms: N5_27  and  C17_29 
REMARK       I    between atoms: C17_29  and  N6_31 
REMARK   11  A    between atoms: N6_31  and  C18_33 
REMARK   12  A    between atoms: C21_36  and  O6_37 
REMARK   13  A    between atoms: C21_36  and  C22_39 
ROOT
HETATM    1  C1  UNL     1       1.679  -0.074   3.389  1.00  0.00     0.153 C 
HETATM    2  N1  UNL     1       1.537  -0.030   1.950  1.00  0.00    -0.347 N 
HETATM    3  C2  UNL     1       2.534  -0.624   1.143  1.00  0.00     0.251 C 
HETATM    4  O1  UNL     1       3.114  -1.689   1.457  1.00  0.00    -0.270 OA
HETATM    5  C3  UNL     1       2.897   0.058  -0.127  1.00  0.00     0.263 C 
HETATM    6  N3  UNL     1       1.887   0.863  -0.691  1.00  0.00    -0.396 N 
ATOM      7  H3  UNL     1       2.066   1.327  -1.582  1.00  0.00     0.155 HD
HETATM    8  C11 UNL     1       0.651   1.047  -0.073  1.00  0.00     0.102 C 
HETATM    9  C12 UNL     1      -0.385   0.242  -0.918  1.00  0.00     0.052 C 
HETATM   10  C13 UNL     1      -1.525   0.092   0.066  1.00  0.00     0.090 C 
HETATM   11  C30 UNL     1      -0.775  -0.377   1.272  1.00  0.00     0.052 C 
HETATM   12  C31 UNL     1       0.414   0.590   1.307  1.00  0.00     0.111 C 
ENDROOT
BRANCH  10  13
HETATM   13  N4  UNL     1      -2.712  -0.498  -0.324  1.00  0.00    -0.360 N 
BRANCH  13  14
HETATM   14  C14 UNL     1      -3.900   0.464  -0.280  1.00  0.00     0.127 C 
BRANCH  14  15
HETATM   15  C15 UNL     1      -4.552   0.410   1.054  1.00  0.00     0.039 C 
BRANCH  15  16
HETATM   16  C16 UNL     1      -5.728   1.355   1.086  1.00  0.00     0.126 C 
BRANCH  16  17
HETATM   17  N5  UNL     1      -5.309   2.725   0.832  1.00  0.00    -0.343 N 
HETATM   18  C17 UNL     1      -6.247   3.796   0.809  1.00  0.00     0.316 C 
HETATM   19  O5  UNL     1      -7.479   3.600   1.010  1.00  0.00    -0.247 OA
HETATM   20  N6  UNL     1      -5.791   5.109   0.554  1.00  0.00    -0.339 N 
ATOM     21  H6  UNL     1      -4.800   5.284   0.389  1.00  0.00     0.164 HD
ATOM     22  H5  UNL     1      -4.322   2.922   0.667  1.00  0.00     0.164 HD
BRANCH  20  23
HETATM   23  C18 UNL     1      -6.734   6.203   0.528  1.00  0.00     0.086 A 
HETATM   24  C19 UNL     1      -6.287   7.548   1.046  1.00  0.00     0.027 A 
HETATM   25  C20 UNL     1      -6.485   7.346  -0.434  1.00  0.00     0.027 A 
ENDBRANCH  20  23
ENDBRANCH  16  17
ENDBRANCH  15  16
ENDBRANCH  14  15
ENDBRANCH  13  14
BRANCH  13  26
HETATM   26  C21 UNL     1      -3.080  -1.755  -0.760  1.00  0.00     0.123 C 
BRANCH  26  27
HETATM   27  O6  UNL     1      -4.394  -1.869  -0.975  1.00  0.00    -0.349 OA
ATOM     28  H6  UNL     1      -4.647  -2.734  -1.275  1.00  0.00     0.219 HD
ENDBRANCH  26  27
BRANCH  26  29
HETATM   29  C22 UNL     1      -2.416  -3.016  -1.060  1.00  0.00     0.028 C 
HETATM   30  C23 UNL     1      -1.750  -2.972  -2.418  1.00  0.00     0.018 C 
HETATM   31  C24 UNL     1      -0.861  -4.152  -2.695  1.00  0.00     0.001 C 
HETATM   32  C25 UNL     1      -1.656  -5.416  -2.560  1.00  0.00     0.000 C 
HETATM   33  C26 UNL     1      -3.109  -5.105  -2.322  1.00  0.00     0.006 C 
HETATM   34  C27 UNL     1      -3.388  -4.209  -1.171  1.00  0.00     0.002 C 
HETATM   35  C28 UNL     1      -2.884  -4.772   0.108  1.00  0.00     0.007 C 
HETATM   36  C29 UNL     1      -1.734  -3.774   0.017  1.00  0.00     0.018 C 
ENDBRANCH  26  29
ENDBRANCH  13  26
ENDBRANCH  10  13
BRANCH   5  37
HETATM   37  C4  UNL     1       4.204   0.767   0.007  1.00  0.00     0.250 C 
HETATM   38  O2  UNL     1       4.307   1.985  -0.329  1.00  0.00    -0.271 OA
HETATM   39  N2  UNL     1       5.369   0.131   0.503  1.00  0.00    -0.344 N 
ATOM     40  H2  UNL     1       5.298  -0.850   0.773  1.00  0.00     0.163 HD
BRANCH  39  41
HETATM   41  C5  UNL     1       6.637   0.775   0.650  1.00  0.00     0.193 C 
BRANCH  41  42
HETATM   42  C6  UNL     1       7.229   0.588   1.995  1.00  0.00     0.197 C 
HETATM   43  O3  UNL     1       6.534  -0.103   2.818  1.00  0.00    -0.646 OA
HETATM   44  O4  UNL     1       8.443   1.119   2.338  1.00  0.00    -0.646 OA
ENDBRANCH  41  42
BRANCH  41  45
HETATM   45  C7  UNL     1       7.594   0.104  -0.345  1.00  0.00    -0.021 C 
HETATM   46  C8  UNL     1       7.023   0.299  -1.745  1.00  0.00     0.017 C 
HETATM   47  C9  UNL     1       8.972   0.726  -0.286  1.00  0.00     0.017 C 
HETATM   48  C10 UNL     1       7.711  -1.349   0.022  1.00  0.00     0.017 C 
ENDBRANCH  41  45
ENDBRANCH  39  41
ENDBRANCH   5  37
TORSDOF 13
