REMARK  18 active torsions:
REMARK  status: ('A' for Active; 'I' for Inactive)
REMARK    1  A    between atoms: C2_2  and  C3_3 
REMARK    2  A    between atoms: C3_3  and  C4_4 
REMARK    3  A    between atoms: C4_4  and  C5_5 
REMARK    4  A    between atoms: C6_8  and  O1_9 
REMARK    5  A    between atoms: C7_11  and  C8_12 
REMARK    6  A    between atoms: C8_12  and  C9_13 
REMARK    7  A    between atoms: C10_18  and  O4_19 
REMARK    8  A    between atoms: C11_21  and  C12_22 
REMARK    9  A    between atoms: C12_22  and  C13_23 
REMARK   10  A    between atoms: C17_28  and  O5_29 
REMARK   11  A    between atoms: C18_31  and  C19_32 
REMARK   12  A    between atoms: C19_32  and  C21_34 
REMARK   13  A    between atoms: C23_38  and  O6_39 
REMARK   14  A    between atoms: C24_41  and  C25_42 
REMARK   15  A    between atoms: C28_47  and  O7_48 
REMARK   16  A    between atoms: C29_50  and  C30_51 
REMARK   17  A    between atoms: C30_51  and  C31_52 
REMARK   18  A    between atoms: C34_57  and  O8_58 
ROOT
HETATM    1  C5  UNL     1       3.330  -1.720   0.510  1.00  0.00     0.158 C 
HETATM    2  N1  UNL     1       2.150  -1.672  -0.272  1.00  0.00    -0.361 N 
ATOM      3  H1  UNL     1       2.324  -1.372  -1.231  1.00  0.00     0.162 HD
HETATM    4  C6  UNL     1       0.820  -1.939  -0.031  1.00  0.00     0.136 C 
HETATM    5  C7  UNL     1      -0.008  -2.929   0.569  1.00  0.00     0.167 C 
HETATM    6  N2  UNL     1      -1.068  -3.292  -0.412  1.00  0.00    -0.360 N 
ATOM      7  H2  UNL     1      -0.763  -3.726  -1.283  1.00  0.00     0.162 HD
HETATM    8  C10 UNL     1      -2.450  -3.091  -0.248  1.00  0.00     0.135 C 
HETATM    9  C11 UNL     1      -3.199  -1.815  -0.183  1.00  0.00     0.160 C 
HETATM   10  N3  UNL     1      -3.143  -1.157   1.113  1.00  0.00    -0.352 N 
HETATM   11  C16 UNL     1      -3.569  -2.138   2.164  1.00  0.00     0.152 C 
HETATM   12  C17 UNL     1      -2.768   0.135   1.465  1.00  0.00     0.166 C 
HETATM   13  C18 UNL     1      -3.144   1.500   1.250  1.00  0.00     0.087 C 
HETATM   14  N4  UNL     1      -2.099   2.507   1.328  1.00  0.00    -0.335 N 
ATOM     15  H4  UNL     1      -2.513   3.422   1.507  1.00  0.00     0.168 HD
HETATM   16  C23 UNL     1      -0.753   2.622   1.240  1.00  0.00     0.139 C 
HETATM   17  C24 UNL     1       0.249   2.697   0.137  1.00  0.00     0.161 C 
HETATM   18  N5  UNL     1       1.602   2.949   0.627  1.00  0.00    -0.357 N 
ATOM     19  H5  UNL     1       1.657   3.832   1.134  1.00  0.00     0.162 HD
HETATM   20  C28 UNL     1       2.812   2.319   0.588  1.00  0.00     0.159 C 
HETATM   21  C29 UNL     1       3.810   1.893  -0.366  1.00  0.00     0.062 C 
HETATM   22  N6  UNL     1       4.382   0.576  -0.244  1.00  0.00    -0.339 N 
ATOM     23  H6  UNL     1       5.126   0.440  -0.928  1.00  0.00     0.167 HD
HETATM   24  C34 UNL     1       4.218  -0.545   0.522  1.00  0.00     0.139 C 
ENDROOT
BRANCH   1  25
HETATM   25  C4  UNL     1       4.116  -2.914  -0.086  1.00  0.00     0.033 C 
BRANCH  25  26
HETATM   26  C3  UNL     1       5.417  -3.170   0.570  1.00  0.00     0.002 C 
BRANCH  26  27
HETATM   27  C2  UNL     1       6.010  -4.406  -0.145  1.00  0.00    -0.004 C 
HETATM   28  C1  UNL     1       7.364  -4.738   0.478  1.00  0.00     0.005 C 
ENDBRANCH  26  27
ENDBRANCH  25  26
ENDBRANCH   1  25
BRANCH  24  29
HETATM   29  O8  UNL     1       5.042  -0.652   1.542  1.00  0.00    -0.348 OA
ATOM     30  H8  UNL     1       5.615   0.106   1.550  1.00  0.00     0.219 HD
ENDBRANCH  24  29
BRANCH   4  31
HETATM   31  O1  UNL     1       0.057  -0.957  -0.517  1.00  0.00    -0.348 OA
ATOM     32  H1  UNL     1      -0.860  -1.141  -0.351  1.00  0.00     0.219 HD
ENDBRANCH   4  31
BRANCH   5  33
HETATM   33  C8  UNL     1       0.411  -4.154   1.241  1.00  0.00     0.146 C 
BRANCH  33  34
HETATM   34  C9  UNL     1       1.231  -4.062   2.459  1.00  0.00     0.174 C 
HETATM   35  O2  UNL     1       2.386  -4.541   2.600  1.00  0.00    -0.648 OA
HETATM   36  O3  UNL     1       0.738  -3.397   3.591  1.00  0.00    -0.648 OA
ENDBRANCH  33  34
ENDBRANCH   5  33
BRANCH  21  37
HETATM   37  C30 UNL     1       3.967   2.434  -1.724  1.00  0.00     0.065 C 
BRANCH  37  38
HETATM   38  C31 UNL     1       4.416   3.842  -1.888  1.00  0.00    -0.017 C 
HETATM   39  C32 UNL     1       5.835   3.932  -1.237  1.00  0.00     0.010 C 
HETATM   40  C33 UNL     1       3.671   4.961  -1.320  1.00  0.00     0.010 C 
ENDBRANCH  37  38
ENDBRANCH  21  37
BRANCH  20  41
HETATM   41  O7  UNL     1       3.234   1.973   1.795  1.00  0.00    -0.345 OA
ATOM     42  H7  UNL     1       4.076   1.534   1.768  1.00  0.00     0.219 HD
ENDBRANCH  20  41
BRANCH   8  43
HETATM   43  O4  UNL     1      -3.112  -4.217  -0.141  1.00  0.00    -0.348 OA
ATOM     44  H4  UNL     1      -4.046  -4.081  -0.030  1.00  0.00     0.219 HD
ENDBRANCH   8  43
BRANCH   9  45
HETATM   45  C12 UNL     1      -4.640  -2.031  -0.562  1.00  0.00     0.037 C 
BRANCH  45  46
HETATM   46  C13 UNL     1      -4.993  -2.411  -1.922  1.00  0.00    -0.020 C 
HETATM   47  C14 UNL     1      -4.541  -3.618  -2.605  1.00  0.00     0.009 C 
HETATM   48  C15 UNL     1      -6.556  -2.462  -1.964  1.00  0.00     0.009 C 
ENDBRANCH  45  46
ENDBRANCH   9  45
BRANCH  17  49
HETATM   49  C25 UNL     1      -0.002   3.956  -0.735  1.00  0.00     0.008 C 
HETATM   50  C26 UNL     1      -1.317   3.994  -1.393  1.00  0.00     0.012 C 
HETATM   51  C27 UNL     1       0.095   5.183   0.168  1.00  0.00     0.012 C 
ENDBRANCH  17  49
BRANCH  16  52
HETATM   52  O6  UNL     1      -0.124   2.692   2.395  1.00  0.00    -0.348 OA
ATOM     53  H6  UNL     1       0.821   2.773   2.333  1.00  0.00     0.219 HD
ENDBRANCH  16  52
BRANCH  12  54
HETATM   54  O5  UNL     1      -1.718   0.122   2.271  1.00  0.00    -0.344 OA
ATOM     55  H5  UNL     1      -1.462   1.005   2.511  1.00  0.00     0.219 HD
ENDBRANCH  12  54
BRANCH  13  56
HETATM   56  C19 UNL     1      -4.225   1.946   0.350  1.00  0.00    -0.053 C 
HETATM   57  C20 UNL     1      -4.185   1.668  -1.091  1.00  0.00     0.046 C 
BRANCH  56  58
HETATM   58  C21 UNL     1      -5.628   1.740   0.942  1.00  0.00     0.031 C 
HETATM   59  C22 UNL     1      -5.783   2.516   2.235  1.00  0.00     0.010 C 
ENDBRANCH  56  58
ENDBRANCH  13  56
TORSDOF 18
