REMARK  7 active torsions:
REMARK  status: ('A' for Active; 'I' for Inactive)
REMARK    1  A    between atoms: C3_8  and  N3_9 
REMARK    2  A    between atoms: N4_13  and  C4_14 
REMARK    3  A    between atoms: C4_14  and  C5_15 
REMARK    4  A    between atoms: C5_15  and  C6_16 
REMARK    5  A    between atoms: C6_16  and  C7_17 
REMARK    6  A    between atoms: C7_17  and  O1_18 
REMARK    7  A    between atoms: O1_18  and  N5_19 
ROOT
HETATM    1  N1  UNL     1      -0.598   2.352  -0.214  1.00  0.00    -0.371 N 
ATOM      2  H11 UNL     1       0.368   2.166   0.055  1.00  0.00     0.159 HD
ATOM      3  H12 UNL     1      -0.636   3.329  -0.503  1.00  0.00     0.159 HD
HETATM    4  C1  UNL     1      -1.605   1.558  -0.212  1.00  0.00     0.172 C 
HETATM    5  N2  UNL     1      -2.961   1.819  -0.590  1.00  0.00    -0.359 N 
ATOM      6  H2  UNL     1      -3.272   2.515  -1.268  1.00  0.00     0.162 HD
HETATM    7  C2  UNL     1      -3.815   0.919   0.162  1.00  0.00     0.177 C 
HETATM    8  C3  UNL     1      -2.923  -0.261   0.441  1.00  0.00     0.304 C 
HETATM    9  N4  UNL     1      -1.552   0.198   0.190  1.00  0.00    -0.324 N 
ENDROOT
BRANCH   9  10
HETATM   10  C4  UNL     1      -0.430  -0.688   0.359  1.00  0.00     0.128 C 
BRANCH  10  11
HETATM   11  C5  UNL     1       0.888  -0.064   0.066  1.00  0.00     0.022 C 
BRANCH  11  12
HETATM   12  C6  UNL     1       1.963  -1.135   0.291  1.00  0.00     0.030 C 
BRANCH  12  13
HETATM   13  C7  UNL     1       3.293  -0.455  -0.020  1.00  0.00     0.200 C 
BRANCH  13  14
HETATM   14  O1  UNL     1       4.357  -1.346   0.153  1.00  0.00    -0.287 OA
BRANCH  14  15
HETATM   15  N5  UNL     1       5.514  -0.705  -0.133  1.00  0.00    -0.311 N 
ATOM     16  H52 UNL     1       5.582   0.270  -0.426  1.00  0.00     0.184 HD
ATOM     17  H51 UNL     1       6.290  -1.355  -0.007  1.00  0.00     0.184 HD
ENDBRANCH  14  15
ENDBRANCH  13  14
ENDBRANCH  12  13
ENDBRANCH  11  12
ENDBRANCH  10  11
ENDBRANCH   9  10
BRANCH   8  18
HETATM   18  N3  UNL     1      -3.297  -1.348  -0.417  1.00  0.00    -0.057 N 
ATOM     19  H33 UNL     1      -4.286  -1.583  -0.336  1.00  0.00     0.276 HD
ATOM     20  H32 UNL     1      -3.292  -1.083  -1.402  1.00  0.00     0.276 HD
ATOM     21  H31 UNL     1      -2.693  -2.148  -0.228  1.00  0.00     0.276 HD
ENDBRANCH   8  18
TORSDOF 7
