REMARK  10 active torsions:
REMARK  status: ('A' for Active; 'I' for Inactive)
REMARK    1  A    between atoms: C2_4  and  C3_5 
REMARK    2  A    between atoms: C2_4  and  N4_24 
REMARK    3  A    between atoms: C3_5  and  N2_6 
REMARK    4  A    between atoms: N2_6  and  C4_7 
REMARK    5  A    between atoms: N2_6  and  C10_18 
REMARK    6  A    between atoms: C4_7  and  N3_9 
REMARK    7  A    between atoms: N3_9  and  C5_11 
REMARK    8  A    between atoms: C5_11  and  C8_14 
REMARK    9  A    between atoms: C8_14  and  O2_16 
REMARK   10  A    between atoms: N4_24  and  C16_26 
ROOT
HETATM    1  N2  UNL     1       0.071   1.263  -0.153  1.00  0.00    -0.347 N 
ENDROOT
BRANCH   1   2
HETATM    2  C3  UNL     1       0.561   0.425  -1.284  1.00  0.00     0.201 C 
BRANCH   2   3
HETATM    3  C2  UNL     1       1.124  -0.888  -0.714  1.00  0.00     0.091 C 
HETATM    4  N1  UNL     1       1.258  -0.924   0.509  1.00  0.00    -0.383 N 
HETATM    5  C1  UNL     1       1.681  -1.759   1.530  1.00  0.00     0.147 C 
ATOM      6  H1  UNL     1       0.954  -0.035   0.906  1.00  0.00     0.160 HD
BRANCH   3   7
HETATM    7  N4  UNL     1       1.412  -1.842  -1.709  1.00  0.00    -0.375 N 
ATOM      8  H4  UNL     1       0.711  -1.921  -2.445  1.00  0.00     0.161 HD
BRANCH   7   9
HETATM    9  C16 UNL     1       2.528  -2.712  -1.847  1.00  0.00     0.074 C 
HETATM   10  C17 UNL     1       2.588  -3.872  -0.896  1.00  0.00     0.031 C 
HETATM   11  C18 UNL     1       3.849  -1.944  -1.851  1.00  0.00     0.031 C 
ENDBRANCH   7   9
ENDBRANCH   3   7
ENDBRANCH   2   3
ENDBRANCH   1   2
BRANCH   1  12
HETATM   12  C4  UNL     1      -1.085   0.817   0.471  1.00  0.00     0.171 C 
HETATM   13  S1  UNL     1      -1.733   1.646   1.743  1.00  0.00    -0.041 SA
BRANCH  12  14
HETATM   14  N3  UNL     1      -1.773  -0.373   0.029  1.00  0.00    -0.349 N 
ATOM     15  H3  UNL     1      -1.428  -0.912  -0.765  1.00  0.00     0.163 HD
BRANCH  14  16
HETATM   16  C5  UNL     1      -2.954  -0.779   0.735  1.00  0.00     0.113 C 
HETATM   17  C6  UNL     1      -4.044   0.249   0.772  1.00  0.00     0.049 C 
HETATM   18  C7  UNL     1      -2.548  -1.272   2.118  1.00  0.00     0.049 C 
BRANCH  16  19
HETATM   19  C8  UNL     1      -3.558  -1.988   0.060  1.00  0.00     0.286 C 
HETATM   20  O1  UNL     1      -2.991  -2.460  -0.956  1.00  0.00    -0.262 OA
BRANCH  19  21
HETATM   21  O2  UNL     1      -4.709  -2.593   0.523  1.00  0.00    -0.325 OA
HETATM   22  C9  UNL     1      -5.284  -3.731  -0.103  1.00  0.00     0.213 C 
ENDBRANCH  19  21
ENDBRANCH  16  19
ENDBRANCH  14  16
ENDBRANCH  12  14
ENDBRANCH   1  12
BRANCH   1  23
HETATM   23  C10 UNL     1       0.845   2.396   0.101  1.00  0.00     0.087 C 
HETATM   24  C11 UNL     1       0.592   3.193   1.307  1.00  0.00     0.025 C 
HETATM   25  C12 UNL     1       1.684   4.254   1.529  1.00  0.00     0.002 C 
HETATM   26  C13 UNL     1       2.138   4.954   0.327  1.00  0.00     0.000 C 
HETATM   27  C14 UNL     1       1.892   4.302  -0.988  1.00  0.00     0.002 C 
HETATM   28  C15 UNL     1       0.700   3.429  -1.060  1.00  0.00     0.025 C 
ENDBRANCH   1  23
TORSDOF 10
