REMARK  5 active torsions:
REMARK  status: ('A' for Active; 'I' for Inactive)
REMARK       I    between atoms: C1_2  and  N1_3 
REMARK    1  A    between atoms: C1_2  and  C8_17 
REMARK    2  A    between atoms: N1_3  and  C2_5 
REMARK    3  A    between atoms: C11_20  and  S2_21 
REMARK    4  A    between atoms: S2_21  and  N4_24 
REMARK    5  A    between atoms: N4_24  and  C12_26 
ROOT
HETATM    1  C8  UNL     1       1.561  -1.049   0.782  1.00  0.00     0.061 A 
HETATM    2  C9  UNL     1       0.551  -1.684   0.098  1.00  0.00     0.021 A 
HETATM    3  C10 UNL     1      -0.684  -1.087  -0.104  1.00  0.00     0.029 A 
HETATM    4  C11 UNL     1      -0.844   0.180   0.418  1.00  0.00     0.109 A 
HETATM    5  C19 UNL     1       0.174   0.843   1.118  1.00  0.00     0.091 A 
HETATM    6  N7  UNL     1       0.049   2.073   1.637  1.00  0.00    -0.309 N 
ATOM      7  H7  UNL     1      -0.766   2.685   1.605  1.00  0.00     0.176 HD
HETATM    8  S3  UNL     1       1.537   2.377   2.352  1.00  0.00     0.068 SA
HETATM    9  N8  UNL     1       2.289   0.930   1.976  1.00  0.00    -0.309 N 
ATOM     10  H8  UNL     1       3.238   0.638   2.209  1.00  0.00     0.176 HD
HETATM   11  C20 UNL     1       1.362   0.244   1.301  1.00  0.00     0.084 A 
ENDROOT
BRANCH   1  12
HETATM   12  C1  UNL     1       2.827  -1.745   0.951  1.00  0.00     0.260 C 
HETATM   13  O1  UNL     1       3.004  -2.896   0.488  1.00  0.00    -0.267 OA
HETATM   14  N1  UNL     1       3.933  -1.163   1.647  1.00  0.00    -0.303 N 
ATOM     15  H1  UNL     1       3.906  -0.985   2.651  1.00  0.00     0.171 HD
BRANCH  14  16
HETATM   16  C2  UNL     1       4.991  -0.870   0.913  1.00  0.00     0.154 A 
HETATM   17  N2  UNL     1       6.131  -0.327   1.332  1.00  0.00    -0.334 N 
HETATM   18  C3  UNL     1       7.085  -0.104   0.450  1.00  0.00     0.068 A 
ATOM     19  H2  UNL     1       6.264  -0.088   2.315  1.00  0.00     0.168 HD
HETATM   20  C4  UNL     1       8.363   0.457   0.662  1.00  0.00     0.038 A 
HETATM   21  C7  UNL     1       6.839  -0.450  -0.848  1.00  0.00     0.107 A 
HETATM   22  C5  UNL     1       9.248   0.623  -0.364  1.00  0.00     0.077 A 
HETATM   23  C6  UNL     1       8.951   0.258  -1.658  1.00  0.00     0.246 A 
HETATM   24  O2  UNL     1       9.750   0.408  -2.587  1.00  0.00    -0.268 OA
HETATM   25  N3  UNL     1       7.746  -0.272  -1.864  1.00  0.00    -0.316 N 
ATOM     26  H3  UNL     1       7.488  -0.555  -2.809  1.00  0.00     0.169 HD
HETATM   27  S1  UNL     1       5.251  -1.080  -0.756  1.00  0.00    -0.034 SA
ENDBRANCH  14  16
ENDBRANCH   1  12
BRANCH   4  28
HETATM   28  S2  UNL     1      -2.399   0.976   0.184  1.00  0.00     0.279 S 
HETATM   29  O3  UNL     1      -2.928   1.339   1.564  1.00  0.00    -0.200 OA
HETATM   30  O4  UNL     1      -2.127   2.286  -0.516  1.00  0.00    -0.200 OA
BRANCH  28  31
HETATM   31  N4  UNL     1      -3.479  -0.008  -0.687  1.00  0.00    -0.112 N 
ATOM     32  H4  UNL     1      -3.079  -0.731  -1.285  1.00  0.00     0.197 HD
BRANCH  31  33
HETATM   33  C12 UNL     1      -4.754   0.088  -0.651  1.00  0.00     0.693 A 
HETATM   34  N5  UNL     1      -5.541   0.931   0.034  1.00  0.00    -0.189 N 
HETATM   35  C13 UNL     1      -6.831   0.676  -0.228  1.00  0.00     0.076 A 
ATOM     36  H5  UNL     1      -5.206   1.661   0.663  1.00  0.00     0.184 HD
HETATM   37  C14 UNL     1      -7.994   1.262   0.228  1.00  0.00     0.032 A 
HETATM   38  C18 UNL     1      -6.847  -0.374  -1.118  1.00  0.00     0.076 A 
HETATM   39  C15 UNL     1      -9.223   0.788  -0.218  1.00  0.00     0.002 A 
HETATM   40  C16 UNL     1      -9.266  -0.262  -1.109  1.00  0.00     0.002 A 
HETATM   41  C17 UNL     1      -8.084  -0.818  -1.538  1.00  0.00     0.032 A 
HETATM   42  N6  UNL     1      -5.568  -0.721  -1.366  1.00  0.00    -0.189 N 
ATOM     43  H6  UNL     1      -5.265  -1.469  -1.989  1.00  0.00     0.184 HD
ENDBRANCH  31  33
ENDBRANCH  28  31
ENDBRANCH   4  28
TORSDOF 5
