REMARK  4 active torsions:
REMARK  status: ('A' for Active; 'I' for Inactive)
REMARK    1  A    between atoms: N1_3  and  N2_4 
REMARK    2  A    between atoms: C3_7  and  N3_8 
REMARK       I    between atoms: N3_8  and  C4_10 
REMARK       I    between atoms: C4_10  and  N4_11 
REMARK       I    between atoms: C4_10  and  N5_15 
REMARK    3  A    between atoms: N5_15  and  N6_16 
REMARK    4  A    between atoms: N7_20  and  O1_21 
ROOT
HETATM    1  C1  UNL     1      -3.993  -0.158  -0.024  1.00  0.00     0.093 C 
HETATM    2  C2  UNL     1      -2.555   0.100   0.247  1.00  0.00     0.128 A 
HETATM    3  N1  UNL     1      -1.528  -0.374  -0.478  1.00  0.00    -0.231 N 
HETATM    4  C3  UNL     1      -0.361   0.065   0.063  1.00  0.00     0.145 A 
HETATM    5  C5  UNL     1      -0.722   0.824   1.144  1.00  0.00     0.174 A 
HETATM    6  N7  UNL     1      -2.082   0.846   1.258  1.00  0.00    -0.218 N 
ENDROOT
BRANCH   4   7
HETATM    7  N3  UNL     1       0.957  -0.204  -0.397  1.00  0.00    -0.332 N 
HETATM    8  C4  UNL     1       2.082   0.356   0.324  1.00  0.00     0.397 C 
HETATM    9  N4  UNL     1       2.071  -0.149   1.683  1.00  0.00    -0.042 N 
HETATM   10  N5  UNL     1       3.321   0.167  -0.358  1.00  0.00    -0.093 NA
ATOM     11  H43 UNL     1       1.183   0.024   2.154  1.00  0.00     0.278 HD
ATOM     12  H42 UNL     1       2.056  -1.168   1.718  1.00  0.00     0.278 HD
ATOM     13  H41 UNL     1       2.863   0.245   2.191  1.00  0.00     0.278 HD
ATOM     14  H3  UNL     1       1.108  -0.783  -1.223  1.00  0.00     0.164 HD
BRANCH  10  15
HETATM   15  N6  UNL     1       4.344   0.739   0.404  1.00  0.00    -0.345 N 
ATOM     16  H62 UNL     1       4.211   1.211   1.299  1.00  0.00     0.172 HD
ATOM     17  H61 UNL     1       5.230   0.604  -0.084  1.00  0.00     0.172 HD
ENDBRANCH  10  15
ENDBRANCH   4   7
BRANCH   3  18
HETATM   18  N2  UNL     1      -1.614  -1.192  -1.614  1.00  0.00    -0.335 N 
ATOM     19  H22 UNL     1      -2.490  -1.521  -2.020  1.00  0.00     0.177 HD
ATOM     20  H21 UNL     1      -0.834  -1.552  -2.164  1.00  0.00     0.177 HD
ENDBRANCH   3  18
BRANCH   6  21
HETATM   21  O1  UNL     1      -2.836   1.493   2.206  1.00  0.00    -0.282 OA
ATOM     22  H1  UNL     1      -2.501   2.021   2.921  1.00  0.00     0.245 HD
ENDBRANCH   6  21
TORSDOF 4
