REMARK  3 active torsions:
REMARK  status: ('A' for Active; 'I' for Inactive)
REMARK    1  A    between atoms: C2_3  and  N2_4 
REMARK    2  A    between atoms: C4_7  and  C5_8 
REMARK    3  A    between atoms: N4_9  and  N5_11 
ROOT
HETATM    1  N1  UNL     1      -3.724   1.684   1.111  1.00  0.00    -0.196 NA
HETATM    2  C1  UNL     1      -3.253   0.781   0.559  1.00  0.00     0.080 C 
HETATM    3  C2  UNL     1      -2.631  -0.357  -0.135  1.00  0.00     0.272 C 
ENDROOT
BRANCH   3   4
HETATM    4  N2  UNL     1      -1.196  -0.135  -0.259  1.00  0.00    -0.155 N 
HETATM    5  C3  UNL     1      -0.300  -0.533   0.664  1.00  0.00     0.164 A 
HETATM    6  N3  UNL     1      -0.555  -1.216   1.885  1.00  0.00    -0.079 NA
HETATM    7  C4  UNL     1       0.972  -0.150   0.208  1.00  0.00     0.107 A 
HETATM    8  N6  UNL     1       0.795   0.463  -0.972  1.00  0.00    -0.187 N 
HETATM    9  C6  UNL     1      -0.534   0.472  -1.256  1.00  0.00     0.680 A 
ATOM     10  H6  UNL     1       1.533   0.856  -1.557  1.00  0.00     0.184 HD
HETATM   11  N7  UNL     1      -1.100   0.973  -2.305  1.00  0.00    -0.234 N 
ATOM     12  H72 UNL     1      -2.097   0.980  -2.518  1.00  0.00     0.174 HD
ATOM     13  H71 UNL     1      -0.597   1.434  -3.063  1.00  0.00     0.174 HD
BRANCH   7  14
HETATM   14  C5  UNL     1       2.223  -0.386   0.900  1.00  0.00     0.140 C 
HETATM   15  N4  UNL     1       3.373  -0.055   0.516  1.00  0.00    -0.316 N 
ATOM     16  H4  UNL     1       4.123  -0.317   1.156  1.00  0.00     0.185 HD
BRANCH  15  17
HETATM   17  N5  UNL     1       3.794   0.596  -0.613  1.00  0.00    -0.345 N 
ATOM     18  H52 UNL     1       3.029   0.848  -1.239  1.00  0.00     0.176 HD
ATOM     19  H51 UNL     1       4.727   0.865  -0.925  1.00  0.00     0.176 HD
ENDBRANCH  15  17
ENDBRANCH   7  14
ENDBRANCH   3   4
TORSDOF 3
