REMARK  5 active torsions:
REMARK  status: ('A' for Active; 'I' for Inactive)
REMARK    1  A    between atoms: C2_2  and  N1_3 
REMARK    2  A    between atoms: N2_6  and  C5_7 
REMARK    3  A    between atoms: C5_7  and  C6_8 
REMARK    4  A    between atoms: C6_8  and  N3_9 
REMARK    5  A    between atoms: N3_9  and  C7_12 
ROOT
HETATM    1  N3  UNL     1       2.560  -0.046   0.465  1.00  0.00    -0.067 N 
ATOM      2  H31 UNL     1       2.694  -1.055   0.401  1.00  0.00     0.277 HD
ATOM      3  H32 UNL     1       2.577   0.022   1.483  1.00  0.00     0.277 HD
ENDROOT
BRANCH   1   4
HETATM    4  C6  UNL     1       1.288   0.409  -0.126  1.00  0.00     0.263 C 
BRANCH   4   5
HETATM    5  C5  UNL     1       0.214  -0.603   0.154  1.00  0.00     0.300 C 
BRANCH   5   6
HETATM    6  N2  UNL     1      -1.021  -0.231  -0.434  1.00  0.00     0.093 N 
HETATM    7  C4  UNL     1      -1.916  -1.328  -0.610  1.00  0.00     0.302 C 
HETATM    8  C3  UNL     1      -3.359  -1.093  -0.496  1.00  0.00     0.302 C 
HETATM    9  N1  UNL     1      -3.759  -0.180   0.544  1.00  0.00     0.091 N 
HETATM   10  C12 UNL     1      -2.638   0.507   1.126  1.00  0.00     0.302 C 
HETATM   11  C11 UNL     1      -1.618   0.950   0.106  1.00  0.00     0.302 C 
BRANCH   9  12
HETATM   12  C2  UNL     1      -4.792   0.732   0.082  1.00  0.00     0.268 C 
HETATM   13  C1  UNL     1      -6.013  -0.172  -0.165  1.00  0.00     0.037 C 
ENDBRANCH   9  12
ENDBRANCH   5   6
ENDBRANCH   4   5
ENDBRANCH   1   4
BRANCH   1  14
HETATM   14  C7  UNL     1       3.626   0.719  -0.181  1.00  0.00     0.210 C 
HETATM   15  C8  UNL     1       4.522   1.324   0.831  1.00  0.00     0.154 C 
HETATM   16  N4  UNL     1       5.678   0.433   0.919  1.00  0.00    -0.378 N 
HETATM   17  C9  UNL     1       5.475  -0.690   0.083  1.00  0.00     0.072 C 
ATOM     18  H4  UNL     1       6.504   0.596   1.495  1.00  0.00     0.160 HD
HETATM   19  N5  UNL     1       6.062  -1.823   0.157  1.00  0.00    -0.389 N 
HETATM   20  C10 UNL     1       4.432  -0.345  -0.930  1.00  0.00     0.110 C 
ATOM     21  H52 UNL     1       6.774  -2.058   0.848  1.00  0.00     0.157 HD
ATOM     22  H51 UNL     1       5.916  -2.633  -0.446  1.00  0.00     0.157 HD
ENDBRANCH   1  14
TORSDOF 5
