REMARK  21 active torsions:
REMARK  status: ('A' for Active; 'I' for Inactive)
REMARK    1  A    between atoms: N1_1  and  C1_5 
REMARK    2  A    between atoms: C1_5  and  C2_6 
REMARK    3  A    between atoms: C2_6  and  O1_7 
REMARK    4  A    between atoms: O1_7  and  C3_8 
REMARK    5  A    between atoms: C4_11  and  N3_12 
REMARK    6  A    between atoms: C6_14  and  O2_15 
REMARK    7  A    between atoms: C7_17  and  O3_18 
REMARK    8  A    between atoms: O3_18  and  C8_19 
REMARK    9  A    between atoms: C8_19  and  C9_20 
REMARK   10  A    between atoms: C9_20  and  O4_21 
REMARK   11  A    between atoms: C11_26  and  N5_27 
REMARK   12  A    between atoms: N5_27  and  C12_28 
REMARK   13  A    between atoms: C12_28  and  O5_29 
REMARK   14  A    between atoms: C12_28  and  C13_31 
REMARK   15  A    between atoms: C13_31  and  C14_32 
REMARK   16  A    between atoms: C14_32  and  C15_33 
REMARK   17  A    between atoms: C16_34  and  C17_35 
REMARK   18  A    between atoms: C17_35  and  S1_36 
REMARK   19  A    between atoms: S1_36  and  N6_37 
REMARK   20  A    between atoms: C18_42  and  O8_43 
REMARK   21  A    between atoms: C23_53  and  O10_54 
ROOT
HETATM    1  C12 UNL     1       0.133  -0.741  -1.309  1.00  0.00     0.218 C 
ENDROOT
BRANCH   1   2
HETATM    2  N5  UNL     1      -0.934  -0.197  -0.788  1.00  0.00    -0.345 NA
BRANCH   2   3
HETATM    3  C11 UNL     1      -1.831   0.432  -0.278  1.00  0.00     0.279 A 
HETATM    4  N4  UNL     1      -3.087  -0.140  -0.177  1.00  0.00    -0.148 N 
HETATM    5  C4  UNL     1      -4.165   0.494   0.283  1.00  0.00     0.687 A 
ATOM      6  H4  UNL     1      -3.195  -1.110  -0.474  1.00  0.00     0.188 HD
HETATM    7  N2  UNL     1      -4.018   1.752   0.672  1.00  0.00    -0.154 N 
HETATM    8  C3  UNL     1      -2.823   2.409   0.614  1.00  0.00     0.241 A 
ATOM      9  H2  UNL     1      -4.833   2.251   1.030  1.00  0.00     0.188 HD
HETATM   10  N9  UNL     1      -1.770   1.733   0.142  1.00  0.00    -0.281 N 
ATOM     11  H9  UNL     1      -0.872   2.214   0.092  1.00  0.00     0.173 HD
BRANCH   5  12
HETATM   12  N3  UNL     1      -5.443  -0.139   0.393  1.00  0.00    -0.212 N 
HETATM   13  C5  UNL     1      -5.618  -1.226   1.392  1.00  0.00     0.175 C 
HETATM   14  C6  UNL     1      -7.012  -1.668   1.292  1.00  0.00     0.167 C 
HETATM   15  C7  UNL     1      -7.235  -1.361  -0.300  1.00  0.00     0.170 C 
HETATM   16  C10 UNL     1      -6.680   0.058  -0.298  1.00  0.00     0.175 C 
BRANCH  14  17
HETATM   17  O2  UNL     1      -7.236  -3.001   1.459  1.00  0.00    -0.391 OA
ATOM     18  H2  UNL     1      -8.139  -3.287   1.394  1.00  0.00     0.210 HD
ENDBRANCH  14  17
BRANCH  15  19
HETATM   19  O3  UNL     1      -6.764  -2.284  -0.961  1.00  0.00    -0.380 OA
BRANCH  19  20
HETATM   20  C8  UNL     1      -6.304  -3.236  -1.630  1.00  0.00     0.194 C 
BRANCH  20  21
HETATM   21  C9  UNL     1      -7.289  -3.871  -2.627  1.00  0.00     0.190 C 
BRANCH  21  22
HETATM   22  O4  UNL     1      -7.787  -3.009  -3.548  1.00  0.00    -0.399 OA
ATOM     23  H4  UNL     1      -8.395  -3.401  -4.164  1.00  0.00     0.209 HD
ENDBRANCH  21  22
ENDBRANCH  20  21
ENDBRANCH  19  20
ENDBRANCH  15  19
ENDBRANCH   5  12
BRANCH   8  24
HETATM   24  O1  UNL     1      -2.731   3.747   1.037  1.00  0.00    -0.320 OA
BRANCH  24  25
HETATM   25  C2  UNL     1      -3.943   4.366   1.484  1.00  0.00     0.206 C 
BRANCH  25  26
HETATM   26  C1  UNL     1      -3.714   5.762   1.952  1.00  0.00     0.256 C 
BRANCH  26  27
HETATM   27  N1  UNL     1      -2.765   5.800   3.071  1.00  0.00    -0.077 N 
ATOM     28  H13 UNL     1      -3.062   5.193   3.835  1.00  0.00     0.274 HD
ATOM     29  H12 UNL     1      -1.888   5.336   2.834  1.00  0.00     0.274 HD
ATOM     30  H11 UNL     1      -2.608   6.756   3.391  1.00  0.00     0.274 HD
ENDBRANCH  26  27
ENDBRANCH  25  26
ENDBRANCH  24  25
ENDBRANCH   8  24
ENDBRANCH   2   3
ENDBRANCH   1   2
BRANCH   1  31
HETATM   31  O5  UNL     1      -0.141  -1.596  -2.330  1.00  0.00    -0.335 OA
ATOM     32  H5  UNL     1       0.635  -1.992  -2.709  1.00  0.00     0.220 HD
ENDBRANCH   1  31
BRANCH   1  33
HETATM   33  C13 UNL     1       1.528  -0.601  -1.023  1.00  0.00     0.072 C 
BRANCH  33  34
HETATM   34  C14 UNL     1       2.050   0.102  -0.049  1.00  0.00     0.020 C 
BRANCH  34  35
HETATM   35  C15 UNL     1       3.501   0.198   0.136  1.00  0.00     0.009 A 
HETATM   36  C16 UNL     1       4.290   0.657  -0.965  1.00  0.00     0.005 A 
HETATM   37  C18 UNL     1       5.607   0.603  -0.836  1.00  0.00     0.092 A 
HETATM   38  C19 UNL     1       6.264   0.098   0.300  1.00  0.00     0.098 A 
HETATM   39  C20 UNL     1       7.633  -0.036   0.329  1.00  0.00     0.290 A 
HETATM   40  C22 UNL     1       5.530  -0.361   1.355  1.00  0.00     0.088 A 
HETATM   41  O9  UNL     1       8.293   0.385  -0.632  1.00  0.00    -0.265 OA
HETATM   42  N7  UNL     1       8.277  -0.608   1.349  1.00  0.00    -0.144 N 
HETATM   43  C21 UNL     1       7.533  -1.067   2.371  1.00  0.00     0.254 A 
HETATM   44  O12 UNL     1       9.648  -0.767   1.438  1.00  0.00    -0.265 OA
HETATM   45  N8  UNL     1       6.183  -0.957   2.406  1.00  0.00    -0.317 N 
HETATM   46  O11 UNL     1       8.308  -1.670   3.390  1.00  0.00    -0.318 OA
ATOM     47  H8  UNL     1       5.657  -1.313   3.204  1.00  0.00     0.169 HD
HETATM   48  C24 UNL     1       9.345  -2.600   2.964  1.00  0.00     0.207 C 
HETATM   49  C25 UNL     1      10.221  -1.989   1.883  1.00  0.00     0.229 C 
HETATM   50  C23 UNL     1       4.155  -0.298   1.264  1.00  0.00     0.104 A 
BRANCH  36  51
HETATM   51  C17 UNL     1       3.495   1.080  -2.128  1.00  0.00     0.205 C 
BRANCH  51  52
HETATM   52  S1  UNL     1       4.205   0.676  -3.682  1.00  0.00     0.228 S 
HETATM   53  O6  UNL     1       5.372   1.358  -4.256  1.00  0.00    -0.206 OA
HETATM   54  O7  UNL     1       4.507  -0.858  -3.696  1.00  0.00    -0.206 OA
BRANCH  52  55
HETATM   55  N6  UNL     1       2.995   0.873  -5.013  1.00  0.00    -0.328 N 
ATOM     56  H62 UNL     1       2.033   1.179  -4.864  1.00  0.00     0.168 HD
ATOM     57  H61 UNL     1       3.408   0.638  -5.916  1.00  0.00     0.168 HD
ENDBRANCH  52  55
ENDBRANCH  51  52
ENDBRANCH  36  51
BRANCH  37  58
HETATM   58  O8  UNL     1       6.533   1.077  -1.762  1.00  0.00    -0.359 OA
ATOM     59  H8  UNL     1       7.478   1.038  -1.669  1.00  0.00     0.217 HD
ENDBRANCH  37  58
BRANCH  50  60
HETATM   60  O10 UNL     1       3.425  -0.764   2.352  1.00  0.00    -0.357 OA
ATOM     61  H10 UNL     1       3.870  -1.102   3.120  1.00  0.00     0.217 HD
ENDBRANCH  50  60
ENDBRANCH  34  35
ENDBRANCH  33  34
ENDBRANCH   1  33
TORSDOF 21
