REMARK  2 active torsions:
REMARK  status: ('A' for Active; 'I' for Inactive)
REMARK    1  A    between atoms: N1_2  and  C2_4 
REMARK    2  A    between atoms: C10_16  and  C11_17 
ROOT
HETATM    1  C2  UNL     1       2.963  -1.103   0.124  1.00  0.00     0.145 A 
HETATM    2  N2  UNL     1       3.185   0.142  -0.301  1.00  0.00    -0.340 N 
ATOM      3  H2  UNL     1       4.164   0.385  -0.454  1.00  0.00     0.168 HD
HETATM    4  C3  UNL     1       2.314   1.107  -0.552  1.00  0.00     0.020 A 
HETATM    5  C4  UNL     1       2.813   2.451  -1.031  1.00  0.00     0.069 C 
HETATM    6  C5  UNL     1       0.943   1.027  -0.421  1.00  0.00     0.017 A 
HETATM    7  C6  UNL     1      -0.105   1.936  -0.640  1.00  0.00     0.006 A 
HETATM    8  C7  UNL     1      -0.371   3.230  -1.045  1.00  0.00     0.031 A 
HETATM    9  C8  UNL     1      -1.725   3.394  -0.996  1.00  0.00     0.089 A 
HETATM   10  N3  UNL     1      -2.283   2.247  -0.577  1.00  0.00    -0.365 N 
ATOM     11  H3  UNL     1      -3.282   2.088  -0.449  1.00  0.00     0.165 HD
HETATM   12  C9  UNL     1      -1.317   1.345  -0.354  1.00  0.00     0.051 A 
HETATM   13  C10 UNL     1      -1.089   0.058   0.052  1.00  0.00    -0.005 A 
HETATM   14  C15 UNL     1       0.265  -0.181   0.027  1.00  0.00     0.030 A 
HETATM   15  S1  UNL     1       1.300  -1.485   0.376  1.00  0.00    -0.053 SA
ENDROOT
BRANCH  13  16
HETATM   16  C11 UNL     1      -2.096  -0.921   0.450  1.00  0.00    -0.021 C 
HETATM   17  C12 UNL     1      -1.540  -2.250   0.844  1.00  0.00     0.019 C 
HETATM   18  C13 UNL     1      -3.104  -1.149  -0.659  1.00  0.00     0.019 C 
HETATM   19  C14 UNL     1      -2.883  -0.386   1.641  1.00  0.00     0.019 C 
ENDBRANCH  13  16
BRANCH   1  20
HETATM   20  N1  UNL     1       3.892  -1.967   0.337  1.00  0.00    -0.375 N 
HETATM   21  C1  UNL     1       3.695  -3.299   0.789  1.00  0.00     0.148 C 
ATOM     22  H1  UNL     1       4.853  -1.670   0.167  1.00  0.00     0.161 HD
ENDBRANCH   1  20
TORSDOF 2
