REMARK  7 active torsions:
REMARK  status: ('A' for Active; 'I' for Inactive)
REMARK    1  A    between atoms: S1_2  and  N1_4 
REMARK    2  A    between atoms: S1_2  and  C3_13 
REMARK    3  A    between atoms: N1_4  and  N2_6 
REMARK       I    between atoms: N2_6  and  C2_8 
REMARK    4  A    between atoms: C5_17  and  N6_18 
REMARK    5  A    between atoms: N9_27  and  C8_28 
REMARK    6  A    between atoms: C8_28  and  C9_29 
REMARK    7  A    between atoms: C9_29  and  O2_30 
ROOT
HETATM    1  C3  UNL     1      -0.088   0.094  -0.714  1.00  0.00     0.187 A 
HETATM    2  N5  UNL     1      -0.228   1.360  -1.232  1.00  0.00    -0.328 N 
ATOM      3  H5  UNL     1       0.474   1.851  -1.785  1.00  0.00     0.168 HD
HETATM    4  C4  UNL     1      -1.413   1.841  -0.903  1.00  0.00     0.123 A 
HETATM    5  C5  UNL     1      -2.051   3.051  -1.165  1.00  0.00     0.131 A 
HETATM    6  N7  UNL     1      -3.282   3.260  -0.689  1.00  0.00    -0.337 N 
ATOM      7  H7  UNL     1      -3.758   4.143  -0.874  1.00  0.00     0.168 HD
HETATM    8  C6  UNL     1      -3.891   2.306   0.034  1.00  0.00     0.183 A 
HETATM    9  N8  UNL     1      -3.268   1.129   0.288  1.00  0.00    -0.336 N 
ATOM     10  H8  UNL     1      -3.755   0.423   0.841  1.00  0.00     0.168 HD
HETATM   11  C7  UNL     1      -2.036   0.862  -0.162  1.00  0.00     0.141 A 
HETATM   12  N9  UNL     1      -1.205  -0.194  -0.060  1.00  0.00    -0.307 N 
ENDROOT
BRANCH   1  13
HETATM   13  S1  UNL     1       1.325  -0.849  -0.980  1.00  0.00     0.098 S 
HETATM   14  C1  UNL     1       1.217  -1.859  -2.432  1.00  0.00     0.147 C 
HETATM   15  O1  UNL     1       2.514   0.076  -1.272  1.00  0.00    -0.241 OA
BRANCH  13  16
HETATM   16  N1  UNL     1       1.789  -1.669   0.268  1.00  0.00    -0.251 N 
ATOM     17  H1  UNL     1       1.520  -2.645   0.395  1.00  0.00     0.197 HD
BRANCH  16  18
HETATM   18  N2  UNL     1       2.589  -1.003   1.201  1.00  0.00    -0.267 N 
HETATM   19  C2  UNL     1       3.875  -0.508   0.949  1.00  0.00     0.201 C 
HETATM   20  N3  UNL     1       4.084   0.759   1.214  1.00  0.00    -0.372 N 
HETATM   21  N4  UNL     1       4.953  -1.268   0.434  1.00  0.00    -0.062 NA
ATOM     22  H32 UNL     1       3.307   1.306   1.585  1.00  0.00     0.158 HD
ATOM     23  H31 UNL     1       5.020   1.119   1.031  1.00  0.00     0.158 HD
ATOM     24  H2  UNL     1       2.207  -0.867   2.137  1.00  0.00     0.190 HD
ENDBRANCH  16  18
ENDBRANCH  13  16
ENDBRANCH   1  13
BRANCH  12  25
HETATM   25  C8  UNL     1      -1.517  -1.367   0.658  1.00  0.00     0.159 C 
BRANCH  25  26
HETATM   26  C9  UNL     1      -1.250  -1.348   2.134  1.00  0.00     0.184 C 
BRANCH  26  27
HETATM   27  O2  UNL     1      -1.636  -2.628   2.610  1.00  0.00    -0.399 OA
ATOM     28  H2  UNL     1      -1.467  -2.616   3.545  1.00  0.00     0.209 HD
ENDBRANCH  26  27
ENDBRANCH  25  26
ENDBRANCH  12  25
BRANCH   5  29
HETATM   29  N6  UNL     1      -1.452   3.952  -1.859  1.00  0.00    -0.383 N 
ATOM     30  H62 UNL     1      -0.512   3.792  -2.222  1.00  0.00     0.157 HD
ATOM     31  H61 UNL     1      -1.919   4.838  -2.051  1.00  0.00     0.157 HD
ENDBRANCH   5  29
TORSDOF 7
