REMARK  5 active torsions:
REMARK  status: ('A' for Active; 'I' for Inactive)
REMARK    1  A    between atoms: C5_11  and  N3_12 
REMARK    2  A    between atoms: C6_17  and  C7_18 
REMARK       I    between atoms: C7_18  and  N6_20 
REMARK    3  A    between atoms: N6_20  and  C8_22 
REMARK    4  A    between atoms: C8_22  and  C10_24 
REMARK    5  A    between atoms: C10_24  and  O2_25 
ROOT
HETATM    1  N3  UNL     1       1.395  -0.462   0.231  1.00  0.00    -0.208 N 
HETATM    2  N4  UNL     1       0.794  -0.733   1.401  1.00  0.00    -0.232 N 
ATOM      3  H4  UNL     1       1.282  -1.099   2.219  1.00  0.00     0.209 HD
HETATM    4  N5  UNL     1      -0.475  -0.477   1.373  1.00  0.00    -0.278 N 
ATOM      5  H5  UNL     1      -1.131  -0.606   2.143  1.00  0.00     0.189 HD
HETATM    6  C6  UNL     1      -0.773  -0.012   0.149  1.00  0.00     0.160 A 
HETATM    7  C11 UNL     1       0.416  -0.014  -0.545  1.00  0.00     0.175 A 
HETATM    8  N7  UNL     1       0.554   0.399  -1.873  1.00  0.00    -0.078 NA
ENDROOT
BRANCH   1   9
HETATM    9  C5  UNL     1       2.762  -0.655   0.010  1.00  0.00     0.153 A 
HETATM   10  C4  UNL     1       3.264  -1.847  -0.533  1.00  0.00     0.101 A 
HETATM   11  C3  UNL     1       4.616  -2.013  -0.741  1.00  0.00     0.121 A 
HETATM   12  S1  UNL     1       2.116  -3.164  -0.956  1.00  0.00    -0.044 SA
HETATM   13  N1  UNL     1       5.456  -1.017  -0.418  1.00  0.00    -0.332 N 
HETATM   14  N2  UNL     1       5.123  -3.086  -1.235  1.00  0.00    -0.384 N 
HETATM   15  C2  UNL     1       4.994   0.149   0.109  1.00  0.00     0.080 A 
ATOM     16  H1  UNL     1       6.457  -1.136  -0.570  1.00  0.00     0.168 HD
HETATM   17  C1  UNL     1       5.925   1.253   0.467  1.00  0.00     0.089 C 
HETATM   18  N8  UNL     1       3.679   0.274   0.297  1.00  0.00    -0.330 N 
ATOM     19  H8  UNL     1       3.345   1.153   0.693  1.00  0.00     0.168 HD
ATOM     20  H22 UNL     1       6.124  -3.209  -1.389  1.00  0.00     0.157 HD
ATOM     21  H21 UNL     1       4.485  -3.843  -1.480  1.00  0.00     0.157 HD
ENDBRANCH   1   9
BRANCH   6  22
HETATM   22  C7  UNL     1      -2.065   0.403  -0.344  1.00  0.00     0.273 C 
HETATM   23  O1  UNL     1      -2.165   0.816  -1.532  1.00  0.00    -0.266 OA
HETATM   24  N6  UNL     1      -3.188   0.335   0.519  1.00  0.00    -0.349 N 
ATOM     25  H6  UNL     1      -3.060  -0.007   1.471  1.00  0.00     0.163 HD
BRANCH  24  26
HETATM   26  C8  UNL     1      -4.516   0.737   0.088  1.00  0.00     0.104 C 
HETATM   27  C9  UNL     1      -5.030   1.865   0.936  1.00  0.00     0.034 C 
BRANCH  26  28
HETATM   28  C10 UNL     1      -5.398  -0.502   0.182  1.00  0.00     0.189 C 
BRANCH  28  29
HETATM   29  O2  UNL     1      -5.423  -0.961   1.493  1.00  0.00    -0.399 OA
ATOM     30  H2  UNL     1      -5.973  -1.733   1.552  1.00  0.00     0.209 HD
ENDBRANCH  28  29
ENDBRANCH  26  28
ENDBRANCH  24  26
ENDBRANCH   6  22
TORSDOF 5
