REMARK  8 active torsions:
REMARK  status: ('A' for Active; 'I' for Inactive)
REMARK    1  A    between atoms: C2_2  and  O1_3 
REMARK    2  A    between atoms: C2_2  and  C3_5 
REMARK    3  A    between atoms: C3_5  and  N1_6 
REMARK    4  A    between atoms: N1_6  and  C4_8 
REMARK    5  A    between atoms: N4_14  and  C6_16 
REMARK    6  A    between atoms: C7_17  and  N5_18 
REMARK    7  A    between atoms: N5_18  and  N6_20 
REMARK    8  A    between atoms: C9_29  and  O4_31 
ROOT
HETATM    1  C6  UNL     1      -2.630  -0.734  -1.011  1.00  0.00     0.126 A 
HETATM    2  C7  UNL     1      -2.833   0.681  -1.281  1.00  0.00     0.155 A 
HETATM    3  N7  UNL     1      -3.516   1.442  -0.528  1.00  0.00    -0.314 N 
ATOM      4  H7  UNL     1      -3.609   2.422  -0.795  1.00  0.00     0.170 HD
HETATM    5  C8  UNL     1      -4.154   1.014   0.656  1.00  0.00     0.192 A 
HETATM    6  N8  UNL     1      -4.923   1.907   1.478  1.00  0.00    -0.063 NA
HETATM    7  N9  UNL     1      -4.002  -0.220   0.945  1.00  0.00    -0.328 N 
ATOM      8  H9  UNL     1      -4.462  -0.534   1.799  1.00  0.00     0.165 HD
HETATM    9  C9  UNL     1      -3.276  -1.214   0.234  1.00  0.00     0.178 A 
HETATM   10  C10 UNL     1      -2.250  -1.909   1.142  1.00  0.00     0.078 C 
ENDROOT
BRANCH   1  11
HETATM   11  N4  UNL     1      -1.319  -1.223  -1.236  1.00  0.00    -0.185 N 
HETATM   12  C5  UNL     1      -0.220  -0.711  -0.840  1.00  0.00     0.712 A 
HETATM   13  N3  UNL     1       0.035   0.386  -0.126  1.00  0.00    -0.117 N 
HETATM   14  N10 UNL     1       1.024  -1.243  -1.101  1.00  0.00    -0.020 N 
HETATM   15  N2  UNL     1       1.355   0.560   0.067  1.00  0.00    -0.117 N 
ATOM     16  H3  UNL     1      -0.683   1.016   0.230  1.00  0.00     0.206 HD
HETATM   17  C4  UNL     1       1.964  -0.459  -0.544  1.00  0.00     0.707 A 
ATOM     18  H2  UNL     1       1.802   1.320   0.579  1.00  0.00     0.206 HD
ATOM     19  H10 UNL     1       1.203  -2.095  -1.632  1.00  0.00     0.203 HD
ATOM     20  H4  UNL     1      -1.246  -2.084  -1.777  1.00  0.00     0.184 HD
BRANCH  17  21
HETATM   21  N1  UNL     1       3.250  -0.647  -0.579  1.00  0.00    -0.222 N 
ATOM     22  H1  UNL     1       3.603  -1.464  -1.077  1.00  0.00     0.177 HD
BRANCH  21  23
HETATM   23  C3  UNL     1       4.202   0.229   0.043  1.00  0.00     0.169 C 
BRANCH  23  24
HETATM   24  C2  UNL     1       5.230  -0.615   0.783  1.00  0.00     0.132 C 
HETATM   25  C1  UNL     1       6.279   0.261   1.425  1.00  0.00     0.041 C 
BRANCH  24  26
HETATM   26  O1  UNL     1       4.588  -1.373   1.745  1.00  0.00    -0.394 OA
ATOM     27  H1  UNL     1       3.928  -1.924   1.341  1.00  0.00     0.210 HD
ENDBRANCH  24  26
ENDBRANCH  23  24
ENDBRANCH  21  23
ENDBRANCH  17  21
ENDBRANCH   1  11
BRANCH   2  28
HETATM   28  N5  UNL     1      -2.260   1.323  -2.442  1.00  0.00    -0.223 N 
ATOM     29  H5  UNL     1      -1.936   0.737  -3.211  1.00  0.00     0.195 HD
BRANCH  28  30
HETATM   30  N6  UNL     1      -2.130   2.702  -2.560  1.00  0.00    -0.037 N 
HETATM   31  O2  UNL     1      -1.039   3.222  -2.927  1.00  0.00    -0.516 OA
HETATM   32  O3  UNL     1      -3.151   3.582  -2.293  1.00  0.00    -0.516 OA
ENDBRANCH  28  30
ENDBRANCH   2  28
BRANCH   9  33
HETATM   33  O4  UNL     1      -4.245  -2.226  -0.059  1.00  0.00    -0.365 OA
ATOM     34  H4  UNL     1      -4.659  -2.534   0.739  1.00  0.00     0.213 HD
ENDBRANCH   9  33
TORSDOF 8
