REMARK  13 active torsions:
REMARK  status: ('A' for Active; 'I' for Inactive)
REMARK    1  A    between atoms: C2_2  and  C3_3 
REMARK    2  A    between atoms: C3_3  and  C4_4 
REMARK    3  A    between atoms: C4_4  and  C5_5 
REMARK    4  A    between atoms: C7_10  and  C8_11 
REMARK    5  A    between atoms: C11_19  and  C12_20 
REMARK    6  A    between atoms: C12_20  and  C13_21 
REMARK    7  A    between atoms: C17_25  and  N4_26 
REMARK    8  A    between atoms: N4_26  and  C18_28 
REMARK    9  A    between atoms: C18_28  and  C19_29 
REMARK   10  A    between atoms: C19_29  and  N5_30 
REMARK   11  A    between atoms: N5_30  and  N6_31 
REMARK   12  A    between atoms: C20_36  and  O2_37 
REMARK   13  A    between atoms: C25_46  and  O3_47 
ROOT
HETATM    1  C5  UNL     1      -1.509   0.460   2.849  1.00  0.00     0.062 C 
HETATM    2  N1  UNL     1      -1.289  -0.679   2.357  1.00  0.00    -0.325 N 
ATOM      3  H1  UNL     1      -1.843  -1.368   2.866  1.00  0.00     0.169 HD
HETATM    4  C6  UNL     1      -0.580  -1.315   1.394  1.00  0.00     0.244 C 
HETATM    5  O1  UNL     1       0.662  -1.611   1.355  1.00  0.00    -0.271 OA
HETATM    6  C7  UNL     1      -1.321  -1.762   0.175  1.00  0.00     0.175 C 
HETATM    7  N2  UNL     1      -0.463  -1.631  -0.965  1.00  0.00    -0.366 N 
ATOM      8  H2  UNL     1      -0.169  -2.529  -1.350  1.00  0.00     0.161 HD
HETATM    9  C10 UNL     1       0.057  -0.539  -1.662  1.00  0.00     0.083 C 
HETATM   10  N3  UNL     1      -0.529  -0.390  -2.858  1.00  0.00    -0.388 N 
ATOM     11  H31 UNL     1      -0.149   0.408  -3.367  1.00  0.00     0.157 HD
ATOM     12  H32 UNL     1      -1.248  -1.097  -3.011  1.00  0.00     0.157 HD
HETATM   13  C11 UNL     1       1.070   0.457  -1.446  1.00  0.00     0.132 C 
HETATM   14  C20 UNL     1       0.751   1.867  -1.401  1.00  0.00     0.127 C 
HETATM   15  N8  UNL     1      -0.387   2.658  -1.177  1.00  0.00    -0.343 N 
HETATM   16  C21 UNL     1      -0.858   3.623  -2.163  1.00  0.00     0.154 C 
HETATM   17  C22 UNL     1      -1.254   2.634   0.029  1.00  0.00     0.101 C 
HETATM   18  C23 UNL     1      -1.697   4.087   0.288  1.00  0.00     0.063 C 
HETATM   19  C24 UNL     1      -2.506   1.886  -0.336  1.00  0.00     0.063 C 
HETATM   20  N9  UNL     1      -0.563   2.218   1.185  1.00  0.00    -0.343 N 
ATOM     21  H9  UNL     1       0.447   2.291   1.067  1.00  0.00     0.164 HD
HETATM   22  C25 UNL     1      -0.894   1.741   2.426  1.00  0.00     0.161 C 
ENDROOT
BRANCH  13  23
HETATM   23  C12 UNL     1       2.154   0.249  -2.523  1.00  0.00     0.077 C 
BRANCH  23  24
HETATM   24  C13 UNL     1       2.834  -1.031  -2.508  1.00  0.00     0.012 A 
HETATM   25  C14 UNL     1       2.436  -2.141  -3.211  1.00  0.00     0.025 A 
HETATM   26  C15 UNL     1       3.151  -3.338  -3.174  1.00  0.00     0.006 A 
HETATM   27  C16 UNL     1       4.293  -3.423  -2.414  1.00  0.00     0.048 A 
HETATM   28  C17 UNL     1       4.697  -2.288  -1.698  1.00  0.00     0.101 A 
HETATM   29  N7  UNL     1       3.979  -1.160  -1.761  1.00  0.00    -0.346 N 
ATOM     30  H7  UNL     1       4.300  -0.353  -1.226  1.00  0.00     0.167 HD
BRANCH  28  31
HETATM   31  N4  UNL     1       5.782  -2.362  -1.008  1.00  0.00    -0.370 N 
ATOM     32  H4  UNL     1       6.294  -3.244  -1.018  1.00  0.00     0.161 HD
BRANCH  31  33
HETATM   33  C18 UNL     1       6.325  -1.271  -0.217  1.00  0.00     0.182 C 
BRANCH  33  34
HETATM   34  C19 UNL     1       7.704  -1.643   0.177  1.00  0.00     0.200 C 
BRANCH  34  35
HETATM   35  N5  UNL     1       8.631  -1.431  -0.620  1.00  0.00    -0.348 NA
BRANCH  35  36
HETATM   36  N6  UNL     1       9.527  -1.094  -1.414  1.00  0.00    -0.281 N 
ATOM     37  H62 UNL     1       9.129  -0.169  -1.253  1.00  0.00     0.191 HD
ATOM     38  H61 UNL     1      10.289  -0.920  -2.069  1.00  0.00     0.191 HD
ENDBRANCH  35  36
ENDBRANCH  34  35
ENDBRANCH  33  34
ENDBRANCH  31  33
ENDBRANCH  28  31
ENDBRANCH  23  24
ENDBRANCH  13  23
BRANCH  14  39
HETATM   39  O2  UNL     1       1.821   2.577  -1.638  1.00  0.00    -0.349 OA
ATOM     40  H2  UNL     1       1.611   3.503  -1.608  1.00  0.00     0.219 HD
ENDBRANCH  14  39
BRANCH   6  41
HETATM   41  C8  UNL     1      -1.604  -3.259   0.497  1.00  0.00     0.030 C 
HETATM   42  C9  UNL     1      -2.350  -3.932  -0.605  1.00  0.00     0.007 C 
ENDBRANCH   6  41
BRANCH  22  43
HETATM   43  O3  UNL     1      -0.667   2.462   3.504  1.00  0.00    -0.345 OA
ATOM     44  H3  UNL     1      -0.273   3.283   3.233  1.00  0.00     0.219 HD
ENDBRANCH  22  43
BRANCH   1  45
HETATM   45  C4  UNL     1      -2.464   0.520   3.984  1.00  0.00     0.062 C 
BRANCH  45  46
HETATM   46  C3  UNL     1      -3.747   1.187   3.837  1.00  0.00     0.006 C 
BRANCH  46  47
HETATM   47  C2  UNL     1      -4.711   0.600   2.828  1.00  0.00    -0.004 C 
HETATM   48  C1  UNL     1      -5.966   1.447   2.817  1.00  0.00     0.005 C 
ENDBRANCH  46  47
ENDBRANCH  45  46
ENDBRANCH   1  45
TORSDOF 13
