REMARK  9 active torsions:
REMARK  status: ('A' for Active; 'I' for Inactive)
REMARK    1  A    between atoms: C3_3  and  C4_4 
REMARK    2  A    between atoms: C3_3  and  N7_37 
REMARK    3  A    between atoms: C4_4  and  N1_5 
REMARK    4  A    between atoms: C4_4  and  C5_10 
REMARK    5  A    between atoms: C5_10  and  N4_14 
REMARK    6  A    between atoms: C7_17  and  C8_18 
REMARK       I    between atoms: C8_18  and  N5_20 
REMARK    7  A    between atoms: N5_20  and  C9_22 
REMARK    8  A    between atoms: C13_26  and  C14_27 
REMARK    9  A    between atoms: C14_27  and  N6_28 
REMARK       I    between atoms: N7_37  and  C24_39 
ROOT
HETATM    1  C1  UNL     1       4.630   1.049   2.140  1.00  0.00     0.014 C 
HETATM    2  C2  UNL     1       4.464   0.364   1.160  1.00  0.00    -0.089 C 
HETATM    3  C3  UNL     1       4.273  -0.460  -0.057  1.00  0.00     0.198 C 
ENDROOT
BRANCH   3   4
HETATM    4  C4  UNL     1       2.806  -0.736  -0.278  1.00  0.00     0.200 C 
BRANCH   4   5
HETATM    5  N1  UNL     1       2.710  -1.538  -1.473  1.00  0.00    -0.328 N 
HETATM    6  N2  UNL     1       2.771  -0.968  -2.565  1.00  0.00    -0.349 N 
ATOM      7  H22 UNL     1       2.886   0.045  -2.605  1.00  0.00     0.176 HD
ATOM      8  H21 UNL     1       2.703  -1.535  -3.410  1.00  0.00     0.176 HD
ATOM      9  H1  UNL     1       2.595  -2.550  -1.416  1.00  0.00     0.180 HD
ENDBRANCH   4   5
BRANCH   4  10
HETATM   10  C5  UNL     1       2.101   0.555  -0.475  1.00  0.00     0.107 C 
HETATM   11  N3  UNL     1       2.755   1.676  -0.437  1.00  0.00    -0.387 N 
ATOM     12  H32 UNL     1       3.760   1.641  -0.269  1.00  0.00     0.157 HD
ATOM     13  H31 UNL     1       2.270   2.563  -0.572  1.00  0.00     0.157 HD
BRANCH  10  14
HETATM   14  N4  UNL     1       0.706   0.604  -0.708  1.00  0.00    -0.297 N 
HETATM   15  C6  UNL     1      -0.129   1.088  -1.758  1.00  0.00     0.241 C 
HETATM   16  O1  UNL     1      -0.056   1.198  -2.996  1.00  0.00    -0.272 OA
HETATM   17  C7  UNL     1      -1.139   1.406  -0.697  1.00  0.00     0.195 C 
HETATM   18  C13 UNL     1      -0.536   0.205  -0.025  1.00  0.00     0.142 C 
BRANCH  17  19
HETATM   19  C8  UNL     1      -0.927   2.666   0.017  1.00  0.00     0.233 C 
HETATM   20  O2  UNL     1      -0.758   2.622   1.251  1.00  0.00    -0.273 OA
HETATM   21  N5  UNL     1      -0.914   3.888  -0.664  1.00  0.00    -0.351 N 
ATOM     22  H5  UNL     1      -1.060   3.835  -1.672  1.00  0.00     0.163 HD
BRANCH  21  23
HETATM   23  C9  UNL     1      -0.723   5.197  -0.133  1.00  0.00     0.029 A 
HETATM   24  C10 UNL     1      -0.775   6.370  -1.133  1.00  0.00     0.038 C 
HETATM   25  C11 UNL     1      -1.323   5.463   1.232  1.00  0.00     0.033 A 
HETATM   26  C12 UNL     1       0.139   5.358   1.069  1.00  0.00     0.033 A 
ENDBRANCH  21  23
ENDBRANCH  17  19
BRANCH  18  27
HETATM   27  C14 UNL     1      -0.987  -1.115  -0.600  1.00  0.00     0.264 C 
BRANCH  27  28
HETATM   28  N6  UNL     1      -2.189  -1.623  -0.025  1.00  0.00    -0.065 N 
HETATM   29  C15 UNL     1      -3.269  -1.325  -0.952  1.00  0.00     0.237 C 
HETATM   30  C16 UNL     1      -4.187  -2.473  -1.191  1.00  0.00     0.028 C 
HETATM   31  C17 UNL     1      -5.146  -2.724  -0.043  1.00  0.00     0.006 C 
HETATM   32  C18 UNL     1      -4.316  -2.755   1.219  1.00  0.00    -0.011 C 
HETATM   33  C19 UNL     1      -3.135  -3.649   1.016  1.00  0.00     0.032 C 
HETATM   34  C21 UNL     1      -3.909  -1.395   1.668  1.00  0.00     0.032 C 
HETATM   35  C20 UNL     1      -2.044  -3.037   0.204  1.00  0.00     0.238 C 
HETATM   36  C22 UNL     1      -2.496  -1.015   1.264  1.00  0.00     0.238 C 
ENDBRANCH  27  28
ENDBRANCH  18  27
ENDBRANCH  10  14
ENDBRANCH   4  10
ENDBRANCH   3   4
BRANCH   3  37
HETATM   37  N7  UNL     1       5.071  -1.628   0.033  1.00  0.00    -0.323 N 
HETATM   38  C23 UNL     1       4.838  -2.591   1.075  1.00  0.00     0.155 C 
HETATM   39  C24 UNL     1       6.105  -1.860  -0.900  1.00  0.00     0.331 C 
HETATM   40  N8  UNL     1       6.924  -3.013  -0.846  1.00  0.00    -0.040 NA
HETATM   41  O3  UNL     1       6.336  -1.025  -1.835  1.00  0.00    -0.251 OA
ENDBRANCH   3  37
TORSDOF 9
