REMARK  12 active torsions:
REMARK  status: ('A' for Active; 'I' for Inactive)
REMARK    1  A    between atoms: C3_3  and  C4_4 
REMARK    2  A    between atoms: C4_4  and  N1_5 
REMARK    3  A    between atoms: N1_5  and  C5_6 
REMARK    4  A    between atoms: C6_7  and  O1_8 
REMARK    5  A    between atoms: C6_7  and  N2_10 
REMARK    6  A    between atoms: N3_15  and  N4_17 
REMARK    7  A    between atoms: N4_17  and  N5_19 
REMARK    8  A    between atoms: C16_28  and  C17_29 
REMARK    9  A    between atoms: C19_31  and  C20_32 
REMARK   10  A    between atoms: C20_32  and  C21_33 
REMARK       I    between atoms: C21_33  and  N6_35 
REMARK   11  A    between atoms: N6_35  and  C22_37 
REMARK   12  A    between atoms: N7_39  and  O3_40 
ROOT
HETATM    1  C1  UNL     1      -4.780   2.903  -1.995  1.00  0.00     0.112 C 
HETATM    2  C2  UNL     1      -3.768   2.476  -1.020  1.00  0.00    -0.109 C 
HETATM    3  C3  UNL     1      -2.921   2.141  -0.221  1.00  0.00    -0.078 C 
ENDROOT
BRANCH   3   4
HETATM    4  C4  UNL     1      -1.895   1.760   0.751  1.00  0.00     0.348 C 
BRANCH   4   5
HETATM    5  N1  UNL     1      -1.667   0.303   0.776  1.00  0.00     0.017 N 
HETATM    6  C8  UNL     1      -2.930  -0.310   0.733  1.00  0.00     0.242 C 
HETATM    7  C9  UNL     1      -3.272  -1.213  -0.399  1.00  0.00     0.057 C 
HETATM    8  N3  UNL     1      -4.491  -1.397  -0.631  1.00  0.00    -0.289 N 
HETATM    9  C10 UNL     1      -2.173  -1.805  -1.112  1.00  0.00     0.053 C 
ATOM     10  H3  UNL     1      -5.120  -0.895  -0.004  1.00  0.00     0.188 HD
HETATM   11  C11 UNL     1      -2.424  -2.566  -2.354  1.00  0.00     0.012 C 
HETATM   12  C15 UNL     1      -1.312  -0.601  -1.525  1.00  0.00     0.025 A 
HETATM   13  C12 UNL     1      -0.981  -2.584  -2.912  1.00  0.00     0.006 C 
HETATM   14  C13 UNL     1      -0.479  -1.226  -2.564  1.00  0.00     0.002 A 
HETATM   15  C14 UNL     1      -1.461  -0.075  -2.816  1.00  0.00     0.023 A 
HETATM   16  C16 UNL     1      -0.730  -0.093  -0.252  1.00  0.00     0.141 C 
BRANCH   5  17
HETATM   17  C5  UNL     1      -1.044  -0.037   2.033  1.00  0.00     0.270 C 
HETATM   18  C6  UNL     1      -1.665   0.057   3.304  1.00  0.00     0.160 C 
BRANCH  18  19
HETATM   19  O1  UNL     1      -0.912  -0.315   4.336  1.00  0.00    -0.345 OA
ATOM     20  H1  UNL     1      -1.328  -0.252   5.188  1.00  0.00     0.219 HD
ENDBRANCH  18  19
BRANCH  18  21
HETATM   21  N2  UNL     1      -2.932   0.474   3.673  1.00  0.00    -0.374 N 
HETATM   22  C7  UNL     1      -3.377   0.493   5.084  1.00  0.00     0.148 C 
ATOM     23  H2  UNL     1      -3.581   0.779   2.948  1.00  0.00     0.161 HD
ENDBRANCH  18  21
ENDBRANCH   5  17
BRANCH   8  24
HETATM   24  N4  UNL     1      -5.123  -2.154  -1.578  1.00  0.00    -0.249 N 
ATOM     25  H4  UNL     1      -4.884  -3.141  -1.672  1.00  0.00     0.207 HD
BRANCH  24  26
HETATM   26  N5  UNL     1      -6.015  -1.642  -2.353  1.00  0.00    -0.331 N 
ATOM     27  H52 UNL     1      -6.242  -0.653  -2.245  1.00  0.00     0.178 HD
ATOM     28  H51 UNL     1      -6.486  -2.207  -3.060  1.00  0.00     0.178 HD
ENDBRANCH  24  26
ENDBRANCH   8  24
BRANCH  16  29
HETATM   29  C17 UNL     1       0.499   0.688  -0.399  1.00  0.00    -0.033 C 
HETATM   30  C18 UNL     1       0.687   1.928  -1.204  1.00  0.00     0.050 C 
HETATM   31  C19 UNL     1       1.650   0.333   0.192  1.00  0.00    -0.009 C 
BRANCH  31  32
HETATM   32  C20 UNL     1       2.931   1.016   0.126  1.00  0.00     0.131 C 
BRANCH  32  33
HETATM   33  C21 UNL     1       4.022   0.179  -0.441  1.00  0.00     0.226 C 
HETATM   34  O2  UNL     1       3.846  -1.008  -0.823  1.00  0.00    -0.273 OA
HETATM   35  N6  UNL     1       5.334   0.709  -0.572  1.00  0.00    -0.312 N 
ATOM     36  H6  UNL     1       5.461   1.517  -1.182  1.00  0.00     0.170 HD
BRANCH  35  37
HETATM   37  C22 UNL     1       6.366   0.244   0.021  1.00  0.00     0.125 A 
HETATM   38  C23 UNL     1       6.316  -0.847   0.871  1.00  0.00     0.170 A 
HETATM   39  N7  UNL     1       7.428  -1.306   1.475  1.00  0.00    -0.242 N 
HETATM   40  C24 UNL     1       8.589  -0.672   1.229  1.00  0.00     0.139 A 
HETATM   41  C25 UNL     1       8.636   0.415   0.381  1.00  0.00     0.109 A 
HETATM   42  N8  UNL     1       7.540   0.889  -0.232  1.00  0.00    -0.350 N 
ATOM     43  H8  UNL     1       7.584   1.694  -0.857  1.00  0.00     0.166 HD
BRANCH  39  44
HETATM   44  O3  UNL     1       7.347  -2.394   2.317  1.00  0.00    -0.284 OA
ATOM     45  H3  UNL     1       8.132  -2.718   2.743  1.00  0.00     0.245 HD
ENDBRANCH  39  44
ENDBRANCH  35  37
ENDBRANCH  32  33
ENDBRANCH  31  32
ENDBRANCH  16  29
ENDBRANCH   4   5
ENDBRANCH   3   4
TORSDOF 12
