REMARK  5 active torsions:
REMARK  status: ('A' for Active; 'I' for Inactive)
REMARK       I    between atoms: C1_2  and  N1_3 
REMARK       I    between atoms: C1_2  and  N2_11 
REMARK    1  A    between atoms: N1_3  and  C2_5 
REMARK    2  A    between atoms: N2_11  and  C8_13 
REMARK    3  A    between atoms: C8_13  and  O2_14 
REMARK    4  A    between atoms: C8_13  and  N3_16 
REMARK    5  A    between atoms: N3_16  and  C9_19 
ROOT
HETATM    1  C8  UNL     1       0.507   0.088   0.968  1.00  0.00     0.430 C 
ENDROOT
BRANCH   1   2
HETATM    2  N2  UNL     1      -0.773   0.745   0.890  1.00  0.00    -0.294 N 
HETATM    3  C1  UNL     1      -1.911  -0.053   0.496  1.00  0.00     0.324 C 
HETATM    4  O1  UNL     1      -1.736  -1.252   0.248  1.00  0.00    -0.247 OA
HETATM    5  N1  UNL     1      -3.147   0.599   0.425  1.00  0.00    -0.309 N 
ATOM      6  H1  UNL     1      -3.191   1.589   0.665  1.00  0.00     0.170 HD
ATOM      7  H2  UNL     1      -0.872   1.737   1.105  1.00  0.00     0.168 HD
BRANCH   5   8
HETATM    8  C2  UNL     1      -4.353  -0.064   0.030  1.00  0.00     0.036 A 
HETATM    9  C3  UNL     1      -5.560   0.494   0.471  1.00  0.00     0.029 A 
HETATM   10  C4  UNL     1      -6.738  -0.078   0.106  1.00  0.00     0.002 A 
HETATM   11  C5  UNL     1      -6.744  -1.199  -0.691  1.00  0.00     0.000 A 
HETATM   12  C6  UNL     1      -5.576  -1.766  -1.137  1.00  0.00     0.002 A 
HETATM   13  C7  UNL     1      -4.377  -1.179  -0.763  1.00  0.00     0.029 A 
ENDBRANCH   5   8
ENDBRANCH   1   2
BRANCH   1  14
HETATM   14  O2  UNL     1       1.018   0.248   2.240  1.00  0.00    -0.354 OA
ATOM     15  H2  UNL     1       1.862  -0.185   2.291  1.00  0.00     0.214 HD
ENDBRANCH   1  14
BRANCH   1  16
HETATM   16  N3  UNL     1       1.379   0.713  -0.039  1.00  0.00    -0.024 N 
ATOM     17  H32 UNL     1       0.992   0.701  -0.982  1.00  0.00     0.282 HD
ATOM     18  H31 UNL     1       1.447   1.727   0.049  1.00  0.00     0.282 HD
BRANCH  16  19
HETATM   19  C9  UNL     1       2.659   0.026   0.079  1.00  0.00     0.223 C 
HETATM   20  C10 UNL     1       2.533  -1.441  -0.244  1.00  0.00     0.204 C 
HETATM   21  O3  UNL     1       3.825  -1.773  -0.629  1.00  0.00    -0.359 OA
HETATM   22  C11 UNL     1       4.356  -0.728  -1.343  1.00  0.00     0.265 C 
HETATM   23  O4  UNL     1       5.644  -0.417  -0.881  1.00  0.00    -0.361 OA
HETATM   24  C14 UNL     1       3.524   0.503  -1.071  1.00  0.00     0.076 C 
HETATM   25  C12 UNL     1       5.825   0.946  -1.132  1.00  0.00     0.171 C 
HETATM   26  C13 UNL     1       4.515   1.516  -0.579  1.00  0.00     0.038 C 
ENDBRANCH  16  19
ENDBRANCH   1  16
TORSDOF 5
