REMARK  7 active torsions:
REMARK  status: ('A' for Active; 'I' for Inactive)
REMARK    1  A    between atoms: C2_2  and  N1_5 
REMARK    2  A    between atoms: N1_5  and  C5_8 
REMARK    3  A    between atoms: C5_8  and  C6_9 
REMARK    4  A    between atoms: C8_11  and  O1_12 
REMARK    5  A    between atoms: C9_14  and  O2_15 
REMARK    6  A    between atoms: C10_17  and  N2_18 
REMARK    7  A    between atoms: C14_22  and  O3_23 
ROOT
HETATM    1  C6  UNL     1      -0.031  -0.069   0.261  1.00  0.00     0.152 C 
HETATM    2  C7  UNL     1       0.011  -0.260   1.765  1.00  0.00     0.068 C 
HETATM    3  C8  UNL     1       1.212  -1.188   1.981  1.00  0.00     0.153 C 
HETATM    4  C9  UNL     1       2.419  -0.700   1.243  1.00  0.00     0.196 C 
HETATM    5  C10 UNL     1       2.230   0.496   0.404  1.00  0.00     0.261 C 
HETATM    6  O4  UNL     1       0.991   0.772  -0.061  1.00  0.00    -0.356 OA
ENDROOT
BRANCH   1   7
HETATM    7  C5  UNL     1      -1.344   0.553  -0.177  1.00  0.00     0.265 C 
BRANCH   7   8
HETATM    8  N1  UNL     1      -2.418  -0.350   0.171  1.00  0.00    -0.065 N 
ATOM      9  H12 UNL     1      -2.391  -0.583   1.164  1.00  0.00     0.278 HD
ATOM     10  H11 UNL     1      -2.256  -1.277  -0.222  1.00  0.00     0.278 HD
BRANCH   8  11
HETATM   11  C2  UNL     1      -3.709   0.147  -0.203  1.00  0.00     0.115 C 
HETATM   12  C1  UNL     1      -3.881   0.337  -1.681  1.00  0.00     0.045 C 
HETATM   13  C3  UNL     1      -4.742  -0.841   0.340  1.00  0.00     0.045 C 
HETATM   14  C4  UNL     1      -3.921   1.470   0.531  1.00  0.00     0.045 C 
ENDBRANCH   8  11
ENDBRANCH   7   8
ENDBRANCH   1   7
BRANCH   3  15
HETATM   15  O1  UNL     1       0.786  -2.449   1.560  1.00  0.00    -0.393 OA
ATOM     16  H1  UNL     1       1.530  -3.024   1.694  1.00  0.00     0.210 HD
ENDBRANCH   3  15
BRANCH   5  17
HETATM   17  N2  UNL     1       3.148   0.494  -0.749  1.00  0.00    -0.308 N 
HETATM   18  C11 UNL     1       2.872   0.229  -2.026  1.00  0.00     0.096 A 
HETATM   19  C12 UNL     1       4.005   0.332  -2.808  1.00  0.00     0.022 A 
HETATM   20  C13 UNL     1       5.024   0.681  -1.953  1.00  0.00     0.057 A 
HETATM   21  C14 UNL     1       4.478   0.775  -0.694  1.00  0.00     0.144 A 
BRANCH  21  22
HETATM   22  O3  UNL     1       5.207   1.111   0.447  1.00  0.00    -0.346 OA
ATOM     23  H3  UNL     1       6.136   1.307   0.485  1.00  0.00     0.219 HD
ENDBRANCH  21  22
ENDBRANCH   5  17
BRANCH   4  24
HETATM   24  O2  UNL     1       2.894  -1.744   0.448  1.00  0.00    -0.389 OA
ATOM     25  H2  UNL     1       3.660  -1.434  -0.020  1.00  0.00     0.210 HD
ENDBRANCH   4  24
TORSDOF 7
