REMARK  12 active torsions:
REMARK  status: ('A' for Active; 'I' for Inactive)
REMARK    1  A    between atoms: C3_3  and  C4_4 
REMARK    2  A    between atoms: C4_4  and  C5_5 
REMARK    3  A    between atoms: C5_5  and  C6_6 
REMARK    4  A    between atoms: C6_6  and  C7_7 
REMARK    5  A    between atoms: C9_12  and  C10_13 
REMARK    6  A    between atoms: C20_29  and  C21_30 
REMARK    7  A    between atoms: C21_30  and  C22_31 
REMARK    8  A    between atoms: C22_31  and  C23_32 
REMARK    9  A    between atoms: C23_32  and  C24_33 
REMARK   10  A    between atoms: C24_33  and  N4_34 
REMARK   11  A    between atoms: C26_42  and  C27_43 
REMARK   12  A    between atoms: C27_43  and  C28_44 
ROOT
HETATM    1  C1  UNL     1       6.148   2.782   4.520  1.00  0.00     0.012 C 
HETATM    2  C2  UNL     1       6.056   2.864   3.322  1.00  0.00    -0.117 C 
HETATM    3  C3  UNL     1       5.953   2.938   1.872  1.00  0.00     0.093 C 
ENDROOT
BRANCH   3   4
HETATM    4  C4  UNL     1       4.638   2.333   1.368  1.00  0.00     0.012 C 
BRANCH   4   5
HETATM    5  C5  UNL     1       4.523   0.901   1.750  1.00  0.00     0.003 C 
BRANCH   5   6
HETATM    6  C6  UNL     1       3.288   0.235   1.336  1.00  0.00     0.035 C 
BRANCH   6   7
HETATM    7  C7  UNL     1       2.912   0.076  -0.070  1.00  0.00     0.176 C 
HETATM    8  N1  UNL     1       3.888  -0.631  -0.873  1.00  0.00    -0.346 N 
HETATM    9  C8  UNL     1       3.738  -1.709  -1.740  1.00  0.00     0.241 C 
ATOM     10  H1  UNL     1       4.842  -0.281  -0.789  1.00  0.00     0.163 HD
HETATM   11  O1  UNL     1       3.939  -1.466  -3.001  1.00  0.00    -0.271 OA
HETATM   12  C9  UNL     1       3.385  -3.110  -1.457  1.00  0.00     0.180 C 
HETATM   13  N2  UNL     1       2.603  -3.347  -0.279  1.00  0.00    -0.344 N 
HETATM   14  C13 UNL     1       1.684  -4.425  -0.172  1.00  0.00     0.241 C 
ATOM     15  H2  UNL     1       2.711  -2.716   0.515  1.00  0.00     0.163 HD
HETATM   16  O2  UNL     1       1.721  -5.162   0.892  1.00  0.00    -0.269 OA
HETATM   17  C14 UNL     1       0.688  -4.790  -1.156  1.00  0.00     0.070 C 
HETATM   18  C15 UNL     1      -0.221  -4.022  -1.699  1.00  0.00    -0.021 C 
HETATM   19  C16 UNL     1      -0.423  -2.589  -1.410  1.00  0.00     0.029 C 
HETATM   20  C17 UNL     1      -0.973  -2.359  -0.027  1.00  0.00     0.023 C 
HETATM   21  C18 UNL     1      -2.247  -3.077   0.176  1.00  0.00     0.123 C 
HETATM   22  N3  UNL     1      -3.434  -2.507  -0.361  1.00  0.00    -0.356 N 
HETATM   23  C19 UNL     1      -3.831  -1.186  -0.494  1.00  0.00     0.267 C 
ATOM     24  H3  UNL     1      -4.110  -3.188  -0.708  1.00  0.00     0.162 HD
HETATM   25  O3  UNL     1      -4.366  -0.871  -1.620  1.00  0.00    -0.266 OA
HETATM   26  C20 UNL     1      -3.733  -0.074   0.474  1.00  0.00     0.099 C 
HETATM   27  N5  UNL     1      -4.538   1.074   0.083  1.00  0.00    -0.321 N 
HETATM   28  C25 UNL     1      -4.032   2.397  -0.065  1.00  0.00     0.245 C 
ATOM     29  H5  UNL     1      -5.530   0.921  -0.097  1.00  0.00     0.169 HD
HETATM   30  O4  UNL     1      -4.712   3.341   0.403  1.00  0.00    -0.271 OA
HETATM   31  C26 UNL     1      -2.753   2.745  -0.735  1.00  0.00     0.177 C 
HETATM   32  N6  UNL     1      -1.779   3.345   0.116  1.00  0.00    -0.346 N 
HETATM   33  C31 UNL     1      -0.674   2.731   0.724  1.00  0.00     0.236 C 
ATOM     34  H6  UNL     1      -1.900   4.340   0.305  1.00  0.00     0.163 HD
HETATM   35  O5  UNL     1      -0.299   3.096   1.893  1.00  0.00    -0.272 OA
HETATM   36  C32 UNL     1       0.148   1.649   0.123  1.00  0.00     0.228 C 
HETATM   37  N7  UNL     1       1.403   2.140  -0.365  1.00  0.00    -0.346 N 
HETATM   38  C33 UNL     1       1.555   3.575  -0.484  1.00  0.00     0.153 C 
HETATM   39  C34 UNL     1       2.468   1.296  -0.746  1.00  0.00     0.242 C 
HETATM   40  O6  UNL     1       3.116   1.636  -1.812  1.00  0.00    -0.271 OA
BRANCH  12  41
HETATM   41  C10 UNL     1       4.633  -3.980  -1.333  1.00  0.00     0.009 C 
HETATM   42  C11 UNL     1       5.423  -3.941  -2.621  1.00  0.00     0.012 C 
HETATM   43  C12 UNL     1       5.535  -3.472  -0.226  1.00  0.00     0.012 C 
ENDBRANCH  12  41
BRANCH  26  44
HETATM   44  C21 UNL     1      -3.752  -0.419   1.897  1.00  0.00     0.009 C 
BRANCH  44  45
HETATM   45  C22 UNL     1      -4.871  -1.121   2.516  1.00  0.00     0.031 C 
BRANCH  45  46
HETATM   46  C23 UNL     1      -6.220  -0.504   2.484  1.00  0.00     0.031 C 
BRANCH  46  47
HETATM   47  C24 UNL     1      -7.153  -1.478   3.229  1.00  0.00     0.230 C 
BRANCH  47  48
HETATM   48  N4  UNL     1      -6.700  -1.656   4.594  1.00  0.00    -0.079 N 
ATOM     49  H43 UNL     1      -5.725  -1.953   4.637  1.00  0.00     0.274 HD
ATOM     50  H42 UNL     1      -6.607  -0.766   5.084  1.00  0.00     0.274 HD
ATOM     51  H41 UNL     1      -7.318  -2.301   5.087  1.00  0.00     0.274 HD
ENDBRANCH  47  48
ENDBRANCH  46  47
ENDBRANCH  45  46
ENDBRANCH  44  45
ENDBRANCH  26  44
BRANCH  31  52
HETATM   52  C27 UNL     1      -3.153   3.771  -1.808  1.00  0.00     0.038 C 
BRANCH  52  53
HETATM   53  C28 UNL     1      -1.967   4.241  -2.599  1.00  0.00    -0.020 C 
HETATM   54  C29 UNL     1      -2.517   5.249  -3.617  1.00  0.00     0.009 C 
HETATM   55  C30 UNL     1      -1.409   3.085  -3.398  1.00  0.00     0.009 C 
ENDBRANCH  52  53
ENDBRANCH  31  52
ENDBRANCH   6   7
ENDBRANCH   5   6
ENDBRANCH   4   5
ENDBRANCH   3   4
TORSDOF 12
