REMARK  10 active torsions:
REMARK  status: ('A' for Active; 'I' for Inactive)
REMARK    1  A    between atoms: C2_2  and  C3_3 
REMARK    2  A    between atoms: C3_3  and  C4_4 
REMARK    3  A    between atoms: C4_4  and  C5_5 
REMARK    4  A    between atoms: C7_7  and  N1_8 
REMARK    5  A    between atoms: N1_8  and  N2_10 
REMARK    6  A    between atoms: N2_10  and  C8_12 
REMARK    7  A    between atoms: C8_12  and  C9_17 
REMARK    8  A    between atoms: N3_13  and  O1_15 
REMARK    9  A    between atoms: C15_29  and  C16_30 
REMARK   10  A    between atoms: C17_33  and  O5_34 
ROOT
HETATM    1  N2  UNL     1      -1.857  -1.367  -0.646  1.00  0.00    -0.283 N 
ATOM      2  H2  UNL     1      -1.329  -0.998  -1.437  1.00  0.00     0.188 HD
ENDROOT
BRANCH   1   3
HETATM    3  N1  UNL     1      -1.219  -1.772   0.521  1.00  0.00    -0.299 N 
ATOM      4  H1  UNL     1      -1.618  -2.530   1.075  1.00  0.00     0.187 HD
BRANCH   3   5
HETATM    5  C7  UNL     1      -0.006  -1.138   0.957  1.00  0.00     0.049 A 
HETATM    6  C6  UNL     1       0.559  -0.104   0.237  1.00  0.00     0.040 A 
HETATM    7  C5  UNL     1       1.715   0.485   0.669  1.00  0.00    -0.022 A 
HETATM    8  C17 UNL     1       2.356   0.057   1.852  1.00  0.00     0.089 A 
HETATM    9  C15 UNL     1       1.818  -0.973   2.594  1.00  0.00     0.076 A 
HETATM   10  C14 UNL     1       0.629  -1.536   2.096  1.00  0.00     0.052 A 
BRANCH   7  11
HETATM   11  C4  UNL     1       2.361   1.595  -0.068  1.00  0.00     0.041 C 
BRANCH  11  12
HETATM   12  C3  UNL     1       3.554   1.066  -0.811  1.00  0.00     0.004 C 
BRANCH  12  13
HETATM   13  C2  UNL     1       4.247   2.183  -1.585  1.00  0.00    -0.004 C 
HETATM   14  C1  UNL     1       5.444   1.593  -2.317  1.00  0.00     0.005 C 
ENDBRANCH  12  13
ENDBRANCH  11  12
ENDBRANCH   7  11
BRANCH   8  15
HETATM   15  O5  UNL     1       3.506   0.687   2.228  1.00  0.00    -0.359 OA
ATOM     16  H5  UNL     1       3.937   0.399   3.024  1.00  0.00     0.217 HD
ENDBRANCH   8  15
BRANCH   9  17
HETATM   17  C16 UNL     1       2.387  -1.492   3.819  1.00  0.00     0.212 C 
HETATM   18  O3  UNL     1       3.421  -1.057   4.322  1.00  0.00    -0.644 OA
HETATM   19  O4  UNL     1       1.745  -2.531   4.468  1.00  0.00    -0.644 OA
ENDBRANCH   9  17
ENDBRANCH   3   5
ENDBRANCH   1   3
BRANCH   1  20
HETATM   20  C8  UNL     1      -3.263  -1.485  -0.697  1.00  0.00     0.157 C 
HETATM   21  N3  UNL     1      -3.788  -2.667  -0.597  1.00  0.00    -0.251 N 
ATOM     22  H3  UNL     1      -4.803  -2.757  -0.633  1.00  0.00     0.196 HD
BRANCH  21  23
HETATM   23  O1  UNL     1      -3.031  -3.798  -0.445  1.00  0.00    -0.288 OA
ATOM     24  H1  UNL     1      -3.415  -4.664  -0.372  1.00  0.00     0.244 HD
ENDBRANCH  21  23
BRANCH  20  25
HETATM   25  C9  UNL     1      -4.195  -0.377  -0.857  1.00  0.00     0.101 A 
HETATM   26  C10 UNL     1      -5.408  -0.545  -1.514  1.00  0.00     0.122 A 
HETATM   27 CL1  UNL     1      -5.772  -2.140  -2.144  1.00  0.00    -0.063 Cl
HETATM   28  N4  UNL     1      -6.303   0.442  -1.688  1.00  0.00    -0.335 N 
HETATM   29  C11 UNL     1      -6.013   1.659  -1.201  1.00  0.00     0.130 A 
ATOM     30  H4  UNL     1      -7.181   0.271  -2.178  1.00  0.00     0.168 HD
HETATM   31 CL2  UNL     1      -7.162   2.982  -1.408  1.00  0.00    -0.062 Cl
HETATM   32  C12 UNL     1      -4.833   1.929  -0.532  1.00  0.00     0.123 A 
HETATM   33 CL3  UNL     1      -4.482   3.534   0.095  1.00  0.00    -0.077 Cl
HETATM   34  C13 UNL     1      -3.931   0.884  -0.370  1.00  0.00     0.213 A 
HETATM   35  O2  UNL     1      -2.867   1.130   0.234  1.00  0.00    -0.285 OA
ENDBRANCH  20  25
ENDBRANCH   1  20
TORSDOF 10
