REMARK  0 active torsions:
REMARK  status: ('A' for Active; 'I' for Inactive)
ROOT
HETATM    1  C1  UNL     1      -3.654   3.810   0.026  1.00  0.00     0.018 C 
HETATM    2  C2  UNL     1      -3.087   2.743   0.009  1.00  0.00    -0.077 C 
HETATM    3  C3  UNL     1      -2.397   1.482  -0.025  1.00  0.00     0.030 A 
HETATM    4  C4  UNL     1      -1.003   1.429   0.004  1.00  0.00     0.036 A 
HETATM    5  C5  UNL     1      -0.397   0.189  -0.032  1.00  0.00     0.007 A 
HETATM    6  C6  UNL     1       0.942  -0.144  -0.015  1.00  0.00     0.004 A 
HETATM    7  C7  UNL     1       2.013   0.723   0.042  1.00  0.00     0.028 C 
HETATM    8  C8  UNL     1       3.370   0.411   0.102  1.00  0.00    -0.007 A 
HETATM    9  C9  UNL     1       4.349   1.353   0.301  1.00  0.00     0.030 A 
HETATM   10  C10 UNL     1       5.581   0.734   0.311  1.00  0.00     0.089 A 
HETATM   11  N1  UNL     1       5.334  -0.574   0.119  1.00  0.00    -0.365 N 
ATOM     12  H1  UNL     1       6.051  -1.299   0.077  1.00  0.00     0.165 HD
HETATM   13  C11 UNL     1       4.032  -0.794  -0.008  1.00  0.00     0.042 A 
HETATM   14  C12 UNL     1       3.433  -2.041  -0.218  1.00  0.00     0.033 C 
HETATM   15  C13 UNL     1       2.108  -2.390  -0.077  1.00  0.00     0.033 C 
HETATM   16  C14 UNL     1       0.981  -1.608  -0.072  1.00  0.00     0.044 A 
HETATM   17  N2  UNL     1      -0.296  -2.036  -0.116  1.00  0.00    -0.353 N 
ATOM     18  H2  UNL     1      -0.588  -3.012  -0.160  1.00  0.00     0.166 HD
HETATM   19  C15 UNL     1      -1.128  -0.977  -0.093  1.00  0.00     0.071 A 
HETATM   20  C16 UNL     1      -2.522  -0.889  -0.121  1.00  0.00     0.071 A 
HETATM   21  N3  UNL     1      -3.282  -2.002  -0.181  1.00  0.00    -0.363 N 
ATOM     22  H3  UNL     1      -2.816  -2.909  -0.206  1.00  0.00     0.165 HD
HETATM   23  C17 UNL     1      -4.626  -1.969  -0.209  1.00  0.00     0.088 A 
HETATM   24  C18 UNL     1      -5.314  -0.773  -0.178  1.00  0.00     0.018 A 
HETATM   25  C19 UNL     1      -4.550   0.377  -0.116  1.00  0.00     0.016 A 
HETATM   26  C20 UNL     1      -3.169   0.333  -0.087  1.00  0.00     0.012 A 
ENDROOT
TORSDOF 0
