REMARK  1 active torsions:
REMARK  status: ('A' for Active; 'I' for Inactive)
REMARK    1  A    between atoms: C4_4  and  C5_5 
ROOT
HETATM    1  C1  UNL     1      -2.860   1.751  -2.667  1.00  0.00     0.018 C 
HETATM    2  C2  UNL     1      -2.284   1.155  -1.787  1.00  0.00    -0.073 C 
HETATM    3  C3  UNL     1      -1.640   0.441  -0.730  1.00  0.00     0.072 A 
HETATM    4  C4  UNL     1      -2.385  -0.229   0.231  1.00  0.00     0.056 A 
HETATM    5  N1  UNL     1      -1.513  -0.786   1.067  1.00  0.00    -0.281 N 
ATOM      6  H1  UNL     1      -1.772  -1.346   1.879  1.00  0.00     0.189 HD
HETATM    7  N2  UNL     1      -0.283  -0.524   0.714  1.00  0.00    -0.194 N 
HETATM    8  C9  UNL     1      -0.319   0.244  -0.410  1.00  0.00     0.106 A 
HETATM    9  C10 UNL     1       0.895   0.719  -1.074  1.00  0.00    -0.001 A 
HETATM   10  C11 UNL     1       0.894   1.450  -2.143  1.00  0.00     0.027 C 
HETATM   11  C12 UNL     1       2.177   0.342  -0.491  1.00  0.00     0.005 A 
HETATM   12  C13 UNL     1       3.378   0.726  -1.022  1.00  0.00     0.021 A 
HETATM   13  C14 UNL     1       4.594   0.342  -0.430  1.00  0.00    -0.061 A 
HETATM   14  C15 UNL     1       5.859   0.796  -1.062  1.00  0.00     0.048 C 
HETATM   15  C16 UNL     1       4.527  -0.428   0.693  1.00  0.00     0.015 A 
HETATM   16  C17 UNL     1       3.345  -0.839   1.265  1.00  0.00    -0.032 A 
HETATM   17  C18 UNL     1       3.309  -1.666   2.472  1.00  0.00     0.050 C 
HETATM   18  C19 UNL     1       2.171  -0.447   0.663  1.00  0.00     0.067 A 
HETATM   19  N3  UNL     1       0.965  -0.871   1.253  1.00  0.00    -0.278 N 
ATOM     20  H3  UNL     1       1.000  -1.446   2.095  1.00  0.00     0.189 HD
ENDROOT
BRANCH   4  21
HETATM   21  C5  UNL     1      -3.825  -0.340   0.353  1.00  0.00    -0.006 C 
HETATM   22  C6  UNL     1      -4.421   1.057   0.503  1.00  0.00     0.021 C 
HETATM   23  C7  UNL     1      -4.194  -1.069   1.638  1.00  0.00     0.021 C 
HETATM   24  C8  UNL     1      -4.529  -1.004  -0.779  1.00  0.00     0.021 C 
ENDBRANCH   4  21
TORSDOF 1
