REMARK  7 active torsions:
REMARK  status: ('A' for Active; 'I' for Inactive)
REMARK    1  A    between atoms: C2_2  and  C4_4 
REMARK    2  A    between atoms: C4_4  and  C5_5 
REMARK    3  A    between atoms: C5_5  and  N1_6 
REMARK    4  A    between atoms: C5_5  and  C6_10 
REMARK    5  A    between atoms: C6_10  and  O1_11 
REMARK    6  A    between atoms: C6_10  and  N2_13 
REMARK    7  A    between atoms: C8_20  and  C9_21 
ROOT
HETATM    1  N2  UNL     1       1.697   0.707  -1.478  1.00  0.00    -0.318 N 
ATOM      2  H2  UNL     1       1.593   0.403  -2.446  1.00  0.00     0.169 HD
HETATM    3  C7  UNL     1       0.619   0.542  -0.831  1.00  0.00     0.166 A 
HETATM    4  N3  UNL     1       0.246   0.773   0.430  1.00  0.00    -0.279 N 
ATOM      5  H3  UNL     1       0.920   1.143   1.100  1.00  0.00     0.189 HD
HETATM    6  N4  UNL     1      -0.944   0.534   0.796  1.00  0.00    -0.295 N 
ATOM      7  H4  UNL     1      -1.222   0.714   1.761  1.00  0.00     0.187 HD
HETATM    8  C8  UNL     1      -1.828   0.054  -0.061  1.00  0.00     0.079 A 
HETATM    9  S1  UNL     1      -0.894  -0.062  -1.479  1.00  0.00    -0.037 SA
ENDROOT
BRANCH   1  10
HETATM   10  C6  UNL     1       2.960   1.178  -1.243  1.00  0.00     0.148 C 
BRANCH  10  11
HETATM   11  C5  UNL     1       3.686   1.468  -0.008  1.00  0.00     0.257 C 
BRANCH  11  12
HETATM   12  C4  UNL     1       4.006   0.309   0.873  1.00  0.00     0.045 C 
BRANCH  12  13
HETATM   13  C2  UNL     1       5.074  -0.624   0.391  1.00  0.00    -0.020 C 
HETATM   14  C1  UNL     1       4.830  -1.296  -0.914  1.00  0.00     0.009 C 
HETATM   15  C3  UNL     1       6.448   0.035   0.419  1.00  0.00     0.009 C 
ENDBRANCH  12  13
ENDBRANCH  11  12
BRANCH  11  16
HETATM   16  N1  UNL     1       4.854   2.303  -0.266  1.00  0.00    -0.068 N 
ATOM     17  H13 UNL     1       5.288   2.610   0.605  1.00  0.00     0.275 HD
ATOM     18  H12 UNL     1       5.624   1.753  -0.646  1.00  0.00     0.275 HD
ATOM     19  H11 UNL     1       4.635   3.096  -0.869  1.00  0.00     0.275 HD
ENDBRANCH  11  16
ENDBRANCH  10  11
BRANCH  10  20
HETATM   20  O1  UNL     1       3.642   1.420  -2.334  1.00  0.00    -0.348 OA
ATOM     21  H1  UNL     1       3.170   1.232  -3.137  1.00  0.00     0.219 HD
ENDBRANCH  10  20
ENDBRANCH   1  10
BRANCH   8  22
HETATM   22  C9  UNL     1      -3.255  -0.246   0.200  1.00  0.00     0.018 C 
HETATM   23  C10 UNL     1      -3.494  -1.301   1.251  1.00  0.00     0.050 C 
HETATM   24  C11 UNL     1      -4.914  -1.724   0.822  1.00  0.00     0.188 C 
HETATM   25  C12 UNL     1      -4.636  -1.995  -0.660  1.00  0.00     0.039 C 
HETATM   26  N5  UNL     1      -5.810  -0.620   0.988  1.00  0.00    -0.067 N 
HETATM   27  C13 UNL     1      -3.971  -0.662  -1.031  1.00  0.00     0.005 C 
HETATM   28  C14 UNL     1      -5.165   0.294  -1.172  1.00  0.00     0.039 C 
HETATM   29  C15 UNL     1      -5.407   0.585   0.305  1.00  0.00     0.188 C 
HETATM   30  C16 UNL     1      -3.995   1.004   0.700  1.00  0.00     0.050 C 
ATOM     31  H52 UNL     1      -6.755  -0.885   0.712  1.00  0.00     0.278 HD
ATOM     32  H51 UNL     1      -5.963  -0.432   1.979  1.00  0.00     0.278 HD
ENDBRANCH   8  22
TORSDOF 7
