REMARK  6 active torsions:
REMARK  status: ('A' for Active; 'I' for Inactive)
REMARK    1  A    between atoms: C2_3  and  C3_4 
REMARK    2  A    between atoms: C6_14  and  C7_15 
REMARK    3  A    between atoms: C8_16  and  C9_17 
REMARK    4  A    between atoms: C10_23  and  C11_24 
REMARK    5  A    between atoms: C11_24  and  O4_25 
REMARK    6  A    between atoms: C11_24  and  O5_27 
ROOT
HETATM    1  N1  UNL     1      -1.252   2.539   0.950  1.00  0.00    -0.194 NA
HETATM    2  C1  UNL     1      -1.442   1.531   0.450  1.00  0.00     0.107 C 
HETATM    3  C2  UNL     1      -1.716   0.284  -0.165  1.00  0.00     0.244 C 
HETATM    4  N3  UNL     1      -2.416   0.440  -1.463  1.00  0.00    -0.330 N 
ATOM      5  H3  UNL     1      -2.823   1.277  -1.881  1.00  0.00     0.164 HD
HETATM    6  C4  UNL     1      -2.369  -0.902  -1.975  1.00  0.00     0.190 C 
HETATM    7  N4  UNL     1      -3.295  -1.535  -2.853  1.00  0.00    -0.063 NA
HETATM    8  N5  UNL     1      -1.304  -1.494  -1.504  1.00  0.00    -0.331 N 
ATOM      9  H5  UNL     1      -1.018  -2.453  -1.702  1.00  0.00     0.168 HD
HETATM   10  C5  UNL     1      -0.586  -0.540  -0.638  1.00  0.00     0.065 C 
HETATM   11  C6  UNL     1       0.688  -0.607  -0.511  1.00  0.00     0.046 C 
ENDROOT
BRANCH   3  12
HETATM   12  C3  UNL     1      -2.660  -0.554   0.663  1.00  0.00     0.280 C 
HETATM   13  N2  UNL     1      -2.276  -0.869   1.973  1.00  0.00    -0.058 NA
HETATM   14  O1  UNL     1      -3.742  -0.954   0.209  1.00  0.00    -0.272 OA
ENDBRANCH   3  12
BRANCH  11  15
HETATM   15  C7  UNL     1       1.607   0.219   0.246  1.00  0.00     0.036 A 
HETATM   16  C8  UNL     1       2.127   1.457  -0.065  1.00  0.00     0.132 A 
HETATM   17  N7  UNL     1       2.910   1.771   0.982  1.00  0.00    -0.255 N 
HETATM   18  O3  UNL     1       2.885   0.820   1.865  1.00  0.00    -0.236 OA
ATOM     19  H7  UNL     1       3.447   2.634   1.070  1.00  0.00     0.195 HD
HETATM   20  C10 UNL     1       2.112  -0.166   1.494  1.00  0.00     0.143 A 
BRANCH  16  21
HETATM   21  C9  UNL     1       1.895   2.246  -1.267  1.00  0.00     0.284 C 
HETATM   22  N6  UNL     1       2.513   3.517  -1.407  1.00  0.00    -0.056 NA
HETATM   23  O2  UNL     1       1.164   1.866  -2.214  1.00  0.00    -0.269 OA
ENDBRANCH  16  21
BRANCH  20  24
HETATM   24  C11 UNL     1       1.820  -1.440   2.229  1.00  0.00     0.315 C 
BRANCH  24  25
HETATM   25  O4  UNL     1       3.019  -1.943   2.719  1.00  0.00    -0.365 OA
ATOM     26  H4  UNL     1       2.834  -2.750   3.185  1.00  0.00     0.213 HD
ENDBRANCH  24  25
BRANCH  24  27
HETATM   27  O5  UNL     1       1.180  -2.356   1.402  1.00  0.00    -0.365 OA
ATOM     28  H5  UNL     1       0.995  -3.163   1.868  1.00  0.00     0.213 HD
ENDBRANCH  24  27
ENDBRANCH  20  24
ENDBRANCH  11  15
TORSDOF 6
