REMARK  2 active torsions:
REMARK  status: ('A' for Active; 'I' for Inactive)
REMARK    1  A    between atoms: O1_2  and  N1_3 
REMARK    2  A    between atoms: C6_9  and  C8_11 
ROOT
HETATM    1  N1  UNL     1       2.807  -0.041   0.281  1.00  0.00    -0.255 N 
ATOM      2  H1  UNL     1       3.571  -0.657   0.561  1.00  0.00     0.195 HD
HETATM    3  C2  UNL     1       1.608  -0.511   0.214  1.00  0.00     0.098 C 
HETATM    4  C3  UNL     1       1.424  -1.947   0.556  1.00  0.00     0.078 C 
HETATM    5  C4  UNL     1      -0.019  -2.365   0.489  1.00  0.00     0.010 C 
HETATM    6  C5  UNL     1      -0.964  -1.225   0.785  1.00  0.00     0.031 C 
HETATM    7  C6  UNL     1      -0.798  -0.187  -0.294  1.00  0.00     0.030 C 
HETATM    8  C7  UNL     1      -1.002  -0.788  -1.656  1.00  0.00     0.039 C 
HETATM    9  N2  UNL     1       0.548   0.342  -0.175  1.00  0.00    -0.369 N 
ATOM     10  H2  UNL     1       0.730   1.326  -0.371  1.00  0.00     0.161 HD
ENDROOT
BRANCH   1  11
HETATM   11  O1  UNL     1       3.071   1.251  -0.012  1.00  0.00    -0.284 OA
HETATM   12  C1  UNL     1       4.331   1.781  -0.300  1.00  0.00     0.237 C 
ENDBRANCH   1  11
BRANCH   7  13
HETATM   13  C8  UNL     1      -1.756   0.962  -0.145  1.00  0.00     0.005 C 
HETATM   14  C9  UNL     1      -3.200   0.512  -0.205  1.00  0.00     0.012 C 
HETATM   15  C10 UNL     1      -1.500   1.794   1.083  1.00  0.00     0.012 C 
ENDBRANCH   7  13
TORSDOF 2
