REMARK  3 active torsions:
REMARK  status: ('A' for Active; 'I' for Inactive)
REMARK    1  A    between atoms: O1_2  and  C2_3 
REMARK    2  A    between atoms: C2_3  and  N2_7 
REMARK    3  A    between atoms: N2_7  and  C3_9 
ROOT
HETATM    1  C3  UNL     1       0.082  -0.199   0.397  1.00  0.00     0.085 C 
HETATM    2  C4  UNL     1      -0.828  -0.615   1.543  1.00  0.00     0.025 C 
HETATM    3  C5  UNL     1      -1.804  -1.669   1.099  1.00  0.00     0.002 C 
HETATM    4  C6  UNL     1      -2.618  -1.303  -0.087  1.00  0.00     0.000 C 
HETATM    5  C7  UNL     1      -2.875   0.143  -0.278  1.00  0.00     0.000 C 
HETATM    6  C8  UNL     1      -1.928   0.663  -1.365  1.00  0.00     0.000 C 
HETATM    7  C9  UNL     1      -1.015   1.709  -0.822  1.00  0.00     0.002 C 
HETATM    8  C10 UNL     1      -0.056   1.265   0.203  1.00  0.00     0.025 C 
ENDROOT
BRANCH   1   9
HETATM    9  N2  UNL     1       1.458  -0.521   0.807  1.00  0.00    -0.352 N 
ATOM     10  H2  UNL     1       1.618  -0.943   1.721  1.00  0.00     0.163 HD
BRANCH   9  11
HETATM   11  C2  UNL     1       2.570  -0.258  -0.040  1.00  0.00     0.212 C 
HETATM   12  N1  UNL     1       2.893  -1.136  -0.934  1.00  0.00    -0.366 N 
ATOM     13  H12 UNL     1       3.690  -0.947  -1.541  1.00  0.00     0.159 HD
ATOM     14  H11 UNL     1       2.323  -1.980  -0.981  1.00  0.00     0.159 HD
BRANCH  11  15
HETATM   15  O1  UNL     1       3.340   0.882   0.023  1.00  0.00    -0.328 OA
HETATM   16  C1  UNL     1       4.702   0.920  -0.390  1.00  0.00     0.213 C 
ENDBRANCH  11  15
ENDBRANCH   9  11
ENDBRANCH   1   9
TORSDOF 3
