REMARK  9 active torsions:
REMARK  status: ('A' for Active; 'I' for Inactive)
REMARK    1  A    between atoms: N1_1  and  C1_5 
REMARK    2  A    between atoms: C1_5  and  C2_6 
REMARK    3  A    between atoms: C2_6  and  N2_7 
REMARK    4  A    between atoms: C3_12  and  C4_13 
REMARK    5  A    between atoms: C4_13  and  S1_14 
REMARK    6  A    between atoms: S1_14  and  C5_15 
REMARK    7  A    between atoms: C6_19  and  N6_20 
REMARK    8  A    between atoms: C7_27  and  C8_28 
REMARK    9  A    between atoms: C8_28  and  O1_29 
ROOT
HETATM    1  C5  UNL     1      -2.477  -0.336   0.973  1.00  0.00     0.284 C 
HETATM    2  N5  UNL     1      -2.554   1.091   1.213  1.00  0.00    -0.006 N 
ATOM      3  H51 UNL     1      -1.701   1.484   1.610  1.00  0.00     0.283 HD
ATOM      4  H52 UNL     1      -3.174   1.342   1.983  1.00  0.00     0.283 HD
HETATM    5  C6  UNL     1      -2.933   1.688  -0.056  1.00  0.00     0.579 C 
HETATM    6  N7  UNL     1      -3.813   0.730  -0.652  1.00  0.00    -0.013 N 
ATOM      7  H71 UNL     1      -3.995   0.878  -1.645  1.00  0.00     0.282 HD
ATOM      8  H72 UNL     1      -4.787   0.804  -0.357  1.00  0.00     0.282 HD
HETATM    9  C7  UNL     1      -3.178  -0.536  -0.334  1.00  0.00     0.254 C 
ENDROOT
BRANCH   1  10
HETATM   10  S1  UNL     1      -0.765  -0.878   0.974  1.00  0.00    -0.126 SA
BRANCH  10  11
HETATM   11  C4  UNL     1       0.165  -0.188  -0.419  1.00  0.00     0.155 C 
BRANCH  11  12
HETATM   12  C3  UNL     1       1.559  -0.685  -0.333  1.00  0.00     0.122 A 
HETATM   13  N4  UNL     1       1.982  -1.817  -0.908  1.00  0.00    -0.271 N 
HETATM   14  N3  UNL     1       3.249  -1.938  -0.627  1.00  0.00    -0.225 N 
ATOM     15  H4  UNL     1       1.419  -2.463  -1.462  1.00  0.00     0.190 HD
HETATM   16  N2  UNL     1       3.658  -0.918   0.111  1.00  0.00    -0.217 N 
ATOM     17  H3  UNL     1       3.842  -2.710  -0.933  1.00  0.00     0.210 HD
HETATM   18  N8  UNL     1       2.613  -0.147   0.290  1.00  0.00    -0.269 N 
ATOM     19  H8  UNL     1       2.605   0.724   0.820  1.00  0.00     0.190 HD
BRANCH  16  20
HETATM   20  C2  UNL     1       5.025  -0.720   0.615  1.00  0.00     0.198 C 
BRANCH  20  21
HETATM   21  C1  UNL     1       5.764   0.071  -0.433  1.00  0.00     0.253 C 
BRANCH  21  22
HETATM   22  N1  UNL     1       5.068   1.334  -0.605  1.00  0.00    -0.078 N 
ATOM     23  H13 UNL     1       4.079   1.215  -0.823  1.00  0.00     0.274 HD
ATOM     24  H12 UNL     1       4.953   1.846   0.270  1.00  0.00     0.274 HD
ATOM     25  H11 UNL     1       5.568   1.869  -1.314  1.00  0.00     0.274 HD
ENDBRANCH  21  22
ENDBRANCH  20  21
ENDBRANCH  16  20
ENDBRANCH  11  12
ENDBRANCH  10  11
ENDBRANCH   1  10
BRANCH   9  26
HETATM   26  C8  UNL     1      -4.271  -1.578  -0.231  1.00  0.00     0.200 C 
BRANCH  26  27
HETATM   27  O1  UNL     1      -3.765  -2.839   0.073  1.00  0.00    -0.399 OA
ATOM     28  H1  UNL     1      -4.451  -3.493   0.138  1.00  0.00     0.209 HD
ENDBRANCH  26  27
ENDBRANCH   9  26
BRANCH   5  29
HETATM   29  N6  UNL     1      -3.550   2.972   0.169  1.00  0.00    -0.026 N 
ATOM     30  H63 UNL     1      -4.338   2.910   0.813  1.00  0.00     0.278 HD
ATOM     31  H62 UNL     1      -2.956   3.591   0.721  1.00  0.00     0.278 HD
ATOM     32  H61 UNL     1      -3.816   3.391  -0.722  1.00  0.00     0.278 HD
ENDBRANCH   5  29
TORSDOF 9
