REMARK  2 active torsions:
REMARK  status: ('A' for Active; 'I' for Inactive)
REMARK       I    between atoms: N1_1  and  C1_5 
REMARK       I    between atoms: C1_5  and  N2_6 
REMARK       I    between atoms: C1_5  and  N3_10 
REMARK    1  A    between atoms: N3_10  and  N4_12 
REMARK    2  A    between atoms: C2_14  and  C3_15 
ROOT
HETATM    1  N1  UNL     1      -3.036  -1.206   0.524  1.00  0.00    -0.032 N 
ATOM      2  H11 UNL     1      -2.533  -2.092   0.580  1.00  0.00     0.279 HD
ATOM      3  H12 UNL     1      -3.889  -1.276  -0.031  1.00  0.00     0.279 HD
ATOM      4  H13 UNL     1      -3.466  -0.944   1.411  1.00  0.00     0.279 HD
HETATM    5  C1  UNL     1      -2.128  -0.184   0.022  1.00  0.00     0.494 C 
HETATM    6  N2  UNL     1      -2.834   1.060  -0.057  1.00  0.00    -0.032 N 
ATOM      7  H21 UNL     1      -2.198   1.776  -0.409  1.00  0.00     0.279 HD
ATOM      8  H22 UNL     1      -3.264   1.322   0.830  1.00  0.00     0.279 HD
ATOM      9  H23 UNL     1      -3.687   0.990  -0.612  1.00  0.00     0.279 HD
HETATM   10  N3  UNL     1      -1.025  -0.120   0.992  1.00  0.00    -0.284 N 
ATOM     11  H3  UNL     1      -0.815   0.743   1.494  1.00  0.00     0.184 HD
ENDROOT
BRANCH  10  12
HETATM   12  N4  UNL     1      -0.274  -1.277   1.205  1.00  0.00    -0.311 N 
HETATM   13  C2  UNL     1       0.936  -1.429   0.837  1.00  0.00     0.137 C 
ATOM     14  H4  UNL     1      -0.725  -2.054   1.688  1.00  0.00     0.185 HD
BRANCH  13  15
HETATM   15  C3  UNL     1       1.653  -0.379   0.146  1.00  0.00     0.066 A 
HETATM   16  C4  UNL     1       2.941  -0.355  -0.323  1.00  0.00     0.051 A 
HETATM   17  C5  UNL     1       3.198   0.865  -0.919  1.00  0.00     0.109 A 
HETATM   18  N5  UNL     1       2.050   1.559  -0.799  1.00  0.00    -0.311 N 
HETATM   19  N6  UNL     1       1.144   0.843  -0.179  1.00  0.00    -0.300 N 
ATOM     20  H5  UNL     1       1.906   2.509  -1.142  1.00  0.00     0.186 HD
ATOM     21  H6  UNL     1       0.196   1.155   0.030  1.00  0.00     0.187 HD
ENDBRANCH  13  15
ENDBRANCH  10  12
TORSDOF 2
