REMARK  13 active torsions:
REMARK  status: ('A' for Active; 'I' for Inactive)
REMARK    1  A    between atoms: O1_2  and  C2_3 
REMARK    2  A    between atoms: C3_4  and  O2_5 
REMARK    3  A    between atoms: O2_5  and  C4_6 
REMARK    4  A    between atoms: C5_8  and  N1_9 
REMARK    5  A    between atoms: C7_14  and  N2_15 
REMARK    6  A    between atoms: C8_19  and  O4_20 
REMARK    7  A    between atoms: O4_20  and  C9_21 
REMARK    8  A    between atoms: C10_22  and  N3_23 
REMARK    9  A    between atoms: N3_23  and  N4_25 
REMARK   10  A    between atoms: N4_25  and  N5_26 
REMARK   11  A    between atoms: C12_30  and  N6_31 
REMARK   12  A    between atoms: C13_35  and  O5_36 
REMARK   13  A    between atoms: C14_38  and  O6_39 
ROOT
HETATM    1  C9  UNL     1       1.657   0.450  -0.365  1.00  0.00     0.178 C 
HETATM    2  C10 UNL     1       2.315  -0.894  -0.504  1.00  0.00     0.148 C 
HETATM    3  C11 UNL     1       3.442  -1.140   0.440  1.00  0.00     0.066 C 
HETATM    4  C12 UNL     1       3.076  -0.604   1.780  1.00  0.00     0.216 C 
HETATM    5  C13 UNL     1       3.095   0.896   1.668  1.00  0.00     0.179 C 
HETATM    6  C14 UNL     1       2.443   1.431   0.443  1.00  0.00     0.180 C 
ENDROOT
BRANCH   1   7
HETATM    7  O4  UNL     1       0.433   0.289   0.193  1.00  0.00    -0.371 OA
BRANCH   7   8
HETATM    8  C8  UNL     1      -0.687   0.611  -0.519  1.00  0.00     0.184 C 
HETATM    9  C2  UNL     1      -1.430  -0.651  -0.778  1.00  0.00     0.183 C 
HETATM   10  C3  UNL     1      -2.751  -0.792  -0.106  1.00  0.00     0.193 C 
HETATM   11  C5  UNL     1      -3.656   0.390  -0.209  1.00  0.00     0.217 C 
HETATM   12  C6  UNL     1      -2.938   1.686  -0.441  1.00  0.00     0.071 C 
HETATM   13  C7  UNL     1      -1.535   1.689   0.108  1.00  0.00     0.217 C 
BRANCH   9  14
HETATM   14  O1  UNL     1      -1.607  -0.757  -2.173  1.00  0.00    -0.385 OA
HETATM   15  C1  UNL     1      -1.018  -1.860  -2.712  1.00  0.00     0.202 C 
ENDBRANCH   9  14
BRANCH  10  16
HETATM   16  O2  UNL     1      -2.578  -1.165   1.244  1.00  0.00    -0.318 OA
BRANCH  16  17
HETATM   17  C4  UNL     1      -2.993  -2.369   1.765  1.00  0.00     0.398 C 
HETATM   18  O3  UNL     1      -3.549  -3.159   0.985  1.00  0.00    -0.276 OA
ENDBRANCH  16  17
ENDBRANCH  10  16
BRANCH  11  19
HETATM   19  N1  UNL     1      -4.577   0.219  -1.322  1.00  0.00    -0.072 N 
ATOM     20  H13 UNL     1      -4.087   0.036  -2.198  1.00  0.00     0.274 HD
ATOM     21  H12 UNL     1      -5.098  -0.656  -1.256  1.00  0.00     0.274 HD
ATOM     22  H11 UNL     1      -5.196   1.027  -1.392  1.00  0.00     0.274 HD
ENDBRANCH  11  19
BRANCH  13  23
HETATM   23  N2  UNL     1      -1.544   1.639   1.564  1.00  0.00    -0.072 N 
ATOM     24  H23 UNL     1      -2.106   2.391   1.963  1.00  0.00     0.274 HD
ATOM     25  H22 UNL     1      -2.082   0.844   1.910  1.00  0.00     0.274 HD
ATOM     26  H21 UNL     1      -0.594   1.641   1.936  1.00  0.00     0.274 HD
ENDBRANCH  13  23
ENDBRANCH   7   8
ENDBRANCH   1   7
BRANCH   2  27
HETATM   27  N3  UNL     1       2.924  -1.040  -1.841  1.00  0.00    -0.245 N 
ATOM     28  H3  UNL     1       3.112  -1.958  -2.243  1.00  0.00     0.197 HD
BRANCH  27  29
HETATM   29  N4  UNL     1       3.194  -0.006  -2.449  1.00  0.00    -0.248 NA
BRANCH  29  30
HETATM   30  N5  UNL     1       3.379   0.898  -3.273  1.00  0.00    -0.261 N 
ATOM     31  H52 UNL     1       3.032   0.305  -4.027  1.00  0.00     0.193 HD
ATOM     32  H51 UNL     1       3.603   1.756  -3.777  1.00  0.00     0.193 HD
ENDBRANCH  29  30
ENDBRANCH  27  29
ENDBRANCH   2  27
BRANCH   6  33
HETATM   33  O6  UNL     1       1.733   2.571   0.788  1.00  0.00    -0.390 OA
ATOM     34  H6  UNL     1       2.233   3.195   1.302  1.00  0.00     0.210 HD
ENDBRANCH   6  33
BRANCH   5  35
HETATM   35  O5  UNL     1       4.431   1.293   1.754  1.00  0.00    -0.391 OA
ATOM     36  H5  UNL     1       4.443   2.240   1.683  1.00  0.00     0.210 HD
ENDBRANCH   5  35
BRANCH   4  37
HETATM   37  N6  UNL     1       1.906  -1.151   2.371  1.00  0.00    -0.072 N 
ATOM     38  H63 UNL     1       1.117  -1.053   1.732  1.00  0.00     0.274 HD
ATOM     39  H62 UNL     1       1.982  -2.167   2.414  1.00  0.00     0.274 HD
ATOM     40  H61 UNL     1       1.655  -0.784   3.289  1.00  0.00     0.274 HD
ENDBRANCH   4  37
TORSDOF 13
