REMARK  16 active torsions:
REMARK  status: ('A' for Active; 'I' for Inactive)
REMARK    1  A    between atoms: C2_2  and  C5_5 
REMARK    2  A    between atoms: C5_5  and  C6_6 
REMARK    3  A    between atoms: C6_6  and  O1_7 
REMARK    4  A    between atoms: C13_16  and  C14_17 
REMARK    5  A    between atoms: C14_17  and  O2_18 
REMARK    6  A    between atoms: C14_17  and  N2_20 
REMARK    7  A    between atoms: N2_20  and  O3_21 
REMARK    8  A    between atoms: N2_20  and  C15_23 
REMARK    9  A    between atoms: C15_23  and  C16_24 
REMARK   10  A    between atoms: N3_27  and  C19_28 
REMARK   11  A    between atoms: C19_28  and  C20_29 
REMARK   12  A    between atoms: C20_29  and  C21_30 
REMARK   13  A    between atoms: C21_30  and  C22_31 
REMARK   14  A    between atoms: C22_31  and  C23_32 
REMARK   15  A    between atoms: C23_32  and  N4_33 
REMARK   16  A    between atoms: C23_32  and  C24_37 
ROOT
HETATM    1  C16 UNL     1      -0.242  -1.313  -0.118  1.00  0.00     0.015 C 
HETATM    2  C17 UNL     1       0.687  -1.886   0.943  1.00  0.00     0.051 C 
HETATM    3  C18 UNL     1       1.611  -0.820   1.388  1.00  0.00     0.068 C 
HETATM    4  N3  UNL     1       2.189   0.018   0.425  1.00  0.00    -0.354 N 
HETATM    5  C32 UNL     1       1.764   0.004  -0.899  1.00  0.00     0.068 C 
HETATM    6  C33 UNL     1       0.640  -0.895  -1.259  1.00  0.00     0.051 C 
ENDROOT
BRANCH   1   7
HETATM    7  C15 UNL     1      -1.077  -0.167   0.436  1.00  0.00     0.163 C 
BRANCH   7   8
HETATM    8  N2  UNL     1      -1.961   0.410  -0.507  1.00  0.00    -0.241 N 
BRANCH   8   9
HETATM    9  C14 UNL     1      -3.267   0.198  -0.891  1.00  0.00     0.151 C 
BRANCH   9  10
HETATM   10  C13 UNL     1      -4.234  -0.774  -0.432  1.00  0.00     0.085 C 
HETATM   11  C6  UNL     1      -5.674  -0.198  -0.564  1.00  0.00     0.081 C 
HETATM   12  C7  UNL     1      -6.613  -1.290  -0.229  1.00  0.00     0.050 C 
HETATM   13  C8  UNL     1      -6.397  -1.871   1.153  1.00  0.00     0.015 C 
HETATM   14  C11 UNL     1      -6.432  -2.496  -1.164  1.00  0.00     0.280 C 
HETATM   15  C9  UNL     1      -5.008  -2.380   1.294  1.00  0.00     0.016 C 
HETATM   16  C10 UNL     1      -4.833  -3.530   0.289  1.00  0.00     0.277 C 
HETATM   17  C34 UNL     1      -3.988  -1.287   0.941  1.00  0.00     0.029 C 
HETATM   18  N1  UNL     1      -5.108  -3.010  -1.040  1.00  0.00     0.090 N 
HETATM   19  C12 UNL     1      -4.147  -2.003  -1.343  1.00  0.00     0.293 C 
BRANCH  11  20
HETATM   20  C5  UNL     1      -5.745   0.985   0.319  1.00  0.00     0.048 C 
BRANCH  20  21
HETATM   21  C2  UNL     1      -6.884   1.885   0.317  1.00  0.00    -0.049 C 
HETATM   22  C1  UNL     1      -8.240   1.343   0.666  1.00  0.00     0.014 C 
HETATM   23  C3  UNL     1      -6.625   2.981   1.382  1.00  0.00     0.014 C 
HETATM   24  C4  UNL     1      -7.081   2.699  -0.950  1.00  0.00     0.014 C 
ENDBRANCH  20  21
ENDBRANCH  11  20
BRANCH  11  25
HETATM   25  O1  UNL     1      -5.774   0.105  -1.911  1.00  0.00    -0.388 OA
ATOM     26  H1  UNL     1      -5.728  -0.655  -2.479  1.00  0.00     0.210 HD
ENDBRANCH  11  25
ENDBRANCH   9  10
BRANCH   9  27
HETATM   27  O2  UNL     1      -3.659   1.046  -1.838  1.00  0.00    -0.347 OA
ATOM     28  H2  UNL     1      -3.024   1.685  -2.140  1.00  0.00     0.219 HD
ENDBRANCH   9  27
ENDBRANCH   8   9
BRANCH   8  29
HETATM   29  O3  UNL     1      -1.322   1.469  -1.220  1.00  0.00    -0.286 OA
ATOM     30  H3  UNL     1      -0.421   1.615  -0.955  1.00  0.00     0.244 HD
ENDBRANCH   8  29
ENDBRANCH   7   8
ENDBRANCH   1   7
BRANCH   4  31
HETATM   31  C19 UNL     1       3.227   0.868   0.845  1.00  0.00     0.068 C 
BRANCH  31  32
HETATM   32  C20 UNL     1       3.711   1.730  -0.292  1.00  0.00     0.045 C 
BRANCH  32  33
HETATM   33  C21 UNL     1       4.830   2.671   0.109  1.00  0.00     0.007 C 
BRANCH  33  34
HETATM   34  C22 UNL     1       6.059   1.944   0.613  1.00  0.00     0.038 C 
BRANCH  34  35
HETATM   35  C23 UNL     1       6.626   1.024  -0.417  1.00  0.00     0.216 C 
BRANCH  35  36
HETATM   36  N4  UNL     1       6.986   1.808  -1.593  1.00  0.00    -0.071 N 
ATOM     37  H43 UNL     1       6.205   2.360  -1.949  1.00  0.00     0.275 HD
ATOM     38  H42 UNL     1       7.614   2.580  -1.371  1.00  0.00     0.275 HD
ATOM     39  H41 UNL     1       7.373   1.179  -2.297  1.00  0.00     0.275 HD
ENDBRANCH  35  36
BRANCH  35  40
HETATM   40  C24 UNL     1       7.928   0.487   0.099  1.00  0.00    -0.027 A 
HETATM   41  C25 UNL     1       8.268   0.518   1.422  1.00  0.00     0.011 A 
HETATM   42  C26 UNL     1       9.487   0.011   1.863  1.00  0.00     0.031 A 
HETATM   43  C27 UNL     1      10.386  -0.538   0.979  1.00  0.00     0.042 A 
HETATM   44  N5  UNL     1      11.624  -1.096   1.123  1.00  0.00    -0.365 N 
HETATM   45  C30 UNL     1      10.039  -0.567  -0.351  1.00  0.00    -0.008 A 
HETATM   46  C28 UNL     1      12.068  -1.479  -0.089  1.00  0.00     0.089 A 
ATOM     47  H5  UNL     1      12.129  -1.205   2.003  1.00  0.00     0.165 HD
HETATM   48  C29 UNL     1      11.104  -1.161  -1.016  1.00  0.00     0.030 A 
HETATM   49  C31 UNL     1       8.837  -0.068  -0.802  1.00  0.00     0.023 A 
ENDBRANCH  35  40
ENDBRANCH  34  35
ENDBRANCH  33  34
ENDBRANCH  32  33
ENDBRANCH  31  32
ENDBRANCH   4  31
TORSDOF 16
