REMARK  4 active torsions:
REMARK  status: ('A' for Active; 'I' for Inactive)
REMARK    1  A    between atoms: C2_2  and  N1_3 
REMARK    2  A    between atoms: C4_5  and  C5_6 
REMARK    3  A    between atoms: C5_6  and  N2_7 
REMARK    4  A    between atoms: N2_7  and  C6_9 
ROOT
HETATM    1  C6  UNL     1      -0.697  -0.206   0.180  1.00  0.00     0.108 C 
HETATM    2  C7  UNL     1      -1.442  -1.511   0.291  1.00  0.00     0.056 C 
HETATM    3  C8  UNL     1      -2.829  -1.169   0.794  1.00  0.00     0.021 C 
HETATM    4  C9  UNL     1      -2.823  -0.876   2.280  1.00  0.00     0.037 C 
HETATM    5  C10 UNL     1      -3.614  -2.490   0.658  1.00  0.00     0.037 C 
HETATM    6  N3  UNL     1      -3.496  -0.226   0.011  1.00  0.00    -0.403 N 
ATOM      7  H3  UNL     1      -4.508  -0.296  -0.093  1.00  0.00     0.154 HD
HETATM    8  C11 UNL     1      -2.812   0.821  -0.641  1.00  0.00     0.042 C 
HETATM    9  C12 UNL     1      -3.076   2.100   0.132  1.00  0.00     0.039 C 
HETATM   10  C13 UNL     1      -3.478   1.026  -1.992  1.00  0.00     0.039 C 
HETATM   11  C14 UNL     1      -1.354   0.588  -0.908  1.00  0.00     0.078 C 
HETATM   12  C15 UNL     1      -0.671   1.928  -0.999  1.00  0.00     0.037 C 
HETATM   13 CL1  UNL     1      -1.127  -0.242  -2.463  1.00  0.00    -0.115 Cl
ENDROOT
BRANCH   1  14
HETATM   14  N2  UNL     1       0.677  -0.323   0.200  1.00  0.00    -0.391 N 
ATOM     15  H2  UNL     1       1.185   0.125   0.963  1.00  0.00     0.159 HD
BRANCH  14  16
HETATM   16  C5  UNL     1       1.413  -1.017  -0.760  1.00  0.00     0.097 C 
BRANCH  16  17
HETATM   17  C4  UNL     1       2.879  -0.954  -0.397  1.00  0.00     0.013 A 
HETATM   18  C3  UNL     1       3.555   0.046   0.265  1.00  0.00     0.124 A 
HETATM   19  N1  UNL     1       4.855  -0.268   0.404  1.00  0.00    -0.303 N 
HETATM   20  N4  UNL     1       5.009  -1.451  -0.160  1.00  0.00    -0.309 N 
HETATM   21  C16 UNL     1       3.845  -1.908  -0.659  1.00  0.00     0.121 A 
ATOM     22  H4  UNL     1       5.895  -1.954  -0.211  1.00  0.00     0.186 HD
BRANCH  19  23
HETATM   23  C2  UNL     1       5.890   0.550   1.052  1.00  0.00     0.143 C 
HETATM   24  C1  UNL     1       6.523   1.446   0.012  1.00  0.00     0.028 C 
ENDBRANCH  19  23
ENDBRANCH  16  17
ENDBRANCH  14  16
ENDBRANCH   1  14
TORSDOF 4
