REMARK  0 active torsions:
REMARK  status: ('A' for Active; 'I' for Inactive)
ROOT
HETATM    1  C1  UNL     1       0.873  -1.629  -1.301  1.00  0.00     0.015 C 
HETATM    2  C2  UNL     1       0.794  -0.563  -0.519  1.00  0.00    -0.080 A 
HETATM    3  C3  UNL     1       1.328   0.582   0.252  1.00  0.00     0.047 A 
HETATM    4  C4  UNL     1      -0.112   0.385   0.271  1.00  0.00    -0.021 A 
HETATM    5  C5  UNL     1      -0.751  -0.280   1.462  1.00  0.00     0.020 C 
HETATM    6  C6  UNL     1      -1.047   1.166  -0.624  1.00  0.00     0.020 C 
ENDROOT
TORSDOF 0
