REMARK  13 active torsions:
REMARK  status: ('A' for Active; 'I' for Inactive)
REMARK    1  A    between atoms: N1_2  and  N2_3 
REMARK    2  A    between atoms: N1_2  and  S1_7 
REMARK    3  A    between atoms: N2_3  and  O1_5 
REMARK    4  A    between atoms: S1_7  and  N3_10 
REMARK       I    between atoms: N3_10  and  C2_12 
REMARK    5  A    between atoms: C2_12  and  C3_14 
REMARK    6  A    between atoms: C3_14  and  N4_15 
REMARK    7  A    between atoms: C5_20  and  N5_21 
REMARK    8  A    between atoms: C6_25  and  N6_26 
REMARK       I    between atoms: N6_26  and  C7_28 
REMARK       I    between atoms: C7_28  and  N7_30 
REMARK    9  A    between atoms: N7_30  and  O6_32 
REMARK   10  A    between atoms: O6_32  and  C8_33 
REMARK   11  A    between atoms: C8_33  and  C9_35 
REMARK   12  A    between atoms: N8_42  and  O8_44 
REMARK   13  A    between atoms: C16_46  and  C17_47 
ROOT
HETATM    1  C3  UNL     1      -2.980  -1.353  -0.729  1.00  0.00     0.224 C 
HETATM    2  C4  UNL     1      -2.413  -0.581  -1.835  1.00  0.00     0.085 C 
HETATM    3  C5  UNL     1      -0.981  -0.298  -1.939  1.00  0.00     0.214 C 
HETATM    4  C6  UNL     1      -0.154  -0.502  -0.724  1.00  0.00     0.165 C 
HETATM    5  C15 UNL     1      -1.024  -0.500   0.467  1.00  0.00     0.052 C 
HETATM    6  N8  UNL     1      -0.938   0.304   1.421  1.00  0.00    -0.274 N 
ATOM      7  H8  UNL     1      -1.627   0.149   2.157  1.00  0.00     0.193 HD
HETATM    8  C16 UNL     1      -2.060  -1.559   0.454  1.00  0.00     0.182 C 
ENDROOT
BRANCH   1   9
HETATM    9  C2  UNL     1      -4.284  -0.769  -0.297  1.00  0.00     0.270 C 
HETATM   10  N3  UNL     1      -4.412   0.564   0.150  1.00  0.00    -0.234 N 
ATOM     11  H3  UNL     1      -3.585   1.160   0.181  1.00  0.00     0.183 HD
HETATM   12  O4  UNL     1      -5.302  -1.485  -0.331  1.00  0.00    -0.270 OA
BRANCH  10  13
HETATM   13  S1  UNL     1      -5.929   1.207   0.643  1.00  0.00     0.342 S 
HETATM   14  O2  UNL     1      -6.045   2.601   0.040  1.00  0.00    -0.181 OA
HETATM   15  O3  UNL     1      -7.072   0.380   0.099  1.00  0.00    -0.181 OA
BRANCH  13  16
HETATM   16  N1  UNL     1      -6.047   1.370   2.336  1.00  0.00    -0.186 N 
HETATM   17  C1  UNL     1      -6.558   0.277   3.125  1.00  0.00     0.195 C 
BRANCH  16  18
HETATM   18  N2  UNL     1      -5.649   2.549   2.944  1.00  0.00    -0.198 N 
ATOM     19  H2  UNL     1      -6.012   2.807   3.862  1.00  0.00     0.216 HD
BRANCH  18  20
HETATM   20  O1  UNL     1      -4.838   3.291   2.349  1.00  0.00    -0.274 OA
ATOM     21  H1  UNL     1      -4.565   4.100   2.766  1.00  0.00     0.246 HD
ENDBRANCH  18  20
ENDBRANCH  16  18
ENDBRANCH  13  16
ENDBRANCH  10  13
ENDBRANCH   1   9
BRANCH   1  22
HETATM   22  N4  UNL     1      -3.288  -2.711  -1.211  1.00  0.00    -0.060 N 
ATOM     23  H43 UNL     1      -3.785  -3.283  -0.529  1.00  0.00     0.275 HD
ATOM     24  H42 UNL     1      -4.005  -2.734  -1.936  1.00  0.00     0.275 HD
ATOM     25  H41 UNL     1      -2.397  -3.110  -1.506  1.00  0.00     0.275 HD
ENDBRANCH   1  22
BRANCH   8  26
HETATM   26  C17 UNL     1      -2.762  -1.766   1.703  1.00  0.00     0.185 C 
HETATM   27  O9  UNL     1      -2.623  -0.986   2.670  1.00  0.00    -0.647 OA
HETATM   28  O10 UNL     1      -3.612  -2.846   1.849  1.00  0.00    -0.647 OA
ENDBRANCH   8  26
BRANCH   3  29
HETATM   29  N5  UNL     1      -0.687   1.039  -2.457  1.00  0.00    -0.073 N 
ATOM     30  H53 UNL     1      -1.151   1.189  -3.353  1.00  0.00     0.274 HD
ATOM     31  H52 UNL     1      -1.157   1.753  -1.901  1.00  0.00     0.274 HD
ATOM     32  H51 UNL     1       0.311   1.236  -2.529  1.00  0.00     0.274 HD
ENDBRANCH   3  29
BRANCH   4  33
HETATM   33  N6  UNL     1       0.942   0.431  -0.584  1.00  0.00    -0.330 N 
HETATM   34  C7  UNL     1       2.276   0.042  -0.422  1.00  0.00     0.341 C 
HETATM   35  O5  UNL     1       2.537  -1.188  -0.402  1.00  0.00    -0.245 OA
HETATM   36  N7  UNL     1       3.324   0.967  -0.283  1.00  0.00    -0.207 N 
ATOM     37  H7  UNL     1       3.133   1.969  -0.298  1.00  0.00     0.200 HD
ATOM     38  H6  UNL     1       0.731   1.429  -0.605  1.00  0.00     0.165 HD
BRANCH  36  39
HETATM   39  O6  UNL     1       4.593   0.513  -0.129  1.00  0.00    -0.191 OA
BRANCH  39  40
HETATM   40  C8  UNL     1       5.676   0.914  -0.893  1.00  0.00     0.315 C 
HETATM   41  O7  UNL     1       5.503   1.760  -1.796  1.00  0.00    -0.257 OA
BRANCH  40  42
HETATM   42  C9  UNL     1       7.017   0.343  -0.638  1.00  0.00     0.041 A 
HETATM   43  C10 UNL     1       8.106   0.720  -1.374  1.00  0.00     0.017 A 
HETATM   44  C11 UNL     1       9.346   0.154  -1.104  1.00  0.00     0.001 A 
HETATM   45  C12 UNL     1       9.514  -0.793  -0.099  1.00  0.00     0.000 A 
HETATM   46  C13 UNL     1       8.396  -1.152   0.627  1.00  0.00     0.001 A 
HETATM   47  C14 UNL     1       7.170  -0.592   0.359  1.00  0.00     0.017 A 
ENDBRANCH  40  42
ENDBRANCH  39  40
ENDBRANCH  36  39
ENDBRANCH   4  33
BRANCH   6  48
HETATM   48  O8  UNL     1      -0.109   1.333   1.659  1.00  0.00    -0.290 OA
ATOM     49  H8  UNL     1      -0.044   1.944   2.384  1.00  0.00     0.244 HD
ENDBRANCH   6  48
TORSDOF 13
