REMARK  12 active torsions:
REMARK  status: ('A' for Active; 'I' for Inactive)
REMARK       I    between atoms: N2_4  and  C3_6 
REMARK       I    between atoms: C3_6  and  N3_7 
REMARK       I    between atoms: C3_6  and  N4_11 
REMARK    1  A    between atoms: C6_21  and  C7_22 
REMARK    2  A    between atoms: C8_23  and  C9_24 
REMARK    3  A    between atoms: N7_26  and  C11_27 
REMARK    4  A    between atoms: C13_33  and  N10_34 
REMARK    5  A    between atoms: N10_34  and  C14_36 
REMARK    6  A    between atoms: C14_36  and  C15_37 
REMARK    7  A    between atoms: C15_37  and  C16_38 
REMARK    8  A    between atoms: C16_38  and  C17_39 
REMARK    9  A    between atoms: C17_39  and  N11_41 
REMARK   10  A    between atoms: C17_39  and  C19_45 
REMARK   11  A    between atoms: C20_48  and  C21_49 
REMARK   12  A    between atoms: C21_49  and  O3_50 
ROOT
HETATM    1  C9  UNL     1       1.323   1.462  -1.153  1.00  0.00     0.120 A 
HETATM    2  C10 UNL     1       0.136   0.784  -1.310  1.00  0.00     0.160 A 
HETATM    3  N7  UNL     1      -0.868   1.697  -1.359  1.00  0.00    -0.233 N 
HETATM    4  N12 UNL     1      -0.342   2.898  -1.243  1.00  0.00    -0.234 N 
ATOM      5  H12 UNL     1      -0.855   3.780  -1.248  1.00  0.00     0.209 HD
HETATM    6  N13 UNL     1       0.981   2.761  -1.118  1.00  0.00    -0.276 N 
ATOM      7  H13 UNL     1       1.639   3.533  -1.011  1.00  0.00     0.189 HD
ENDROOT
BRANCH   1   8
HETATM    8  C8  UNL     1       2.595   0.813  -1.012  1.00  0.00    -0.037 C 
HETATM    9  C7  UNL     1       3.655   0.253  -0.844  1.00  0.00    -0.023 C 
BRANCH   9  10
HETATM   10  C6  UNL     1       4.895  -0.431  -0.587  1.00  0.00     0.163 A 
HETATM   11  N6  UNL     1       4.897  -1.790  -0.424  1.00  0.00    -0.343 N 
HETATM   12  C5  UNL     1       5.998  -2.477  -0.133  1.00  0.00     0.124 A 
ATOM     13  H6  UNL     1       4.018  -2.297  -0.530  1.00  0.00     0.167 HD
HETATM   14  C4  UNL     1       7.209  -1.801   0.017  1.00  0.00     0.109 A 
HETATM   15  N5  UNL     1       8.441  -2.188   0.321  1.00  0.00    -0.186 N 
HETATM   16  C22 UNL     1       7.211  -0.464  -0.145  1.00  0.00     0.154 A 
HETATM   17  C2  UNL     1       9.294  -1.083   0.369  1.00  0.00     0.685 A 
ATOM     18  H5  UNL     1       8.724  -3.152   0.494  1.00  0.00     0.184 HD
HETATM   19  N1  UNL     1       8.493  -0.044   0.073  1.00  0.00    -0.170 N 
HETATM   20  N2  UNL     1      10.489  -1.194   0.665  1.00  0.00    -0.173 N 
HETATM   21  C1  UNL     1       8.853   1.364  -0.042  1.00  0.00     0.177 C 
HETATM   22  C3  UNL     1      11.629  -0.489   0.866  1.00  0.00     0.494 C 
ATOM     23  H2  UNL     1      10.693  -2.182   0.813  1.00  0.00     0.181 HD
HETATM   24  N3  UNL     1      11.409   0.643   1.795  1.00  0.00    -0.032 N 
HETATM   25  N4  UNL     1      12.353  -0.016  -0.309  1.00  0.00    -0.032 N 
ATOM     26  H33 UNL     1      10.649   1.245   1.477  1.00  0.00     0.278 HD
ATOM     27  H32 UNL     1      11.004   0.329   2.677  1.00  0.00     0.278 HD
ATOM     28  H31 UNL     1      12.267   1.174   1.946  1.00  0.00     0.278 HD
ATOM     29  H43 UNL     1      12.551  -0.807  -0.922  1.00  0.00     0.278 HD
ATOM     30  H42 UNL     1      11.721   0.529  -0.896  1.00  0.00     0.278 HD
ATOM     31  H41 UNL     1      13.211   0.515  -0.158  1.00  0.00     0.278 HD
HETATM   32  N14 UNL     1       6.058   0.195  -0.443  1.00  0.00    -0.319 N 
ATOM     33  H14 UNL     1       6.088   1.208  -0.560  1.00  0.00     0.169 HD
ENDBRANCH   9  10
ENDBRANCH   1   8
BRANCH   3  34
HETATM   34  C11 UNL     1      -2.220   1.296  -1.480  1.00  0.00     0.141 A 
HETATM   35  N8  UNL     1      -2.901   1.627  -2.586  1.00  0.00    -0.336 N 
HETATM   36  C12 UNL     1      -4.208   1.268  -2.737  1.00  0.00     0.183 A 
ATOM     37  H8  UNL     1      -2.435   2.154  -3.325  1.00  0.00     0.168 HD
HETATM   38  N9  UNL     1      -4.855   0.574  -1.783  1.00  0.00    -0.338 N 
HETATM   39  C13 UNL     1      -4.246   0.206  -0.651  1.00  0.00     0.114 A 
ATOM     40  H9  UNL     1      -5.833   0.323  -1.927  1.00  0.00     0.168 HD
HETATM   41  C20 UNL     1      -2.894   0.586  -0.515  1.00  0.00     0.055 A 
BRANCH  39  42
HETATM   42  N10 UNL     1      -4.778  -0.441   0.271  1.00  0.00    -0.376 N 
ATOM     43  H10 UNL     1      -4.190  -0.653   1.077  1.00  0.00     0.161 HD
BRANCH  42  44
HETATM   44  C14 UNL     1      -6.128  -0.920   0.321  1.00  0.00     0.121 C 
BRANCH  44  45
HETATM   45  C15 UNL     1      -6.891   0.000   1.217  1.00  0.00     0.023 C 
BRANCH  45  46
HETATM   46  C16 UNL     1      -8.297  -0.285   1.500  1.00  0.00     0.051 C 
BRANCH  46  47
HETATM   47  C17 UNL     1      -9.309  -0.309   0.419  1.00  0.00     0.206 C 
HETATM   48  C18 UNL     1      -9.322   1.016  -0.299  1.00  0.00     0.058 C 
BRANCH  47  49
HETATM   49  N11 UNL     1     -10.621  -0.252   1.240  1.00  0.00    -0.061 N 
ATOM     50 3H11 UNL     1     -10.724  -0.975   1.952  1.00  0.00     0.275 HD
ATOM     51 2H11 UNL     1     -10.696   0.528   1.893  1.00  0.00     0.275 HD
ATOM     52 1H11 UNL     1     -11.318  -0.269   0.495  1.00  0.00     0.275 HD
ENDBRANCH  47  49
BRANCH  47  53
HETATM   53  C19 UNL     1      -9.426  -1.476  -0.433  1.00  0.00     0.210 C 
HETATM   54  O1  UNL     1     -10.153  -2.443  -0.001  1.00  0.00    -0.646 OA
HETATM   55  O2  UNL     1      -8.861  -1.678  -1.661  1.00  0.00    -0.646 OA
ENDBRANCH  47  53
ENDBRANCH  46  47
ENDBRANCH  45  46
ENDBRANCH  44  45
ENDBRANCH  42  44
ENDBRANCH  39  42
BRANCH  41  56
HETATM   56  C21 UNL     1      -2.160   0.214   0.727  1.00  0.00     0.210 C 
BRANCH  56  57
HETATM   57  O3  UNL     1      -3.018  -0.500   1.599  1.00  0.00    -0.396 OA
ATOM     58  H3  UNL     1      -2.550  -0.737   2.391  1.00  0.00     0.209 HD
ENDBRANCH  56  57
ENDBRANCH  41  56
ENDBRANCH   3  34
TORSDOF 12
