REMARK  3 active torsions:
REMARK  status: ('A' for Active; 'I' for Inactive)
REMARK    1  A    between atoms: C4_5  and  N2_6 
REMARK    2  A    between atoms: N2_6  and  C5_8 
REMARK    3  A    between atoms: C5_8  and  N3_9 
ROOT
HETATM    1  N2  UNL     1       0.846   0.530   0.950  1.00  0.00    -0.356 N 
ATOM      2  H2  UNL     1       0.508   1.002   1.789  1.00  0.00     0.162 HD
ENDROOT
BRANCH   1   3
HETATM    3  C4  UNL     1       0.164   0.506  -0.297  1.00  0.00     0.315 A 
HETATM    4  N1  UNL     1      -1.214  -0.011  -0.319  1.00  0.00    -0.049 N 
HETATM    5  C1  UNL     1      -2.143   0.658  -1.215  1.00  0.00     0.274 C 
HETATM    6  C2  UNL     1      -1.775  -0.540   0.932  1.00  0.00     0.274 C 
HETATM    7  C3  UNL     1      -0.180  -0.801  -0.936  1.00  0.00     0.293 A 
ENDBRANCH   1   3
BRANCH   1   8
HETATM    8  C5  UNL     1       2.087  -0.209   0.862  1.00  0.00     0.193 C 
BRANCH   8   9
HETATM    9  N3  UNL     1       3.099   0.408   0.088  1.00  0.00    -0.303 N 
HETATM   10  N4  UNL     1       4.074   0.944   0.578  1.00  0.00    -0.344 N 
ATOM     11  H42 UNL     1       4.151   0.940   1.595  1.00  0.00     0.176 HD
ATOM     12  H41 UNL     1       4.803   1.389   0.020  1.00  0.00     0.176 HD
ATOM     13  H3  UNL     1       3.006   0.403  -0.928  1.00  0.00     0.187 HD
ENDBRANCH   8   9
ENDBRANCH   1   8
TORSDOF 3
