REMARK  3 active torsions:
REMARK  status: ('A' for Active; 'I' for Inactive)
REMARK    1  A    between atoms: N1_2  and  C2_4 
REMARK    2  A    between atoms: N2_5  and  C3_7 
REMARK    3  A    between atoms: N3_8  and  N4_10 
ROOT
HETATM    1  C3  UNL     1       1.583   0.180   0.412  1.00  0.00     0.199 C 
HETATM    2  N3  UNL     1       2.335   0.524  -0.547  1.00  0.00    -0.282 N 
ATOM      3  H3  UNL     1       1.939   1.153  -1.246  1.00  0.00     0.189 HD
ENDROOT
BRANCH   1   4
HETATM    4  N2  UNL     1       0.259   0.664   0.482  1.00  0.00    -0.348 N 
HETATM    5  C2  UNL     1      -0.659   0.225  -0.305  1.00  0.00     0.176 C 
ATOM      6  H2  UNL     1       0.025   1.378   1.172  1.00  0.00     0.167 HD
BRANCH   5   7
HETATM    7  N1  UNL     1      -1.994   0.676  -0.275  1.00  0.00    -0.390 N 
HETATM    8  C1  UNL     1      -2.994   0.113   0.627  1.00  0.00     0.147 C 
ATOM      9  H1  UNL     1      -2.272   1.425  -0.909  1.00  0.00     0.159 HD
ENDBRANCH   5   7
ENDBRANCH   1   4
BRANCH   2  10
HETATM   10  N4  UNL     1       3.644   0.123  -0.730  1.00  0.00    -0.248 N 
HETATM   11  N5  UNL     1       4.405  -0.150   0.221  1.00  0.00    -0.331 N 
ATOM     12  H52 UNL     1       4.029  -0.068   1.166  1.00  0.00     0.178 HD
ATOM     13  H51 UNL     1       5.372  -0.446   0.086  1.00  0.00     0.178 HD
ATOM     14  H4  UNL     1       4.004   0.047  -1.681  1.00  0.00     0.207 HD
ENDBRANCH   2  10
TORSDOF 3
