REMARK  14 active torsions:
REMARK  status: ('A' for Active; 'I' for Inactive)
REMARK    1  A    between atoms: N1_1  and  C1_4 
REMARK    2  A    between atoms: C3_10  and  N4_11 
REMARK    3  A    between atoms: C4_16  and  N6_17 
REMARK    4  A    between atoms: C6_21  and  S1_22 
REMARK    5  A    between atoms: S1_22  and  C7_23 
REMARK    6  A    between atoms: C7_23  and  C8_24 
REMARK    7  A    between atoms: C8_24  and  C9_25 
REMARK    8  A    between atoms: C9_25  and  N7_26 
REMARK    9  A    between atoms: N7_26  and  C10_27 
REMARK   10  A    between atoms: N7_26  and  C12_31 
REMARK   11  A    between atoms: C10_27  and  C11_28 
REMARK   12  A    between atoms: C11_28  and  O1_29 
REMARK   13  A    between atoms: C12_31  and  C13_32 
REMARK   14  A    between atoms: C13_32  and  O2_33 
ROOT
HETATM    1  C1  UNL     1       3.416   2.477  -0.477  1.00  0.00     0.678 A 
HETATM    2  N2  UNL     1       4.648   1.936  -0.529  1.00  0.00    -0.175 N 
ATOM      3  H2  UNL     1       5.426   2.516  -0.842  1.00  0.00     0.186 HD
HETATM    4  C2  UNL     1       4.889   0.667  -0.186  1.00  0.00     0.153 A 
HETATM    5  N3  UNL     1       6.123   0.111  -0.234  1.00  0.00    -0.175 N 
ATOM      6  H3  UNL     1       6.905   0.686  -0.546  1.00  0.00     0.186 HD
HETATM    7  C3  UNL     1       6.362  -1.168   0.112  1.00  0.00     0.679 A 
HETATM    8  N5  UNL     1       5.348  -1.948   0.526  1.00  0.00    -0.176 N 
ATOM      9  H5  UNL     1       5.524  -2.918   0.789  1.00  0.00     0.186 HD
HETATM   10  C4  UNL     1       4.092  -1.443   0.593  1.00  0.00     0.131 A 
HETATM   11  C5  UNL     1       3.850  -0.133   0.238  1.00  0.00     0.087 A 
HETATM   12  C6  UNL     1       2.571   0.435   0.290  1.00  0.00     0.104 A 
HETATM   13  N8  UNL     1       2.379   1.718  -0.065  1.00  0.00    -0.185 N 
ATOM     14  H8  UNL     1       1.443   2.120  -0.023  1.00  0.00     0.185 HD
ENDROOT
BRANCH  12  15
HETATM   15  S1  UNL     1       1.270  -0.622   0.823  1.00  0.00    -0.110 SA
BRANCH  15  16
HETATM   16  C7  UNL     1      -0.366   0.082   0.776  1.00  0.00     0.086 C 
BRANCH  16  17
HETATM   17  C8  UNL     1      -0.886   0.322  -0.601  1.00  0.00     0.055 C 
BRANCH  17  18
HETATM   18  C9  UNL     1      -2.265   0.932  -0.625  1.00  0.00     0.069 C 
BRANCH  18  19
HETATM   19  N7  UNL     1      -3.287   0.193  -0.010  1.00  0.00    -0.350 N 
BRANCH  19  20
HETATM   20  C10 UNL     1      -3.706  -1.023  -0.559  1.00  0.00     0.094 C 
BRANCH  20  21
HETATM   21  C11 UNL     1      -4.431  -0.900  -1.884  1.00  0.00     0.209 C 
BRANCH  21  22
HETATM   22  O1  UNL     1      -4.789  -2.198  -2.310  1.00  0.00    -0.396 OA
ATOM     23  H1  UNL     1      -5.244  -2.121  -3.141  1.00  0.00     0.209 HD
ENDBRANCH  21  22
ENDBRANCH  20  21
ENDBRANCH  19  20
BRANCH  19  24
HETATM   24  C12 UNL     1      -3.769   0.645   1.224  1.00  0.00     0.094 C 
BRANCH  24  25
HETATM   25  C13 UNL     1      -4.900  -0.125   1.830  1.00  0.00     0.209 C 
BRANCH  25  26
HETATM   26  O2  UNL     1      -6.033  -0.129   1.010  1.00  0.00    -0.396 OA
ATOM     27  H2  UNL     1      -6.751  -0.618   1.395  1.00  0.00     0.209 HD
ENDBRANCH  25  26
ENDBRANCH  24  25
ENDBRANCH  19  24
ENDBRANCH  18  19
ENDBRANCH  17  18
ENDBRANCH  16  17
ENDBRANCH  15  16
ENDBRANCH  12  15
BRANCH  10  28
HETATM   28  N6  UNL     1       3.120  -2.195   0.990  1.00  0.00    -0.384 N 
ATOM     29  H62 UNL     1       3.299  -3.164   1.253  1.00  0.00     0.157 HD
ATOM     30  H61 UNL     1       2.175  -1.815   1.040  1.00  0.00     0.157 HD
ENDBRANCH  10  28
BRANCH   1  31
HETATM   31  N1  UNL     1       3.209   3.716  -0.816  1.00  0.00    -0.234 N 
ATOM     32  H12 UNL     1       3.993   4.290  -1.127  1.00  0.00     0.174 HD
ATOM     33  H11 UNL     1       2.276   4.126  -0.777  1.00  0.00     0.174 HD
ENDBRANCH   1  31
BRANCH   7  34
HETATM   34  N4  UNL     1       7.556  -1.683   0.059  1.00  0.00    -0.234 N 
ATOM     35  H42 UNL     1       8.325  -1.091  -0.255  1.00  0.00     0.174 HD
ATOM     36  H41 UNL     1       7.737  -2.652   0.321  1.00  0.00     0.174 HD
ENDBRANCH   7  34
TORSDOF 14
