REMARK  7 active torsions:
REMARK  status: ('A' for Active; 'I' for Inactive)
REMARK    1  A    between atoms: N1_1  and  N2_4 
REMARK    2  A    between atoms: C1_6  and  N3_7 
REMARK    3  A    between atoms: N3_7  and  O1_8 
REMARK    4  A    between atoms: N3_7  and  S1_10 
REMARK    5  A    between atoms: S1_10  and  N4_13 
REMARK    6  A    between atoms: C10_29  and  C11_30 
REMARK    7  A    between atoms: C11_30  and  O4_31 
ROOT
HETATM    1  N4  UNL     1       1.971  -0.748  -1.053  1.00  0.00    -0.271 N 
ATOM      2  H4  UNL     1       2.091  -1.439  -1.793  1.00  0.00     0.180 HD
HETATM    3  C2  UNL     1       0.765  -0.547  -0.760  1.00  0.00     0.024 C 
HETATM    4  C3  UNL     1       0.387   0.406   0.276  1.00  0.00     0.060 C 
HETATM    5  C4  UNL     1      -0.361  -0.159   1.459  1.00  0.00     0.050 C 
HETATM    6  C5  UNL     1      -0.806   1.010   2.260  1.00  0.00     0.061 C 
HETATM    7  N5  UNL     1      -1.848   1.588   2.185  1.00  0.00    -0.378 N 
ATOM      8  H5  UNL     1      -1.801   2.330   2.883  1.00  0.00     0.164 HD
HETATM    9  C6  UNL     1      -3.083   1.715   1.591  1.00  0.00     0.103 C 
HETATM   10  C7  UNL     1      -3.702   0.419   1.243  1.00  0.00     0.100 C 
HETATM   11  N6  UNL     1      -3.725  -0.021  -0.081  1.00  0.00    -0.396 N 
ATOM     12  H6  UNL     1      -4.119  -0.940  -0.283  1.00  0.00     0.158 HD
HETATM   13  C8  UNL     1      -3.232   0.743  -1.144  1.00  0.00     0.138 C 
HETATM   14  C9  UNL     1      -2.288  -0.066  -2.065  1.00  0.00     0.134 C 
HETATM   15  N7  UNL     1      -1.564  -0.935  -1.222  1.00  0.00    -0.409 N 
ATOM     16  H7  UNL     1      -1.992  -1.274  -0.361  1.00  0.00     0.154 HD
HETATM   17  C10 UNL     1      -0.269  -1.336  -1.552  1.00  0.00     0.147 C 
ENDROOT
BRANCH   1  18
HETATM   18  S1  UNL     1       3.408  -0.137  -0.501  1.00  0.00     0.348 S 
HETATM   19  O2  UNL     1       4.521  -0.363  -1.533  1.00  0.00    -0.180 OA
HETATM   20  O3  UNL     1       3.428   1.330  -0.181  1.00  0.00    -0.180 OA
BRANCH  18  21
HETATM   21  N3  UNL     1       3.940  -0.980   0.907  1.00  0.00    -0.125 N 
BRANCH  21  22
HETATM   22  C1  UNL     1       3.551  -0.509   2.175  1.00  0.00     0.243 C 
HETATM   23  N2  UNL     1       4.131   0.457   2.790  1.00  0.00    -0.300 N 
ATOM     24  H2  UNL     1       3.789   0.741   3.708  1.00  0.00     0.187 HD
BRANCH  23  25
HETATM   25  N1  UNL     1       5.203   1.117   2.238  1.00  0.00    -0.344 N 
ATOM     26  H12 UNL     1       5.532   0.820   1.319  1.00  0.00     0.176 HD
ATOM     27  H11 UNL     1       5.664   1.885   2.727  1.00  0.00     0.176 HD
ENDBRANCH  23  25
ENDBRANCH  21  22
BRANCH  21  28
HETATM   28  O1  UNL     1       4.715  -2.075   0.810  1.00  0.00    -0.271 OA
ATOM     29  H1  UNL     1       4.978  -2.393  -0.046  1.00  0.00     0.246 HD
ENDBRANCH  21  28
ENDBRANCH  18  21
ENDBRANCH   1  18
BRANCH  17  30
HETATM   30  C11 UNL     1       0.101  -1.234  -3.012  1.00  0.00     0.194 C 
BRANCH  30  31
HETATM   31  O4  UNL     1      -0.727  -2.016  -3.814  1.00  0.00    -0.398 OA
ATOM     32  H4  UNL     1      -0.494  -1.952  -4.733  1.00  0.00     0.209 HD
ENDBRANCH  30  31
ENDBRANCH  17  30
TORSDOF 7
