REMARK  9 active torsions:
REMARK  status: ('A' for Active; 'I' for Inactive)
REMARK    1  A    between atoms: C2_2  and  C4_4 
REMARK    2  A    between atoms: C4_4  and  C5_5 
REMARK    3  A    between atoms: N3_20  and  C14_21 
REMARK    4  A    between atoms: C14_21  and  O3_22 
REMARK    5  A    between atoms: C14_21  and  C15_24 
REMARK    6  A    between atoms: C15_24  and  C16_25 
REMARK    7  A    between atoms: C16_25  and  C17_26 
REMARK    8  A    between atoms: C17_26  and  C18_27 
REMARK    9  A    between atoms: C18_27  and  N4_28 
ROOT
HETATM    1  C5  UNL     1      -2.970   1.443   0.754  1.00  0.00     0.177 C 
HETATM    2  N1  UNL     1      -3.346   0.233   1.394  1.00  0.00    -0.346 N 
ATOM      3  H1  UNL     1      -3.859   0.260   2.275  1.00  0.00     0.163 HD
HETATM    4  C6  UNL     1      -3.001  -1.038   0.795  1.00  0.00     0.250 C 
HETATM    5  O1  UNL     1      -3.853  -1.941   1.055  1.00  0.00    -0.271 OA
HETATM    6  C7  UNL     1      -1.775  -1.212  -0.024  1.00  0.00     0.155 C 
HETATM    7  C8  UNL     1      -1.065  -2.532   0.223  1.00  0.00     0.118 C 
HETATM    8  C9  UNL     1      -0.230  -2.853  -0.988  1.00  0.00     0.020 C 
HETATM    9  C10 UNL     1      -0.806  -2.004  -2.070  1.00  0.00     0.035 C 
HETATM   10  C11 UNL     1      -2.106  -1.552  -1.428  1.00  0.00     0.064 C 
HETATM   11  C12 UNL     1      -2.829  -0.662  -2.296  1.00  0.00     0.041 C 
HETATM   12  N2  UNL     1      -2.852  -2.809  -1.196  1.00  0.00    -0.349 N 
ATOM     13  H2  UNL     1      -3.639  -3.157  -1.744  1.00  0.00     0.163 HD
HETATM   14  C13 UNL     1      -2.256  -3.448  -0.050  1.00  0.00     0.225 C 
HETATM   15  O2  UNL     1      -2.600  -4.468   0.566  1.00  0.00    -0.273 OA
HETATM   16  N3  UNL     1      -0.955  -0.040   0.212  1.00  0.00    -0.302 N 
HETATM   17  C22 UNL     1      -1.676   1.198   0.065  1.00  0.00     0.245 C 
HETATM   18  O4  UNL     1      -1.218   2.108  -0.658  1.00  0.00    -0.271 OA
ENDROOT
BRANCH  16  19
HETATM   19  C14 UNL     1       0.438  -0.031   0.567  1.00  0.00     0.224 C 
BRANCH  19  20
HETATM   20  O3  UNL     1       0.706   0.444   1.874  1.00  0.00    -0.377 OA
ATOM     21  H3  UNL     1       1.627   0.450   2.109  1.00  0.00     0.212 HD
ENDBRANCH  19  20
BRANCH  19  22
HETATM   22  C15 UNL     1       1.354   0.732  -0.330  1.00  0.00     0.054 C 
BRANCH  22  23
HETATM   23  C16 UNL     1       2.819   0.672   0.138  1.00  0.00     0.006 C 
BRANCH  23  24
HETATM   24  C17 UNL     1       3.363  -0.714   0.185  1.00  0.00     0.028 C 
BRANCH  24  25
HETATM   25  C18 UNL     1       4.777  -0.855   0.614  1.00  0.00     0.236 C 
BRANCH  25  26
HETATM   26  N4  UNL     1       5.782  -0.220  -0.165  1.00  0.00    -0.079 N 
HETATM   27  C19 UNL     1       5.468   0.056  -1.526  1.00  0.00     0.271 C 
HETATM   28  C20 UNL     1       7.037  -0.976  -0.135  1.00  0.00     0.271 C 
HETATM   29  C21 UNL     1       6.133   1.063   0.475  1.00  0.00     0.271 C 
ENDBRANCH  25  26
ENDBRANCH  24  25
ENDBRANCH  23  24
ENDBRANCH  22  23
ENDBRANCH  19  22
ENDBRANCH  16  19
BRANCH   1  30
HETATM   30  C4  UNL     1      -3.984   2.197   0.010  1.00  0.00     0.038 C 
BRANCH  30  31
HETATM   31  C2  UNL     1      -5.157   2.664   0.797  1.00  0.00    -0.020 C 
HETATM   32  C1  UNL     1      -5.979   1.614   1.451  1.00  0.00     0.009 C 
HETATM   33  C3  UNL     1      -4.746   3.647   1.902  1.00  0.00     0.009 C 
ENDBRANCH  30  31
ENDBRANCH   1  30
TORSDOF 9
