REMARK  7 active torsions:
REMARK  status: ('A' for Active; 'I' for Inactive)
REMARK    1  A    between atoms: C2_2  and  S1_3 
REMARK    2  A    between atoms: S1_3  and  N1_6 
REMARK    3  A    between atoms: N1_6  and  C3_8 
REMARK    4  A    between atoms: C3_8  and  C4_9 
REMARK    5  A    between atoms: C4_9  and  N2_10 
REMARK    6  A    between atoms: C9_15  and  N3_16 
REMARK       I    between atoms: N3_16  and  C10_18 
REMARK       I    between atoms: C10_18  and  N5_22 
REMARK    7  A    between atoms: N5_22  and  C11_24 
ROOT
HETATM    1  N3  UNL     1      -0.073   0.945  -0.743  1.00  0.00    -0.220 N 
ATOM      2  H3  UNL     1       0.133   1.650  -0.035  1.00  0.00     0.178 HD
HETATM    3  C10 UNL     1      -1.316   0.949  -1.431  1.00  0.00     0.668 C 
HETATM    4  N4  UNL     1      -1.407   0.393  -2.593  1.00  0.00    -0.235 N 
ATOM      5  H41 UNL     1      -2.299   0.396  -3.087  1.00  0.00     0.174 HD
ATOM      6  H42 UNL     1      -0.557  -0.032  -2.965  1.00  0.00     0.174 HD
HETATM    7  N5  UNL     1      -2.500   1.541  -0.913  1.00  0.00    -0.220 N 
ATOM      8  H5  UNL     1      -2.996   2.265  -1.433  1.00  0.00     0.178 HD
ENDROOT
BRANCH   1   9
HETATM    9  C9  UNL     1       0.880  -0.065  -1.063  1.00  0.00     0.131 C 
HETATM   10  C7  UNL     1       0.390  -1.461  -0.826  1.00  0.00     0.038 C 
HETATM   11  C6  UNL     1       1.288  -2.396  -1.613  1.00  0.00     0.036 C 
HETATM   12  C8  UNL     1       0.942  -1.718   0.586  1.00  0.00     0.244 C 
HETATM   13  C5  UNL     1       2.618  -2.179  -0.875  1.00  0.00     0.238 C 
HETATM   14  N2  UNL     1       2.338  -1.367   0.265  1.00  0.00    -0.063 N 
HETATM   15  C19 UNL     1       2.128   0.012  -0.193  1.00  0.00     0.263 C 
BRANCH  14  16
HETATM   16  C4  UNL     1       3.214  -1.490   1.357  1.00  0.00     0.257 C 
BRANCH  16  17
HETATM   17  C3  UNL     1       4.366  -0.520   1.363  1.00  0.00     0.160 C 
BRANCH  17  18
HETATM   18  N1  UNL     1       5.184  -0.698   0.163  1.00  0.00    -0.318 N 
ATOM     19  H1  UNL     1       4.992  -1.384  -0.567  1.00  0.00     0.172 HD
BRANCH  18  20
HETATM   20  S1  UNL     1       6.507   0.393   0.141  1.00  0.00     0.226 S 
HETATM   21  O1  UNL     1       7.480   0.171   1.238  1.00  0.00    -0.206 OA
HETATM   22  O2  UNL     1       7.235   0.169  -1.174  1.00  0.00    -0.206 OA
BRANCH  20  23
HETATM   23  C2  UNL     1       5.936   2.080   0.121  1.00  0.00     0.158 C 
HETATM   24  C1  UNL     1       7.137   2.999   0.101  1.00  0.00     0.023 C 
ENDBRANCH  20  23
ENDBRANCH  18  20
ENDBRANCH  17  18
ENDBRANCH  16  17
ENDBRANCH  14  16
ENDBRANCH   1   9
BRANCH   7  25
HETATM   25  C11 UNL     1      -2.975   1.090   0.360  1.00  0.00     0.128 C 
HETATM   26  C12 UNL     1      -4.260   1.829   0.770  1.00  0.00     0.061 C 
HETATM   27  C13 UNL     1      -5.077   0.718   1.245  1.00  0.00     0.202 C 
HETATM   28  C14 UNL     1      -6.539   0.776   1.142  1.00  0.00     0.043 C 
HETATM   29  N6  UNL     1      -4.771  -0.333   0.254  1.00  0.00    -0.003 N 
HETATM   30  C15 UNL     1      -6.864  -0.732   1.094  1.00  0.00     0.113 C 
HETATM   31  C16 UNL     1      -5.526  -1.380   0.787  1.00  0.00     0.318 C 
HETATM   32  O3  UNL     1      -5.285  -2.548   0.999  1.00  0.00    -0.265 OA
HETATM   33  C17 UNL     1      -5.288   0.007  -1.044  1.00  0.00     0.283 C 
HETATM   34  C18 UNL     1      -3.371  -0.397   0.335  1.00  0.00     0.273 C 
ENDBRANCH   7  25
TORSDOF 7
