REMARK  7 active torsions:
REMARK  status: ('A' for Active; 'I' for Inactive)
REMARK    1  A    between atoms: C2_2  and  C3_3 
REMARK    2  A    between atoms: C2_2  and  C7_12 
REMARK    3  A    between atoms: C3_3  and  C4_4 
REMARK       I    between atoms: C4_4  and  N1_6 
REMARK    4  A    between atoms: N1_6  and  C5_8 
REMARK    5  A    between atoms: C5_8  and  C6_9 
REMARK    6  A    between atoms: C6_9  and  O2_10 
REMARK    7  A    between atoms: N2_26  and  N3_28 
ROOT
HETATM    1  C7  UNL     1      -1.740   0.580  -0.449  1.00  0.00    -0.006 C 
HETATM    2  C8  UNL     1      -1.561   0.358  -1.939  1.00  0.00     0.005 C 
HETATM    3  C9  UNL     1      -0.188   0.584  -2.452  1.00  0.00     0.001 C 
HETATM    4  C10 UNL     1       0.743   1.314  -1.560  1.00  0.00     0.010 C 
HETATM    5  C11 UNL     1       0.633   0.995  -0.114  1.00  0.00    -0.036 C 
HETATM    6  C12 UNL     1       0.352   2.308   0.620  1.00  0.00     0.016 C 
HETATM    7  C13 UNL     1      -0.514   0.078   0.231  1.00  0.00    -0.002 C 
HETATM    8  C14 UNL     1      -0.258  -1.376  -0.026  1.00  0.00     0.006 C 
HETATM    9  C15 UNL     1       1.093  -1.829   0.430  1.00  0.00     0.006 C 
HETATM   10  C16 UNL     1       2.189  -0.926  -0.090  1.00  0.00    -0.005 C 
HETATM   11  C17 UNL     1       3.539  -1.444   0.331  1.00  0.00     0.004 C 
HETATM   12  C18 UNL     1       3.673  -1.639   1.810  1.00  0.00     0.012 C 
HETATM   13  C19 UNL     1       5.043  -1.132   2.193  1.00  0.00     0.055 C 
HETATM   14  C20 UNL     1       5.677  -0.651   0.927  1.00  0.00     0.014 C 
HETATM   15  N2  UNL     1       6.919  -0.386   0.821  1.00  0.00    -0.294 N 
ATOM     16  H2  UNL     1       7.476  -0.521   1.665  1.00  0.00     0.188 HD
HETATM   17  C21 UNL     1       4.644  -0.545  -0.130  1.00  0.00     0.000 C 
HETATM   18  C22 UNL     1       5.237  -1.120  -1.407  1.00  0.00     0.022 C 
HETATM   19  C23 UNL     1       4.251   0.860  -0.389  1.00  0.00     0.016 C 
HETATM   20  C24 UNL     1       3.069   1.384   0.323  1.00  0.00     0.007 C 
HETATM   21  C25 UNL     1       1.915   0.442   0.477  1.00  0.00    -0.002 C 
ENDROOT
BRANCH   1  22
HETATM   22  C2  UNL     1      -3.003  -0.130  -0.017  1.00  0.00    -0.005 C 
HETATM   23  C1  UNL     1      -3.238   0.080   1.452  1.00  0.00     0.011 C 
BRANCH  22  24
HETATM   24  C3  UNL     1      -4.165   0.471  -0.774  1.00  0.00     0.107 C 
BRANCH  24  25
HETATM   25  C4  UNL     1      -5.452  -0.168  -0.398  1.00  0.00     0.217 C 
HETATM   26  O1  UNL     1      -5.452  -1.099   0.430  1.00  0.00    -0.274 OA
HETATM   27  N1  UNL     1      -6.662   0.265  -0.963  1.00  0.00    -0.359 N 
ATOM     28  H1  UNL     1      -6.633   1.029  -1.639  1.00  0.00     0.162 HD
BRANCH  27  29
HETATM   29  C5  UNL     1      -7.942  -0.311  -0.640  1.00  0.00     0.148 C 
BRANCH  29  30
HETATM   30  C6  UNL     1      -8.257  -0.152   0.828  1.00  0.00     0.183 C 
BRANCH  30  31
HETATM   31  O2  UNL     1      -8.268   1.232   1.092  1.00  0.00    -0.399 OA
ATOM     32  H2  UNL     1      -8.466   1.332   2.016  1.00  0.00     0.209 HD
ENDBRANCH  30  31
ENDBRANCH  29  30
ENDBRANCH  27  29
ENDBRANCH  24  25
ENDBRANCH  22  24
ENDBRANCH   1  22
BRANCH  15  33
HETATM   33  N3  UNL     1       7.604   0.058  -0.283  1.00  0.00    -0.249 N 
HETATM   34  N4  UNL     1       8.695  -0.489  -0.668  1.00  0.00    -0.331 N 
ATOM     35  H42 UNL     1       9.053  -1.277  -0.128  1.00  0.00     0.178 HD
ATOM     36  H41 UNL     1       9.204  -0.159  -1.488  1.00  0.00     0.178 HD
ATOM     37  H3  UNL     1       7.232   0.847  -0.812  1.00  0.00     0.207 HD
ENDBRANCH  15  33
TORSDOF 7
