REMARK  10 active torsions:
REMARK  status: ('A' for Active; 'I' for Inactive)
REMARK    1  A    between atoms: C2_3  and  C3_4 
REMARK    2  A    between atoms: C3_4  and  C4_5 
REMARK    3  A    between atoms: C3_4  and  C11_17 
REMARK       I    between atoms: C4_5  and  N2_7 
REMARK    4  A    between atoms: N2_7  and  C5_9 
REMARK    5  A    between atoms: C8_12  and  O2_13 
REMARK    6  A    between atoms: C11_17  and  O3_18 
REMARK    7  A    between atoms: C11_17  and  N3_20 
REMARK    8  A    between atoms: N3_20  and  C12_22 
REMARK    9  A    between atoms: C15_25  and  O4_26 
REMARK   10  A    between atoms: N4_33  and  N5_34 
ROOT
HETATM    1  C3  UNL     1       0.076   0.519  -0.469  1.00  0.00     0.187 C 
ENDROOT
BRANCH   1   2
HETATM    2  C2  UNL     1      -0.206   1.904  -0.041  1.00  0.00     0.119 A 
HETATM    3  C1  UNL     1      -0.638   2.972  -0.802  1.00  0.00     0.173 A 
HETATM    4  N1  UNL     1      -0.823   3.044  -2.207  1.00  0.00    -0.078 NA
HETATM    5  N4  UNL     1      -0.782   4.038   0.053  1.00  0.00    -0.189 N 
HETATM    6  C18 UNL     1      -0.448   3.606   1.257  1.00  0.00     0.392 A 
HETATM    7  O5  UNL     1      -0.099   2.338   1.219  1.00  0.00    -0.260 OA
HETATM    8  O6  UNL     1      -0.445   4.293   2.346  1.00  0.00    -0.236 OA
BRANCH   5   9
HETATM    9  N5  UNL     1      -1.229   5.309  -0.347  1.00  0.00    -0.333 N 
ATOM     10  H52 UNL     1      -1.487   5.642  -1.276  1.00  0.00     0.177 HD
ATOM     11  H51 UNL     1      -1.336   6.100   0.288  1.00  0.00     0.177 HD
ENDBRANCH   5   9
ENDBRANCH   1   2
BRANCH   1  12
HETATM   12  C4  UNL     1      -1.107  -0.350  -0.016  1.00  0.00     0.237 C 
HETATM   13  O1  UNL     1      -0.919  -0.928   1.094  1.00  0.00    -0.272 OA
HETATM   14  N2  UNL     1      -2.278  -0.512  -0.733  1.00  0.00    -0.326 N 
ATOM     15  H2  UNL     1      -2.388  -0.057  -1.639  1.00  0.00     0.169 HD
BRANCH  14  16
HETATM   16  C5  UNL     1      -3.323  -1.307  -0.211  1.00  0.00     0.034 A 
HETATM   17  C6  UNL     1      -3.693  -1.319   1.112  1.00  0.00     0.032 A 
HETATM   18  C7  UNL     1      -4.717  -2.122   1.599  1.00  0.00     0.039 A 
HETATM   19  C8  UNL     1      -5.410  -2.957   0.736  1.00  0.00     0.065 A 
HETATM   20  C9  UNL     1      -5.075  -2.975  -0.591  1.00  0.00     0.039 A 
HETATM   21  C10 UNL     1      -4.040  -2.151  -1.042  1.00  0.00     0.032 A 
BRANCH  19  22
HETATM   22  O2  UNL     1      -6.443  -3.787   1.182  1.00  0.00    -0.361 OA
ATOM     23  H2  UNL     1      -6.918  -4.359   0.591  1.00  0.00     0.217 HD
ENDBRANCH  19  22
ENDBRANCH  14  16
ENDBRANCH   1  12
BRANCH   1  24
HETATM   24  C11 UNL     1       1.240  -0.156   0.227  1.00  0.00     0.237 C 
BRANCH  24  25
HETATM   25  O3  UNL     1       1.271  -1.457  -0.322  1.00  0.00    -0.376 OA
ATOM     26  H3  UNL     1       2.001  -1.880   0.114  1.00  0.00     0.212 HD
ENDBRANCH  24  25
BRANCH  24  27
HETATM   27  N3  UNL     1       2.491   0.446  -0.225  1.00  0.00    -0.363 N 
ATOM     28  H3  UNL     1       2.486   1.341  -0.715  1.00  0.00     0.162 HD
BRANCH  27  29
HETATM   29  C12 UNL     1       3.698  -0.220   0.022  1.00  0.00     0.030 A 
HETATM   30  C13 UNL     1       4.351  -0.062   1.205  1.00  0.00     0.032 A 
HETATM   31  C14 UNL     1       5.561  -0.723   1.473  1.00  0.00     0.039 A 
HETATM   32  C15 UNL     1       6.071  -1.549   0.491  1.00  0.00     0.065 A 
HETATM   33  C16 UNL     1       5.435  -1.728  -0.701  1.00  0.00     0.039 A 
HETATM   34  C17 UNL     1       4.252  -1.067  -0.943  1.00  0.00     0.032 A 
BRANCH  32  35
HETATM   35  O4  UNL     1       7.258  -2.212   0.734  1.00  0.00    -0.361 OA
ATOM     36  H4  UNL     1       7.609  -2.780   0.058  1.00  0.00     0.217 HD
ENDBRANCH  32  35
ENDBRANCH  27  29
ENDBRANCH  24  27
ENDBRANCH   1  24
TORSDOF 10
