REMARK  1 active torsions:
REMARK  status: ('A' for Active; 'I' for Inactive)
REMARK    1  A    between atoms: C2_2  and  O1_3 
ROOT
HETATM    1  C1  UNL     1       3.694   0.595   0.674  1.00  0.00     0.097 C 
HETATM    2  C2  UNL     1       2.516   0.214  -0.200  1.00  0.00     0.210 C 
HETATM    3  N1  UNL     1       1.365   0.930  -0.054  1.00  0.00    -0.354 N 
ATOM      4  H1  UNL     1       0.630   0.230   0.046  1.00  0.00     0.163 HD
HETATM    5  C3  UNL     1       0.798   1.988   0.014  1.00  0.00     0.070 C 
HETATM    6  C4  UNL     1      -0.708   1.920   0.212  1.00  0.00     0.119 C 
HETATM    7  S1  UNL     1      -1.280   0.581  -0.868  1.00  0.00    -0.143 SA
HETATM    8  C5  UNL     1      -2.639  -0.352  -0.133  1.00  0.00     0.060 C 
HETATM    9  C6  UNL     1      -3.460  -0.944  -1.271  1.00  0.00     0.039 C 
HETATM   10  C7  UNL     1      -3.478   0.506   0.772  1.00  0.00     0.039 C 
HETATM   11  S2  UNL     1      -1.922  -1.692   0.858  1.00  0.00    -0.069 SA
HETATM   12  S3  UNL     1       0.010  -1.040   1.495  1.00  0.00    -0.020 SA
HETATM   13  C8  UNL     1       1.216  -1.865   0.461  1.00  0.00     0.148 C 
HETATM   14  N2  UNL     1       0.949  -3.105   0.212  1.00  0.00    -0.379 N 
ATOM     15  H21 UNL     1       1.636  -3.575  -0.377  1.00  0.00     0.158 HD
ATOM     16  H22 UNL     1       0.115  -3.560   0.583  1.00  0.00     0.158 HD
HETATM   17  N3  UNL     1       2.366  -1.238  -0.050  1.00  0.00    -0.322 N 
ATOM     18  H3  UNL     1       3.146  -1.830  -0.335  1.00  0.00     0.166 HD
ENDROOT
BRANCH   2  19
HETATM   19  O1  UNL     1       2.982   0.381  -1.531  1.00  0.00    -0.354 OA
ATOM     20  H1  UNL     1       2.244   0.142  -2.079  1.00  0.00     0.214 HD
ENDBRANCH   2  19
TORSDOF 1
