REMARK  5 active torsions:
REMARK  status: ('A' for Active; 'I' for Inactive)
REMARK    1  A    between atoms: C4_4  and  N1_5 
REMARK    2  A    between atoms: N1_5  and  C5_7 
REMARK    3  A    between atoms: C5_7  and  C6_8 
REMARK    4  A    between atoms: C6_8  and  N2_9 
REMARK    5  A    between atoms: N2_9  and  C7_11 
ROOT
HETATM    1  C6  UNL     1       0.800   0.929   0.634  1.00  0.00     0.157 C 
ENDROOT
BRANCH   1   2
HETATM    2  C5  UNL     1      -0.627   0.987   0.126  1.00  0.00     0.141 C 
BRANCH   2   3
HETATM    3  N1  UNL     1      -1.322  -0.265   0.354  1.00  0.00    -0.375 N 
ATOM      4  H1  UNL     1      -0.829  -1.088   0.701  1.00  0.00     0.161 HD
BRANCH   3   5
HETATM    5  C4  UNL     1      -2.587  -0.300   0.102  1.00  0.00     0.100 A 
HETATM    6  C3  UNL     1      -3.279   0.796  -0.368  1.00  0.00     0.048 A 
HETATM    7  C2  UNL     1      -4.631   0.780  -0.643  1.00  0.00     0.005 A 
HETATM    8  C1  UNL     1      -5.302  -0.407  -0.430  1.00  0.00     0.017 A 
HETATM    9  C11 UNL     1      -4.592  -1.497   0.042  1.00  0.00     0.089 A 
HETATM   10  N5  UNL     1      -3.273  -1.459   0.304  1.00  0.00    -0.353 N 
ATOM     11  H5  UNL     1      -2.792  -2.289   0.650  1.00  0.00     0.166 HD
ENDBRANCH   3   5
ENDBRANCH   2   3
ENDBRANCH   1   2
BRANCH   1  12
HETATM   12  N2  UNL     1       1.538  -0.104  -0.025  1.00  0.00    -0.224 N 
ATOM     13  H2  UNL     1       1.030  -0.853  -0.495  1.00  0.00     0.177 HD
BRANCH  12  14
HETATM   14  C7  UNL     1       2.833  -0.115  -0.042  1.00  0.00     0.677 A 
HETATM   15  N3  UNL     1       3.531   0.854   0.565  1.00  0.00    -0.202 N 
HETATM   16  C8  UNL     1       4.862   0.827   0.538  1.00  0.00     0.107 A 
ATOM     17  H3  UNL     1       3.044   1.610   1.046  1.00  0.00     0.183 HD
HETATM   18  C9  UNL     1       5.514  -0.185  -0.108  1.00  0.00     0.035 A 
HETATM   19  C10 UNL     1       4.796  -1.171  -0.726  1.00  0.00     0.107 A 
HETATM   20  N4  UNL     1       3.461  -1.124  -0.686  1.00  0.00    -0.202 N 
ATOM     21  H4  UNL     1       2.913  -1.853  -1.144  1.00  0.00     0.183 HD
ENDBRANCH  12  14
ENDBRANCH   1  12
TORSDOF 5
