REMARK  3 active torsions:
REMARK  status: ('A' for Active; 'I' for Inactive)
REMARK    1  A    between atoms: C5_9  and  C6_10 
REMARK    2  A    between atoms: C6_10  and  O2_11 
REMARK    3  A    between atoms: O2_11  and  C7_12 
ROOT
HETATM    1  N1  UNL     1       2.333  -1.815   1.222  1.00  0.00    -0.102 NA
HETATM    2  C1  UNL     1       2.680  -0.773   0.319  1.00  0.00     0.061 A 
HETATM    3  C2  UNL     1       4.023  -0.516   0.008  1.00  0.00     0.101 A 
HETATM    4  C3  UNL     1       4.286   0.510  -0.876  1.00  0.00     0.246 A 
HETATM    5  O1  UNL     1       5.508   0.738  -1.154  1.00  0.00    -0.268 OA
HETATM    6  N2  UNL     1       3.296   1.234  -1.417  1.00  0.00    -0.333 N 
ATOM      7  H2  UNL     1       3.517   1.988  -2.068  1.00  0.00     0.168 HD
HETATM    8  C4  UNL     1       2.007   0.973  -1.107  1.00  0.00     0.102 A 
HETATM    9  C5  UNL     1       1.671  -0.030  -0.237  1.00  0.00     0.006 A 
ENDROOT
BRANCH   9  10
HETATM   10  C6  UNL     1       0.260  -0.300   0.089  1.00  0.00     0.217 C 
BRANCH  10  11
HETATM   11  O2  UNL     1      -0.630   0.557  -0.571  1.00  0.00    -0.347 OA
BRANCH  11  12
HETATM   12  C7  UNL     1      -1.993   0.413  -0.354  1.00  0.00     0.069 A 
HETATM   13  C8  UNL     1      -2.506  -0.553   0.497  1.00  0.00     0.037 A 
HETATM   14  C9  UNL     1      -3.875  -0.694   0.712  1.00  0.00     0.003 A 
HETATM   15  C10 UNL     1      -4.759   0.141   0.069  1.00  0.00     0.000 A 
HETATM   16  C11 UNL     1      -4.269   1.108  -0.781  1.00  0.00     0.003 A 
HETATM   17  C12 UNL     1      -2.909   1.235  -0.983  1.00  0.00     0.037 A 
ENDBRANCH  11  12
ENDBRANCH  10  11
ENDBRANCH   9  10
TORSDOF 3
