REMARK  8 active torsions:
REMARK  status: ('A' for Active; 'I' for Inactive)
REMARK    1  A    between atoms: N1_2  and  C2_5 
REMARK    2  A    between atoms: C2_5  and  C3_6 
REMARK    3  A    between atoms: C4_7  and  C5_8 
REMARK    4  A    between atoms: C5_8  and  C6_9 
REMARK       I    between atoms: N2_10  and  C7_12 
REMARK    5  A    between atoms: C7_12  and  C8_14 
REMARK    6  A    between atoms: C8_14  and  N3_15 
REMARK    7  A    between atoms: N3_15  and  C11_18 
REMARK    8  A    between atoms: C11_18  and  C12_19 
ROOT
HETATM    1  C12 UNL     1      -1.477  -2.109   0.228  1.00  0.00     0.227 C 
HETATM    2  C13 UNL     1      -1.489  -2.757   1.569  1.00  0.00     0.080 C 
HETATM    3  C14 UNL     1      -2.716  -3.586   1.161  1.00  0.00     0.277 C 
HETATM    4  N4  UNL     1      -2.347  -3.222  -0.193  1.00  0.00     0.106 N 
HETATM    5  C15 UNL     1      -3.449  -2.957  -0.994  1.00  0.00     0.278 C 
HETATM    6  C16 UNL     1      -3.456  -1.634  -1.752  1.00  0.00     0.071 C 
HETATM    7  C17 UNL     1      -3.284  -0.627  -0.686  1.00  0.00    -0.021 A 
HETATM    8  C18 UNL     1      -2.320  -0.891   0.267  1.00  0.00     0.058 A 
HETATM    9  N5  UNL     1      -2.371   0.161   1.140  1.00  0.00    -0.343 N 
ATOM     10  H5  UNL     1      -1.775   0.258   1.962  1.00  0.00     0.167 HD
HETATM   11  C19 UNL     1      -3.306   1.047   0.774  1.00  0.00     0.116 A 
HETATM   12  C20 UNL     1      -3.893   0.557  -0.385  1.00  0.00    -0.004 A 
HETATM   13  C21 UNL     1      -4.994   1.190  -1.178  1.00  0.00     0.063 C 
HETATM   14  C22 UNL     1      -6.170   1.538  -0.312  1.00  0.00     0.132 C 
HETATM   15  N6  UNL     1      -5.953   2.758   0.445  1.00  0.00    -0.338 N 
HETATM   16  C23 UNL     1      -6.939   3.817   0.352  1.00  0.00     0.154 C 
HETATM   17  C24 UNL     1      -4.828   2.999   1.284  1.00  0.00     0.323 C 
HETATM   18  O2  UNL     1      -4.890   4.044   2.009  1.00  0.00    -0.247 OA
HETATM   19  N7  UNL     1      -3.627   2.259   1.454  1.00  0.00    -0.294 N 
ATOM     20  H7  UNL     1      -2.940   2.623   2.114  1.00  0.00     0.172 HD
ENDROOT
BRANCH   1  21
HETATM   21  C11 UNL     1      -0.287  -2.062  -0.589  1.00  0.00     0.285 C 
BRANCH  21  22
HETATM   22  N3  UNL     1       0.943  -1.484  -0.235  1.00  0.00    -0.064 N 
HETATM   23  C9  UNL     1       1.670  -1.288  -1.505  1.00  0.00     0.272 C 
HETATM   24  C10 UNL     1       1.800  -2.429   0.522  1.00  0.00     0.272 C 
BRANCH  22  25
HETATM   25  C8  UNL     1       0.935  -0.210   0.415  1.00  0.00     0.339 C 
BRANCH  25  26
HETATM   26  C7  UNL     1       2.288   0.384   0.617  1.00  0.00     0.247 C 
HETATM   27  N2  UNL     1       3.493  -0.235   0.216  1.00  0.00    -0.339 N 
HETATM   28  C6  UNL     1       4.559  -0.074   0.921  1.00  0.00     0.076 C 
ATOM     29  H2  UNL     1       3.519  -0.807  -0.628  1.00  0.00     0.167 HD
HETATM   30  O1  UNL     1       2.411   1.519   1.182  1.00  0.00    -0.271 OA
BRANCH  28  31
HETATM   31  C5  UNL     1       5.828  -0.735   0.486  1.00  0.00     0.138 C 
BRANCH  31  32
HETATM   32  C4  UNL     1       6.574   0.213  -0.363  1.00  0.00    -0.100 C 
HETATM   33  C3  UNL     1       7.177   1.003  -1.045  1.00  0.00    -0.079 C 
BRANCH  33  34
HETATM   34  C2  UNL     1       7.898   1.988  -1.868  1.00  0.00     0.325 C 
BRANCH  34  35
HETATM   35  N1  UNL     1       7.995   3.207  -1.076  1.00  0.00    -0.069 N 
HETATM   36  C1  UNL     1       8.859   3.044   0.061  1.00  0.00     0.267 C 
ATOM     37  H12 UNL     1       7.073   3.540  -0.795  1.00  0.00     0.277 HD
ATOM     38  H11 UNL     1       8.284   3.999  -1.650  1.00  0.00     0.277 HD
ENDBRANCH  34  35
ENDBRANCH  33  34
ENDBRANCH  31  32
ENDBRANCH  28  31
ENDBRANCH  25  26
ENDBRANCH  22  25
ENDBRANCH  21  22
ENDBRANCH   1  21
TORSDOF 8
