REMARK  9 active torsions:
REMARK  status: ('A' for Active; 'I' for Inactive)
REMARK    1  A    between atoms: N1_1  and  C1_4 
REMARK    2  A    between atoms: C4_9  and  N3_10 
REMARK    3  A    between atoms: N3_10  and  C5_12 
REMARK    4  A    between atoms: C5_12  and  N4_13 
REMARK    5  A    between atoms: C5_12  and  C6_17 
REMARK    6  A    between atoms: C6_17  and  N5_18 
REMARK    7  A    between atoms: N5_18  and  O1_19 
REMARK    8  A    between atoms: N5_18  and  C7_21 
REMARK    9  A    between atoms: N6_22  and  N7_24 
ROOT
HETATM    1  C5  UNL     1       0.401  -0.051   0.282  1.00  0.00     0.303 C 
ENDROOT
BRANCH   1   2
HETATM    2  N3  UNL     1      -0.476  -1.120  -0.069  1.00  0.00    -0.346 N 
ATOM      3  H3  UNL     1      -0.052  -2.027  -0.263  1.00  0.00     0.163 HD
BRANCH   2   4
HETATM    4  C4  UNL     1      -1.881  -1.028  -0.171  1.00  0.00     0.119 A 
HETATM    5  C3  UNL     1      -2.657  -2.114  -0.518  1.00  0.00     0.136 A 
HETATM    6  N2  UNL     1      -3.991  -2.053  -0.614  1.00  0.00    -0.368 N 
HETATM    7  C2  UNL     1      -4.640  -0.902  -0.371  1.00  0.00     0.136 A 
ATOM      8  H2  UNL     1      -4.518  -2.887  -0.874  1.00  0.00     0.164 HD
HETATM    9  C1  UNL     1      -3.889   0.196  -0.024  1.00  0.00     0.116 A 
HETATM   10  N8  UNL     1      -2.551   0.115   0.068  1.00  0.00    -0.327 N 
ATOM     11  H8  UNL     1      -2.024   0.949   0.328  1.00  0.00     0.169 HD
BRANCH   9  12
HETATM   12  N1  UNL     1      -4.478   1.310   0.216  1.00  0.00    -0.384 N 
ATOM     13  H12 UNL     1      -5.494   1.371   0.146  1.00  0.00     0.157 HD
ATOM     14  H11 UNL     1      -3.921   2.125   0.473  1.00  0.00     0.157 HD
ENDBRANCH   9  12
ENDBRANCH   2   4
ENDBRANCH   1   2
BRANCH   1  15
HETATM   15  N4  UNL     1       0.403   1.058  -0.611  1.00  0.00    -0.057 N 
ATOM     16  H43 UNL     1       0.601   0.742  -1.560  1.00  0.00     0.276 HD
ATOM     17  H42 UNL     1      -0.546   1.411  -0.732  1.00  0.00     0.276 HD
ATOM     18  H41 UNL     1       1.030   1.822  -0.360  1.00  0.00     0.276 HD
ENDBRANCH   1  15
BRANCH   1  19
HETATM   19  C6  UNL     1       1.828  -0.517   0.475  1.00  0.00     0.210 C 
BRANCH  19  20
HETATM   20  N5  UNL     1       2.734   0.529   0.828  1.00  0.00    -0.252 N 
BRANCH  20  21
HETATM   21  O1  UNL     1       3.287   0.563   2.077  1.00  0.00    -0.287 OA
ATOM     22  H1  UNL     1       3.890   1.259   2.312  1.00  0.00     0.244 HD
ENDBRANCH  20  21
BRANCH  20  23
HETATM   23  C7  UNL     1       3.110   1.571  -0.057  1.00  0.00     0.222 C 
HETATM   24  N6  UNL     1       4.144   1.499  -0.808  1.00  0.00    -0.301 N 
ATOM     25  H6  UNL     1       4.336   2.298  -1.413  1.00  0.00     0.187 HD
BRANCH  24  26
HETATM   26  N7  UNL     1       5.025   0.432  -0.872  1.00  0.00    -0.344 N 
ATOM     27  H72 UNL     1       4.817  -0.357  -0.260  1.00  0.00     0.176 HD
ATOM     28  H71 UNL     1       5.849   0.375  -1.470  1.00  0.00     0.176 HD
ENDBRANCH  24  26
ENDBRANCH  20  23
ENDBRANCH  19  20
ENDBRANCH   1  19
TORSDOF 9
