REMARK  8 active torsions:
REMARK  status: ('A' for Active; 'I' for Inactive)
REMARK    1  A    between atoms: C2_2  and  N1_3 
REMARK    2  A    between atoms: N2_6  and  C5_7 
REMARK    3  A    between atoms: C6_10  and  N4_11 
REMARK    4  A    between atoms: N4_11  and  N5_13 
REMARK    5  A    between atoms: N5_13  and  C7_15 
REMARK    6  A    between atoms: C7_15  and  C8_16 
REMARK    7  A    between atoms: N6_17  and  O1_19 
REMARK    8  A    between atoms: C12_28  and  O3_29 
ROOT
HETATM    1  C5  UNL     1      -0.456  -0.268  -0.540  1.00  0.00     0.149 A 
HETATM    2  N3  UNL     1       0.689  -0.786  -0.059  1.00  0.00    -0.173 N 
ATOM      3  H3  UNL     1       0.637  -1.502   0.665  1.00  0.00     0.186 HD
HETATM    4  C6  UNL     1       1.899  -0.396  -0.496  1.00  0.00     0.701 A 
HETATM    5  N7  UNL     1       1.969   0.560  -1.460  1.00  0.00    -0.153 N 
ATOM      6  H7  UNL     1       2.888   0.855  -1.789  1.00  0.00     0.187 HD
HETATM    7  C9  UNL     1       0.878   1.132  -1.997  1.00  0.00     0.284 A 
HETATM    8  O2  UNL     1       0.963   2.025  -2.899  1.00  0.00    -0.266 OA
HETATM    9  C10 UNL     1      -0.350   0.701  -1.518  1.00  0.00     0.157 A 
HETATM   10  C11 UNL     1      -1.553   1.291  -2.069  1.00  0.00     0.109 C 
HETATM   11  N8  UNL     1      -2.511   1.770  -2.529  1.00  0.00    -0.191 NA
ENDROOT
BRANCH   1  12
HETATM   12  N2  UNL     1      -1.743  -0.650  -0.108  1.00  0.00    -0.312 N 
HETATM   13  C4  UNL     1      -2.609  -1.680  -0.599  1.00  0.00     0.159 A 
HETATM   14  C3  UNL     1      -3.882  -1.561   0.177  1.00  0.00     0.298 A 
HETATM   15  N1  UNL     1      -3.679  -0.581   1.198  1.00  0.00     0.138 N 
HETATM   16  C12 UNL     1      -2.408   0.036   1.006  1.00  0.00     0.468 A 
BRANCH  15  17
HETATM   17  C2  UNL     1      -4.766   0.314   1.424  1.00  0.00     0.274 C 
HETATM   18  C1  UNL     1      -5.017   1.264   0.284  1.00  0.00     0.037 C 
ENDBRANCH  15  17
BRANCH  16  19
HETATM   19  O3  UNL     1      -1.614  -0.265   2.137  1.00  0.00    -0.352 OA
ATOM     20  H3  UNL     1      -0.767   0.146   2.009  1.00  0.00     0.214 HD
ENDBRANCH  16  19
ENDBRANCH   1  12
BRANCH   4  21
HETATM   21  N4  UNL     1       3.004  -0.887  -0.041  1.00  0.00    -0.136 N 
ATOM     22  H4  UNL     1       2.971  -1.604   0.683  1.00  0.00     0.205 HD
BRANCH  21  23
HETATM   23  N5  UNL     1       4.239  -0.456  -0.520  1.00  0.00    -0.317 N 
ATOM     24  H5  UNL     1       4.436  -0.580  -1.513  1.00  0.00     0.181 HD
BRANCH  23  25
HETATM   25  C7  UNL     1       5.254   0.152   0.297  1.00  0.00     0.186 C 
BRANCH  25  26
HETATM   26  C8  UNL     1       6.460   0.516  -0.515  1.00  0.00     0.107 C 
HETATM   27  N6  UNL     1       7.661   0.386  -0.070  1.00  0.00    -0.283 N 
ATOM     28  H6  UNL     1       8.456   0.646  -0.654  1.00  0.00     0.192 HD
BRANCH  27  29
HETATM   29  O1  UNL     1       7.864  -0.102   1.189  1.00  0.00    -0.291 OA
ATOM     30  H1  UNL     1       8.750  -0.198   1.517  1.00  0.00     0.244 HD
ENDBRANCH  27  29
ENDBRANCH  25  26
ENDBRANCH  23  25
ENDBRANCH  21  23
ENDBRANCH   4  21
TORSDOF 8
