REMARK  15 active torsions:
REMARK  status: ('A' for Active; 'I' for Inactive)
REMARK    1  A    between atoms: C2_2  and  C4_4 
REMARK    2  A    between atoms: C4_4  and  N1_5 
REMARK    3  A    between atoms: C4_4  and  C16_23 
REMARK       I    between atoms: N1_5  and  C5_7 
REMARK    4  A    between atoms: C5_7  and  C6_9 
REMARK    5  A    between atoms: C6_9  and  N2_10 
REMARK    6  A    between atoms: C6_9  and  C12_19 
REMARK       I    between atoms: N2_10  and  C7_12 
REMARK    7  A    between atoms: C7_12  and  O3_14 
REMARK    8  A    between atoms: O3_14  and  C8_15 
REMARK       I    between atoms: C16_23  and  N3_25 
REMARK    9  A    between atoms: N3_25  and  C17_27 
REMARK   10  A    between atoms: C17_27  and  C18_28 
REMARK   11  A    between atoms: C17_27  and  C23_37 
REMARK   12  A    between atoms: C18_28  and  O5_29 
REMARK   13  A    between atoms: C18_28  and  N4_31 
REMARK   14  A    between atoms: N4_31  and  C19_33 
REMARK   15  A    between atoms: C19_33  and  C20_34 
ROOT
HETATM    1  C16 UNL     1      -0.935  -0.386   0.816  1.00  0.00     0.245 C 
HETATM    2  O4  UNL     1      -0.772   0.697   0.220  1.00  0.00    -0.271 OA
HETATM    3  N3  UNL     1      -2.166  -0.683   1.398  1.00  0.00    -0.325 N 
ATOM      4  H3  UNL     1      -2.212  -1.600   1.843  1.00  0.00     0.169 HD
ENDROOT
BRANCH   1   5
HETATM    5  C4  UNL     1       0.241  -1.289   0.848  1.00  0.00     0.180 C 
BRANCH   5   6
HETATM    6  C2  UNL     1      -0.041  -2.723   0.647  1.00  0.00     0.009 C 
HETATM    7  C1  UNL     1      -0.448  -3.164  -0.713  1.00  0.00     0.012 C 
HETATM    8  C3  UNL     1       1.151  -3.566   1.139  1.00  0.00     0.012 C 
ENDBRANCH   5   6
BRANCH   5   9
HETATM    9  N1  UNL     1       1.303  -0.740   0.031  1.00  0.00    -0.346 N 
HETATM   10  C5  UNL     1       2.518  -0.212   0.434  1.00  0.00     0.242 C 
HETATM   11  O1  UNL     1       2.698  -0.231   1.714  1.00  0.00    -0.271 OA
ATOM     12  H1  UNL     1       1.134  -0.743  -0.975  1.00  0.00     0.163 HD
BRANCH  10  13
HETATM   13  C6  UNL     1       3.610   0.351  -0.337  1.00  0.00     0.186 C 
BRANCH  13  14
HETATM   14  N2  UNL     1       4.927   0.006   0.166  1.00  0.00    -0.323 N 
HETATM   15  C7  UNL     1       5.910   0.901   0.594  1.00  0.00     0.362 C 
HETATM   16  O2  UNL     1       5.723   2.159   0.586  1.00  0.00    -0.238 OA
ATOM     17  H2  UNL     1       5.157  -0.987   0.211  1.00  0.00     0.165 HD
BRANCH  15  18
HETATM   18  O3  UNL     1       7.141   0.472   1.047  1.00  0.00    -0.294 OA
BRANCH  18  19
HETATM   19  C8  UNL     1       8.169   1.344   1.476  1.00  0.00     0.061 C 
HETATM   20  C9  UNL     1       9.399   0.575   1.912  1.00  0.00     0.046 C 
HETATM   21  C10 UNL     1       8.582   2.171   0.255  1.00  0.00     0.046 C 
HETATM   22  C11 UNL     1       7.738   2.298   2.556  1.00  0.00     0.046 C 
ENDBRANCH  18  19
ENDBRANCH  15  18
ENDBRANCH  13  14
BRANCH  13  23
HETATM   23  C12 UNL     1       3.613   0.178  -1.816  1.00  0.00    -0.022 C 
HETATM   24  C13 UNL     1       2.461   0.807  -2.552  1.00  0.00     0.017 C 
HETATM   25  C14 UNL     1       3.662  -1.282  -2.226  1.00  0.00     0.017 C 
HETATM   26  C15 UNL     1       4.878   0.814  -2.406  1.00  0.00     0.017 C 
ENDBRANCH  13  23
ENDBRANCH  10  13
ENDBRANCH   5   9
ENDBRANCH   1   5
BRANCH   3  27
HETATM   27  C17 UNL     1      -3.386   0.083   1.479  1.00  0.00     0.067 C 
BRANCH  27  28
HETATM   28  C18 UNL     1      -3.282   1.496   1.127  1.00  0.00     0.159 C 
BRANCH  28  29
HETATM   29  O5  UNL     1      -2.375   2.210   1.738  1.00  0.00    -0.345 OA
ATOM     30  H5  UNL     1      -2.307   3.129   1.509  1.00  0.00     0.219 HD
ENDBRANCH  28  29
BRANCH  28  31
HETATM   31  N4  UNL     1      -4.025   2.245   0.195  1.00  0.00    -0.369 N 
ATOM     32  H4  UNL     1      -4.745   1.784  -0.361  1.00  0.00     0.161 HD
BRANCH  31  33
HETATM   33  C19 UNL     1      -3.777   3.678   0.013  1.00  0.00     0.126 C 
BRANCH  33  34
HETATM   34  C20 UNL     1      -4.704   4.217  -1.072  1.00  0.00     0.003 A 
HETATM   35  C21 UNL     1      -4.577   5.695  -1.354  1.00  0.00     0.007 A 
HETATM   36  C22 UNL     1      -4.020   4.705  -2.312  1.00  0.00     0.007 A 
ENDBRANCH  33  34
ENDBRANCH  31  33
ENDBRANCH  28  31
ENDBRANCH  27  28
BRANCH  27  37
HETATM   37  C23 UNL     1      -4.566  -0.715   1.176  1.00  0.00     0.045 C 
HETATM   38  C24 UNL     1      -5.919  -0.124   1.286  1.00  0.00     0.011 C 
HETATM   39  C25 UNL     1      -6.926  -1.241   0.967  1.00  0.00     0.006 C 
HETATM   40  C26 UNL     1      -6.484  -2.021  -0.226  1.00  0.00    -0.006 C 
HETATM   41  C27 UNL     1      -5.651  -1.051  -1.082  1.00  0.00     0.011 C 
HETATM   42  C29 UNL     1      -5.186  -2.773  -0.057  1.00  0.00    -0.040 C 
HETATM   43  C28 UNL     1      -4.488  -1.434  -0.170  1.00  0.00     0.004 C 
HETATM   44  C30 UNL     1      -4.955  -3.585  -1.344  1.00  0.00     0.015 C 
HETATM   45  C31 UNL     1      -4.989  -3.574   1.163  1.00  0.00     0.015 C 
ENDBRANCH  27  37
ENDBRANCH   3  27
TORSDOF 15
