REMARK  13 active torsions:
REMARK  status: ('A' for Active; 'I' for Inactive)
REMARK    1  A    between atoms: C2_2  and  C4_4 
REMARK    2  A    between atoms: C4_4  and  C5_5 
REMARK       I    between atoms: C5_5  and  N1_7 
REMARK    3  A    between atoms: N1_7  and  C6_9 
REMARK    4  A    between atoms: C6_9  and  C7_10 
REMARK    5  A    between atoms: C6_9  and  C30_43 
REMARK       I    between atoms: C7_10  and  N2_12 
REMARK    6  A    between atoms: C10_15  and  C11_16 
REMARK    7  A    between atoms: C11_16  and  C12_17 
REMARK    8  A    between atoms: C12_17  and  C13_18 
REMARK    9  A    between atoms: C12_17  and  N5_26 
REMARK   10  A    between atoms: C13_18  and  C14_19 
REMARK       I    between atoms: N5_26  and  C17_28 
REMARK   11  A    between atoms: C17_28  and  O4_30 
REMARK   12  A    between atoms: O4_30  and  C18_31 
REMARK   13  A    between atoms: C30_43  and  O5_45 
ROOT
HETATM    1  C12 UNL     1      -1.306   0.998  -1.373  1.00  0.00     0.092 C 
ENDROOT
BRANCH   1   2
HETATM    2  C11 UNL     1      -0.161  -0.002  -1.544  1.00  0.00     0.030 C 
BRANCH   2   3
HETATM    3  C10 UNL     1      -0.095  -0.967  -0.406  1.00  0.00    -0.010 C 
HETATM    4  C9  UNL     1       0.156  -0.285   0.922  1.00  0.00     0.024 C 
HETATM    5  C8  UNL     1       1.449  -0.829   1.541  1.00  0.00     0.126 C 
HETATM    6  N2  UNL     1       2.551  -0.755   0.570  1.00  0.00    -0.350 N 
HETATM    7  C7  UNL     1       3.786  -0.156   0.915  1.00  0.00     0.245 C 
HETATM    8  C29 UNL     1       2.324  -1.359  -0.712  1.00  0.00     0.126 C 
HETATM    9  O2  UNL     1       3.859   0.262   2.135  1.00  0.00    -0.271 OA
HETATM   10  C28 UNL     1       0.939  -2.016  -0.694  1.00  0.00     0.024 C 
BRANCH   7  11
HETATM   11  C6  UNL     1       4.920  -0.004   0.005  1.00  0.00     0.205 C 
BRANCH  11  12
HETATM   12  N1  UNL     1       6.175   0.191   0.748  1.00  0.00    -0.345 N 
HETATM   13  C5  UNL     1       7.256  -0.708   0.634  1.00  0.00     0.218 C 
HETATM   14  O1  UNL     1       7.135  -1.700  -0.121  1.00  0.00    -0.274 OA
ATOM     15  H1  UNL     1       6.266   1.000   1.363  1.00  0.00     0.163 HD
BRANCH  13  16
HETATM   16  C4  UNL     1       8.504  -0.509   1.370  1.00  0.00     0.106 C 
BRANCH  16  17
HETATM   17  C2  UNL     1       9.517  -1.604   1.117  1.00  0.00    -0.014 C 
HETATM   18  C1  UNL     1      10.752  -1.273   1.933  1.00  0.00     0.010 C 
HETATM   19  C3  UNL     1       9.862  -1.787  -0.324  1.00  0.00     0.010 C 
ENDBRANCH  16  17
ENDBRANCH  13  16
ENDBRANCH  11  12
BRANCH  11  20
HETATM   20  C30 UNL     1       4.708   1.213  -0.883  1.00  0.00     0.146 C 
HETATM   21  C31 UNL     1       5.790   1.306  -1.941  1.00  0.00     0.042 C 
BRANCH  20  22
HETATM   22  O5  UNL     1       4.628   2.382  -0.126  1.00  0.00    -0.393 OA
ATOM     23  H5  UNL     1       4.496   3.142  -0.680  1.00  0.00     0.210 HD
ENDBRANCH  20  22
ENDBRANCH  11  20
ENDBRANCH   7  11
ENDBRANCH   2   3
ENDBRANCH   1   2
BRANCH   1  24
HETATM   24  C13 UNL     1      -1.298   1.965  -2.560  1.00  0.00     0.083 C 
BRANCH  24  25
HETATM   25  C14 UNL     1      -2.412   2.929  -2.376  1.00  0.00     0.027 A 
HETATM   26  C15 UNL     1      -2.298   4.134  -1.706  1.00  0.00     0.114 A 
HETATM   27  N3  UNL     1      -3.494   4.711  -1.750  1.00  0.00    -0.360 N 
HETATM   28  C16 UNL     1      -4.346   3.921  -2.415  1.00  0.00     0.180 A 
ATOM     29  H3  UNL     1      -3.727   5.616  -1.341  1.00  0.00     0.166 HD
HETATM   30  N4  UNL     1      -3.700   2.809  -2.815  1.00  0.00    -0.355 N 
ATOM     31  H4  UNL     1      -4.095   2.030  -3.342  1.00  0.00     0.166 HD
ENDBRANCH  24  25
ENDBRANCH   1  24
BRANCH   1  32
HETATM   32  N5  UNL     1      -2.577   0.317  -1.309  1.00  0.00    -0.332 N 
HETATM   33  C17 UNL     1      -3.442   0.480  -0.208  1.00  0.00     0.361 C 
HETATM   34  O3  UNL     1      -3.109   1.227   0.734  1.00  0.00    -0.238 OA
ATOM     35  H5  UNL     1      -2.855  -0.295  -2.076  1.00  0.00     0.165 HD
BRANCH  33  36
HETATM   36  O4  UNL     1      -4.671  -0.164  -0.122  1.00  0.00    -0.298 OA
BRANCH  36  37
HETATM   37  C18 UNL     1      -5.584  -0.064   0.924  1.00  0.00     0.142 C 
HETATM   38  C19 UNL     1      -5.959  -1.414   1.500  1.00  0.00     0.016 C 
HETATM   39  C20 UNL     1      -6.954  -1.182   2.613  1.00  0.00     0.012 C 
HETATM   40  C24 UNL     1      -6.528  -2.299   0.434  1.00  0.00     0.012 C 
HETATM   41  C21 UNL     1      -8.186  -0.560   2.005  1.00  0.00    -0.013 C 
HETATM   42  C22 UNL     1      -8.747  -1.415   0.896  1.00  0.00     0.009 C 
HETATM   43  C27 UNL     1      -7.807   0.806   1.448  1.00  0.00     0.012 C 
HETATM   44  C23 UNL     1      -7.717  -1.629  -0.180  1.00  0.00    -0.013 C 
HETATM   45  C25 UNL     1      -7.345  -0.280  -0.770  1.00  0.00     0.012 C 
HETATM   46  C26 UNL     1      -6.839   0.594   0.334  1.00  0.00     0.016 C 
ENDBRANCH  36  37
ENDBRANCH  33  36
ENDBRANCH   1  32
TORSDOF 13
