REMARK  11 active torsions:
REMARK  status: ('A' for Active; 'I' for Inactive)
REMARK    1  A    between atoms: N1_1  and  C1_4 
REMARK    2  A    between atoms: C3_8  and  C4_9 
REMARK    3  A    between atoms: C4_9  and  O2_11 
REMARK    4  A    between atoms: O2_11  and  C5_12 
REMARK    5  A    between atoms: C6_16  and  O3_17 
REMARK    6  A    between atoms: C7_19  and  O4_20 
REMARK    7  A    between atoms: O4_20  and  N4_21 
REMARK    8  A    between atoms: C9_25  and  N5_26 
REMARK    9  A    between atoms: C14_35  and  C15_36 
REMARK   10  A    between atoms: C15_36  and  S1_37 
REMARK   11  A    between atoms: S1_37  and  N7_38 
ROOT
HETATM    1  C5  UNL     1      -1.244  -0.812   0.905  1.00  0.00     0.356 C 
HETATM    2  N3  UNL     1      -1.558  -1.716   1.996  1.00  0.00    -0.018 N 
ATOM      3  H31 UNL     1      -0.736  -1.883   2.577  1.00  0.00     0.283 HD
ATOM      4  H32 UNL     1      -1.714  -2.663   1.650  1.00  0.00     0.283 HD
HETATM    5  C6  UNL     1      -2.654  -1.280   2.785  1.00  0.00     0.353 C 
HETATM    6  C7  UNL     1      -3.840  -0.784   2.057  1.00  0.00     0.217 C 
HETATM    7  C8  UNL     1      -3.555  -0.154   0.722  1.00  0.00     0.069 C 
HETATM    8  C9  UNL     1      -2.437  -0.839  -0.020  1.00  0.00     0.153 C 
ENDROOT
BRANCH   1   9
HETATM    9  O2  UNL     1      -0.039  -1.080   0.288  1.00  0.00    -0.280 OA
BRANCH   9  10
HETATM   10  C4  UNL     1       1.021  -0.145   0.285  1.00  0.00     0.314 C 
HETATM   11  O1  UNL     1       0.765   0.904   0.875  1.00  0.00    -0.257 OA
BRANCH  10  12
HETATM   12  C3  UNL     1       2.257  -0.511  -0.391  1.00  0.00     0.132 A 
HETATM   13  N2  UNL     1       2.336  -1.730  -0.980  1.00  0.00    -0.356 N 
HETATM   14  C2  UNL     1       3.430  -2.151  -1.617  1.00  0.00     0.136 A 
ATOM     15  H2  UNL     1       1.527  -2.349  -0.934  1.00  0.00     0.165 HD
HETATM   16  C1  UNL     1       4.521  -1.324  -1.683  1.00  0.00     0.114 A 
HETATM   17  N8  UNL     1       4.501  -0.091  -1.112  1.00  0.00    -0.342 N 
HETATM   18  C14 UNL     1       3.378   0.284  -0.484  1.00  0.00     0.057 A 
ATOM     19  H8  UNL     1       5.311   0.527  -1.160  1.00  0.00     0.167 HD
BRANCH  16  20
HETATM   20  N1  UNL     1       5.617  -1.660  -2.282  1.00  0.00    -0.384 N 
ATOM     21  H12 UNL     1       5.632  -2.585  -2.711  1.00  0.00     0.157 HD
ATOM     22  H11 UNL     1       6.429  -1.045  -2.331  1.00  0.00     0.157 HD
ENDBRANCH  16  20
BRANCH  18  23
HETATM   23  C15 UNL     1       3.290   1.617   0.132  1.00  0.00     0.191 C 
BRANCH  23  24
HETATM   24  S1  UNL     1       4.779   2.579   0.018  1.00  0.00     0.113 S 
HETATM   25  O9  UNL     1       5.130   2.952  -1.387  1.00  0.00    -0.236 OA
BRANCH  24  26
HETATM   26  N7  UNL     1       6.119   1.871   0.790  1.00  0.00    -0.349 NA
ATOM     27  H72 UNL     1       5.880   1.617   1.748  1.00  0.00     0.166 HD
ATOM     28  H71 UNL     1       6.974   2.423   0.725  1.00  0.00     0.166 HD
ENDBRANCH  24  26
ENDBRANCH  23  24
ENDBRANCH  18  23
ENDBRANCH  10  12
ENDBRANCH   9  10
ENDBRANCH   1   9
BRANCH   8  29
HETATM   29  N5  UNL     1      -2.230  -0.211  -1.284  1.00  0.00    -0.300 N 
HETATM   30  C10 UNL     1      -2.058   1.105  -1.422  1.00  0.00     0.102 A 
HETATM   31  C11 UNL     1      -1.862   1.676  -2.649  1.00  0.00     0.092 A 
HETATM   32  C12 UNL     1      -1.843   0.860  -3.771  1.00  0.00     0.250 A 
HETATM   33  O7  UNL     1      -1.666   1.327  -4.939  1.00  0.00    -0.268 OA
HETATM   34  N6  UNL     1      -2.016  -0.452  -3.615  1.00  0.00    -0.275 N 
HETATM   35  C13 UNL     1      -2.205  -0.973  -2.394  1.00  0.00     0.329 A 
ATOM     36  H6  UNL     1      -2.005  -1.065  -4.430  1.00  0.00     0.173 HD
HETATM   37  O8  UNL     1      -2.363  -2.220  -2.316  1.00  0.00    -0.246 OA
ENDBRANCH   8  29
BRANCH   5  38
HETATM   38  O3  UNL     1      -2.159  -0.364   3.742  1.00  0.00    -0.368 OA
ATOM     39  H3  UNL     1      -2.893  -0.072   4.270  1.00  0.00     0.212 HD
ENDBRANCH   5  38
BRANCH   6  40
HETATM   40  O4  UNL     1      -4.446   0.240   2.858  1.00  0.00    -0.211 OA
BRANCH  40  41
HETATM   41  N4  UNL     1      -5.736   0.188   3.279  1.00  0.00     0.005 N 
HETATM   42  O5  UNL     1      -6.574  -0.385   2.559  1.00  0.00    -0.511 OA
HETATM   43  O6  UNL     1      -6.105   0.751   4.464  1.00  0.00    -0.511 OA
ENDBRANCH  40  41
ENDBRANCH   6  40
TORSDOF 11
