REMARK  5 active torsions:
REMARK  status: ('A' for Active; 'I' for Inactive)
REMARK    1  A    between atoms: N1_1  and  C1_5 
REMARK    2  A    between atoms: C1_5  and  N2_6 
REMARK    3  A    between atoms: C1_5  and  C2_10 
REMARK    4  A    between atoms: C2_10  and  N3_11 
REMARK    5  A    between atoms: C2_10  and  N4_15 
ROOT
HETATM    1  C2  UNL     1      -0.730   0.655   0.307  1.00  0.00     0.363 C 
ENDROOT
BRANCH   1   2
HETATM    2  C1  UNL     1      -1.877   0.022  -0.407  1.00  0.00     0.429 C 
BRANCH   2   3
HETATM    3  N1  UNL     1      -3.069   0.830  -0.123  1.00  0.00    -0.046 N 
ATOM      4  H13 UNL     1      -3.911   0.431  -0.538  1.00  0.00     0.276 HD
ATOM      5  H12 UNL     1      -3.347   0.774   0.857  1.00  0.00     0.276 HD
ATOM      6  H11 UNL     1      -2.911   1.792  -0.423  1.00  0.00     0.276 HD
ENDBRANCH   2   3
BRANCH   2   7
HETATM    7  N2  UNL     1      -2.099  -1.327   0.014  1.00  0.00    -0.046 N 
ATOM      8  H23 UNL     1      -2.377  -1.383   0.994  1.00  0.00     0.276 HD
ATOM      9  H22 UNL     1      -2.941  -1.726  -0.401  1.00  0.00     0.276 HD
ATOM     10  H21 UNL     1      -1.271  -1.889  -0.183  1.00  0.00     0.276 HD
ENDBRANCH   2   7
ENDBRANCH   1   2
BRANCH   1  11
HETATM   11  N3  UNL     1      -0.577   2.006  -0.194  1.00  0.00    -0.053 N 
ATOM     12  H33 UNL     1      -0.477   2.041  -1.208  1.00  0.00     0.277 HD
ATOM     13  H32 UNL     1      -1.435   2.552  -0.122  1.00  0.00     0.277 HD
ATOM     14  H31 UNL     1       0.207   2.439   0.294  1.00  0.00     0.277 HD
ENDBRANCH   1  11
BRANCH   1  15
HETATM   15  N4  UNL     1       0.488  -0.087   0.034  1.00  0.00    -0.236 N 
HETATM   16  N5  UNL     1       0.840  -1.338  -0.193  1.00  0.00    -0.276 N 
HETATM   17  C3  UNL     1       2.145  -1.054  -0.331  1.00  0.00     0.168 A 
ATOM     18  H5  UNL     1       0.311  -2.208  -0.245  1.00  0.00     0.189 HD
HETATM   19  N6  UNL     1       3.472  -1.116  -0.522  1.00  0.00    -0.334 N 
HETATM   20  C5  UNL     1       1.775   0.266  -0.091  1.00  0.00     0.171 A 
HETATM   21  C4  UNL     1       3.949   0.131  -0.408  1.00  0.00     0.183 A 
ATOM     22  H6  UNL     1       4.016  -1.956  -0.718  1.00  0.00     0.168 HD
HETATM   23  N7  UNL     1       2.907   0.975  -0.145  1.00  0.00    -0.334 N 
ATOM     24  H7  UNL     1       2.981   1.984  -0.011  1.00  0.00     0.168 HD
ENDBRANCH   1  15
TORSDOF 5
