REMARK  9 active torsions:
REMARK  status: ('A' for Active; 'I' for Inactive)
REMARK       I    between atoms: C2_2  and  N1_4 
REMARK    1  A    between atoms: N1_4  and  N2_6 
REMARK    2  A    between atoms: N2_6  and  C3_8 
REMARK    3  A    between atoms: C3_8  and  C4_9 
REMARK    4  A    between atoms: C3_8  and  C7_20 
REMARK    5  A    between atoms: C5_14  and  C6_15 
REMARK    6  A    between atoms: C8_26  and  C9_27 
REMARK    7  A    between atoms: C9_27  and  O3_28 
REMARK    8  A    between atoms: C9_27  and  N9_30 
REMARK    9  A    between atoms: N9_30  and  N10_32 
ROOT
HETATM    1  C3  UNL     1      -0.317  -0.453  -0.359  1.00  0.00     0.220 C 
ENDROOT
BRANCH   1   2
HETATM    2  N2  UNL     1      -1.728  -0.503  -0.211  1.00  0.00    -0.316 N 
ATOM      3  H2  UNL     1      -2.325  -0.001  -0.868  1.00  0.00     0.181 HD
BRANCH   2   4
HETATM    4  N1  UNL     1      -2.283  -1.212   0.796  1.00  0.00    -0.274 N 
HETATM    5  C2  UNL     1      -2.151  -2.542   1.202  1.00  0.00     0.231 C 
HETATM    6  C1  UNL     1      -2.924  -3.060   2.400  1.00  0.00     0.119 C 
HETATM    7  O1  UNL     1      -1.410  -3.349   0.617  1.00  0.00    -0.272 OA
ATOM      8  H1  UNL     1      -2.925  -0.669   1.374  1.00  0.00     0.189 HD
ENDBRANCH   2   4
ENDBRANCH   1   2
BRANCH   1   9
HETATM    9  C4  UNL     1      -0.016   0.969  -0.791  1.00  0.00     0.128 A 
HETATM   10  N3  UNL     1       0.691   1.323  -1.888  1.00  0.00    -0.285 N 
HETATM   11  N4  UNL     1       0.756   2.632  -1.880  1.00  0.00    -0.280 N 
ATOM     12  H3  UNL     1       1.094   0.696  -2.584  1.00  0.00     0.188 HD
HETATM   13  C5  UNL     1       0.102   3.114  -0.794  1.00  0.00     0.188 A 
ATOM     14  H4  UNL     1       1.227   3.201  -2.583  1.00  0.00     0.188 HD
HETATM   15  N6  UNL     1      -0.382   2.044  -0.116  1.00  0.00    -0.324 N 
ATOM     16  H6  UNL     1      -0.924   2.065   0.748  1.00  0.00     0.169 HD
BRANCH  13  17
HETATM   17  C6  UNL     1      -0.016   4.514  -0.478  1.00  0.00     0.300 C 
HETATM   18  N5  UNL     1      -0.695   4.893   0.714  1.00  0.00    -0.054 NA
HETATM   19  O2  UNL     1       0.484   5.386  -1.257  1.00  0.00    -0.268 OA
ENDBRANCH  13  17
ENDBRANCH   1   9
BRANCH   1  20
HETATM   20  C7  UNL     1       0.202  -1.345  -1.485  1.00  0.00     0.080 A 
HETATM   21  N7  UNL     1      -0.744  -1.821  -2.340  1.00  0.00    -0.311 N 
HETATM   22  S1  UNL     1       0.094  -2.702  -3.470  1.00  0.00     0.068 SA
ATOM     23  H7  UNL     1      -1.752  -1.669  -2.296  1.00  0.00     0.175 HD
HETATM   24  N8  UNL     1       1.622  -2.475  -2.875  1.00  0.00    -0.307 N 
HETATM   25  C8  UNL     1       1.470  -1.683  -1.754  1.00  0.00     0.118 A 
ATOM     26  H8  UNL     1       2.493  -2.843  -3.257  1.00  0.00     0.176 HD
BRANCH  25  27
HETATM   27  C9  UNL     1       2.717  -1.350  -1.042  1.00  0.00     0.184 C 
BRANCH  27  28
HETATM   28  O3  UNL     1       3.848  -1.699  -1.607  1.00  0.00    -0.343 OA
ATOM     29  H3  UNL     1       4.652  -1.484  -1.148  1.00  0.00     0.219 HD
ENDBRANCH  27  28
BRANCH  27  30
HETATM   30  N9  UNL     1       2.932  -0.712   0.163  1.00  0.00    -0.285 N 
ATOM     31  H9  UNL     1       2.126  -0.396   0.702  1.00  0.00     0.188 HD
BRANCH  30  32
HETATM   32  N10 UNL     1       4.252  -0.476   0.688  1.00  0.00    -0.343 N 
ATOM     33 2H10 UNL     1       5.047  -0.799   0.136  1.00  0.00     0.176 HD
ATOM     34 1H10 UNL     1       4.411  -0.005   1.578  1.00  0.00     0.176 HD
ENDBRANCH  30  32
ENDBRANCH  27  30
ENDBRANCH  25  27
ENDBRANCH   1  20
TORSDOF 9
