REMARK  7 active torsions:
REMARK  status: ('A' for Active; 'I' for Inactive)
REMARK    1  A    between atoms: C6_9  and  S1_10 
REMARK    2  A    between atoms: S1_10  and  N2_13 
REMARK       I    between atoms: N2_13  and  C7_15 
REMARK       I    between atoms: C7_15  and  N3_17 
REMARK    3  A    between atoms: N3_17  and  C8_19 
REMARK    4  A    between atoms: C8_19  and  C9_20 
REMARK    5  A    between atoms: C9_20  and  C10_21 
REMARK    6  A    between atoms: C10_21  and  C11_22 
REMARK    7  A    between atoms: N5_35  and  C20_36 
ROOT
HETATM    1  C1  UNL     1      -4.644   1.834   1.534  1.00  0.00     0.042 C 
HETATM    2  C2  UNL     1      -5.359   1.332   0.270  1.00  0.00     0.176 C 
HETATM    3  C3  UNL     1      -4.727   2.069  -0.858  1.00  0.00     0.244 C 
HETATM    4  O1  UNL     1      -5.510   2.792  -1.528  1.00  0.00    -0.271 OA
HETATM    5  N1  UNL     1      -3.356   2.036  -1.243  1.00  0.00    -0.324 N 
ATOM      6  H1  UNL     1      -3.033   2.832  -1.794  1.00  0.00     0.169 HD
HETATM    7  C4  UNL     1      -2.374   1.042  -0.963  1.00  0.00     0.052 A 
HETATM    8  C5  UNL     1      -1.088   1.422  -1.317  1.00  0.00     0.055 A 
HETATM    9  C6  UNL     1      -0.047   0.547  -1.099  1.00  0.00     0.082 A 
HETATM   10  C16 UNL     1      -0.334  -0.690  -0.527  1.00  0.00     0.026 A 
HETATM   11  C17 UNL     1      -1.599  -1.072  -0.175  1.00  0.00     0.021 A 
HETATM   12  C18 UNL     1      -2.639  -0.207  -0.389  1.00  0.00     0.059 A 
HETATM   13  C19 UNL     1      -3.917  -0.735   0.023  1.00  0.00     0.257 C 
HETATM   14  O5  UNL     1      -3.930  -1.953   0.385  1.00  0.00    -0.267 OA
HETATM   15  N5  UNL     1      -5.195  -0.087   0.089  1.00  0.00    -0.330 N 
ENDROOT
BRANCH   9  16
HETATM   16  S1  UNL     1       1.599   0.955  -1.519  1.00  0.00     0.266 S 
HETATM   17  O2  UNL     1       2.290  -0.268  -2.040  1.00  0.00    -0.200 OA
HETATM   18  O3  UNL     1       1.515   1.918  -2.696  1.00  0.00    -0.200 OA
BRANCH  16  19
HETATM   19  N2  UNL     1       2.464   1.679  -0.228  1.00  0.00    -0.232 N 
HETATM   20  C7  UNL     1       3.548   0.980   0.396  1.00  0.00     0.333 C 
HETATM   21  O4  UNL     1       3.808  -0.145  -0.048  1.00  0.00    -0.246 OA
HETATM   22  N3  UNL     1       4.248   1.576   1.447  1.00  0.00    -0.322 N 
ATOM     23  H3  UNL     1       3.894   2.497   1.706  1.00  0.00     0.169 HD
ATOM     24  H2  UNL     1       2.206   2.611   0.097  1.00  0.00     0.183 HD
BRANCH  22  25
HETATM   25  C8  UNL     1       5.350   1.152   2.221  1.00  0.00     0.065 C 
BRANCH  25  26
HETATM   26  C9  UNL     1       6.702   1.011   1.650  1.00  0.00     0.045 C 
BRANCH  26  27
HETATM   27  C10 UNL     1       6.844   0.072   0.529  1.00  0.00     0.010 C 
BRANCH  27  28
HETATM   28  C11 UNL     1       8.318  -0.046   0.076  1.00  0.00    -0.011 C 
HETATM   29  C12 UNL     1       9.176  -0.536   1.192  1.00  0.00     0.032 C 
HETATM   30  C13 UNL     1      10.401  -1.230   0.696  1.00  0.00     0.232 C 
HETATM   31  N4  UNL     1       9.967  -2.315  -0.185  1.00  0.00    -0.075 N 
HETATM   32  C14 UNL     1       9.557  -1.655  -1.422  1.00  0.00     0.232 C 
ATOM     33  H42 UNL     1      10.667  -3.045  -0.318  1.00  0.00     0.277 HD
ATOM     34  H41 UNL     1       9.249  -2.915   0.221  1.00  0.00     0.277 HD
HETATM   35  C15 UNL     1       8.303  -0.894  -1.149  1.00  0.00     0.032 C 
ENDBRANCH  27  28
ENDBRANCH  26  27
ENDBRANCH  25  26
ENDBRANCH  22  25
ENDBRANCH  16  19
ENDBRANCH   9  16
BRANCH  15  36
HETATM   36  C20 UNL     1      -6.385  -0.930  -0.030  1.00  0.00     0.088 C 
HETATM   37  C21 UNL     1      -7.148  -0.696  -1.281  1.00  0.00     0.025 C 
HETATM   38  C22 UNL     1      -8.353   0.162  -1.211  1.00  0.00     0.002 C 
HETATM   39  C23 UNL     1      -9.375  -0.209  -0.189  1.00  0.00     0.000 C 
HETATM   40  C24 UNL     1      -9.357  -1.658   0.167  1.00  0.00     0.000 C 
HETATM   41  C25 UNL     1      -8.237  -2.056   1.066  1.00  0.00     0.002 C 
HETATM   42  C26 UNL     1      -7.193  -0.978   1.232  1.00  0.00     0.025 C 
ENDBRANCH  15  36
TORSDOF 7
