REMARK  14 active torsions:
REMARK  status: ('A' for Active; 'I' for Inactive)
REMARK    1  A    between atoms: C2_2  and  C3_3 
REMARK    2  A    between atoms: C2_2  and  N4_40 
REMARK    3  A    between atoms: C3_3  and  C4_4 
REMARK    4  A    between atoms: C4_4  and  N1_6 
REMARK    5  A    between atoms: C4_4  and  C24_32 
REMARK    6  A    between atoms: N1_6  and  C6_8 
REMARK    7  A    between atoms: C6_8  and  C7_9 
REMARK    8  A    between atoms: C7_9  and  O1_10 
REMARK    9  A    between atoms: C7_9  and  C8_12 
REMARK   10  A    between atoms: C8_12  and  N2_13 
REMARK   11  A    between atoms: C8_12  and  C20_28 
REMARK       I    between atoms: N2_13  and  C9_15 
REMARK   12  A    between atoms: C9_15  and  O3_17 
REMARK   13  A    between atoms: O3_17  and  C10_18 
REMARK       I    between atoms: C24_32  and  N3_34 
REMARK   14  A    between atoms: N3_34  and  C25_36 
ROOT
HETATM    1  C7  UNL     1       0.388   0.634   0.409  1.00  0.00     0.159 C 
ENDROOT
BRANCH   1   2
HETATM    2  C6  UNL     1      -0.960   0.561  -0.313  1.00  0.00     0.149 C 
BRANCH   2   3
HETATM    3  N1  UNL     1      -1.675  -0.553   0.115  1.00  0.00    -0.403 N 
ATOM      4  H1  UNL     1      -1.290  -1.075   0.903  1.00  0.00     0.154 HD
BRANCH   3   5
HETATM    5  C4  UNL     1      -2.859  -1.020  -0.427  1.00  0.00     0.105 C 
HETATM    6  C5  UNL     1      -2.750  -1.805  -1.716  1.00  0.00     0.049 C 
BRANCH   5   7
HETATM    7  C3  UNL     1      -3.992  -0.062  -0.342  1.00  0.00     0.065 C 
BRANCH   7   8
HETATM    8  C2  UNL     1      -4.169   1.013  -1.330  1.00  0.00     0.087 C 
HETATM    9  C1  UNL     1      -4.403   0.522  -2.743  1.00  0.00     0.033 C 
BRANCH   8  10
HETATM   10  N4  UNL     1      -5.154   1.943  -0.904  1.00  0.00    -0.365 N 
HETATM   11  C29 UNL     1      -6.489   1.535  -0.810  1.00  0.00     0.089 C 
HETATM   12  C30 UNL     1      -7.441   2.631  -0.377  1.00  0.00     0.212 C 
HETATM   13  O5  UNL     1      -6.799   3.375   0.622  1.00  0.00    -0.381 OA
HETATM   14  C31 UNL     1      -5.816   4.133  -0.028  1.00  0.00     0.212 C 
HETATM   15  C32 UNL     1      -4.799   3.286  -0.734  1.00  0.00     0.089 C 
ENDBRANCH   8  10
ENDBRANCH   7   8
ENDBRANCH   5   7
BRANCH   5  16
HETATM   16  C24 UNL     1      -3.324  -2.124   0.598  1.00  0.00     0.246 C 
HETATM   17  O4  UNL     1      -2.600  -2.314   1.583  1.00  0.00    -0.271 OA
HETATM   18  N3  UNL     1      -4.503  -2.819   0.352  1.00  0.00    -0.351 N 
ATOM     19  H3  UNL     1      -5.024  -2.581  -0.492  1.00  0.00     0.163 HD
BRANCH  18  20
HETATM   20  C25 UNL     1      -5.039  -3.840   1.192  1.00  0.00     0.022 C 
HETATM   21  C26 UNL     1      -4.101  -5.025   1.337  1.00  0.00     0.037 C 
HETATM   22  C27 UNL     1      -6.363  -4.382   0.653  1.00  0.00     0.037 C 
HETATM   23  C28 UNL     1      -5.338  -3.333   2.591  1.00  0.00     0.037 C 
ENDBRANCH  18  20
ENDBRANCH   5  16
ENDBRANCH   3   5
ENDBRANCH   2   3
ENDBRANCH   1   2
BRANCH   1  24
HETATM   24  O1  UNL     1       0.306   0.764   1.759  1.00  0.00    -0.392 OA
ATOM     25  H1  UNL     1       1.142   0.809   2.207  1.00  0.00     0.210 HD
ENDBRANCH   1  24
BRANCH   1  26
HETATM   26  C8  UNL     1       1.363   1.574  -0.181  1.00  0.00     0.124 C 
BRANCH  26  27
HETATM   27  N2  UNL     1       2.669   1.262   0.427  1.00  0.00    -0.329 N 
HETATM   28  C9  UNL     1       3.695   0.633  -0.311  1.00  0.00     0.361 C 
HETATM   29  O2  UNL     1       3.505   0.328  -1.493  1.00  0.00    -0.238 OA
ATOM     30  H2  UNL     1       2.835   1.506   1.403  1.00  0.00     0.165 HD
BRANCH  28  31
HETATM   31  O3  UNL     1       4.896   0.358   0.272  1.00  0.00    -0.298 OA
BRANCH  31  32
HETATM   32  C10 UNL     1       5.991  -0.273  -0.345  1.00  0.00     0.138 C 
HETATM   33  C11 UNL     1       7.203   0.631  -0.423  1.00  0.00     0.037 C 
HETATM   34  C12 UNL     1       8.432  -0.265  -0.506  1.00  0.00    -0.011 C 
HETATM   35  C13 UNL     1       9.072  -0.432   0.856  1.00  0.00     0.009 C 
HETATM   36  C17 UNL     1       8.117  -1.594  -1.115  1.00  0.00     0.010 C 
HETATM   37  C14 UNL     1       8.303  -1.372   1.742  1.00  0.00    -0.013 C 
HETATM   38  C15 UNL     1       8.245  -2.734   1.045  1.00  0.00     0.010 C 
HETATM   39  C19 UNL     1       6.857  -1.009   1.808  1.00  0.00     0.012 C 
HETATM   40  C16 UNL     1       7.317  -2.410  -0.121  1.00  0.00    -0.007 C 
HETATM   41  C18 UNL     1       6.292  -1.505   0.480  1.00  0.00     0.020 C 
ENDBRANCH  31  32
ENDBRANCH  28  31
ENDBRANCH  26  27
BRANCH  26  42
HETATM   42  C20 UNL     1       1.114   3.024  -0.035  1.00  0.00    -0.028 C 
HETATM   43  C21 UNL     1       1.028   3.488   1.420  1.00  0.00     0.016 C 
HETATM   44  C22 UNL     1       2.334   3.750  -0.657  1.00  0.00     0.016 C 
HETATM   45  C23 UNL     1      -0.088   3.571  -0.726  1.00  0.00     0.016 C 
ENDBRANCH  26  42
ENDBRANCH   1  26
TORSDOF 14
