REMARK  8 active torsions:
REMARK  status: ('A' for Active; 'I' for Inactive)
REMARK    1  A    between atoms: O1_2  and  C2_3 
REMARK    2  A    between atoms: N1_5  and  C4_6 
REMARK    3  A    between atoms: C5_9  and  N3_10 
REMARK    4  A    between atoms: C8_13  and  C9_14 
REMARK    5  A    between atoms: C13_20  and  C14_21 
REMARK    6  A    between atoms: C14_21  and  N4_22 
REMARK    7  A    between atoms: C16_27  and  N5_28 
REMARK    8  A    between atoms: N5_28  and  C17_31 
ROOT
HETATM    1  C4  UNL     1       1.350  -1.476  -0.619  1.00  0.00     0.113 A 
HETATM    2  N2  UNL     1       2.061  -0.391  -0.263  1.00  0.00    -0.328 N 
ATOM      3  H2  UNL     1       1.561   0.495  -0.187  1.00  0.00     0.169 HD
HETATM    4  C5  UNL     1       3.414  -0.382   0.008  1.00  0.00     0.104 A 
HETATM    5  C11 UNL     1       4.021  -1.594  -0.117  1.00  0.00     0.049 A 
HETATM    6  C12 UNL     1       3.333  -2.755  -0.473  1.00  0.00     0.016 A 
HETATM    7  C13 UNL     1       1.955  -2.707  -0.732  1.00  0.00     0.011 A 
ENDROOT
BRANCH   1   8
HETATM    8  N1  UNL     1      -0.090  -1.362  -0.701  1.00  0.00    -0.362 N 
HETATM    9  C3  UNL     1      -1.072  -1.675  -1.659  1.00  0.00     0.158 C 
HETATM   10  C2  UNL     1      -2.369  -1.787  -0.763  1.00  0.00     0.171 C 
HETATM   11  C16 UNL     1      -2.213  -0.578   0.035  1.00  0.00     0.234 C 
HETATM   12  C15 UNL     1      -0.742  -0.744   0.492  1.00  0.00     0.160 C 
BRANCH  10  13
HETATM   13  O1  UNL     1      -3.438  -1.948  -1.594  1.00  0.00    -0.387 OA
HETATM   14  C1  UNL     1      -3.826  -3.306  -1.505  1.00  0.00     0.202 C 
ENDBRANCH  10  13
BRANCH  11  15
HETATM   15  N5  UNL     1      -3.021  -0.228   1.120  1.00  0.00    -0.062 N 
ATOM     16  H52 UNL     1      -3.650  -0.990   1.374  1.00  0.00     0.278 HD
ATOM     17  H51 UNL     1      -2.479  -0.173   1.982  1.00  0.00     0.278 HD
BRANCH  15  18
HETATM   18  C17 UNL     1      -3.743   0.985   0.882  1.00  0.00     0.190 C 
HETATM   19  C18 UNL     1      -4.809   0.972  -0.131  1.00  0.00     0.059 C 
HETATM   20  C19 UNL     1      -5.365   2.385  -0.318  1.00  0.00     0.169 C 
HETATM   21  O2  UNL     1      -5.744   2.884   0.899  1.00  0.00    -0.391 OA
HETATM   22  C20 UNL     1      -4.623   3.081   1.700  1.00  0.00     0.169 C 
HETATM   23  C21 UNL     1      -4.114   1.707   2.144  1.00  0.00     0.059 C 
ENDBRANCH  15  18
ENDBRANCH  11  15
ENDBRANCH   1   8
BRANCH   7  24
HETATM   24  C14 UNL     1       1.202  -3.866  -1.203  1.00  0.00     0.271 C 
BRANCH  24  25
HETATM   25  N4  UNL     1       0.750  -4.684  -0.040  1.00  0.00    -0.075 N 
ATOM     26  H43 UNL     1       1.526  -4.952   0.565  1.00  0.00     0.274 HD
ATOM     27  H42 UNL     1       0.220  -4.131   0.634  1.00  0.00     0.274 HD
ATOM     28  H41 UNL     1       0.224  -5.494  -0.369  1.00  0.00     0.274 HD
ENDBRANCH  24  25
ENDBRANCH   7  24
BRANCH   4  29
HETATM   29  N3  UNL     1       4.011   0.821   0.450  1.00  0.00    -0.367 N 
HETATM   30  C6  UNL     1       3.308   1.908   1.117  1.00  0.00     0.125 C 
HETATM   31  C7  UNL     1       3.920   3.146   0.450  1.00  0.00     0.031 C 
HETATM   32  C8  UNL     1       5.143   2.673  -0.250  1.00  0.00     0.070 C 
HETATM   33  C10 UNL     1       5.350   1.277   0.385  1.00  0.00     0.134 C 
BRANCH  32  34
HETATM   34  C9  UNL     1       6.370   3.536  -0.047  1.00  0.00     0.358 C 
HETATM   35  F1  UNL     1       7.383   2.879  -0.763  1.00  0.00    -0.214 F 
HETATM   36  F2  UNL     1       6.096   4.758  -0.649  1.00  0.00    -0.214 F 
ENDBRANCH  32  34
ENDBRANCH   4  29
TORSDOF 8
