REMARK  13 active torsions:
REMARK  status: ('A' for Active; 'I' for Inactive)
REMARK    1  A    between atoms: C2_2  and  O1_3 
REMARK    2  A    between atoms: O1_3  and  C3_4 
REMARK    3  A    between atoms: C3_4  and  C4_6 
REMARK    4  A    between atoms: C4_6  and  C5_7 
REMARK    5  A    between atoms: C4_6  and  C15_26 
REMARK    6  A    between atoms: C5_7  and  C6_8 
REMARK    7  A    between atoms: C6_8  and  S1_9 
REMARK    8  A    between atoms: S1_9  and  C7_10 
REMARK    9  A    between atoms: C7_10  and  N2_23 
REMARK   10  A    between atoms: N1_11  and  C8_13 
REMARK   11  A    between atoms: C11_17  and  O4_18 
REMARK   12  A    between atoms: C12_20  and  O5_21 
REMARK   13  A    between atoms: C15_26  and  C16_29 
ROOT
HETATM    1  S1  UNL     1      -1.220   0.059   0.312  1.00  0.00    -0.094 SA
ENDROOT
BRANCH   1   2
HETATM    2  C6  UNL     1       0.391  -0.729  -0.178  1.00  0.00     0.083 C 
BRANCH   2   3
HETATM    3  C5  UNL     1       1.431   0.278   0.086  1.00  0.00     0.031 C 
BRANCH   3   4
HETATM    4  C4  UNL     1       2.860  -0.042  -0.279  1.00  0.00     0.159 C 
BRANCH   4   5
HETATM    5  C3  UNL     1       3.568   1.207   0.147  1.00  0.00     0.269 C 
HETATM    6  O2  UNL     1       4.132   1.914  -0.715  1.00  0.00    -0.265 OA
BRANCH   5   7
HETATM    7  O1  UNL     1       3.602   1.585   1.478  1.00  0.00    -0.321 OA
BRANCH   7   8
HETATM    8  C2  UNL     1       4.293   2.790   1.827  1.00  0.00     0.174 C 
HETATM    9  C1  UNL     1       3.704   3.991   1.139  1.00  0.00     0.034 C 
ENDBRANCH   7   8
ENDBRANCH   5   7
ENDBRANCH   4   5
BRANCH   4  10
HETATM   10  C15 UNL     1       3.309  -1.253   0.412  1.00  0.00     0.260 C 
HETATM   11  F1  UNL     1       3.080  -1.134   1.766  1.00  0.00    -0.205 F 
HETATM   12  F2  UNL     1       2.551  -2.318  -0.046  1.00  0.00    -0.205 F 
BRANCH  10  13
HETATM   13  C16 UNL     1       4.717  -1.695   0.250  1.00  0.00     0.063 A 
HETATM   14  C17 UNL     1       5.911  -0.938   0.581  1.00  0.00     0.015 A 
HETATM   15  C18 UNL     1       5.598  -1.312  -0.894  1.00  0.00    -0.008 A 
HETATM   16  C19 UNL     1       6.508  -2.362  -1.511  1.00  0.00     0.010 C 
ENDBRANCH  10  13
ENDBRANCH   4  10
ENDBRANCH   3   4
ENDBRANCH   2   3
ENDBRANCH   1   2
BRANCH   1  17
HETATM   17  C7  UNL     1      -2.515  -1.111   0.014  1.00  0.00     0.139 C 
HETATM   18  N1  UNL     1      -3.722  -0.806   0.272  1.00  0.00    -0.342 N 
ATOM     19  H1  UNL     1      -4.425  -1.520   0.080  1.00  0.00     0.164 HD
BRANCH  18  20
HETATM   20  C8  UNL     1      -4.196   0.433   0.803  1.00  0.00     0.254 C 
HETATM   21  O3  UNL     1      -5.307   0.243   1.581  1.00  0.00    -0.356 OA
HETATM   22  C9  UNL     1      -6.079   1.371   1.562  1.00  0.00     0.151 C 
HETATM   23  C10 UNL     1      -7.495   1.009   1.216  1.00  0.00     0.042 C 
HETATM   24  C11 UNL     1      -5.552   2.310   0.530  1.00  0.00     0.179 C 
HETATM   25  C12 UNL     1      -4.654   1.384  -0.301  1.00  0.00     0.198 C 
BRANCH  24  26
HETATM   26  O4  UNL     1      -6.515   2.883  -0.271  1.00  0.00    -0.390 OA
ATOM     27  H4  UNL     1      -6.179   3.481  -0.928  1.00  0.00     0.210 HD
ENDBRANCH  24  26
BRANCH  25  28
HETATM   28  O5  UNL     1      -5.457   0.727  -1.204  1.00  0.00    -0.389 OA
ATOM     29  H5  UNL     1      -5.742   1.318  -1.891  1.00  0.00     0.210 HD
ENDBRANCH  25  28
ENDBRANCH  18  20
BRANCH  17  30
HETATM   30  N2  UNL     1      -2.215  -2.385  -0.510  1.00  0.00    -0.371 N 
HETATM   31  C13 UNL     1      -2.037  -3.480   0.407  1.00  0.00     0.151 C 
HETATM   32  C14 UNL     1      -2.093  -2.564  -1.948  1.00  0.00     0.151 C 
ENDBRANCH  17  30
ENDBRANCH   1  17
TORSDOF 13
