REMARK  6 active torsions:
REMARK  status: ('A' for Active; 'I' for Inactive)
REMARK    1  A    between atoms: N1_1  and  C1_5 
REMARK    2  A    between atoms: C1_5  and  C2_6 
REMARK       I    between atoms: C2_6  and  N2_8 
REMARK    3  A    between atoms: N2_8  and  C3_9 
REMARK    4  A    between atoms: C3_9  and  C4_10 
REMARK    5  A    between atoms: C4_10  and  N3_11 
REMARK    6  A    between atoms: C10_19  and  O3_20 
ROOT
HETATM    1  N3  UNL     1      -0.227   0.045   0.402  1.00  0.00    -0.048 N 
HETATM    2  C5  UNL     1      -0.725   1.085   1.183  1.00  0.00     0.248 C 
HETATM    3  C6  UNL     1      -1.849   1.899   0.640  1.00  0.00     0.068 C 
HETATM    4  C7  UNL     1      -1.538   2.739  -0.564  1.00  0.00     0.177 C 
HETATM    5  O2  UNL     1      -2.283   1.929  -1.415  1.00  0.00    -0.381 OA
HETATM    6  C8  UNL     1      -2.769   1.247  -0.297  1.00  0.00     0.173 C 
HETATM    7  C9  UNL     1      -2.537  -0.231  -0.311  1.00  0.00     0.184 C 
HETATM    8  F1  UNL     1      -3.359  -0.716  -1.342  1.00  0.00    -0.235 F 
HETATM    9  C10 UNL     1      -2.882  -0.811   1.021  1.00  0.00     0.168 C 
HETATM   10  C11 UNL     1      -1.707  -1.460   1.708  1.00  0.00     0.049 C 
HETATM   11  C12 UNL     1      -1.896  -2.968   1.429  1.00  0.00     0.010 C 
HETATM   12  C13 UNL     1      -1.569  -2.958  -0.067  1.00  0.00     0.009 C 
HETATM   13  C14 UNL     1      -0.605  -1.852  -0.304  1.00  0.00     0.052 C 
HETATM   14  C15 UNL     1      -0.385  -1.255   1.042  1.00  0.00     0.204 C 
HETATM   15  C16 UNL     1      -1.121  -0.496  -0.615  1.00  0.00     0.242 C 
ENDROOT
BRANCH   1  16
HETATM   16  C4  UNL     1       1.074   0.205  -0.159  1.00  0.00     0.298 C 
BRANCH  16  17
HETATM   17  C3  UNL     1       2.021   1.185   0.534  1.00  0.00     0.187 C 
BRANCH  17  18
HETATM   18  N2  UNL     1       3.216   1.187  -0.190  1.00  0.00    -0.385 NA
HETATM   19  C2  UNL     1       4.361   1.189  -0.884  1.00  0.00     0.316 C 
HETATM   20  O1  UNL     1       5.435   1.818  -0.686  1.00  0.00    -0.255 OA
BRANCH  19  21
HETATM   21  C1  UNL     1       4.425   0.296  -2.137  1.00  0.00     0.348 C 
BRANCH  21  22
HETATM   22  N1  UNL     1       5.694   0.400  -2.786  1.00  0.00    -0.070 N 
ATOM     23  H13 UNL     1       5.924   1.369  -3.005  1.00  0.00     0.274 HD
ATOM     24  H12 UNL     1       6.460   0.199  -2.144  1.00  0.00     0.274 HD
ATOM     25  H11 UNL     1       5.736  -0.191  -3.616  1.00  0.00     0.274 HD
ENDBRANCH  21  22
ENDBRANCH  19  21
ENDBRANCH  17  18
ENDBRANCH  16  17
ENDBRANCH   1  16
BRANCH   9  26
HETATM   26  O3  UNL     1      -3.944  -1.712   0.818  1.00  0.00    -0.392 OA
ATOM     27  H3  UNL     1      -4.163  -2.081   1.665  1.00  0.00     0.210 HD
ENDBRANCH   9  26
TORSDOF 6
