REMARK  8 active torsions:
REMARK  status: ('A' for Active; 'I' for Inactive)
REMARK    1  A    between atoms: N1_1  and  C1_4 
REMARK    2  A    between atoms: C2_7  and  N3_8 
REMARK    3  A    between atoms: N3_8  and  C3_10 
REMARK    4  A    between atoms: C3_10  and  C4_11 
REMARK    5  A    between atoms: C4_11  and  C5_12 
REMARK    6  A    between atoms: C5_12  and  C6_13 
REMARK    7  A    between atoms: C6_13  and  N4_14 
REMARK    8  A    between atoms: C8_23  and  C9_24 
ROOT
HETATM    1  C1  UNL     1      -1.913  -3.135  -0.050  1.00  0.00     0.680 C 
HETATM    2  N2  UNL     1      -0.670  -2.597  -0.224  1.00  0.00    -0.175 N 
ATOM      3  H2  UNL     1       0.067  -3.269  -0.438  1.00  0.00     0.186 HD
HETATM    4  C2  UNL     1      -0.271  -1.315  -0.156  1.00  0.00     0.146 C 
HETATM    5  C7  UNL     1      -1.074  -0.268   0.223  1.00  0.00     0.110 A 
HETATM    6  N5  UNL     1      -0.667   0.916   0.688  1.00  0.00    -0.295 N 
ATOM      7  H5  UNL     1       0.309   1.185   0.809  1.00  0.00     0.187 HD
HETATM    8  N6  UNL     1      -1.697   1.691   0.970  1.00  0.00    -0.294 N 
ATOM      9  H6  UNL     1      -1.627   2.640   1.338  1.00  0.00     0.187 HD
HETATM   10  C8  UNL     1      -2.873   1.043   0.699  1.00  0.00     0.131 A 
HETATM   11  C10 UNL     1      -2.478  -0.177   0.233  1.00  0.00     0.098 A 
HETATM   12  C11 UNL     1      -3.335  -1.158  -0.204  1.00  0.00     0.274 C 
HETATM   13  O2  UNL     1      -4.383  -0.729  -0.701  1.00  0.00    -0.267 OA
HETATM   14  N8  UNL     1      -3.113  -2.499  -0.128  1.00  0.00    -0.155 N 
ATOM     15  H8  UNL     1      -3.941  -3.095  -0.130  1.00  0.00     0.187 HD
ENDROOT
BRANCH   4  16
HETATM   16  N3  UNL     1       0.927  -1.097  -0.466  1.00  0.00    -0.374 N 
ATOM     17  H3  UNL     1       1.449  -1.932  -0.732  1.00  0.00     0.161 HD
BRANCH  16  18
HETATM   18  C3  UNL     1       1.686   0.104  -0.513  1.00  0.00     0.121 C 
BRANCH  18  19
HETATM   19  C4  UNL     1       3.019  -0.209  -1.144  1.00  0.00     0.021 C 
BRANCH  19  20
HETATM   20  C5  UNL     1       3.867   1.000  -1.249  1.00  0.00     0.029 C 
BRANCH  20  21
HETATM   21  C6  UNL     1       4.146   1.584   0.097  1.00  0.00     0.229 C 
BRANCH  21  22
HETATM   22  N4  UNL     1       4.820   0.584   0.909  1.00  0.00    -0.079 N 
ATOM     23  H43 UNL     1       4.298  -0.291   0.964  1.00  0.00     0.274 HD
ATOM     24  H42 UNL     1       5.660   0.219   0.460  1.00  0.00     0.274 HD
ATOM     25  H41 UNL     1       5.011   0.983   1.828  1.00  0.00     0.274 HD
ENDBRANCH  21  22
ENDBRANCH  20  21
ENDBRANCH  19  20
ENDBRANCH  18  19
ENDBRANCH  16  18
ENDBRANCH   4  16
BRANCH   1  26
HETATM   26  N1  UNL     1      -1.968  -4.393   0.221  1.00  0.00    -0.234 N 
ATOM     27  H12 UNL     1      -1.068  -4.870   0.279  1.00  0.00     0.174 HD
ATOM     28  H11 UNL     1      -2.896  -4.795   0.351  1.00  0.00     0.174 HD
ENDBRANCH   1  26
BRANCH  10  29
HETATM   29  C9  UNL     1      -4.186   1.629   0.894  1.00  0.00     0.283 C 
HETATM   30  N7  UNL     1      -4.299   3.057   1.077  1.00  0.00    -0.056 NA
HETATM   31  O1  UNL     1      -5.279   1.033   0.922  1.00  0.00    -0.269 OA
ENDBRANCH  10  29
TORSDOF 8
