REMARK  6 active torsions:
REMARK  status: ('A' for Active; 'I' for Inactive)
REMARK    1  A    between atoms: C4_4  and  C5_5 
REMARK    2  A    between atoms: C5_5  and  C6_6 
REMARK    3  A    between atoms: C6_6  and  C7_7 
REMARK    4  A    between atoms: C7_7  and  C8_8 
REMARK    5  A    between atoms: C8_8  and  C9_9 
REMARK    6  A    between atoms: C9_9  and  N1_10 
ROOT
HETATM    1  N1  UNL     1      -1.892  -1.725  -0.311  1.00  0.00    -0.292 N 
HETATM    2  N2  UNL     1      -3.030  -2.355  -0.246  1.00  0.00    -0.308 N 
ATOM      3  H2  UNL     1      -3.114  -3.351  -0.045  1.00  0.00     0.186 HD
HETATM    4  C10 UNL     1      -4.083  -1.550  -0.473  1.00  0.00     0.122 A 
HETATM    5  C11 UNL     1      -3.582  -0.311  -0.701  1.00  0.00     0.020 A 
HETATM    6  C12 UNL     1      -3.833   1.035  -0.993  1.00  0.00    -0.012 A 
HETATM    7  C13 UNL     1      -5.028   1.664  -1.192  1.00  0.00     0.013 A 
HETATM    8  C14 UNL     1      -5.070   3.022  -1.475  1.00  0.00     0.001 A 
HETATM    9  C15 UNL     1      -3.869   3.722  -1.552  1.00  0.00     0.001 A 
HETATM   10  C16 UNL     1      -2.659   3.085  -1.351  1.00  0.00     0.012 A 
HETATM   11  C17 UNL     1      -2.633   1.720  -1.067  1.00  0.00    -0.023 A 
HETATM   12  C18 UNL     1      -1.608   0.829  -0.824  1.00  0.00     0.044 A 
HETATM   13  C19 UNL     1      -2.133  -0.422  -0.595  1.00  0.00     0.064 A 
ENDROOT
BRANCH   1  14
HETATM   14  C9  UNL     1      -0.534  -2.241  -0.127  1.00  0.00     0.149 C 
BRANCH  14  15
HETATM   15  C8  UNL     1      -0.210  -2.104   1.334  1.00  0.00     0.022 C 
BRANCH  15  16
HETATM   16  C7  UNL     1       1.150  -2.590   1.691  1.00  0.00     0.002 C 
BRANCH  16  17
HETATM   17  C6  UNL     1       2.271  -1.896   0.998  1.00  0.00     0.005 C 
BRANCH  17  18
HETATM   18  C5  UNL     1       2.266  -0.429   1.316  1.00  0.00     0.038 C 
BRANCH  18  19
HETATM   19  C4  UNL     1       3.400   0.267   0.621  1.00  0.00    -0.058 A 
HETATM   20  C3  UNL     1       4.643   0.411   1.204  1.00  0.00     0.007 A 
HETATM   21  C2  UNL     1       5.683   1.050   0.566  1.00  0.00     0.001 A 
HETATM   22  C1  UNL     1       5.520   1.576  -0.691  1.00  0.00     0.000 A 
HETATM   23  C21 UNL     1       4.285   1.443  -1.291  1.00  0.00     0.001 A 
HETATM   24  C20 UNL     1       3.242   0.797  -0.641  1.00  0.00     0.007 A 
ENDBRANCH  18  19
ENDBRANCH  17  18
ENDBRANCH  16  17
ENDBRANCH  15  16
ENDBRANCH  14  15
ENDBRANCH   1  14
TORSDOF 6
