REMARK  7 active torsions:
REMARK  status: ('A' for Active; 'I' for Inactive)
REMARK       I    between atoms: C1_2  and  N1_3 
REMARK    1  A    between atoms: C1_2  and  C10_13 
REMARK    2  A    between atoms: N1_3  and  C2_5 
REMARK    3  A    between atoms: C2_5  and  C3_6 
REMARK    4  A    between atoms: C14_17  and  C15_18 
REMARK    5  A    between atoms: C15_18  and  N2_19 
REMARK       I    between atoms: N2_19  and  C16_21 
REMARK    6  A    between atoms: C16_21  and  C17_23 
REMARK    7  A    between atoms: C17_23  and  C18_24 
ROOT
HETATM    1  C10 UNL     1       1.931  -0.195  -0.821  1.00  0.00     0.032 A 
HETATM    2  C11 UNL     1       1.773  -0.649   0.490  1.00  0.00     0.017 A 
HETATM    3  C12 UNL     1       0.520  -0.573   1.079  1.00  0.00     0.002 A 
HETATM    4  C13 UNL     1      -0.532  -0.064   0.381  1.00  0.00     0.009 A 
HETATM    5  C14 UNL     1      -0.388   0.390  -0.926  1.00  0.00    -0.040 A 
HETATM    6  C26 UNL     1       0.841   0.325  -1.524  1.00  0.00     0.026 A 
ENDROOT
BRANCH   5   7
HETATM    7  C15 UNL     1      -1.592   0.898  -1.620  1.00  0.00     0.161 C 
BRANCH   7   8
HETATM    8  N2  UNL     1      -2.692   0.050  -1.238  1.00  0.00    -0.356 N 
HETATM    9  C16 UNL     1      -4.070   0.416  -1.251  1.00  0.00     0.227 C 
HETATM   10  O2  UNL     1      -4.463   1.546  -1.610  1.00  0.00    -0.273 OA
ATOM     11  H2  UNL     1      -2.465  -0.896  -0.931  1.00  0.00     0.162 HD
BRANCH   9  12
HETATM   12  C17 UNL     1      -5.112  -0.582  -0.819  1.00  0.00     0.044 A 
HETATM   13  C24 UNL     1      -5.318  -1.652  -1.852  1.00  0.00     0.021 A 
HETATM   14  C25 UNL     1      -4.779  -1.969  -0.490  1.00  0.00     0.021 A 
BRANCH  12  15
HETATM   15  C18 UNL     1      -6.394   0.063  -0.325  1.00  0.00     0.003 C 
HETATM   16  C19 UNL     1      -7.400  -0.952   0.114  1.00  0.00     0.006 C 
HETATM   17  C20 UNL     1      -8.696  -0.296   0.481  1.00  0.00     0.000 C 
HETATM   18  C21 UNL     1      -8.570   0.858   1.432  1.00  0.00     0.000 C 
HETATM   19  C22 UNL     1      -7.390   1.733   1.141  1.00  0.00     0.000 C 
HETATM   20  C23 UNL     1      -6.129   0.952   0.888  1.00  0.00     0.006 C 
ENDBRANCH  12  15
ENDBRANCH   9  12
ENDBRANCH   7   8
ENDBRANCH   5   7
BRANCH   1  21
HETATM   21  C1  UNL     1       3.258  -0.277  -1.425  1.00  0.00     0.251 C 
HETATM   22  O1  UNL     1       3.363  -0.201  -2.679  1.00  0.00    -0.268 OA
HETATM   23  N1  UNL     1       4.401  -0.440  -0.605  1.00  0.00    -0.356 N 
ATOM     24  H1  UNL     1       4.281  -0.491   0.407  1.00  0.00     0.162 HD
BRANCH  23  25
HETATM   25  C2  UNL     1       5.751  -0.538  -1.165  1.00  0.00     0.128 C 
BRANCH  25  26
HETATM   26  C3  UNL     1       6.670  -0.699   0.023  1.00  0.00     0.008 C 
HETATM   27  C4  UNL     1       6.547   0.518   0.955  1.00  0.00     0.011 C 
HETATM   28  C5  UNL     1       7.947   0.966   1.213  1.00  0.00    -0.014 C 
HETATM   29  C6  UNL     1       8.456   1.651  -0.029  1.00  0.00     0.005 C 
HETATM   30  C9  UNL     1       8.688  -0.377   1.109  1.00  0.00     0.010 C 
HETATM   31  C7  UNL     1       8.584   0.507  -1.031  1.00  0.00     0.005 C 
HETATM   32  C8  UNL     1       8.123  -0.725  -0.288  1.00  0.00    -0.009 C 
ENDBRANCH  25  26
ENDBRANCH  23  25
ENDBRANCH   1  21
TORSDOF 7
