REMARK  8 active torsions:
REMARK  status: ('A' for Active; 'I' for Inactive)
REMARK    1  A    between atoms: C2_3  and  C3_4 
REMARK    2  A    between atoms: C3_4  and  N2_5 
REMARK    3  A    between atoms: N2_5  and  C4_7 
REMARK    4  A    between atoms: C4_7  and  N3_8 
REMARK    5  A    between atoms: N3_8  and  C5_10 
REMARK    6  A    between atoms: C5_10  and  N4_12 
REMARK    7  A    between atoms: N4_12  and  C6_14 
REMARK    8  A    between atoms: C6_14  and  C7_15 
ROOT
HETATM    1  N1  UNL     1       5.582   1.869   0.156  1.00  0.00    -0.197 NA
HETATM    2  C1  UNL     1       5.158   1.002  -0.494  1.00  0.00     0.064 C 
HETATM    3  C2  UNL     1       4.668  -0.069  -1.330  1.00  0.00     0.168 C 
ENDROOT
BRANCH   3   4
HETATM    4  C3  UNL     1       3.924  -1.161  -0.655  1.00  0.00     0.071 C 
BRANCH   4   5
HETATM    5  N2  UNL     1       2.731  -0.895   0.004  1.00  0.00    -0.386 N 
ATOM      6  H2  UNL     1       1.857  -1.255  -0.380  1.00  0.00     0.160 HD
BRANCH   5   7
HETATM    7  C4  UNL     1       2.702  -0.134   1.200  1.00  0.00     0.244 C 
BRANCH   7   8
HETATM    8  N3  UNL     1       1.294  -0.149   1.647  1.00  0.00    -0.351 N 
ATOM      9  H3  UNL     1       1.037  -0.582   2.534  1.00  0.00     0.163 HD
BRANCH   8  10
HETATM   10  C5  UNL     1       0.298   0.453   0.817  1.00  0.00     0.168 C 
HETATM   11  S1  UNL     1       0.752   1.162  -0.603  1.00  0.00    -0.041 SA
BRANCH  10  12
HETATM   12  N4  UNL     1      -1.044   0.422   1.263  1.00  0.00    -0.365 N 
ATOM     13  H4  UNL     1      -1.272  -0.021   2.153  1.00  0.00     0.161 HD
BRANCH  12  14
HETATM   14  C6  UNL     1      -2.082   1.007   0.474  1.00  0.00     0.154 C 
BRANCH  14  15
HETATM   15  C7  UNL     1      -2.409   0.321  -0.803  1.00  0.00     0.139 C 
HETATM   16  C8  UNL     1      -3.098  -1.006  -0.543  1.00  0.00     0.035 C 
HETATM   17  C9  UNL     1      -4.413  -0.527   0.028  1.00  0.00     0.029 C 
HETATM   18  C10 UNL     1      -4.564   0.822  -0.631  1.00  0.00     0.168 C 
HETATM   19  O1  UNL     1      -3.455   1.044  -1.422  1.00  0.00    -0.384 OA
ENDBRANCH  14  15
ENDBRANCH  12  14
ENDBRANCH  10  12
ENDBRANCH   8  10
ENDBRANCH   7   8
ENDBRANCH   5   7
ENDBRANCH   4   5
ENDBRANCH   3   4
TORSDOF 8
