REMARK  8 active torsions:
REMARK  status: ('A' for Active; 'I' for Inactive)
REMARK       I    between atoms: C2_2  and  N1_4 
REMARK    1  A    between atoms: N1_4  and  C3_6 
REMARK    2  A    between atoms: C3_6  and  C4_7 
REMARK    3  A    between atoms: C4_7  and  N2_8 
REMARK    4  A    between atoms: C12_16  and  O2_17 
REMARK    5  A    between atoms: C12_16  and  N3_19 
REMARK    6  A    between atoms: C16_23  and  C17_24 
REMARK       I    between atoms: C17_24  and  N4_26 
REMARK    7  A    between atoms: N4_26  and  C18_28 
REMARK    8  A    between atoms: C20_31  and  N5_32 
ROOT
HETATM    1  C3  UNL     1      -2.443  -0.589  -0.088  1.00  0.00     0.091 C 
HETATM    2  C12 UNL     1      -1.107  -0.335  -0.526  1.00  0.00     0.164 C 
ENDROOT
BRANCH   2   3
HETATM    3  O2  UNL     1      -0.969   0.269  -1.707  1.00  0.00    -0.345 OA
ATOM      4  H2  UNL     1      -0.081   0.438  -1.998  1.00  0.00     0.219 HD
ENDBRANCH   2   3
BRANCH   2   5
HETATM    5  N3  UNL     1       0.165  -0.591   0.036  1.00  0.00    -0.347 N 
HETATM    6  C13 UNL     1       0.565  -1.311   1.185  1.00  0.00     0.126 C 
HETATM    7  C14 UNL     1       2.001  -1.723   1.007  1.00  0.00     0.022 C 
HETATM    8  C15 UNL     1       2.303  -1.294  -0.414  1.00  0.00     0.037 C 
HETATM    9  C16 UNL     1       1.427  -0.026  -0.521  1.00  0.00     0.178 C 
BRANCH   9  10
HETATM   10  C17 UNL     1       2.031   0.970   0.361  1.00  0.00     0.241 C 
HETATM   11  O3  UNL     1       1.526   1.269   1.451  1.00  0.00    -0.271 OA
HETATM   12  N4  UNL     1       3.229   1.590  -0.067  1.00  0.00    -0.351 N 
ATOM     13  H4  UNL     1       3.621   1.340  -0.975  1.00  0.00     0.163 HD
BRANCH  12  14
HETATM   14  C18 UNL     1       3.922   2.583   0.762  1.00  0.00     0.137 A 
HETATM   15  C19 UNL     1       4.430   3.781   0.014  1.00  0.00     0.140 A 
HETATM   16 CL1  UNL     1       4.293   5.356   0.837  1.00  0.00    -0.120 Cl
HETATM   17  C20 UNL     1       5.372   2.763   0.497  1.00  0.00     0.233 A 
BRANCH  17  18
HETATM   18  N5  UNL     1       6.334   2.955   1.532  1.00  0.00    -0.071 N 
HETATM   19  C21 UNL     1       7.225   4.057   1.216  1.00  0.00     0.272 C 
HETATM   20  C22 UNL     1       5.756   3.086   2.852  1.00  0.00     0.272 C 
HETATM   21  C23 UNL     1       7.188   1.756   1.610  1.00  0.00     0.272 C 
ENDBRANCH  17  18
ENDBRANCH  12  14
ENDBRANCH   9  10
ENDBRANCH   2   5
BRANCH   1  22
HETATM   22  N1  UNL     1      -2.919  -1.057   0.922  1.00  0.00    -0.326 N 
HETATM   23  C2  UNL     1      -2.661  -1.548   2.167  1.00  0.00     0.218 C 
HETATM   24  C1  UNL     1      -2.671  -3.019   2.521  1.00  0.00     0.117 C 
HETATM   25  O1  UNL     1      -2.396  -0.757   3.116  1.00  0.00    -0.274 OA
ATOM     26  H1  UNL     1      -3.929  -1.103   0.785  1.00  0.00     0.168 HD
ENDBRANCH   1  22
BRANCH   1  27
HETATM   27  C4  UNL     1      -3.478  -0.223  -1.199  1.00  0.00     0.334 C 
BRANCH  27  28
HETATM   28  N2  UNL     1      -4.803  -0.482  -0.814  1.00  0.00     0.099 N 
HETATM   29  C5  UNL     1      -5.648   0.024  -1.922  1.00  0.00     0.278 C 
HETATM   30  C6  UNL     1      -6.715  -1.014  -2.158  1.00  0.00     0.016 C 
HETATM   31  C7  UNL     1      -6.241  -1.927  -3.258  1.00  0.00     0.006 C 
HETATM   32  C11 UNL     1      -6.753  -1.735  -0.829  1.00  0.00     0.042 C 
HETATM   33  C8  UNL     1      -5.216  -2.908  -2.864  1.00  0.00     0.002 C 
HETATM   34  C9  UNL     1      -4.711  -2.871  -1.474  1.00  0.00     0.036 C 
HETATM   35  C10 UNL     1      -5.226  -1.811  -0.580  1.00  0.00     0.224 C 
ENDBRANCH  27  28
ENDBRANCH   1  27
TORSDOF 8
