REMARK  5 active torsions:
REMARK  status: ('A' for Active; 'I' for Inactive)
REMARK    1  A    between atoms: S1_2  and  C2_3 
REMARK    2  A    between atoms: C4_10  and  C5_11 
REMARK    3  A    between atoms: N4_13  and  N5_15 
REMARK       I    between atoms: C7_17  and  N7_19 
REMARK    4  A    between atoms: N7_19  and  N8_21 
REMARK    5  A    between atoms: C8_28  and  N12_29 
ROOT
HETATM    1  N5  UNL     1       0.500  -0.564  -1.247  1.00  0.00    -0.272 N 
ATOM      2  H5  UNL     1       0.908  -0.423  -2.171  1.00  0.00     0.189 HD
HETATM    3  C7  UNL     1       1.263  -0.955  -0.284  1.00  0.00     0.224 C 
HETATM    4  N6  UNL     1       0.704  -1.152   0.998  1.00  0.00    -0.061 NA
HETATM    5  N7  UNL     1       2.639  -1.184  -0.500  1.00  0.00    -0.235 N 
ATOM      6  H7  UNL     1       2.953  -1.482  -1.424  1.00  0.00     0.192 HD
ENDROOT
BRANCH   1   7
HETATM    7  N4  UNL     1      -0.844  -0.331  -1.072  1.00  0.00    -0.300 N 
HETATM    8  C5  UNL     1      -1.361   0.864  -0.906  1.00  0.00     0.053 C 
HETATM    9  C6  UNL     1      -0.420   1.985  -0.915  1.00  0.00     0.072 C 
ATOM     10  H4  UNL     1      -1.475  -1.132  -1.071  1.00  0.00     0.186 HD
BRANCH   8  11
HETATM   11  C4  UNL     1      -2.806   0.959  -0.731  1.00  0.00     0.110 A 
HETATM   12  C2  UNL     1      -3.660  -0.148  -0.731  1.00  0.00     0.116 A 
HETATM   13  N1  UNL     1      -4.885   0.372  -0.545  1.00  0.00    -0.277 N 
HETATM   14  N2  UNL     1      -4.805   1.682  -0.439  1.00  0.00    -0.239 N 
ATOM     15  H1  UNL     1      -5.749  -0.168  -0.494  1.00  0.00     0.189 HD
HETATM   16  N3  UNL     1      -3.528   2.079  -0.550  1.00  0.00    -0.278 N 
ATOM     17  H2  UNL     1      -5.599   2.305  -0.293  1.00  0.00     0.208 HD
HETATM   18  C3  UNL     1      -3.060   3.459  -0.482  1.00  0.00     0.179 C 
BRANCH  12  19
HETATM   19  S1  UNL     1      -3.198  -1.859  -0.935  1.00  0.00    -0.113 SA
HETATM   20  C1  UNL     1      -2.863  -2.584   0.699  1.00  0.00     0.097 C 
ENDBRANCH  12  19
ENDBRANCH   8  11
ENDBRANCH   1   7
BRANCH   5  21
HETATM   21  N8  UNL     1       3.588  -1.013   0.523  1.00  0.00    -0.001 N 
HETATM   22  N9  UNL     1       3.358  -0.639   1.754  1.00  0.00    -0.191 N 
HETATM   23  N10 UNL     1       4.481  -0.583   2.443  1.00  0.00    -0.212 N 
ATOM     24  H9  UNL     1       2.436  -0.420   2.130  1.00  0.00     0.212 HD
HETATM   25  N11 UNL     1       5.439  -0.935   1.602  1.00  0.00    -0.114 N 
ATOM     26  H10 UNL     1       4.589  -0.322   3.423  1.00  0.00     0.210 HD
HETATM   27  C8  UNL     1       4.907  -1.208   0.398  1.00  0.00     0.729 A 
ATOM     28  H11 UNL     1       6.431  -0.991   1.832  1.00  0.00     0.207 HD
BRANCH  27  29
HETATM   29  N12 UNL     1       5.532  -1.582  -0.665  1.00  0.00    -0.230 N 
ATOM     30 2H12 UNL     1       5.128  -1.789  -1.579  1.00  0.00     0.174 HD
ATOM     31 1H12 UNL     1       6.537  -1.731  -0.760  1.00  0.00     0.174 HD
ENDBRANCH  27  29
ENDBRANCH   5  21
TORSDOF 5
