REMARK  8 active torsions:
REMARK  status: ('A' for Active; 'I' for Inactive)
REMARK    1  A    between atoms: C2_5  and  C3_6 
REMARK    2  A    between atoms: N3_8  and  C5_9 
REMARK    3  A    between atoms: C5_9  and  C6_10 
REMARK    4  A    between atoms: C6_10  and  O1_11 
REMARK    5  A    between atoms: C8_17  and  C9_18 
REMARK    6  A    between atoms: C9_18  and  N6_19 
REMARK    7  A    between atoms: N6_19  and  C10_21 
REMARK    8  A    between atoms: N11_32  and  C14_33 
ROOT
HETATM    1  C10 UNL     1      -1.441  -0.141  -1.583  1.00  0.00     0.138 A 
HETATM    2  N7  UNL     1      -1.828  -1.344  -2.120  1.00  0.00    -0.337 N 
ATOM      3  H7  UNL     1      -1.182  -1.809  -2.758  1.00  0.00     0.168 HD
HETATM    4  C11 UNL     1      -2.983  -1.943  -1.867  1.00  0.00     0.183 A 
HETATM    5  N8  UNL     1      -3.860  -1.339  -1.016  1.00  0.00    -0.336 N 
ATOM      6  H8  UNL     1      -4.754  -1.783  -0.807  1.00  0.00     0.168 HD
HETATM    7  C12 UNL     1      -3.553  -0.179  -0.462  1.00  0.00     0.154 A 
HETATM    8  C13 UNL     1      -2.342   0.437  -0.736  1.00  0.00     0.136 A 
HETATM    9  N9  UNL     1      -2.320   1.659   0.017  1.00  0.00    -0.277 N 
ATOM     10  H9  UNL     1      -1.495   2.219   0.231  1.00  0.00     0.184 HD
HETATM   11  N10 UNL     1      -3.642   1.944   0.406  1.00  0.00    -0.018 NA
HETATM   12  N11 UNL     1      -4.262   0.657   0.430  1.00  0.00    -0.253 N 
ENDROOT
BRANCH   1  13
HETATM   13  N6  UNL     1      -0.345   0.292  -1.911  1.00  0.00    -0.348 N 
ATOM     14  H6  UNL     1       0.048  -0.396  -2.553  1.00  0.00     0.167 HD
BRANCH  13  15
HETATM   15  C9  UNL     1       0.593   1.286  -1.804  1.00  0.00     0.121 C 
BRANCH  15  16
HETATM   16  C8  UNL     1       1.928   0.796  -1.268  1.00  0.00     0.068 A 
HETATM   17  N1  UNL     1       2.136   0.204  -0.083  1.00  0.00    -0.295 N 
HETATM   18  C1  UNL     1       1.166  -0.108   0.946  1.00  0.00     0.178 C 
HETATM   19  N2  UNL     1       3.438  -0.087   0.042  1.00  0.00    -0.296 N 
HETATM   20  C2  UNL     1       4.105   0.310  -1.058  1.00  0.00     0.079 A 
ATOM     21  H2  UNL     1       3.861  -0.542   0.851  1.00  0.00     0.187 HD
HETATM   22  C7  UNL     1       3.160   0.864  -1.881  1.00  0.00     0.066 A 
BRANCH  20  23
HETATM   23  C3  UNL     1       5.542   0.146  -1.267  1.00  0.00     0.091 A 
HETATM   24  C4  UNL     1       6.445  -0.432  -0.400  1.00  0.00     0.141 A 
HETATM   25  N3  UNL     1       7.693  -0.408  -0.936  1.00  0.00    -0.283 N 
HETATM   26  N4  UNL     1       7.548   0.179  -2.117  1.00  0.00    -0.020 NA
HETATM   27  N5  UNL     1       6.280   0.513  -2.330  1.00  0.00    -0.281 N 
ATOM     28  H5  UNL     1       5.923   0.974  -3.167  1.00  0.00     0.184 HD
BRANCH  25  29
HETATM   29  C5  UNL     1       8.907  -0.922  -0.331  1.00  0.00     0.172 C 
BRANCH  29  30
HETATM   30  C6  UNL     1       9.595   0.160   0.507  1.00  0.00     0.185 C 
BRANCH  30  31
HETATM   31  O1  UNL     1      10.751  -0.343   1.075  1.00  0.00    -0.399 OA
ATOM     32  H1  UNL     1      11.178   0.328   1.595  1.00  0.00     0.209 HD
ENDBRANCH  30  31
ENDBRANCH  29  30
ENDBRANCH  25  29
ENDBRANCH  20  23
ENDBRANCH  15  16
ENDBRANCH  13  15
ENDBRANCH   1  13
BRANCH  12  33
HETATM   33  C14 UNL     1      -5.383   0.362   1.244  1.00  0.00     0.111 C 
HETATM   34  C15 UNL     1      -5.150  -0.710   2.272  1.00  0.00     0.054 C 
HETATM   35  C16 UNL     1      -6.243  -1.783   2.229  1.00  0.00     0.234 C 
HETATM   36  N12 UNL     1      -7.533  -1.172   2.264  1.00  0.00    -0.075 N 
HETATM   37  C17 UNL     1      -7.752  -0.186   1.253  1.00  0.00     0.234 C 
ATOM     38 2H12 UNL     1      -8.263  -1.883   2.229  1.00  0.00     0.277 HD
ATOM     39 1H12 UNL     1      -7.714  -0.779   3.188  1.00  0.00     0.277 HD
HETATM   40  C18 UNL     1      -6.542  -0.095   0.341  1.00  0.00     0.054 C 
ENDBRANCH  12  33
TORSDOF 8
