REMARK  13 active torsions:
REMARK  status: ('A' for Active; 'I' for Inactive)
REMARK    1  A    between atoms: C2_2  and  C3_3 
REMARK    2  A    between atoms: C3_3  and  C5_5 
REMARK    3  A    between atoms: C5_5  and  N1_6 
REMARK    4  A    between atoms: C5_5  and  C26_34 
REMARK       I    between atoms: N1_6  and  C6_8 
REMARK    5  A    between atoms: C6_8  and  C7_10 
REMARK    6  A    between atoms: C7_10  and  N2_11 
REMARK    7  A    between atoms: C7_10  and  C22_30 
REMARK       I    between atoms: N2_11  and  C8_13 
REMARK    8  A    between atoms: C8_13  and  C9_15 
REMARK    9  A    between atoms: C9_15  and  C10_16 
REMARK   10  A    between atoms: C9_15  and  N3_23 
REMARK   11  A    between atoms: C10_16  and  C11_17 
REMARK   12  A    between atoms: N3_23  and  C17_25 
REMARK       I    between atoms: C26_34  and  N4_36 
REMARK   13  A    between atoms: C29_39  and  O4_40 
ROOT
HETATM    1  C7  UNL     1      -0.329  -1.441  -0.588  1.00  0.00     0.184 C 
ENDROOT
BRANCH   1   2
HETATM    2  C6  UNL     1       0.945  -0.789  -0.357  1.00  0.00     0.241 C 
HETATM    3  N1  UNL     1       2.074  -1.312   0.299  1.00  0.00    -0.346 N 
ATOM      4  H1  UNL     1       2.047  -2.260   0.675  1.00  0.00     0.163 HD
HETATM    5  O1  UNL     1       1.080   0.399  -0.787  1.00  0.00    -0.271 OA
BRANCH   3   6
HETATM    6  C5  UNL     1       3.306  -0.494   0.448  1.00  0.00     0.180 C 
BRANCH   6   7
HETATM    7  C3  UNL     1       4.503  -1.290   0.070  1.00  0.00     0.013 C 
HETATM    8  C4  UNL     1       4.698  -2.506   0.957  1.00  0.00     0.012 C 
BRANCH   7   9
HETATM    9  C2  UNL     1       4.445  -1.781  -1.370  1.00  0.00     0.002 C 
HETATM   10  C1  UNL     1       5.788  -2.470  -1.610  1.00  0.00     0.005 C 
ENDBRANCH   7   9
ENDBRANCH   6   7
BRANCH   6  11
HETATM   11  C26 UNL     1       3.440  -0.061   1.866  1.00  0.00     0.243 C 
HETATM   12  O3  UNL     1       2.589  -0.531   2.684  1.00  0.00    -0.271 OA
HETATM   13  N4  UNL     1       4.415   0.812   2.358  1.00  0.00    -0.348 N 
HETATM   14  C27 UNL     1       5.455   1.452   1.583  1.00  0.00     0.128 C 
HETATM   15  C30 UNL     1       4.545   1.234   3.737  1.00  0.00     0.157 C 
HETATM   16  C28 UNL     1       5.719   2.780   2.262  1.00  0.00     0.053 C 
HETATM   17  C29 UNL     1       5.254   2.574   3.686  1.00  0.00     0.137 C 
BRANCH  17  18
HETATM   18  O4  UNL     1       4.322   3.531   4.073  1.00  0.00    -0.394 OA
ATOM     19  H4  UNL     1       4.030   3.402   4.968  1.00  0.00     0.210 HD
ENDBRANCH  17  18
ENDBRANCH   6  11
ENDBRANCH   3   6
ENDBRANCH   1   2
BRANCH   1  20
HETATM   20  N2  UNL     1      -1.447  -0.603  -0.258  1.00  0.00    -0.345 N 
HETATM   21  C8  UNL     1      -1.993   0.493  -0.989  1.00  0.00     0.240 C 
HETATM   22  O2  UNL     1      -1.388   0.818  -2.054  1.00  0.00    -0.271 OA
ATOM     23  H2  UNL     1      -1.916  -0.822   0.621  1.00  0.00     0.163 HD
BRANCH  21  24
HETATM   24  C9  UNL     1      -3.188   1.190  -0.512  1.00  0.00     0.170 C 
BRANCH  24  25
HETATM   25  C10 UNL     1      -4.464   1.039  -1.299  1.00  0.00     0.039 C 
BRANCH  25  26
HETATM   26  C11 UNL     1      -5.075  -0.263  -1.566  1.00  0.00    -0.012 C 
HETATM   27  C12 UNL     1      -4.377  -1.240  -2.425  1.00  0.00     0.005 C 
HETATM   28  C13 UNL     1      -4.455  -0.810  -3.892  1.00  0.00     0.000 C 
HETATM   29  C14 UNL     1      -5.873  -0.626  -4.301  1.00  0.00     0.000 C 
HETATM   30  C15 UNL     1      -6.701   0.232  -3.400  1.00  0.00     0.000 C 
HETATM   31  C16 UNL     1      -6.556  -0.142  -1.945  1.00  0.00     0.005 C 
ENDBRANCH  25  26
ENDBRANCH  24  25
BRANCH  24  32
HETATM   32  N3  UNL     1      -2.935   2.626  -0.480  1.00  0.00    -0.405 N 
ATOM     33  H3  UNL     1      -3.387   3.220  -1.175  1.00  0.00     0.154 HD
BRANCH  32  34
HETATM   34  C17 UNL     1      -2.118   3.202   0.443  1.00  0.00     0.077 C 
HETATM   35  C18 UNL     1      -2.583   3.045   1.900  1.00  0.00     0.024 C 
HETATM   36  C19 UNL     1      -1.544   3.867   2.627  1.00  0.00     0.002 C 
HETATM   37  C20 UNL     1      -0.332   3.924   1.724  1.00  0.00     0.002 C 
HETATM   38  C21 UNL     1      -0.689   2.932   0.602  1.00  0.00     0.024 C 
ENDBRANCH  32  34
ENDBRANCH  24  32
ENDBRANCH  21  24
ENDBRANCH   1  20
BRANCH   1  39
HETATM   39  C22 UNL     1      -0.465  -2.856  -0.119  1.00  0.00    -0.022 C 
HETATM   40  C23 UNL     1      -0.242  -3.016   1.368  1.00  0.00     0.017 C 
HETATM   41  C24 UNL     1       0.369  -3.846  -0.882  1.00  0.00     0.017 C 
HETATM   42  C25 UNL     1      -1.917  -3.354  -0.339  1.00  0.00     0.017 C 
ENDBRANCH   1  39
TORSDOF 13
