REMARK  14 active torsions:
REMARK  status: ('A' for Active; 'I' for Inactive)
REMARK    1  A    between atoms: N1_2  and  C2_4 
REMARK    2  A    between atoms: C3_7  and  N3_8 
REMARK    3  A    between atoms: C4_12  and  C5_13 
REMARK    4  A    between atoms: C5_13  and  N6_14 
REMARK    5  A    between atoms: N6_14  and  C6_16 
REMARK    6  A    between atoms: N7_19  and  C9_20 
REMARK    7  A    between atoms: C12_23  and  C13_24 
REMARK    8  A    between atoms: C13_24  and  O1_25 
REMARK    9  A    between atoms: O1_25  and  S1_26 
REMARK   10  A    between atoms: S1_26  and  N8_29 
REMARK   11  A    between atoms: N8_29  and  C14_31 
REMARK   12  A    between atoms: C14_31  and  C15_32 
REMARK   13  A    between atoms: C15_32  and  O4_33 
REMARK   14  A    between atoms: C22_53  and  N14_54 
ROOT
HETATM    1  N6  UNL     1      -1.193   0.009  -0.487  1.00  0.00    -0.380 N 
ATOM      2  H6  UNL     1      -1.966   0.281  -1.094  1.00  0.00     0.160 HD
ENDROOT
BRANCH   1   3
HETATM    3  C5  UNL     1      -1.333   0.230   0.918  1.00  0.00     0.199 C 
BRANCH   3   4
HETATM    4  C4  UNL     1      -2.663   0.850   1.192  1.00  0.00     0.129 A 
HETATM    5  N5  UNL     1      -2.927   2.187   1.196  1.00  0.00    -0.268 N 
HETATM    6  N4  UNL     1      -4.208   2.338   1.480  1.00  0.00     0.018 NA
ATOM      7  H5  UNL     1      -2.258   2.935   1.013  1.00  0.00     0.185 HD
HETATM    8  N3  UNL     1      -4.792   1.160   1.661  1.00  0.00    -0.003 N 
HETATM    9  N11 UNL     1      -3.837   0.263   1.482  1.00  0.00    -0.252 N 
ATOM     10  H11 UNL     1      -3.974  -0.745   1.555  1.00  0.00     0.190 HD
BRANCH   8  11
HETATM   11  C3  UNL     1      -6.172   0.940   1.983  1.00  0.00     0.720 A 
HETATM   12  N2  UNL     1      -6.863   1.909   2.595  1.00  0.00    -0.172 N 
HETATM   13  C2  UNL     1      -8.173   1.738   2.917  1.00  0.00     0.148 A 
ATOM     14  H2  UNL     1      -6.400   2.789   2.823  1.00  0.00     0.186 HD
HETATM   15  C23 UNL     1      -8.806   0.552   2.612  1.00  0.00     0.138 A 
HETATM   16  C21 UNL     1      -8.102  -0.449   1.982  1.00  0.00     0.168 A 
HETATM   17  N16 UNL     1     -10.101   0.328   2.907  1.00  0.00    -0.280 N 
HETATM   18  N12 UNL     1      -6.810  -0.207   1.695  1.00  0.00    -0.171 N 
HETATM   19  N13 UNL     1      -8.709  -1.614   1.678  1.00  0.00    -0.173 N 
ATOM     20  H12 UNL     1      -6.280  -0.943   1.228  1.00  0.00     0.186 HD
HETATM   21  C22 UNL     1     -10.000  -1.821   1.979  1.00  0.00     0.692 A 
ATOM     22  H13 UNL     1      -8.178  -2.350   1.212  1.00  0.00     0.186 HD
HETATM   23  N15 UNL     1     -10.669  -0.834   2.593  1.00  0.00    -0.132 N 
ATOM     24  H15 UNL     1     -11.651  -0.979   2.828  1.00  0.00     0.205 HD
ATOM     25  H16 UNL     1     -10.648   1.052   3.373  1.00  0.00     0.188 HD
BRANCH  13  26
HETATM   26  N1  UNL     1      -8.857   2.654   3.505  1.00  0.00    -0.378 N 
HETATM   27  C1  UNL     1      -8.221   3.912   3.839  1.00  0.00     0.147 C 
ATOM     28  H1  UNL     1      -9.838   2.496   3.734  1.00  0.00     0.160 HD
ENDBRANCH  13  26
BRANCH  21  29
HETATM   29  N14 UNL     1     -10.600  -2.945   1.690  1.00  0.00    -0.233 N 
ATOM     30 2H14 UNL     1     -10.091  -3.696   1.223  1.00  0.00     0.174 HD
ATOM     31 1H14 UNL     1     -11.581  -3.102   1.919  1.00  0.00     0.174 HD
ENDBRANCH  21  29
ENDBRANCH   8  11
ENDBRANCH   3   4
ENDBRANCH   1   3
BRANCH   1  32
HETATM   32  C6  UNL     1      -0.041  -0.567  -1.091  1.00  0.00     0.071 A 
HETATM   33  C7  UNL     1       1.078   0.069  -1.537  1.00  0.00     0.044 A 
HETATM   34  C8  UNL     1       1.315   1.549  -1.478  1.00  0.00     0.071 C 
HETATM   35  N7  UNL     1       1.991  -0.824  -2.071  1.00  0.00    -0.282 N 
HETATM   36  C16 UNL     1       1.406  -2.035  -1.944  1.00  0.00     0.138 A 
HETATM   37  C17 UNL     1       0.160  -1.897  -1.345  1.00  0.00     0.105 A 
HETATM   38  N10 UNL     1       1.846  -3.255  -2.300  1.00  0.00    -0.288 N 
HETATM   39  C18 UNL     1      -0.628  -2.999  -1.112  1.00  0.00     0.265 A 
HETATM   40  O6  UNL     1      -1.749  -2.807  -0.565  1.00  0.00    -0.267 OA
HETATM   41  N9  UNL     1      -0.188  -4.202  -1.465  1.00  0.00    -0.274 N 
HETATM   42  C19 UNL     1       1.011  -4.310  -2.039  1.00  0.00     0.330 A 
ATOM     43  H9  UNL     1      -0.759  -5.031  -1.299  1.00  0.00     0.173 HD
HETATM   44  O7  UNL     1       1.460  -5.458  -2.389  1.00  0.00    -0.246 OA
HETATM   45  C20 UNL     1       3.107  -3.454  -2.925  1.00  0.00     0.163 C 
BRANCH  35  46
HETATM   46  C9  UNL     1       3.224  -0.455  -2.597  1.00  0.00     0.126 C 
HETATM   47  C10 UNL     1       3.298   0.023  -4.028  1.00  0.00     0.087 C 
HETATM   48  C11 UNL     1       4.746   0.541  -3.998  1.00  0.00     0.043 C 
HETATM   49  C12 UNL     1       5.380  -0.296  -2.949  1.00  0.00     0.155 C 
HETATM   50  O5  UNL     1       4.423  -0.933  -2.187  1.00  0.00    -0.331 OA
BRANCH  49  51
HETATM   51  C13 UNL     1       6.411   0.415  -2.111  1.00  0.00     0.224 C 
BRANCH  51  52
HETATM   52  O1  UNL     1       5.905   1.387  -1.287  1.00  0.00    -0.257 OA
BRANCH  52  53
HETATM   53  S1  UNL     1       7.212   2.051  -0.447  1.00  0.00     0.357 S 
HETATM   54  O2  UNL     1       7.719   3.237  -1.243  1.00  0.00    -0.176 OA
HETATM   55  O3  UNL     1       8.340   1.054  -0.324  1.00  0.00    -0.176 OA
BRANCH  53  56
HETATM   56  N8  UNL     1       6.792   2.559   1.130  1.00  0.00    -0.295 N 
ATOM     57  H8  UNL     1       6.453   3.491   1.370  1.00  0.00     0.174 HD
BRANCH  56  58
HETATM   58  C14 UNL     1       6.985   1.480   2.080  1.00  0.00     0.160 C 
BRANCH  58  59
HETATM   59  C15 UNL     1       6.618   1.910   3.486  1.00  0.00     0.184 C 
BRANCH  59  60
HETATM   60  O4  UNL     1       6.818   0.846   4.361  1.00  0.00    -0.399 OA
ATOM     61  H4  UNL     1       6.588   1.116   5.242  1.00  0.00     0.209 HD
ENDBRANCH  59  60
ENDBRANCH  58  59
ENDBRANCH  56  58
ENDBRANCH  53  56
ENDBRANCH  52  53
ENDBRANCH  51  52
ENDBRANCH  49  51
ENDBRANCH  35  46
ENDBRANCH   1  32
TORSDOF 14
