REMARK  20 active torsions:
REMARK  status: ('A' for Active; 'I' for Inactive)
REMARK    1  A    between atoms: O1_2  and  C2_3 
REMARK    2  A    between atoms: C2_3  and  C3_5 
REMARK    3  A    between atoms: C3_5  and  O3_6 
REMARK    4  A    between atoms: C5_9  and  C6_10 
REMARK    5  A    between atoms: C6_10  and  O4_11 
REMARK    6  A    between atoms: C6_10  and  O5_13 
REMARK    7  A    between atoms: O5_13  and  C7_14 
REMARK    8  A    between atoms: C9_16  and  O6_17 
REMARK    9  A    between atoms: C13_22  and  N1_23 
REMARK   10  A    between atoms: N1_23  and  C14_25 
REMARK   11  A    between atoms: C14_25  and  O7_26 
REMARK   12  A    between atoms: C14_25  and  C15_28 
REMARK   13  A    between atoms: C15_28  and  O8_29 
REMARK   14  A    between atoms: O8_29  and  C16_30 
REMARK   15  A    between atoms: C23_41  and  C24_42 
REMARK   16  A    between atoms: C24_42  and  N4_43 
REMARK   17  A    between atoms: N5_47  and  C26_49 
REMARK   18  A    between atoms: C26_49  and  O12_50 
REMARK   19  A    between atoms: C26_49  and  C27_52 
REMARK   20  A    between atoms: C29_55  and  O14_56 
ROOT
HETATM    1  C6  UNL     1      -1.525   0.718  -1.407  1.00  0.00     0.267 C 
ENDROOT
BRANCH   1   2
HETATM    2  C5  UNL     1      -2.562   0.670  -0.264  1.00  0.00     0.056 C 
HETATM    3  C4  UNL     1      -2.726  -0.744   0.151  1.00  0.00     0.062 C 
HETATM    4  C3  UNL     1      -4.073  -1.344   0.194  1.00  0.00     0.176 C 
HETATM    5  C29 UNL     1      -5.071  -0.327   0.743  1.00  0.00     0.208 C 
HETATM    6  C25 UNL     1      -5.036   0.861  -0.113  1.00  0.00     0.023 C 
HETATM    7  C23 UNL     1      -3.757   1.437  -0.639  1.00  0.00     0.067 C 
HETATM    8  N5  UNL     1      -6.074   1.471  -0.457  1.00  0.00    -0.362 N 
ATOM      9  H5  UNL     1      -5.882   2.277  -1.052  1.00  0.00     0.162 HD
BRANCH   4  10
HETATM   10  C2  UNL     1      -4.563  -1.963  -1.029  1.00  0.00     0.296 C 
HETATM   11  O2  UNL     1      -4.800  -3.192  -1.078  1.00  0.00    -0.262 OA
BRANCH  10  12
HETATM   12  O1  UNL     1      -4.783  -1.226  -2.169  1.00  0.00    -0.324 OA
HETATM   13  C1  UNL     1      -5.262  -1.802  -3.376  1.00  0.00     0.213 C 
ENDBRANCH  10  12
ENDBRANCH   4  10
BRANCH   4  14
HETATM   14  O3  UNL     1      -3.993  -2.407   1.152  1.00  0.00    -0.377 OA
ATOM     15  H3  UNL     1      -3.673  -2.003   1.950  1.00  0.00     0.211 HD
ENDBRANCH   4  14
BRANCH   5  16
HETATM   16  O14 UNL     1      -6.312  -0.915   0.883  1.00  0.00    -0.386 OA
ATOM     17  H14 UNL     1      -6.933  -0.282   1.225  1.00  0.00     0.210 HD
ENDBRANCH   5  16
BRANCH   7  18
HETATM   18  C24 UNL     1      -3.759   2.896  -0.249  1.00  0.00     0.212 C 
BRANCH  18  19
HETATM   19  N4  UNL     1      -3.643   3.134   1.165  1.00  0.00    -0.155 N 
HETATM   20  O10 UNL     1      -2.622   3.728   1.576  1.00  0.00    -0.537 OA
HETATM   21  O11 UNL     1      -4.546   2.772   2.121  1.00  0.00    -0.537 OA
ENDBRANCH  18  19
ENDBRANCH   7  18
BRANCH   8  22
HETATM   22  C26 UNL     1      -7.430   1.294  -0.208  1.00  0.00     0.288 C 
BRANCH  22  23
HETATM   23  O12 UNL     1      -7.778   1.522   1.123  1.00  0.00    -0.370 OA
ATOM     24  H12 UNL     1      -8.705   1.401   1.293  1.00  0.00     0.212 HD
ENDBRANCH  22  23
BRANCH  22  25
HETATM   25  C27 UNL     1      -8.174   2.284  -1.066  1.00  0.00     0.171 C 
HETATM   26  C28 UNL     1      -9.065   3.263  -0.436  1.00  0.00     0.096 C 
HETATM   27  O13 UNL     1      -8.014   2.241  -2.260  1.00  0.00    -0.294 OA
ENDBRANCH  22  25
ENDBRANCH   8  22
ENDBRANCH   1   2
BRANCH   1  28
HETATM   28  O4  UNL     1      -1.376   2.040  -1.772  1.00  0.00    -0.370 OA
ATOM     29  H4  UNL     1      -0.738   2.070  -2.475  1.00  0.00     0.212 HD
ENDBRANCH   1  28
BRANCH   1  30
HETATM   30  O5  UNL     1      -0.367   0.077  -0.968  1.00  0.00    -0.331 OA
BRANCH  30  31
HETATM   31  C7  UNL     1       0.370   0.455   0.123  1.00  0.00     0.154 C 
HETATM   32  C8  UNL     1       1.561  -0.064   0.339  1.00  0.00     0.049 A 
HETATM   33  C9  UNL     1       2.336   0.289   1.429  1.00  0.00     0.087 A 
HETATM   34  C19 UNL     1       2.065  -0.989  -0.538  1.00  0.00     0.076 A 
HETATM   35  C10 UNL     1       3.594  -0.282   1.628  1.00  0.00    -0.014 A 
HETATM   36  C11 UNL     1       4.320   0.254   2.811  1.00  0.00     0.052 C 
HETATM   37  C12 UNL     1       4.095  -1.210   0.752  1.00  0.00     0.017 A 
HETATM   38  C13 UNL     1       5.225  -1.812   0.963  1.00  0.00     0.099 C 
HETATM   39  C18 UNL     1       3.314  -1.573  -0.360  1.00  0.00     0.075 A 
HETATM   40  N3  UNL     1       3.451  -2.401  -1.408  1.00  0.00    -0.339 N 
HETATM   41  C20 UNL     1       2.345  -2.353  -2.216  1.00  0.00     0.080 A 
HETATM   42  C22 UNL     1       4.576  -3.242  -1.719  1.00  0.00     0.158 C 
HETATM   43  N2  UNL     1       1.511  -1.494  -1.681  1.00  0.00    -0.343 N 
HETATM   44  C21 UNL     1       2.173  -3.151  -3.465  1.00  0.00     0.089 C 
ATOM     45  H2  UNL     1       0.597  -1.243  -2.057  1.00  0.00     0.167 HD
BRANCH  33  46
HETATM   46  O6  UNL     1       1.792   1.206   2.270  1.00  0.00    -0.359 OA
ATOM     47  H6  UNL     1       2.324   1.448   3.019  1.00  0.00     0.217 HD
ENDBRANCH  33  46
BRANCH  38  48
HETATM   48  N1  UNL     1       6.166  -1.711   2.028  1.00  0.00    -0.371 N 
ATOM     49  H1  UNL     1       5.831  -1.711   2.991  1.00  0.00     0.161 HD
BRANCH  48  50
HETATM   50  C14 UNL     1       7.565  -1.610   1.777  1.00  0.00     0.241 C 
BRANCH  50  51
HETATM   51  O7  UNL     1       8.283  -1.693   2.976  1.00  0.00    -0.375 OA
ATOM     52  H7  UNL     1       9.216  -1.626   2.809  1.00  0.00     0.212 HD
ENDBRANCH  50  51
BRANCH  50  53
HETATM   53  C15 UNL     1       8.049  -0.491   0.942  1.00  0.00     0.232 C 
BRANCH  53  54
HETATM   54  O8  UNL     1       7.829   0.797   1.402  1.00  0.00    -0.317 OA
BRANCH  54  55
HETATM   55  C16 UNL     1       8.268   1.876   0.654  1.00  0.00     0.254 C 
HETATM   56  C17 UNL     1       8.053   3.286   1.120  1.00  0.00     0.126 C 
HETATM   57  O9  UNL     1       8.865   1.742  -0.445  1.00  0.00    -0.266 OA
ENDBRANCH  54  55
ENDBRANCH  53  54
ENDBRANCH  50  53
ENDBRANCH  48  50
ENDBRANCH  38  48
ENDBRANCH  30  31
ENDBRANCH   1  30
TORSDOF 20
