REMARK  15 active torsions:
REMARK  status: ('A' for Active; 'I' for Inactive)
REMARK    1  A    between atoms: C6_6  and  C7_7 
REMARK    2  A    between atoms: C7_7  and  O1_8 
REMARK    3  A    between atoms: C8_10  and  C9_11 
REMARK    4  A    between atoms: C9_11  and  C10_12 
REMARK    5  A    between atoms: C10_12  and  C11_13 
REMARK    6  A    between atoms: C11_13  and  C12_14 
REMARK    7  A    between atoms: C12_14  and  C13_15 
REMARK    8  A    between atoms: C13_15  and  C14_16 
REMARK    9  A    between atoms: C17_19  and  O2_20 
REMARK   10  A    between atoms: O2_20  and  C18_21 
REMARK   11  A    between atoms: C20_23  and  O3_24 
REMARK   12  A    between atoms: C21_26  and  O4_27 
REMARK   13  A    between atoms: C22_29  and  C23_30 
REMARK   14  A    between atoms: C23_30  and  O5_31 
REMARK   15  A    between atoms: C24_34  and  O7_35 
ROOT
HETATM    1  C1  UNL     1       6.937   2.562  -2.997  1.00  0.00     0.018 C 
HETATM    2  C2  UNL     1       6.722   1.906  -2.009  1.00  0.00    -0.078 C 
HETATM    3  C3  UNL     1       6.492   1.112  -0.832  1.00  0.00     0.017 A 
HETATM    4  C4  UNL     1       7.024   1.472   0.388  1.00  0.00     0.021 A 
HETATM    5  C5  UNL     1       6.800   0.709   1.510  1.00  0.00     0.011 A 
HETATM    6  C6  UNL     1       6.034  -0.455   1.476  1.00  0.00    -0.028 A 
HETATM    7  C8  UNL     1       5.495  -0.828   0.272  1.00  0.00    -0.048 A 
HETATM    8  C26 UNL     1       5.735  -0.039  -0.856  1.00  0.00     0.028 A 
ENDROOT
BRANCH   7   9
HETATM    9  C9  UNL     1       4.652  -2.033   0.119  1.00  0.00     0.039 C 
BRANCH   9  10
HETATM   10  C10 UNL     1       3.225  -1.888   0.503  1.00  0.00     0.005 C 
BRANCH  10  11
HETATM   11  C11 UNL     1       2.438  -0.872  -0.297  1.00  0.00     0.001 C 
BRANCH  11  12
HETATM   12  C12 UNL     1       2.345  -1.182  -1.757  1.00  0.00     0.005 C 
BRANCH  12  13
HETATM   13  C13 UNL     1       1.563  -0.091  -2.449  1.00  0.00     0.038 C 
BRANCH  13  14
HETATM   14  C14 UNL     1       0.178   0.060  -1.944  1.00  0.00    -0.055 A 
HETATM   15  C15 UNL     1      -0.160   0.924  -0.908  1.00  0.00     0.010 A 
HETATM   16  C16 UNL     1      -1.466   1.030  -0.477  1.00  0.00     0.040 A 
HETATM   17  C17 UNL     1      -2.473   0.289  -1.055  1.00  0.00     0.105 A 
HETATM   18  C24 UNL     1      -2.121  -0.576  -2.095  1.00  0.00     0.099 A 
HETATM   19  C25 UNL     1      -0.828  -0.697  -2.539  1.00  0.00     0.046 A 
BRANCH  17  20
HETATM   20  O2  UNL     1      -3.779   0.344  -0.680  1.00  0.00    -0.318 OA
BRANCH  20  21
HETATM   21  C18 UNL     1      -4.373   1.111   0.319  1.00  0.00     0.269 C 
HETATM   22  C19 UNL     1      -5.493   1.990  -0.220  1.00  0.00     0.095 C 
HETATM   23  C20 UNL     1      -6.651   1.110  -0.617  1.00  0.00     0.154 C 
HETATM   24  C21 UNL     1      -7.206   0.476   0.637  1.00  0.00     0.178 C 
HETATM   25  C22 UNL     1      -6.151   0.569   1.723  1.00  0.00     0.179 C 
HETATM   26  O6  UNL     1      -4.905   0.236   1.257  1.00  0.00    -0.351 OA
BRANCH  23  27
HETATM   27  O3  UNL     1      -6.201   0.075  -1.447  1.00  0.00    -0.393 OA
ATOM     28  H3  UNL     1      -6.931  -0.480  -1.697  1.00  0.00     0.210 HD
ENDBRANCH  23  27
BRANCH  24  29
HETATM   29  O4  UNL     1      -8.370   1.129   1.041  1.00  0.00    -0.390 OA
ATOM     30  H4  UNL     1      -8.719   0.730   1.830  1.00  0.00     0.210 HD
ENDBRANCH  24  29
BRANCH  25  31
HETATM   31  C23 UNL     1      -6.528  -0.515   2.741  1.00  0.00     0.198 C 
BRANCH  31  32
HETATM   32  O5  UNL     1      -6.547  -1.768   2.135  1.00  0.00    -0.398 OA
ATOM     33  H5  UNL     1      -6.780  -2.439   2.765  1.00  0.00     0.209 HD
ENDBRANCH  31  32
ENDBRANCH  25  31
ENDBRANCH  20  21
ENDBRANCH  17  20
BRANCH  18  34
HETATM   34  O7  UNL     1      -3.134  -1.321  -2.676  1.00  0.00    -0.358 OA
ATOM     35  H7  UNL     1      -2.895  -1.909  -3.383  1.00  0.00     0.217 HD
ENDBRANCH  18  34
ENDBRANCH  13  14
ENDBRANCH  12  13
ENDBRANCH  11  12
ENDBRANCH  10  11
ENDBRANCH   9  10
ENDBRANCH   7   9
BRANCH   6  36
HETATM   36  C7  UNL     1       5.861  -1.251   2.742  1.00  0.00     0.203 C 
BRANCH  36  37
HETATM   37  O1  UNL     1       6.548  -0.616   3.789  1.00  0.00    -0.396 OA
ATOM     38  H1  UNL     1       6.439  -1.118   4.588  1.00  0.00     0.209 HD
ENDBRANCH  36  37
ENDBRANCH   6  36
TORSDOF 15
