REMARK  14 active torsions:
REMARK  status: ('A' for Active; 'I' for Inactive)
REMARK    1  A    between atoms: C2_2  and  C3_3 
REMARK    2  A    between atoms: C3_3  and  C4_4 
REMARK    3  A    between atoms: C4_4  and  C5_5 
REMARK    4  A    between atoms: C5_5  and  N1_6 
REMARK    5  A    between atoms: N1_6  and  C7_8 
REMARK    6  A    between atoms: C7_8  and  O1_9 
REMARK    7  A    between atoms: O1_9  and  C8_10 
REMARK    8  A    between atoms: C8_10  and  C9_11 
REMARK    9  A    between atoms: C9_11  and  C10_12 
REMARK   10  A    between atoms: C15_17  and  O2_18 
REMARK   11  A    between atoms: C17_21  and  O3_22 
REMARK   12  A    between atoms: C18_24  and  O4_25 
REMARK   13  A    between atoms: C20_28  and  O5_29 
REMARK   14  A    between atoms: C21_31  and  O6_32 
ROOT
HETATM    1  C10 UNL     1      -0.132   1.389   0.207  1.00  0.00    -0.012 C 
HETATM    2  C11 UNL     1      -0.879   2.654   0.522  1.00  0.00     0.005 C 
HETATM    3  C12 UNL     1      -1.684   3.084  -0.686  1.00  0.00     0.007 C 
HETATM    4  C13 UNL     1      -3.091   2.590  -0.650  1.00  0.00     0.016 C 
HETATM    5  C14 UNL     1      -3.953   3.515  -1.466  1.00  0.00     0.013 C 
HETATM    6  C15 UNL     1      -3.179   1.145  -1.140  1.00  0.00     0.068 C 
HETATM    7  C16 UNL     1      -4.626   0.799  -1.196  1.00  0.00     0.073 C 
HETATM    8  C17 UNL     1      -5.061  -0.125  -0.078  1.00  0.00     0.156 C 
HETATM    9  C18 UNL     1      -4.228  -1.387  -0.251  1.00  0.00     0.096 C 
HETATM   10  C19 UNL     1      -4.615  -2.452   0.720  1.00  0.00     0.075 C 
HETATM   11  C20 UNL     1      -3.300  -2.914   1.312  1.00  0.00     0.150 C 
HETATM   12  C21 UNL     1      -2.488  -1.640   1.300  1.00  0.00     0.158 C 
HETATM   13  C22 UNL     1      -2.778  -1.118  -0.115  1.00  0.00     0.024 C 
HETATM   14  C23 UNL     1      -2.012  -2.017  -1.057  1.00  0.00     0.022 C 
HETATM   15  C24 UNL     1      -2.375   0.311  -0.184  1.00  0.00     0.034 C 
HETATM   16  C25 UNL     1      -0.935   0.392  -0.573  1.00  0.00     0.013 C 
ENDROOT
BRANCH   1  17
HETATM   17  C9  UNL     1       1.100   1.773  -0.580  1.00  0.00     0.031 C 
BRANCH  17  18
HETATM   18  C8  UNL     1       1.945   0.580  -0.961  1.00  0.00     0.170 C 
BRANCH  18  19
HETATM   19  O1  UNL     1       2.412  -0.134   0.126  1.00  0.00    -0.362 OA
BRANCH  19  20
HETATM   20  C7  UNL     1       3.206   0.553   0.980  1.00  0.00     0.439 C 
BRANCH  20  21
HETATM   21  N1  UNL     1       4.437   1.073   0.543  1.00  0.00     0.107 N 
HETATM   22  C6  UNL     1       5.019   1.850   1.633  1.00  0.00     0.312 C 
BRANCH  21  23
HETATM   23  C5  UNL     1       5.472   0.072   0.213  1.00  0.00     0.274 C 
BRANCH  23  24
HETATM   24  C4  UNL     1       5.129  -0.849  -0.872  1.00  0.00     0.030 C 
BRANCH  24  25
HETATM   25  C3  UNL     1       6.218  -1.773  -1.276  1.00  0.00     0.001 C 
BRANCH  25  26
HETATM   26  C2  UNL     1       6.789  -2.718  -0.307  1.00  0.00    -0.005 C 
HETATM   27  C1  UNL     1       7.523  -2.194   0.868  1.00  0.00     0.005 C 
ENDBRANCH  25  26
ENDBRANCH  24  25
ENDBRANCH  23  24
ENDBRANCH  21  23
ENDBRANCH  20  21
ENDBRANCH  19  20
ENDBRANCH  18  19
ENDBRANCH  17  18
ENDBRANCH   1  17
BRANCH   6  28
HETATM   28  O2  UNL     1      -2.654   1.012  -2.427  1.00  0.00    -0.389 OA
ATOM     29  H2  UNL     1      -2.709   0.114  -2.732  1.00  0.00     0.210 HD
ENDBRANCH   6  28
BRANCH   9  30
HETATM   30  O4  UNL     1      -4.482  -1.838  -1.557  1.00  0.00    -0.386 OA
ATOM     31  H4  UNL     1      -3.962  -2.626  -1.665  1.00  0.00     0.210 HD
ENDBRANCH   9  30
BRANCH  12  32
HETATM   32  O6  UNL     1      -3.095  -0.761   2.195  1.00  0.00    -0.392 OA
ATOM     33  H6  UNL     1      -2.584   0.040   2.187  1.00  0.00     0.210 HD
ENDBRANCH  12  32
BRANCH   8  34
HETATM   34  O3  UNL     1      -6.399  -0.452  -0.332  1.00  0.00    -0.392 OA
ATOM     35  H3  UNL     1      -6.672  -1.032   0.369  1.00  0.00     0.210 HD
ENDBRANCH   8  34
BRANCH  11  36
HETATM   36  O5  UNL     1      -3.541  -3.403   2.573  1.00  0.00    -0.393 OA
ATOM     37  H5  UNL     1      -2.716  -3.693   2.944  1.00  0.00     0.210 HD
ENDBRANCH  11  36
TORSDOF 14
