REMARK  11 active torsions:
REMARK  status: ('A' for Active; 'I' for Inactive)
REMARK    1  A    between atoms: C2_2  and  C3_3 
REMARK    2  A    between atoms: C3_3  and  C4_4 
REMARK    3  A    between atoms: C4_4  and  C5_5 
REMARK    4  A    between atoms: C7_11  and  C8_12 
REMARK    5  A    between atoms: C8_12  and  N3_13 
REMARK    6  A    between atoms: N3_13  and  C9_15 
REMARK    7  A    between atoms: C11_20  and  N5_21 
REMARK    8  A    between atoms: C16_28  and  S1_29 
REMARK    9  A    between atoms: S1_29  and  N7_30 
REMARK   10  A    between atoms: C18_36  and  C19_37 
REMARK   11  A    between atoms: C19_37  and  C20_38 
ROOT
HETATM    1  C5  UNL     1      -3.754  -0.824  -0.833  1.00  0.00     0.018 A 
HETATM    2  N1  UNL     1      -2.590  -0.919  -1.500  1.00  0.00    -0.345 N 
ATOM      3  H1  UNL     1      -2.504  -1.028  -2.511  1.00  0.00     0.167 HD
HETATM    4  C6  UNL     1      -1.566  -0.851  -0.653  1.00  0.00     0.118 A 
HETATM    5  N2  UNL     1      -0.235  -0.902  -0.850  1.00  0.00    -0.344 N 
ATOM      6  H2  UNL     1       0.119  -1.014  -1.800  1.00  0.00     0.167 HD
HETATM    7  C7  UNL     1       0.636  -0.811   0.156  1.00  0.00     0.030 A 
HETATM    8  C15 UNL     1       0.127  -0.656   1.420  1.00  0.00     0.053 A 
HETATM    9  C16 UNL     1      -1.258  -0.591   1.722  1.00  0.00     0.095 A 
HETATM   10  C17 UNL     1      -2.099  -0.703   0.635  1.00  0.00     0.040 A 
HETATM   11  C18 UNL     1      -3.491  -0.695   0.532  1.00  0.00    -0.020 A 
ENDROOT
BRANCH   7  12
HETATM   12  C8  UNL     1       2.121  -0.869  -0.005  1.00  0.00     0.195 C 
BRANCH  12  13
HETATM   13  N3  UNL     1       2.700   0.421  -0.209  1.00  0.00    -0.220 N 
ATOM     14  H3  UNL     1       2.112   1.253  -0.249  1.00  0.00     0.178 HD
BRANCH  13  15
HETATM   15  C9  UNL     1       4.104   0.524  -0.354  1.00  0.00     0.681 A 
HETATM   16  N4  UNL     1       4.695   1.714  -0.548  1.00  0.00    -0.154 N 
HETATM   17  C10 UNL     1       6.027   1.845  -0.686  1.00  0.00     0.287 A 
ATOM     18  H4  UNL     1       4.112   2.550  -0.592  1.00  0.00     0.187 HD
HETATM   19  O1  UNL     1       6.496   2.991  -0.864  1.00  0.00    -0.265 OA
HETATM   20  C11 UNL     1       6.861   0.749  -0.634  1.00  0.00     0.115 A 
HETATM   21  C14 UNL     1       6.237  -0.479  -0.432  1.00  0.00     0.141 A 
HETATM   22  N6  UNL     1       4.902  -0.554  -0.301  1.00  0.00    -0.200 N 
ATOM     23  H6  UNL     1       4.477  -1.469  -0.155  1.00  0.00     0.183 HD
BRANCH  20  24
HETATM   24  N5  UNL     1       8.253   0.834  -0.771  1.00  0.00    -0.384 N 
HETATM   25  C12 UNL     1       9.047  -0.390  -0.692  1.00  0.00     0.149 C 
HETATM   26  C13 UNL     1       8.930   2.074  -0.984  1.00  0.00     0.149 C 
ENDBRANCH  20  24
ENDBRANCH  13  15
ENDBRANCH  12  13
ENDBRANCH   7  12
BRANCH   9  27
HETATM   27  S1  UNL     1      -1.808  -0.201   3.284  1.00  0.00     0.257 S 
HETATM   28  O2  UNL     1      -2.250  -1.214   4.229  1.00  0.00    -0.201 OA
HETATM   29  O3  UNL     1      -0.472   0.177   4.035  1.00  0.00    -0.201 OA
BRANCH  27  30
HETATM   30  N7  UNL     1      -2.517   1.385   3.451  1.00  0.00    -0.324 N 
ATOM     31  H72 UNL     1      -2.589   2.022   2.658  1.00  0.00     0.169 HD
ATOM     32  H71 UNL     1      -2.847   1.619   4.387  1.00  0.00     0.169 HD
ENDBRANCH  27  30
ENDBRANCH   9  27
BRANCH   1  33
HETATM   33  C4  UNL     1      -5.099  -0.736  -1.452  1.00  0.00     0.057 C 
BRANCH  33  34
HETATM   34  C3  UNL     1      -5.502   0.752  -1.522  1.00  0.00     0.006 C 
BRANCH  34  35
HETATM   35  C2  UNL     1      -4.496   1.472  -2.360  1.00  0.00    -0.004 C 
HETATM   36  C1  UNL     1      -4.912   2.951  -2.446  1.00  0.00     0.005 C 
ENDBRANCH  34  35
ENDBRANCH  33  34
ENDBRANCH   1  33
BRANCH  11  37
HETATM   37  C19 UNL     1      -4.440  -0.747   1.633  1.00  0.00     0.041 C 
BRANCH  37  38
HETATM   38  C20 UNL     1      -4.782  -2.139   2.147  1.00  0.00     0.000 C 
HETATM   39  C21 UNL     1      -5.412  -3.097   1.206  1.00  0.00     0.005 C 
ENDBRANCH  37  38
ENDBRANCH  11  37
TORSDOF 11
