REMARK  18 active torsions:
REMARK  status: ('A' for Active; 'I' for Inactive)
REMARK    1  A    between atoms: S1_2  and  C2_3 
REMARK       I    between atoms: C2_3  and  N1_5 
REMARK    2  A    between atoms: N1_5  and  C3_7 
REMARK    3  A    between atoms: C3_7  and  C4_8 
REMARK    4  A    between atoms: C4_8  and  C5_9 
REMARK    5  A    between atoms: C5_9  and  C6_10 
REMARK    6  A    between atoms: C6_10  and  C7_11 
REMARK    7  A    between atoms: C7_11  and  C8_12 
REMARK    8  A    between atoms: C8_12  and  C9_13 
REMARK    9  A    between atoms: C10_14  and  C11_15 
REMARK   10  A    between atoms: C11_15  and  C12_16 
REMARK   11  A    between atoms: C12_16  and  C13_17 
REMARK   12  A    between atoms: C13_17  and  C14_18 
REMARK   13  A    between atoms: C14_18  and  S2_19 
REMARK   14  A    between atoms: S2_19  and  C15_20 
REMARK   15  A    between atoms: C15_20  and  C16_21 
REMARK   16  A    between atoms: C17_23  and  N2_24 
REMARK   17  A    between atoms: C21_33  and  N5_34 
REMARK   18  A    between atoms: C24_41  and  O4_42 
ROOT
HETATM    1  C16 UNL     1      -4.109   0.843  -0.161  1.00  0.00     0.162 C 
HETATM    2  O2  UNL     1      -5.194   0.612  -1.000  1.00  0.00    -0.358 OA
HETATM    3  C17 UNL     1      -6.284   1.050  -0.290  1.00  0.00     0.233 C 
HETATM    4  C23 UNL     1      -6.013   0.890   1.181  1.00  0.00     0.088 C 
HETATM    5  C24 UNL     1      -4.632   0.222   1.141  1.00  0.00     0.152 C 
ENDROOT
BRANCH   1   6
HETATM    6  C15 UNL     1      -2.873   0.090  -0.638  1.00  0.00     0.108 C 
BRANCH   6   7
HETATM    7  S2  UNL     1      -3.145  -1.677  -0.684  1.00  0.00    -0.166 SA
BRANCH   7   8
HETATM    8  C14 UNL     1      -1.687  -2.571  -1.157  1.00  0.00     0.077 C 
BRANCH   8   9
HETATM    9  C13 UNL     1      -0.693  -2.722  -0.045  1.00  0.00     0.037 C 
BRANCH   9  10
HETATM   10  C12 UNL     1      -0.190  -1.511   0.578  1.00  0.00    -0.026 C 
BRANCH  10  11
HETATM   11  C11 UNL     1       1.049  -1.048   0.604  1.00  0.00    -0.004 C 
BRANCH  11  12
HETATM   12  C10 UNL     1       2.119  -1.764  -0.041  1.00  0.00    -0.004 C 
HETATM   13  C9  UNL     1       3.354  -1.352  -0.043  1.00  0.00    -0.027 C 
BRANCH  13  14
HETATM   14  C8  UNL     1       3.847  -0.126   0.594  1.00  0.00     0.027 C 
BRANCH  14  15
HETATM   15  C7  UNL     1       4.476   0.823  -0.417  1.00  0.00     0.004 C 
BRANCH  15  16
HETATM   16  C6  UNL     1       5.638   0.233  -1.139  1.00  0.00     0.000 C 
BRANCH  16  17
HETATM   17  C5  UNL     1       6.775  -0.183  -0.248  1.00  0.00     0.002 C 
BRANCH  17  18
HETATM   18  C4  UNL     1       7.344   0.973   0.542  1.00  0.00     0.020 C 
BRANCH  18  19
HETATM   19  C3  UNL     1       8.472   0.441   1.390  1.00  0.00     0.123 C 
BRANCH  19  20
HETATM   20  N1  UNL     1       9.540  -0.158   0.646  1.00  0.00    -0.352 N 
HETATM   21  C2  UNL     1      10.302   0.561  -0.300  1.00  0.00     0.279 C 
HETATM   22  O1  UNL     1      10.067   1.758  -0.519  1.00  0.00    -0.260 OA
ATOM     23  H1  UNL     1       9.758  -1.141   0.806  1.00  0.00     0.163 HD
BRANCH  21  24
HETATM   24  S1  UNL     1      11.629  -0.231  -1.212  1.00  0.00    -0.074 SA
HETATM   25  C1  UNL     1      12.400   0.944  -2.343  1.00  0.00     0.100 C 
ENDBRANCH  21  24
ENDBRANCH  19  20
ENDBRANCH  18  19
ENDBRANCH  17  18
ENDBRANCH  16  17
ENDBRANCH  15  16
ENDBRANCH  14  15
ENDBRANCH  13  14
ENDBRANCH  11  12
ENDBRANCH  10  11
ENDBRANCH   9  10
ENDBRANCH   8   9
ENDBRANCH   7   8
ENDBRANCH   6   7
ENDBRANCH   1   6
BRANCH   5  26
HETATM   26  O4  UNL     1      -3.852   0.568   2.215  1.00  0.00    -0.393 OA
ATOM     27  H4  UNL     1      -4.176   0.184   3.021  1.00  0.00     0.210 HD
ENDBRANCH   5  26
BRANCH   3  28
HETATM   28  N2  UNL     1      -7.490   0.306  -0.605  1.00  0.00    -0.299 N 
HETATM   29  C18 UNL     1      -7.622  -0.725  -1.476  1.00  0.00     0.188 A 
HETATM   30  N3  UNL     1      -8.913  -1.104  -1.443  1.00  0.00    -0.345 N 
HETATM   31  C19 UNL     1      -9.598  -0.332  -0.567  1.00  0.00     0.147 A 
ATOM     32  H3  UNL     1      -9.316  -1.861  -1.996  1.00  0.00     0.167 HD
HETATM   33  C20 UNL     1     -10.921  -0.294  -0.157  1.00  0.00     0.290 A 
HETATM   34  C22 UNL     1      -8.680   0.559  -0.044  1.00  0.00     0.159 A 
HETATM   35  O3  UNL     1     -11.737  -1.116  -0.648  1.00  0.00    -0.265 OA
HETATM   36  N4  UNL     1     -11.287   0.629   0.760  1.00  0.00    -0.154 N 
HETATM   37  C21 UNL     1     -10.363   1.477   1.244  1.00  0.00     0.680 A 
ATOM     38  H4  UNL     1     -12.254   0.682   1.081  1.00  0.00     0.187 HD
HETATM   39  N6  UNL     1      -9.076   1.477   0.878  1.00  0.00    -0.174 N 
ATOM     40  H6  UNL     1      -8.414   2.143   1.277  1.00  0.00     0.186 HD
BRANCH  37  41
HETATM   41  N5  UNL     1     -10.738   2.349   2.120  1.00  0.00    -0.234 N 
ATOM     42  H52 UNL     1     -11.719   2.349   2.399  1.00  0.00     0.174 HD
ATOM     43  H51 UNL     1     -10.037   2.992   2.487  1.00  0.00     0.174 HD
ENDBRANCH  37  41
ENDBRANCH   3  28
TORSDOF 18
