REMARK  8 active torsions:
REMARK  status: ('A' for Active; 'I' for Inactive)
REMARK    1  A    between atoms: C2_2  and  N2_6 
REMARK       I    between atoms: N2_6  and  C5_8 
REMARK       I    between atoms: C5_8  and  N3_10 
REMARK    2  A    between atoms: N3_10  and  C6_12 
REMARK    3  A    between atoms: C6_12  and  C7_13 
REMARK    4  A    between atoms: C7_13  and  C8_14 
REMARK    5  A    between atoms: C8_14  and  N4_15 
REMARK    6  A    between atoms: N4_15  and  C9_17 
REMARK    7  A    between atoms: C9_17  and  N5_19 
REMARK    8  A    between atoms: N5_19  and  C10_21 
ROOT
HETATM    1  C1  UNL     1       7.883   0.567   0.123  1.00  0.00     0.055 C 
HETATM    2  C2  UNL     1       6.502   0.300  -0.416  1.00  0.00     0.116 C 
HETATM    3  C3  UNL     1       6.138  -1.163  -0.353  1.00  0.00     0.055 C 
HETATM    4  C4  UNL     1       6.402   0.781  -1.815  1.00  0.00     0.090 C 
HETATM    5  N1  UNL     1       6.314   1.144  -2.909  1.00  0.00    -0.195 NA
ENDROOT
BRANCH   2   6
HETATM    6  N2  UNL     1       5.530   1.022   0.366  1.00  0.00    -0.322 N 
HETATM    7  C5  UNL     1       4.141   0.892   0.000  1.00  0.00     0.317 C 
HETATM    8  O1  UNL     1       3.860   0.155  -0.980  1.00  0.00    -0.247 OA
HETATM    9  N3  UNL     1       3.202   1.602   0.774  1.00  0.00    -0.343 N 
ATOM     10  H3  UNL     1       3.528   2.182   1.548  1.00  0.00     0.164 HD
ATOM     11  H2  UNL     1       5.815   1.606   1.152  1.00  0.00     0.166 HD
BRANCH   9  12
HETATM   12  C6  UNL     1       1.798   1.526   0.496  1.00  0.00     0.126 C 
BRANCH  12  13
HETATM   13  C7  UNL     1       1.310   0.127   0.660  1.00  0.00     0.039 C 
BRANCH  13  14
HETATM   14  C8  UNL     1      -0.179   0.056   0.372  1.00  0.00     0.123 C 
BRANCH  14  15
HETATM   15  N4  UNL     1      -0.665  -1.309   0.530  1.00  0.00    -0.367 N 
ATOM     16  H4  UNL     1      -0.036  -2.066   0.799  1.00  0.00     0.161 HD
BRANCH  15  17
HETATM   17  C9  UNL     1      -2.041  -1.547   0.297  1.00  0.00     0.167 C 
HETATM   18  S1  UNL     1      -2.569  -3.080   0.478  1.00  0.00    -0.041 SA
BRANCH  17  19
HETATM   19  N5  UNL     1      -2.910  -0.489  -0.077  1.00  0.00    -0.363 N 
ATOM     20  H5  UNL     1      -2.510   0.445  -0.172  1.00  0.00     0.162 HD
BRANCH  19  21
HETATM   21  C10 UNL     1      -4.306  -0.645  -0.329  1.00  0.00     0.083 C 
HETATM   22  C11 UNL     1      -4.929   0.665  -0.701  1.00  0.00     0.025 C 
HETATM   23  C12 UNL     1      -6.386   0.457  -1.072  1.00  0.00     0.002 C 
HETATM   24  C13 UNL     1      -7.156  -0.194   0.048  1.00  0.00     0.000 C 
HETATM   25  C14 UNL     1      -6.283  -0.586   1.208  1.00  0.00     0.002 C 
HETATM   26  C15 UNL     1      -5.049  -1.360   0.766  1.00  0.00     0.025 C 
ENDBRANCH  19  21
ENDBRANCH  17  19
ENDBRANCH  15  17
ENDBRANCH  14  15
ENDBRANCH  13  14
ENDBRANCH  12  13
ENDBRANCH   9  12
ENDBRANCH   2   6
TORSDOF 8
