REMARK  6 active torsions:
REMARK  status: ('A' for Active; 'I' for Inactive)
REMARK       I    between atoms: C2_5  and  N3_6 
REMARK       I    between atoms: C2_5  and  N6_16 
REMARK    1  A    between atoms: N3_6  and  C3_8 
REMARK    2  A    between atoms: C3_8  and  C4_9 
REMARK    3  A    between atoms: C4_9  and  C5_10 
REMARK    4  A    between atoms: C5_10  and  N4_11 
REMARK    5  A    between atoms: N4_11  and  C6_13 
REMARK    6  A    between atoms: N6_16  and  C7_18 
ROOT
HETATM    1  N1  UNL     1       2.629  -1.075   3.200  1.00  0.00    -0.171 NA
HETATM    2  C1  UNL     1       1.705  -0.568   2.742  1.00  0.00     0.196 C 
HETATM    3  N2  UNL     1       0.577   0.038   2.212  1.00  0.00    -0.126 N 
ATOM      4  H2  UNL     1      -0.245   0.121   2.810  1.00  0.00     0.197 HD
HETATM    5  C2  UNL     1       0.500   0.500   1.023  1.00  0.00     0.683 C 
HETATM    6  N3  UNL     1       1.620   0.408   0.154  1.00  0.00    -0.226 N 
ATOM      7  H3  UNL     1       1.620  -0.321  -0.559  1.00  0.00     0.177 HD
HETATM    8  N6  UNL     1      -0.671   1.114   0.517  1.00  0.00    -0.220 N 
ATOM      9  H6  UNL     1      -0.856   2.098   0.714  1.00  0.00     0.178 HD
ENDROOT
BRANCH   6  10
HETATM   10  C3  UNL     1       2.761   1.294   0.228  1.00  0.00     0.139 C 
BRANCH  10  11
HETATM   11  C4  UNL     1       3.750   1.026  -0.881  1.00  0.00     0.040 C 
BRANCH  11  12
HETATM   12  C5  UNL     1       4.316  -0.357  -0.878  1.00  0.00     0.123 C 
BRANCH  12  13
HETATM   13  N4  UNL     1       5.038  -0.728   0.300  1.00  0.00    -0.369 N 
ATOM     14  H4  UNL     1       4.630  -1.434   0.913  1.00  0.00     0.161 HD
BRANCH  13  15
HETATM   15  C6  UNL     1       6.286  -0.169   0.662  1.00  0.00     0.180 C 
HETATM   16  N5  UNL     1       6.932  -0.592   1.852  1.00  0.00    -0.070 NA
HETATM   17  S1  UNL     1       7.043   0.951  -0.239  1.00  0.00    -0.044 SA
ENDBRANCH  13  15
ENDBRANCH  12  13
ENDBRANCH  11  12
ENDBRANCH  10  11
ENDBRANCH   6  10
BRANCH   8  18
HETATM   18  C7  UNL     1      -1.590   0.360  -0.266  1.00  0.00     0.107 C 
HETATM   19  C8  UNL     1      -2.271  -0.767   0.463  1.00  0.00     0.010 C 
HETATM   20  C9  UNL     1      -2.807  -1.725  -0.609  1.00  0.00     0.011 C 
HETATM   21  C13 UNL     1      -3.450  -0.273   1.269  1.00  0.00     0.011 C 
HETATM   22  C10 UNL     1      -3.725  -0.978  -1.536  1.00  0.00    -0.013 C 
HETATM   23  C11 UNL     1      -4.932  -0.542  -0.736  1.00  0.00     0.009 C 
HETATM   24  C16 UNL     1      -3.109   0.244  -2.147  1.00  0.00     0.011 C 
HETATM   25  C12 UNL     1      -4.449   0.369   0.349  1.00  0.00    -0.013 C 
HETATM   26  C14 UNL     1      -3.777   1.614  -0.245  1.00  0.00     0.011 C 
HETATM   27  C15 UNL     1      -2.591   1.170  -1.037  1.00  0.00     0.010 C 
ENDBRANCH   8  18
TORSDOF 6
