REMARK  3 active torsions:
REMARK  status: ('A' for Active; 'I' for Inactive)
REMARK       I    between atoms: C2_4  and  N2_5 
REMARK       I    between atoms: C2_4  and  N3_16 
REMARK    1  A    between atoms: N2_5  and  C3_7 
REMARK    2  A    between atoms: C3_7  and  C4_8 
REMARK    3  A    between atoms: N3_16  and  N4_18 
REMARK       I    between atoms: N4_18  and  C11_20 
ROOT
HETATM    1  C1  UNL     1       2.098  -1.848   1.263  1.00  0.00     0.165 C 
HETATM    2  N1  UNL     1       2.719  -1.067   0.219  1.00  0.00    -0.229 N 
ATOM      3  H1  UNL     1       3.588  -1.382  -0.213  1.00  0.00     0.177 HD
HETATM    4  C2  UNL     1       2.169   0.023  -0.158  1.00  0.00     0.688 C 
HETATM    5  N2  UNL     1       0.955   0.422   0.477  1.00  0.00    -0.225 N 
ATOM      6  H2  UNL     1       0.892   0.543   1.488  1.00  0.00     0.177 HD
HETATM    7  N3  UNL     1       2.775   0.794  -1.185  1.00  0.00    -0.129 N 
ATOM      8  H3  UNL     1       2.256   1.544  -1.641  1.00  0.00     0.205 HD
ENDROOT
BRANCH   5   9
HETATM    9  C3  UNL     1      -0.183   0.646  -0.391  1.00  0.00     0.143 C 
BRANCH   9  10
HETATM   10  C4  UNL     1      -1.423   1.052   0.343  1.00  0.00     0.009 C 
HETATM   11  C5  UNL     1      -1.872  -0.010   1.358  1.00  0.00     0.013 C 
HETATM   12  C6  UNL     1      -2.520  -0.730   0.186  1.00  0.00     0.009 C 
HETATM   13  C7  UNL     1      -3.931  -1.207   0.431  1.00  0.00     0.086 C 
HETATM   14  C10 UNL     1      -2.636   0.623  -0.482  1.00  0.00    -0.003 C 
HETATM   15 CL1  UNL     1      -4.251  -2.637  -0.607  1.00  0.00    -0.125 Cl
HETATM   16  C8  UNL     1      -4.835  -0.093  -0.038  1.00  0.00     0.021 C 
HETATM   17  C9  UNL     1      -3.948   1.134  -0.006  1.00  0.00     0.007 C 
ENDBRANCH   9  10
ENDBRANCH   5   9
BRANCH   7  18
HETATM   18  N4  UNL     1       4.083   0.514  -1.561  1.00  0.00    -0.240 N 
HETATM   19  C11 UNL     1       5.186   0.656  -0.685  1.00  0.00     0.347 C 
HETATM   20  N5  UNL     1       6.517   0.368  -1.074  1.00  0.00    -0.038 NA
HETATM   21  O1  UNL     1       4.941   1.063   0.501  1.00  0.00    -0.249 OA
ATOM     22  H4  UNL     1       4.257   0.191  -2.513  1.00  0.00     0.192 HD
ENDBRANCH   7  18
TORSDOF 3
