REMARK  4 active torsions:
REMARK  status: ('A' for Active; 'I' for Inactive)
REMARK    1  A    between atoms: C2_2  and  N1_5 
REMARK       I    between atoms: N1_5  and  C5_7 
REMARK       I    between atoms: C5_7  and  N5_15 
REMARK       I    between atoms: N2_8  and  C6_10 
REMARK    2  A    between atoms: N5_15  and  C7_17 
REMARK    3  A    between atoms: C7_17  and  C8_18 
REMARK    4  A    between atoms: C8_18  and  C9_19 
ROOT
HETATM    1  N1  UNL     1       2.876   0.903  -0.319  1.00  0.00    -0.218 N 
ATOM      2  H1  UNL     1       2.104   1.415  -0.745  1.00  0.00     0.178 HD
HETATM    3  C5  UNL     1       2.758  -0.505  -0.139  1.00  0.00     0.676 C 
HETATM    4  N2  UNL     1       3.823  -1.224  -0.123  1.00  0.00    -0.164 N 
ATOM      5  H2  UNL     1       4.731  -0.775  -0.239  1.00  0.00     0.187 HD
HETATM    6  C6  UNL     1       3.760  -2.626   0.053  1.00  0.00     0.200 C 
HETATM    7  N3  UNL     1       3.860  -3.474  -0.928  1.00  0.00    -0.373 N 
ATOM      8  H31 UNL     1       3.815  -4.485  -0.801  1.00  0.00     0.158 HD
ATOM      9  H32 UNL     1       3.990  -3.093  -1.865  1.00  0.00     0.158 HD
HETATM   10  N4  UNL     1       3.579  -3.156   1.357  1.00  0.00    -0.063 NA
HETATM   11  N5  UNL     1       1.503  -1.148   0.025  1.00  0.00    -0.226 N 
ATOM     12  H5  UNL     1       1.461  -2.136   0.274  1.00  0.00     0.177 HD
ENDROOT
BRANCH   1  13
HETATM   13  C2  UNL     1       4.054   1.622   0.084  1.00  0.00     0.036 C 
HETATM   14  C1  UNL     1       3.854   3.097  -0.248  1.00  0.00     0.038 C 
HETATM   15  C3  UNL     1       5.305   1.170  -0.613  1.00  0.00     0.038 C 
HETATM   16  C4  UNL     1       4.297   1.536   1.576  1.00  0.00     0.038 C 
ENDBRANCH   1  13
BRANCH  11  17
HETATM   17  C7  UNL     1       0.263  -0.379  -0.167  1.00  0.00     0.139 C 
BRANCH  17  18
HETATM   18  C8  UNL     1      -0.935  -1.249   0.055  1.00  0.00     0.029 C 
BRANCH  18  19
HETATM   19  C9  UNL     1      -2.244  -0.582  -0.111  1.00  0.00    -0.038 C 
HETATM   20  C10 UNL     1      -2.385  -0.036  -1.514  1.00  0.00     0.014 C 
HETATM   21  C11 UNL     1      -3.741   0.560  -1.753  1.00  0.00    -0.013 C 
HETATM   22  C12 UNL     1      -4.790  -0.510  -1.605  1.00  0.00     0.009 C 
HETATM   23  C16 UNL     1      -3.960   1.665  -0.741  1.00  0.00     0.009 C 
HETATM   24  C13 UNL     1      -4.700  -1.091  -0.230  1.00  0.00    -0.013 C 
HETATM   25  C14 UNL     1      -4.980  -0.005   0.787  1.00  0.00     0.009 C 
HETATM   26  C18 UNL     1      -3.329  -1.635   0.067  1.00  0.00     0.014 C 
HETATM   27  C15 UNL     1      -3.923   1.049   0.624  1.00  0.00    -0.013 C 
HETATM   28  C17 UNL     1      -2.529   0.520   0.862  1.00  0.00     0.014 C 
ENDBRANCH  18  19
ENDBRANCH  17  18
ENDBRANCH  11  17
TORSDOF 4
