REMARK  6 active torsions:
REMARK  status: ('A' for Active; 'I' for Inactive)
REMARK    1  A    between atoms: C2_2  and  N1_4 
REMARK    2  A    between atoms: N1_4  and  N2_5 
REMARK       I    between atoms: N2_5  and  C3_7 
REMARK       I    between atoms: C3_7  and  N4_16 
REMARK       I    between atoms: N3_8  and  C4_10 
REMARK    3  A    between atoms: C4_10  and  C5_12 
REMARK    4  A    between atoms: N4_16  and  N5_18 
REMARK       I    between atoms: N5_18  and  C9_20 
REMARK       I    between atoms: C9_20  and  N6_22 
REMARK    5  A    between atoms: N6_22  and  C10_24 
REMARK    6  A    between atoms: C10_24  and  C11_25 
ROOT
HETATM    1  N2  UNL     1      -3.089   1.820   0.097  1.00  0.00    -0.063 N 
ATOM      2  H2  UNL     1      -3.775   1.981  -0.640  1.00  0.00     0.221 HD
HETATM    3  C3  UNL     1      -2.123   0.985  -0.467  1.00  0.00     0.724 C 
HETATM    4  N3  UNL     1      -2.296  -0.294  -0.440  1.00  0.00    -0.156 N 
ATOM      5  H3  UNL     1      -1.578  -0.888  -0.855  1.00  0.00     0.187 HD
HETATM    6  C4  UNL     1      -3.429  -0.913   0.135  1.00  0.00     0.243 C 
HETATM    7  O1  UNL     1      -3.945  -0.495   1.164  1.00  0.00    -0.272 OA
HETATM    8  N4  UNL     1      -1.052   1.595  -1.141  1.00  0.00    -0.126 N 
ATOM      9  H4  UNL     1      -1.298   1.876  -2.090  1.00  0.00     0.206 HD
ENDROOT
BRANCH   8  10
HETATM   10  N5  UNL     1       0.238   1.900  -0.826  1.00  0.00    -0.237 N 
HETATM   11  C9  UNL     1       1.354   1.145  -1.291  1.00  0.00     0.339 C 
HETATM   12  O2  UNL     1       1.193   0.034  -1.927  1.00  0.00    -0.245 OA
HETATM   13  N6  UNL     1       2.690   1.599  -1.095  1.00  0.00    -0.317 N 
ATOM     14  H6  UNL     1       2.845   2.483  -0.610  1.00  0.00     0.170 HD
ATOM     15  H5  UNL     1       0.414   2.708  -0.228  1.00  0.00     0.192 HD
BRANCH  13  16
HETATM   16  C10 UNL     1       3.802   0.867  -1.550  1.00  0.00     0.104 C 
BRANCH  16  17
HETATM   17  C11 UNL     1       4.631   0.135  -0.584  1.00  0.00    -0.021 A 
HETATM   18  C12 UNL     1       5.004   0.772   0.620  1.00  0.00     0.013 A 
HETATM   19  C13 UNL     1       5.934   0.193   1.479  1.00  0.00     0.007 A 
HETATM   20  C14 UNL     1       6.520  -1.017   1.196  1.00  0.00    -0.062 A 
HETATM   21  C15 UNL     1       7.583  -1.577   2.092  1.00  0.00     0.048 C 
HETATM   22  C16 UNL     1       6.139  -1.643   0.014  1.00  0.00     0.007 A 
HETATM   23  C17 UNL     1       5.221  -1.081  -0.850  1.00  0.00     0.013 A 
ENDBRANCH  16  17
ENDBRANCH  13  16
ENDBRANCH   8  10
BRANCH   1  24
HETATM   24  N1  UNL     1      -3.504   2.463   1.088  1.00  0.00    -0.303 NA
BRANCH  24  25
HETATM   25  C2  UNL     1      -3.888   3.063   2.028  1.00  0.00     0.174 C 
HETATM   26  C1  UNL     1      -5.029   4.072   1.847  1.00  0.00     0.101 C 
HETATM   27 CL1  UNL     1      -3.333   2.956   3.708  1.00  0.00    -0.052 Cl
ENDBRANCH  24  25
ENDBRANCH   1  24
BRANCH   6  28
HETATM   28  C5  UNL     1      -4.004  -2.115  -0.547  1.00  0.00     0.031 C 
HETATM   29  C6  UNL     1      -5.101  -2.671   0.293  1.00  0.00     0.025 C 
HETATM   30  C7  UNL     1      -4.518  -1.687  -1.922  1.00  0.00     0.025 C 
HETATM   31  C8  UNL     1      -2.928  -3.177  -0.722  1.00  0.00     0.025 C 
ENDBRANCH   6  28
TORSDOF 6
