REMARK  14 active torsions:
REMARK  status: ('A' for Active; 'I' for Inactive)
REMARK    1  A    between atoms: C3_3  and  C4_4 
REMARK    2  A    between atoms: C4_4  and  C5_5 
REMARK    3  A    between atoms: C7_7  and  C8_8 
REMARK    4  A    between atoms: C8_8  and  C9_9 
REMARK    5  A    between atoms: C9_9  and  N1_10 
REMARK    6  A    between atoms: C13_19  and  C14_20 
REMARK    7  A    between atoms: N5_24  and  C17_25 
REMARK    8  A    between atoms: C17_25  and  C18_26 
REMARK    9  A    between atoms: C18_26  and  C19_27 
REMARK   10  A    between atoms: C19_27  and  C20_28 
REMARK   11  A    between atoms: C20_28  and  C21_29 
REMARK   12  A    between atoms: C21_29  and  C22_30 
REMARK   13  A    between atoms: C22_30  and  C23_31 
REMARK   14  A    between atoms: C23_31  and  N6_32 
ROOT
HETATM    1  C1  UNL     1      -1.990  -1.178  -2.481  1.00  0.00     0.044 C 
HETATM    2  C2  UNL     1      -1.442  -1.854  -1.466  1.00  0.00     0.036 A 
HETATM    3  C3  UNL     1      -0.001  -1.727  -0.993  1.00  0.00     0.007 A 
HETATM    4  C13 UNL     1       0.142  -2.644  -0.052  1.00  0.00     0.036 A 
HETATM    5  C15 UNL     1      -1.166  -3.344   0.094  1.00  0.00     0.022 A 
HETATM    6  C16 UNL     1      -1.395  -4.424   1.080  1.00  0.00     0.069 C 
HETATM    7  N5  UNL     1      -2.030  -2.873  -0.713  1.00  0.00    -0.350 N 
ENDROOT
BRANCH   3   8
HETATM    8  C4  UNL     1       0.809  -0.671  -1.491  1.00  0.00     0.044 C 
BRANCH   8   9
HETATM    9  C5  UNL     1       2.031  -0.235  -1.525  1.00  0.00     0.034 A 
HETATM   10  C6  UNL     1       3.235  -0.640  -1.056  1.00  0.00     0.039 A 
HETATM   11  C7  UNL     1       4.218   0.305  -1.295  1.00  0.00    -0.029 A 
HETATM   12  C11 UNL     1       3.585   1.313  -1.933  1.00  0.00     0.029 A 
HETATM   13  C12 UNL     1       4.167   2.417  -2.379  1.00  0.00     0.043 C 
HETATM   14  N4  UNL     1       2.301   1.009  -2.075  1.00  0.00    -0.356 N 
ATOM     15  H4  UNL     1       1.609   1.607  -2.526  1.00  0.00     0.166 HD
BRANCH  11  16
HETATM   16  C8  UNL     1       5.646   0.170  -0.851  1.00  0.00     0.060 C 
BRANCH  16  17
HETATM   17  C9  UNL     1       5.932   0.773   0.476  1.00  0.00     0.126 C 
BRANCH  17  18
HETATM   18  N1  UNL     1       5.688   2.162   0.629  1.00  0.00    -0.367 N 
HETATM   19  C10 UNL     1       6.152   2.840   1.611  1.00  0.00     0.196 C 
HETATM   20  N2  UNL     1       5.925   4.230   1.791  1.00  0.00    -0.067 NA
HETATM   21  N3  UNL     1       6.947   2.147   2.575  1.00  0.00    -0.067 NA
ATOM     22  H1  UNL     1       5.120   2.640  -0.071  1.00  0.00     0.161 HD
ENDBRANCH  17  18
ENDBRANCH  16  17
ENDBRANCH  11  16
ENDBRANCH   8   9
ENDBRANCH   3   8
BRANCH   4  23
HETATM   23  C14 UNL     1       1.281  -2.988   0.764  1.00  0.00     0.272 C 
HETATM   24  O1  UNL     1       1.180  -3.953   1.608  1.00  0.00    -0.301 OA
ENDBRANCH   4  23
BRANCH   7  25
HETATM   25  C17 UNL     1      -3.438  -3.271  -0.753  1.00  0.00     0.129 C 
BRANCH  25  26
HETATM   26  C18 UNL     1      -4.316  -2.439   0.076  1.00  0.00     0.020 C 
BRANCH  26  27
HETATM   27  C19 UNL     1      -4.415  -0.972  -0.151  1.00  0.00     0.002 C 
BRANCH  27  28
HETATM   28  C20 UNL     1      -5.437  -0.444   0.851  1.00  0.00     0.000 C 
BRANCH  28  29
HETATM   29  C21 UNL     1      -5.645   1.035   0.707  1.00  0.00     0.002 C 
BRANCH  29  30
HETATM   30  C22 UNL     1      -4.403   1.839   0.910  1.00  0.00     0.027 C 
BRANCH  30  31
HETATM   31  C23 UNL     1      -4.782   3.314   0.723  1.00  0.00     0.229 C 
BRANCH  31  32
HETATM   32  N6  UNL     1      -3.620   4.161   0.908  1.00  0.00    -0.079 N 
ATOM     33  H63 UNL     1      -3.169   3.996   1.808  1.00  0.00     0.274 HD
ATOM     34  H62 UNL     1      -2.849   3.887   0.299  1.00  0.00     0.274 HD
ATOM     35  H61 UNL     1      -3.872   5.142   0.784  1.00  0.00     0.274 HD
ENDBRANCH  31  32
ENDBRANCH  30  31
ENDBRANCH  29  30
ENDBRANCH  28  29
ENDBRANCH  27  28
ENDBRANCH  26  27
ENDBRANCH  25  26
ENDBRANCH   7  25
TORSDOF 14
