REMARK  11 active torsions:
REMARK  status: ('A' for Active; 'I' for Inactive)
REMARK    1  A    between atoms: N2_5  and  C4_6 
REMARK    2  A    between atoms: C4_6  and  C5_7 
REMARK    3  A    between atoms: C5_7  and  C6_8 
REMARK    4  A    between atoms: C6_8  and  N3_9 
REMARK    5  A    between atoms: N3_9  and  C7_10 
REMARK    6  A    between atoms: C7_10  and  C8_11 
REMARK    7  A    between atoms: C8_11  and  N4_12 
REMARK    8  A    between atoms: N4_12  and  C9_15 
REMARK    9  A    between atoms: C9_15  and  C10_16 
REMARK   10  A    between atoms: C10_16  and  C11_17 
REMARK   11  A    between atoms: C11_17  and  N5_18 
REMARK       I    between atoms: N5_18  and  C12_20 
REMARK       I    between atoms: C12_20  and  N6_22 
ROOT
HETATM    1  N5  UNL     1       6.484   3.051  -0.526  1.00  0.00    -0.342 N 
ATOM      2  H5  UNL     1       6.591   4.017  -0.216  1.00  0.00     0.164 HD
HETATM    3  C12 UNL     1       7.023   2.699  -1.792  1.00  0.00     0.329 C 
HETATM    4  O1  UNL     1       6.937   1.522  -2.254  1.00  0.00    -0.246 OA
HETATM    5  N6  UNL     1       7.689   3.660  -2.603  1.00  0.00    -0.245 N 
ATOM      6  H6  UNL     1       7.777   4.618  -2.263  1.00  0.00     0.183 HD
HETATM    7  C13 UNL     1       8.227   3.333  -3.852  1.00  0.00     0.185 C 
HETATM    8  N7  UNL     1       8.683   3.057  -4.868  1.00  0.00    -0.172 NA
ENDROOT
BRANCH   1   9
HETATM    9  C11 UNL     1       5.800   2.141   0.345  1.00  0.00     0.126 C 
BRANCH   9  10
HETATM   10  C10 UNL     1       4.568   1.542  -0.248  1.00  0.00     0.047 C 
BRANCH  10  11
HETATM   11  C9  UNL     1       3.935   0.602   0.763  1.00  0.00     0.234 C 
BRANCH  11  12
HETATM   12  N4  UNL     1       2.733   0.014   0.198  1.00  0.00    -0.073 N 
ATOM     13  H42 UNL     1       2.920  -0.442  -0.695  1.00  0.00     0.277 HD
ATOM     14  H41 UNL     1       2.081   0.727  -0.127  1.00  0.00     0.277 HD
BRANCH  12  15
HETATM   15  C8  UNL     1       2.105  -0.899   1.151  1.00  0.00     0.260 C 
BRANCH  15  16
HETATM   16  C7  UNL     1       0.884  -1.447   0.500  1.00  0.00     0.264 C 
BRANCH  16  17
HETATM   17  N3  UNL     1       0.090  -2.351   1.263  1.00  0.00    -0.065 N 
HETATM   18  C14 UNL     1       0.955  -3.120   2.191  1.00  0.00     0.237 C 
HETATM   19  C15 UNL     1       1.561  -4.222   1.387  1.00  0.00     0.029 C 
HETATM   20  C16 UNL     1       0.380  -4.613   0.513  1.00  0.00     0.029 C 
HETATM   21  C17 UNL     1      -0.450  -3.365   0.377  1.00  0.00     0.237 C 
BRANCH  17  22
HETATM   22  C6  UNL     1      -0.873  -1.728   2.111  1.00  0.00     0.239 C 
BRANCH  22  23
HETATM   23  C5  UNL     1      -1.707  -0.636   1.580  1.00  0.00     0.056 C 
BRANCH  23  24
HETATM   24  C4  UNL     1      -2.561  -1.062   0.443  1.00  0.00     0.239 C 
BRANCH  24  25
HETATM   25  N2  UNL     1      -3.406   0.001  -0.071  1.00  0.00    -0.062 N 
HETATM   26  C3  UNL     1      -4.739  -0.547  -0.213  1.00  0.00     0.265 C 
HETATM   27  C2  UNL     1      -5.706   0.418  -0.857  1.00  0.00     0.265 C 
HETATM   28  N1  UNL     1      -4.968   1.661  -1.064  1.00  0.00    -0.066 N 
HETATM   29  C1  UNL     1      -5.874   2.632  -1.595  1.00  0.00     0.272 C 
HETATM   30  C19 UNL     1      -3.921   1.367  -2.017  1.00  0.00     0.265 C 
HETATM   31  C21 UNL     1      -4.464   2.119   0.202  1.00  0.00     0.265 C 
HETATM   32  C18 UNL     1      -2.895   0.521  -1.321  1.00  0.00     0.265 C 
HETATM   33  C20 UNL     1      -3.506   1.125   0.839  1.00  0.00     0.265 C 
ENDBRANCH  24  25
ENDBRANCH  23  24
ENDBRANCH  22  23
ENDBRANCH  17  22
ENDBRANCH  16  17
ENDBRANCH  15  16
ENDBRANCH  12  15
ENDBRANCH  11  12
ENDBRANCH  10  11
ENDBRANCH   9  10
ENDBRANCH   1   9
TORSDOF 11
