REMARK  3 active torsions:
REMARK  status: ('A' for Active; 'I' for Inactive)
REMARK    1  A    between atoms: N1_1  and  C1_4 
REMARK    2  A    between atoms: C7_11  and  N3_12 
REMARK    3  A    between atoms: N3_12  and  C8_14 
ROOT
HETATM    1  C1  UNL     1      -3.273   0.957   0.863  1.00  0.00     0.099 A 
HETATM    2  C2  UNL     1      -3.610  -0.385   0.805  1.00  0.00     0.049 A 
HETATM    3  C3  UNL     1      -2.718  -1.300   0.288  1.00  0.00     0.019 A 
HETATM    4  C4  UNL     1      -1.497  -0.840  -0.162  1.00  0.00     0.017 A 
HETATM    5  C5  UNL     1      -0.584  -1.727  -0.683  1.00  0.00     0.061 A 
HETATM    6  N2  UNL     1      -0.931  -3.107  -0.742  1.00  0.00    -0.101 NA
HETATM    7  C6  UNL     1       0.642  -1.281  -1.137  1.00  0.00     0.059 A 
HETATM    8  C7  UNL     1       0.940   0.078  -1.060  1.00  0.00     0.062 A 
HETATM    9  C10 UNL     1       0.039   0.977  -0.542  1.00  0.00     0.100 A 
HETATM   10  N5  UNL     1       0.367   2.347  -0.476  1.00  0.00    -0.098 NA
HETATM   11  C11 UNL     1      -1.178   0.524  -0.093  1.00  0.00     0.072 A 
HETATM   12  N6  UNL     1      -2.071   1.376   0.415  1.00  0.00    -0.341 N 
ATOM     13  H6  UNL     1      -1.839   2.368   0.466  1.00  0.00     0.167 HD
ENDROOT
BRANCH   8  14
HETATM   14  N3  UNL     1       2.189   0.568  -1.517  1.00  0.00    -0.334 N 
ATOM     15  H3  UNL     1       2.256   0.974  -2.450  1.00  0.00     0.168 HD
BRANCH  14  16
HETATM   16  C8  UNL     1       3.272   0.509  -0.755  1.00  0.00     0.157 A 
HETATM   17  N4  UNL     1       3.333   0.011   0.470  1.00  0.00    -0.321 N 
HETATM   18  C9  UNL     1       4.465   0.005   1.133  1.00  0.00     0.151 A 
ATOM     19  H4  UNL     1       2.492  -0.372   0.902  1.00  0.00     0.169 HD
HETATM   20  S1  UNL     1       4.672  -0.594   2.682  1.00  0.00    -0.052 SA
HETATM   21  S2  UNL     1       5.827   0.663   0.338  1.00  0.00    -0.020 SA
HETATM   22  S3  UNL     1       4.734   1.125  -1.390  1.00  0.00    -0.014 SA
ENDBRANCH  14  16
ENDBRANCH   8  14
BRANCH   1  23
HETATM   23  N1  UNL     1      -4.123   1.797   1.350  1.00  0.00    -0.385 N 
ATOM     24  H12 UNL     1      -5.032   1.480   1.689  1.00  0.00     0.157 HD
ATOM     25  H11 UNL     1      -3.875   2.785   1.393  1.00  0.00     0.157 HD
ENDBRANCH   1  23
TORSDOF 3
