REMARK  12 active torsions:
REMARK  status: ('A' for Active; 'I' for Inactive)
REMARK       I    between atoms: C2_2  and  N1_4 
REMARK    1  A    between atoms: N1_4  and  C3_6 
REMARK    2  A    between atoms: C4_7  and  O2_8 
REMARK    3  A    between atoms: O2_8  and  C5_9 
REMARK    4  A    between atoms: C11_16  and  C12_17 
REMARK    5  A    between atoms: C12_17  and  O4_18 
REMARK    6  A    between atoms: O4_18  and  C13_19 
REMARK    7  A    between atoms: C15_21  and  N2_22 
REMARK    8  A    between atoms: C16_26  and  O5_28 
REMARK    9  A    between atoms: C18_30  and  C19_31 
REMARK   10  A    between atoms: C19_31  and  O6_32 
REMARK   11  A    between atoms: C20_35  and  O8_36 
REMARK   12  A    between atoms: C21_38  and  O9_39 
ROOT
HETATM    1  C3  UNL     1      -2.494   1.976   0.631  1.00  0.00     0.170 C 
HETATM    2  C4  UNL     1      -2.261   0.508   0.497  1.00  0.00     0.286 C 
HETATM    3  O3  UNL     1      -0.895   0.291   0.192  1.00  0.00    -0.349 OA
HETATM    4  C11 UNL     1      -0.133   0.847   1.207  1.00  0.00     0.179 C 
HETATM    5  C20 UNL     1      -0.060   2.330   1.023  1.00  0.00     0.180 C 
HETATM    6  C21 UNL     1      -1.250   2.764   0.212  1.00  0.00     0.177 C 
ENDROOT
BRANCH   4   7
HETATM    7  C12 UNL     1       1.216   0.182   1.342  1.00  0.00     0.205 C 
BRANCH   7   8
HETATM    8  O4  UNL     1       1.963   0.288   0.172  1.00  0.00    -0.359 OA
BRANCH   8   9
HETATM    9  C13 UNL     1       3.211  -0.332   0.305  1.00  0.00     0.262 C 
HETATM   10  C14 UNL     1       4.245   0.723   0.091  1.00  0.00     0.096 C 
HETATM   11  C15 UNL     1       5.626   0.161   0.121  1.00  0.00     0.224 C 
HETATM   12  C16 UNL     1       5.602  -1.311  -0.185  1.00  0.00     0.110 C 
HETATM   13  C17 UNL     1       6.895  -1.857  -0.699  1.00  0.00     0.051 C 
HETATM   14  C18 UNL     1       4.479  -1.720  -1.072  1.00  0.00     0.184 C 
HETATM   15  O7  UNL     1       3.228  -1.384  -0.568  1.00  0.00    -0.351 OA
BRANCH  11  16
HETATM   16  N2  UNL     1       6.436   0.914  -0.822  1.00  0.00    -0.072 N 
ATOM     17  H23 UNL     1       6.037   0.931  -1.760  1.00  0.00     0.274 HD
ATOM     18  H22 UNL     1       6.414   1.919  -0.647  1.00  0.00     0.274 HD
ATOM     19  H21 UNL     1       7.381   0.530  -0.801  1.00  0.00     0.274 HD
ENDBRANCH  11  16
BRANCH  12  20
HETATM   20  O5  UNL     1       5.376  -1.954   1.057  1.00  0.00    -0.385 OA
ATOM     21  H5  UNL     1       5.361  -2.884   0.864  1.00  0.00     0.210 HD
ENDBRANCH  12  20
BRANCH  14  22
HETATM   22  C19 UNL     1       4.582  -1.255  -2.497  1.00  0.00     0.199 C 
BRANCH  22  23
HETATM   23  O6  UNL     1       5.800  -1.545  -3.101  1.00  0.00    -0.398 OA
ATOM     24  H6  UNL     1       5.865  -1.251  -4.002  1.00  0.00     0.209 HD
ENDBRANCH  22  23
ENDBRANCH  14  22
ENDBRANCH   8   9
ENDBRANCH   7   8
ENDBRANCH   4   7
BRANCH   5  25
HETATM   25  O8  UNL     1      -0.141   2.943   2.265  1.00  0.00    -0.390 OA
ATOM     26  H8  UNL     1      -0.095   3.885   2.148  1.00  0.00     0.210 HD
ENDBRANCH   5  25
BRANCH   2  27
HETATM   27  O2  UNL     1      -2.968  -0.108  -0.519  1.00  0.00    -0.354 OA
BRANCH  27  28
HETATM   28  C5  UNL     1      -3.643  -1.196  -0.004  1.00  0.00     0.124 C 
HETATM   29  C6  UNL     1      -3.166  -2.502  -0.608  1.00  0.00     0.032 C 
HETATM   30  C7  UNL     1      -4.153  -3.577  -0.231  1.00  0.00     0.002 C 
HETATM   31  C8  UNL     1      -5.033  -3.164   0.923  1.00  0.00     0.000 C 
HETATM   32  C9  UNL     1      -5.937  -2.025   0.479  1.00  0.00     0.002 C 
HETATM   33  C10 UNL     1      -5.121  -1.012  -0.282  1.00  0.00     0.032 C 
ENDBRANCH  27  28
ENDBRANCH   2  27
BRANCH   6  34
HETATM   34  O9  UNL     1      -1.045   2.695  -1.151  1.00  0.00    -0.391 OA
ATOM     35  H9  UNL     1      -0.273   3.184  -1.411  1.00  0.00     0.210 HD
ENDBRANCH   6  34
BRANCH   1  36
HETATM   36  N1  UNL     1      -3.614   2.463  -0.108  1.00  0.00    -0.349 N 
HETATM   37  C2  UNL     1      -4.660   3.142   0.564  1.00  0.00     0.214 C 
HETATM   38  C1  UNL     1      -5.840   3.662  -0.170  1.00  0.00     0.117 C 
HETATM   39  O1  UNL     1      -4.621   3.325   1.810  1.00  0.00    -0.274 OA
ATOM     40  H1  UNL     1      -3.661   2.322  -1.117  1.00  0.00     0.163 HD
ENDBRANCH   1  36
TORSDOF 12
