REMARK  7 active torsions:
REMARK  status: ('A' for Active; 'I' for Inactive)
REMARK       I    between atoms: N1_1  and  C1_4 
REMARK       I    between atoms: C1_4  and  N3_6 
REMARK    1  A    between atoms: N3_6  and  C2_8 
REMARK    2  A    between atoms: C3_13  and  N6_14 
REMARK    3  A    between atoms: N6_14  and  C4_16 
REMARK    4  A    between atoms: C4_16  and  C5_17 
REMARK    5  A    between atoms: C5_17  and  S1_18 
REMARK    6  A    between atoms: S1_18  and  N7_19 
REMARK       I    between atoms: N8_24  and  C6_25 
REMARK       I    between atoms: C6_25  and  N9_27 
REMARK    7  A    between atoms: N9_27  and  N10_29 
ROOT
HETATM    1  C2  UNL     1       2.229  -0.230  -0.080  1.00  0.00     0.725 A 
HETATM    2  N4  UNL     1       1.571  -1.380  -0.289  1.00  0.00    -0.116 N 
ATOM      3  H4  UNL     1       2.028  -2.289  -0.357  1.00  0.00     0.206 HD
HETATM    4  N5  UNL     1       0.283  -1.207  -0.396  1.00  0.00    -0.117 N 
ATOM      5  H5  UNL     1      -0.426  -1.922  -0.556  1.00  0.00     0.206 HD
HETATM    6  C3  UNL     1       0.087   0.135  -0.249  1.00  0.00     0.718 A 
HETATM    7  N8  UNL     1       1.267   0.745  -0.054  1.00  0.00     0.080 N 
HETATM    8  C6  UNL     1       1.575   2.116   0.148  1.00  0.00     0.376 C 
HETATM    9  O3  UNL     1       2.795   2.473   0.314  1.00  0.00    -0.243 OA
HETATM   10  N9  UNL     1       0.630   3.138   0.181  1.00  0.00    -0.257 N 
ATOM     11  H9  UNL     1      -0.359   2.921   0.055  1.00  0.00     0.191 HD
ENDROOT
BRANCH   6  12
HETATM   12  N6  UNL     1      -1.076   0.686  -0.296  1.00  0.00    -0.223 N 
ATOM     13  H6  UNL     1      -1.154   1.696  -0.177  1.00  0.00     0.177 HD
BRANCH  12  14
HETATM   14  C4  UNL     1      -2.268  -0.091  -0.512  1.00  0.00     0.154 C 
BRANCH  14  15
HETATM   15  C5  UNL     1      -2.882  -0.574   0.781  1.00  0.00     0.183 C 
BRANCH  15  16
HETATM   16  S1  UNL     1      -4.337  -1.515   0.404  1.00  0.00     0.226 S 
HETATM   17  O1  UNL     1      -4.952  -2.009   1.696  1.00  0.00    -0.206 OA
HETATM   18  O2  UNL     1      -3.931  -2.708  -0.401  1.00  0.00    -0.206 OA
BRANCH  16  19
HETATM   19  N7  UNL     1      -5.473  -0.537  -0.443  1.00  0.00    -0.328 N 
ATOM     20  H72 UNL     1      -5.317   0.441  -0.686  1.00  0.00     0.168 HD
ATOM     21  H71 UNL     1      -6.310  -1.078  -0.660  1.00  0.00     0.168 HD
ENDBRANCH  16  19
ENDBRANCH  15  16
ENDBRANCH  14  15
ENDBRANCH  12  14
ENDBRANCH   6  12
BRANCH   1  22
HETATM   22  N3  UNL     1       3.508  -0.056   0.070  1.00  0.00    -0.161 N 
HETATM   23  C1  UNL     1       4.332  -1.211   0.008  1.00  0.00     0.200 C 
HETATM   24  N1  UNL     1       5.180  -1.273  -0.975  1.00  0.00    -0.373 N 
HETATM   25  N2  UNL     1       4.289  -2.274   0.928  1.00  0.00    -0.063 NA
ATOM     26  H12 UNL     1       5.772  -2.103  -1.020  1.00  0.00     0.158 HD
ATOM     27  H11 UNL     1       5.211  -0.502  -1.642  1.00  0.00     0.158 HD
ATOM     28  H3  UNL     1       3.904   0.871   0.226  1.00  0.00     0.187 HD
ENDBRANCH   1  22
BRANCH  10  29
HETATM   29  N10 UNL     1       1.042   4.492   0.391  1.00  0.00    -0.341 N 
ATOM     30 2H10 UNL     1       2.034   4.692   0.515  1.00  0.00     0.177 HD
ATOM     31 1H10 UNL     1       0.350   5.241   0.415  1.00  0.00     0.177 HD
ENDBRANCH  10  29
TORSDOF 7
