REMARK  3 active torsions:
REMARK  status: ('A' for Active; 'I' for Inactive)
REMARK    1  A    between atoms: N3_11  and  C6_12 
REMARK    2  A    between atoms: C9_15  and  N4_16 
REMARK       I    between atoms: N4_16  and  C10_18 
REMARK       I    between atoms: C10_18  and  N5_19 
REMARK       I    between atoms: C10_18  and  N6_23 
REMARK    3  A    between atoms: N6_23  and  N7_24 
ROOT
HETATM    1  C1  UNL     1       2.955  -3.627  -2.051  1.00  0.00     0.021 C 
HETATM    2  C2  UNL     1       2.549  -2.608  -1.553  1.00  0.00    -0.041 C 
HETATM    3  C3  UNL     1       2.084  -1.386  -0.962  1.00  0.00     0.163 A 
HETATM    4  N1  UNL     1       2.857  -0.290  -0.869  1.00  0.00    -0.319 N 
ATOM      5  H1  UNL     1       3.809  -0.328  -1.232  1.00  0.00     0.169 HD
HETATM    6  C4  UNL     1       2.421   0.855  -0.315  1.00  0.00     0.142 A 
HETATM    7  N2  UNL     1       2.952   2.066  -0.095  1.00  0.00    -0.292 N 
ATOM      8  H2  UNL     1       3.898   2.353  -0.344  1.00  0.00     0.172 HD
HETATM    9  C5  UNL     1       2.026   2.847   0.513  1.00  0.00     0.328 A 
HETATM   10  O1  UNL     1       2.275   4.039   0.831  1.00  0.00    -0.246 OA
HETATM   11  N3  UNL     1       0.894   2.139   0.686  1.00  0.00    -0.293 N 
HETATM   12  C8  UNL     1       1.124   0.921   0.184  1.00  0.00     0.127 A 
HETATM   13  C9  UNL     1       0.328  -0.198   0.091  1.00  0.00     0.137 A 
HETATM   14  N8  UNL     1       0.832  -1.316  -0.478  1.00  0.00    -0.320 N 
ATOM     15  H8  UNL     1       0.237  -2.142  -0.543  1.00  0.00     0.169 HD
ENDROOT
BRANCH  13  16
HETATM   16  N4  UNL     1      -0.855  -0.171   0.533  1.00  0.00    -0.333 N 
HETATM   17  C10 UNL     1      -1.843  -1.195   0.543  1.00  0.00     0.397 C 
HETATM   18  N5  UNL     1      -1.491  -2.368   1.318  1.00  0.00    -0.042 N 
HETATM   19  N6  UNL     1      -2.233  -1.567  -0.803  1.00  0.00    -0.093 NA
ATOM     20  H53 UNL     1      -0.595  -2.743   1.005  1.00  0.00     0.278 HD
ATOM     21  H52 UNL     1      -1.247  -2.102   2.272  1.00  0.00     0.278 HD
ATOM     22  H51 UNL     1      -2.199  -3.102   1.325  1.00  0.00     0.278 HD
ATOM     23  H4  UNL     1      -1.145   0.716   0.944  1.00  0.00     0.164 HD
BRANCH  19  24
HETATM   24  N7  UNL     1      -3.191  -2.561  -0.817  1.00  0.00    -0.345 N 
ATOM     25  H72 UNL     1      -3.572  -2.977   0.033  1.00  0.00     0.172 HD
ATOM     26  H71 UNL     1      -3.465  -2.823  -1.764  1.00  0.00     0.172 HD
ENDBRANCH  19  24
ENDBRANCH  13  16
BRANCH  11  27
HETATM   27  C6  UNL     1      -0.280   2.637   1.287  1.00  0.00     0.130 C 
HETATM   28  C7  UNL     1      -1.198   3.253   0.217  1.00  0.00     0.027 C 
ENDBRANCH  11  27
TORSDOF 3
