REMARK  10 active torsions:
REMARK  status: ('A' for Active; 'I' for Inactive)
REMARK    1  A    between atoms: C2_2  and  C3_3 
REMARK    2  A    between atoms: C3_3  and  C4_4 
REMARK    3  A    between atoms: C4_4  and  C5_5 
REMARK    4  A    between atoms: C7_10  and  C8_11 
REMARK    5  A    between atoms: C8_11  and  C9_12 
REMARK    6  A    between atoms: C15_21  and  C16_22 
REMARK    7  A    between atoms: C20_29  and  N4_30 
REMARK       I    between atoms: N4_30  and  C21_32 
REMARK    8  A    between atoms: C24_36  and  C25_37 
REMARK    9  A    between atoms: C25_37  and  C26_38 
REMARK   10  A    between atoms: C31_43  and  N5_44 
ROOT
HETATM    1  C5  UNL     1       0.914   0.116  -0.350  1.00  0.00     0.089 C 
HETATM    2  N1  UNL     1       0.317   1.233  -1.093  1.00  0.00    -0.354 N 
ATOM      3  H1  UNL     1       0.879   2.076  -1.210  1.00  0.00     0.162 HD
HETATM    4  C6  UNL     1      -0.984   1.227  -1.661  1.00  0.00     0.240 C 
HETATM    5  O1  UNL     1      -1.142   1.542  -2.897  1.00  0.00    -0.271 OA
HETATM    6  C7  UNL     1      -2.239   0.885  -0.966  1.00  0.00     0.177 C 
HETATM    7  N2  UNL     1      -3.174   0.267  -1.902  1.00  0.00    -0.348 N 
ATOM      8  H2  UNL     1      -3.187   0.637  -2.852  1.00  0.00     0.163 HD
HETATM    9  C12 UNL     1      -4.055  -0.785  -1.621  1.00  0.00     0.218 C 
HETATM   10  O2  UNL     1      -5.299  -0.552  -1.831  1.00  0.00    -0.274 OA
HETATM   11  C13 UNL     1      -3.730  -2.132  -1.114  1.00  0.00     0.108 C 
HETATM   12  C14 UNL     1      -4.022  -2.363   0.321  1.00  0.00     0.062 C 
HETATM   13  C15 UNL     1      -2.859  -2.595   1.213  1.00  0.00    -0.007 C 
HETATM   14  N3  UNL     1      -1.795  -3.096   0.905  1.00  0.00    -0.332 N 
ATOM     15  H3  UNL     1      -1.290  -3.068   1.791  1.00  0.00     0.168 HD
HETATM   16  C19 UNL     1      -0.892  -3.662   0.096  1.00  0.00     0.244 C 
HETATM   17  O3  UNL     1      -1.095  -4.699  -0.598  1.00  0.00    -0.271 OA
HETATM   18  C20 UNL     1       0.527  -3.107  -0.085  1.00  0.00     0.177 C 
HETATM   19  C23 UNL     1       0.501  -2.147  -1.165  1.00  0.00     0.042 C 
HETATM   20  C24 UNL     1       1.452  -0.965  -1.175  1.00  0.00     0.016 C 
ENDROOT
BRANCH  20  21
HETATM   21  C25 UNL     1       2.858  -1.318  -1.310  1.00  0.00     0.064 C 
BRANCH  21  22
HETATM   22  C26 UNL     1       3.799  -0.336  -1.865  1.00  0.00     0.011 A 
HETATM   23  C27 UNL     1       3.910  -0.215  -3.262  1.00  0.00     0.032 A 
HETATM   24  C28 UNL     1       4.789   0.636  -3.873  1.00  0.00    -0.057 A 
HETATM   25  C29 UNL     1       4.874   0.732  -5.365  1.00  0.00     0.048 C 
HETATM   26  C30 UNL     1       5.618   1.424  -3.110  1.00  0.00     0.054 A 
HETATM   27  C31 UNL     1       5.513   1.308  -1.745  1.00  0.00     0.099 A 
HETATM   28  N6  UNL     1       4.625   0.449  -1.180  1.00  0.00    -0.346 N 
ATOM     29  H6  UNL     1       4.590   0.403  -0.162  1.00  0.00     0.167 HD
BRANCH  27  30
HETATM   30  N5  UNL     1       6.276   2.033  -1.008  1.00  0.00    -0.385 N 
ATOM     31  H52 UNL     1       6.943   2.678  -1.432  1.00  0.00     0.157 HD
ATOM     32  H51 UNL     1       6.198   1.947   0.005  1.00  0.00     0.157 HD
ENDBRANCH  27  30
ENDBRANCH  21  22
ENDBRANCH  20  21
BRANCH   1  33
HETATM   33  C4  UNL     1       1.702   0.689   0.767  1.00  0.00     0.025 C 
BRANCH  33  34
HETATM   34  C3  UNL     1       0.713   1.472   1.659  1.00  0.00     0.002 C 
BRANCH  34  35
HETATM   35  C2  UNL     1       1.424   2.089   2.824  1.00  0.00    -0.004 C 
HETATM   36  C1  UNL     1       0.401   2.834   3.646  1.00  0.00     0.005 C 
ENDBRANCH  34  35
ENDBRANCH  33  34
ENDBRANCH   1  33
BRANCH  18  37
HETATM   37  N4  UNL     1       0.935  -2.749   1.219  1.00  0.00    -0.348 N 
HETATM   38  C21 UNL     1       2.009  -3.391   1.891  1.00  0.00     0.214 C 
HETATM   39  C22 UNL     1       2.445  -3.025   3.255  1.00  0.00     0.117 C 
HETATM   40  O4  UNL     1       2.637  -4.322   1.311  1.00  0.00    -0.274 OA
ATOM     41  H4  UNL     1       0.438  -1.998   1.698  1.00  0.00     0.163 HD
ENDBRANCH  18  37
BRANCH   6  42
HETATM   42  C8  UNL     1      -2.876   1.947  -0.160  1.00  0.00     0.038 C 
BRANCH  42  43
HETATM   43  C9  UNL     1      -3.318   3.197  -0.825  1.00  0.00    -0.020 C 
HETATM   44  C10 UNL     1      -3.983   4.132   0.229  1.00  0.00     0.009 C 
HETATM   45  C11 UNL     1      -2.227   4.041  -1.435  1.00  0.00     0.009 C 
ENDBRANCH  42  43
ENDBRANCH   6  42
BRANCH  13  46
HETATM   46  C16 UNL     1      -3.090  -2.133   2.642  1.00  0.00     0.023 C 
HETATM   47  C17 UNL     1      -3.339  -0.662   2.729  1.00  0.00     0.016 C 
HETATM   48  C18 UNL     1      -2.019  -2.519   3.592  1.00  0.00     0.016 C 
ENDBRANCH  13  46
TORSDOF 10
