REMARK  7 active torsions:
REMARK  status: ('A' for Active; 'I' for Inactive)
REMARK    1  A    between atoms: C2_2  and  N1_3 
REMARK    2  A    between atoms: C2_2  and  C8_12 
REMARK    3  A    between atoms: N1_3  and  C3_5 
REMARK    4  A    between atoms: C9_13  and  C10_14 
REMARK    5  A    between atoms: C13_17  and  N3_18 
REMARK       I    between atoms: N3_18  and  C14_20 
REMARK       I    between atoms: C14_20  and  N4_22 
REMARK    6  A    between atoms: N4_22  and  C15_24 
REMARK    7  A    between atoms: C20_29  and  N5_30 
ROOT
HETATM    1  C8  UNL     1      -2.981  -1.969   0.390  1.00  0.00     0.067 A 
HETATM    2  C9  UNL     1      -1.949  -1.949  -0.488  1.00  0.00     0.069 A 
HETATM    3  N6  UNL     1      -2.455  -2.421  -1.673  1.00  0.00    -0.340 N 
ATOM      4  H6  UNL     1      -1.935  -2.535  -2.543  1.00  0.00     0.167 HD
HETATM    5  C23 UNL     1      -3.748  -2.706  -1.490  1.00  0.00     0.112 A 
HETATM    6  C24 UNL     1      -4.700  -3.188  -2.378  1.00  0.00     0.049 A 
HETATM    7  C25 UNL     1      -6.017  -3.401  -1.996  1.00  0.00     0.005 A 
HETATM    8  C26 UNL     1      -6.338  -3.115  -0.698  1.00  0.00     0.018 A 
HETATM    9  C27 UNL     1      -5.388  -2.642   0.164  1.00  0.00     0.099 A 
HETATM   10  N7  UNL     1      -4.123  -2.445  -0.228  1.00  0.00    -0.308 N 
ENDROOT
BRANCH   2  11
HETATM   11  C10 UNL     1      -0.518  -1.615  -0.387  1.00  0.00    -0.007 A 
HETATM   12  C11 UNL     1      -0.020  -0.545   0.241  1.00  0.00     0.016 A 
HETATM   13  C12 UNL     1       1.363  -0.305   0.219  1.00  0.00     0.030 A 
HETATM   14  C13 UNL     1       2.256  -1.118  -0.419  1.00  0.00     0.036 A 
HETATM   15  C21 UNL     1       1.723  -2.228  -1.062  1.00  0.00     0.030 A 
HETATM   16  C22 UNL     1       0.391  -2.472  -1.050  1.00  0.00     0.016 A 
BRANCH  14  17
HETATM   17  N3  UNL     1       3.645  -0.910  -0.539  1.00  0.00    -0.309 N 
HETATM   18  C14 UNL     1       4.185   0.411  -0.532  1.00  0.00     0.325 C 
HETATM   19  O1  UNL     1       3.344   1.344  -0.432  1.00  0.00    -0.247 OA
HETATM   20  N4  UNL     1       5.544   0.703  -0.624  1.00  0.00    -0.306 N 
ATOM     21  H4  UNL     1       6.189  -0.083  -0.700  1.00  0.00     0.171 HD
ATOM     22  H3  UNL     1       4.270  -1.711  -0.632  1.00  0.00     0.170 HD
BRANCH  20  23
HETATM   23  C15 UNL     1       6.099   2.000  -0.621  1.00  0.00     0.069 A 
HETATM   24  C16 UNL     1       5.352   3.115  -0.821  1.00  0.00     0.032 A 
HETATM   25  C17 UNL     1       5.886   4.412  -0.866  1.00  0.00     0.002 A 
HETATM   26  C18 UNL     1       7.234   4.582  -0.701  1.00  0.00     0.003 A 
HETATM   27  C19 UNL     1       8.005   3.471  -0.498  1.00  0.00     0.038 A 
HETATM   28  C20 UNL     1       7.476   2.179  -0.453  1.00  0.00     0.129 A 
BRANCH  28  29
HETATM   29  N5  UNL     1       8.376   1.135  -0.239  1.00  0.00    -0.113 N 
HETATM   30  O2  UNL     1       9.562   1.311  -0.683  1.00  0.00    -0.532 OA
HETATM   31  O3  UNL     1       8.111  -0.045   0.383  1.00  0.00    -0.532 OA
ENDBRANCH  28  29
ENDBRANCH  20  23
ENDBRANCH  14  17
ENDBRANCH   2  11
BRANCH   1  32
HETATM   32  C2  UNL     1      -2.956  -1.399   1.764  1.00  0.00     0.130 C 
HETATM   33  C1  UNL     1      -3.652  -2.480   2.658  1.00  0.00     0.039 C 
BRANCH  32  34
HETATM   34  N1  UNL     1      -3.814  -0.249   1.958  1.00  0.00    -0.379 N 
ATOM     35  H1  UNL     1      -4.595  -0.447   2.584  1.00  0.00     0.160 HD
BRANCH  34  36
HETATM   36  C3  UNL     1      -3.825   1.067   1.491  1.00  0.00     0.044 A 
HETATM   37  C4  UNL     1      -3.251   1.536   0.335  1.00  0.00     0.032 A 
HETATM   38  C5  UNL     1      -3.309   2.883  -0.027  1.00  0.00     0.019 A 
HETATM   39  C6  UNL     1      -3.962   3.750   0.806  1.00  0.00     0.088 A 
HETATM   40  N2  UNL     1      -4.524   3.287   1.940  1.00  0.00    -0.373 N 
HETATM   41  C7  UNL     1      -4.489   2.021   2.314  1.00  0.00     0.116 A 
ATOM     42  H2  UNL     1      -5.004   3.953   2.545  1.00  0.00     0.164 HD
ENDBRANCH  34  36
ENDBRANCH  32  34
ENDBRANCH   1  32
TORSDOF 7
