REMARK  14 active torsions:
REMARK  status: ('A' for Active; 'I' for Inactive)
REMARK    1  A    between atoms: O1_1  and  C1_3 
REMARK    2  A    between atoms: C1_3  and  C2_4 
REMARK    3  A    between atoms: C4_6  and  O2_7 
REMARK    4  A    between atoms: O2_7  and  C5_8 
REMARK    5  A    between atoms: C5_8  and  C6_9 
REMARK    6  A    between atoms: C11_14  and  C12_15 
REMARK    7  A    between atoms: C12_15  and  O3_16 
REMARK    8  A    between atoms: O3_16  and  C13_17 
REMARK    9  A    between atoms: C15_19  and  O4_20 
REMARK   10  A    between atoms: C16_22  and  C17_23 
REMARK   11  A    between atoms: C17_23  and  O5_24 
REMARK   12  A    between atoms: C20_30  and  O8_31 
REMARK   13  A    between atoms: C21_33  and  O9_34 
REMARK   14  A    between atoms: C22_36  and  O10_37 
ROOT
HETATM    1  C6  UNL     1      -0.737  -0.947  -1.194  1.00  0.00     0.091 A 
HETATM    2  C7  UNL     1      -0.058   0.161  -0.648  1.00  0.00     0.054 A 
HETATM    3  C8  UNL     1       0.836  -0.886  -0.948  1.00  0.00     0.002 A 
HETATM    4  C9  UNL     1       1.701  -0.604  -2.163  1.00  0.00     0.014 C 
HETATM    5  C10 UNL     1       2.643  -1.754  -2.340  1.00  0.00     0.008 C 
HETATM    6  C11 UNL     1       2.422  -2.686  -1.224  1.00  0.00     0.016 C 
HETATM    7  C18 UNL     1       1.005  -2.282  -0.747  1.00  0.00     0.027 C 
HETATM    8  C19 UNL     1       0.067  -2.832  -1.839  1.00  0.00     0.174 C 
HETATM    9  O7  UNL     1      -0.509  -1.675  -2.375  1.00  0.00    -0.377 OA
ENDROOT
BRANCH   1  10
HETATM   10  C5  UNL     1      -1.591  -1.746  -0.287  1.00  0.00     0.207 C 
BRANCH  10  11
HETATM   11  O2  UNL     1      -2.070  -1.071   0.787  1.00  0.00    -0.380 OA
BRANCH  11  12
HETATM   12  C4  UNL     1      -2.970  -0.075   0.639  1.00  0.00     0.153 C 
HETATM   13  C3  UNL     1      -4.411  -0.662   0.909  1.00  0.00     0.044 C 
HETATM   14  C2  UNL     1      -5.405   0.285   0.291  1.00  0.00     0.043 C 
HETATM   15  C22 UNL     1      -5.301   1.671   0.820  1.00  0.00     0.155 C 
HETATM   16  C21 UNL     1      -3.907   2.175   0.901  1.00  0.00     0.178 C 
HETATM   17  C20 UNL     1      -2.890   1.170   1.402  1.00  0.00     0.178 C 
BRANCH  14  18
HETATM   18  C1  UNL     1      -5.468   0.214  -1.213  1.00  0.00     0.171 C 
BRANCH  18  19
HETATM   19  O1  UNL     1      -6.447   1.164  -1.591  1.00  0.00    -0.400 OA
ATOM     20  H1  UNL     1      -6.487   1.119  -2.539  1.00  0.00     0.209 HD
ENDBRANCH  18  19
ENDBRANCH  14  18
BRANCH  15  21
HETATM   21  O10 UNL     1      -6.043   1.814   1.991  1.00  0.00    -0.392 OA
ATOM     22  H10 UNL     1      -5.977   2.699   2.329  1.00  0.00     0.210 HD
ENDBRANCH  15  21
BRANCH  16  23
HETATM   23  O9  UNL     1      -3.878   3.314   1.702  1.00  0.00    -0.390 OA
ATOM     24  H9  UNL     1      -4.516   3.944   1.388  1.00  0.00     0.210 HD
ENDBRANCH  16  23
BRANCH  17  25
HETATM   25  O8  UNL     1      -3.078   1.046   2.772  1.00  0.00    -0.390 OA
ATOM     26  H8  UNL     1      -3.026   1.855   3.268  1.00  0.00     0.210 HD
ENDBRANCH  17  25
ENDBRANCH  11  12
ENDBRANCH  10  11
ENDBRANCH   1  10
BRANCH   6  27
HETATM   27  C12 UNL     1       3.409  -2.721  -0.114  1.00  0.00     0.176 C 
BRANCH  27  28
HETATM   28  O3  UNL     1       3.672  -1.666   0.624  1.00  0.00    -0.361 OA
BRANCH  28  29
HETATM   29  C13 UNL     1       4.218  -0.514   0.286  1.00  0.00     0.262 C 
HETATM   30  C14 UNL     1       5.548  -0.243   1.042  1.00  0.00     0.095 C 
HETATM   31  C15 UNL     1       5.805   1.164   0.541  1.00  0.00     0.154 C 
HETATM   32  C16 UNL     1       4.389   1.702   0.422  1.00  0.00     0.177 C 
HETATM   33  O6  UNL     1       3.539   0.647   0.732  1.00  0.00    -0.351 OA
BRANCH  31  34
HETATM   34  O4  UNL     1       6.585   1.912   1.387  1.00  0.00    -0.393 OA
ATOM     35  H4  UNL     1       6.746   2.794   1.073  1.00  0.00     0.210 HD
ENDBRANCH  31  34
BRANCH  32  36
HETATM   36  C17 UNL     1       4.268   2.844   1.408  1.00  0.00     0.198 C 
BRANCH  36  37
HETATM   37  O5  UNL     1       2.968   3.340   1.417  1.00  0.00    -0.398 OA
ATOM     38  H5  UNL     1       2.892   4.057   2.036  1.00  0.00     0.209 HD
ENDBRANCH  36  37
ENDBRANCH  32  36
ENDBRANCH  28  29
ENDBRANCH  27  28
ENDBRANCH   6  27
TORSDOF 14
