REMARK  6 active torsions:
REMARK  status: ('A' for Active; 'I' for Inactive)
REMARK    1  A    between atoms: C1_2  and  C2_3 
REMARK    2  A    between atoms: C9_11  and  C10_12 
REMARK    3  A    between atoms: C10_12  and  C11_13 
REMARK    4  A    between atoms: C13_16  and  O1_17 
REMARK    5  A    between atoms: C14_22  and  C16_24 
REMARK    6  A    between atoms: C16_24  and  N3_25 
ROOT
HETATM    1  C2  UNL     1       1.185   0.459  -1.291  1.00  0.00     0.149 C 
HETATM    2  C3  UNL     1      -0.182   0.808  -1.844  1.00  0.00     0.156 C 
HETATM    3  N1  UNL     1      -1.206   0.956  -0.884  1.00  0.00    -0.400 N 
HETATM    4  C4  UNL     1      -1.992   2.139  -0.975  1.00  0.00     0.118 C 
HETATM    5  C5  UNL     1      -3.481   1.825  -1.049  1.00  0.00     0.023 C 
HETATM    6  C6  UNL     1      -3.895   1.029   0.152  1.00  0.00     0.035 C 
HETATM    7  C7  UNL     1      -3.113  -0.230   0.232  1.00  0.00    -0.083 C 
HETATM    8  C8  UNL     1      -3.619  -1.242  -0.449  1.00  0.00     0.015 C 
HETATM    9  C9  UNL     1      -1.832  -0.458   0.994  1.00  0.00     0.042 C 
HETATM   10  C12 UNL     1      -0.851   0.523   0.426  1.00  0.00     0.151 C 
HETATM   11  C13 UNL     1       0.593   0.165   0.584  1.00  0.00     0.257 C 
HETATM   12  N2  UNL     1       1.329   1.268  -0.071  1.00  0.00    -0.029 N 
ATOM     13  H21 UNL     1       1.017   2.238  -0.020  1.00  0.00     0.281 HD
ATOM     14  H22 UNL     1       2.236   1.593   0.264  1.00  0.00     0.281 HD
HETATM   15  C14 UNL     1       1.197  -0.726  -0.418  1.00  0.00     0.076 C 
HETATM   16  C15 UNL     1       0.285  -1.821  -1.004  1.00  0.00     0.025 C 
ENDROOT
BRANCH  15  17
HETATM   17  C16 UNL     1       2.457  -1.412  -0.091  1.00  0.00     0.288 C 
BRANCH  17  18
HETATM   18  N3  UNL     1       3.533  -0.816   0.557  1.00  0.00     0.080 N 
HETATM   19  C17 UNL     1       4.800  -1.277  -0.063  1.00  0.00     0.309 C 
HETATM   20  C18 UNL     1       3.699  -1.188   1.962  1.00  0.00     0.309 C 
ENDBRANCH  17  18
ENDBRANCH  15  17
BRANCH   1  21
HETATM   21  C1  UNL     1       2.188   0.681  -2.346  1.00  0.00    -0.029 C 
HETATM   22  B1  UNL     1       2.158   2.223  -2.796  1.00  0.00     0.086 B 
ENDBRANCH   1  21
BRANCH  11  23
HETATM   23  O1  UNL     1       0.864   0.008   1.919  1.00  0.00    -0.363 OA
ATOM     24  H1  UNL     1       1.781  -0.219   2.019  1.00  0.00     0.212 HD
ENDBRANCH  11  23
BRANCH   9  25
HETATM   25  C10 UNL     1      -2.176  -0.149   2.443  1.00  0.00     0.022 C 
BRANCH  25  26
HETATM   26  C11 UNL     1      -3.278  -1.072   2.923  1.00  0.00     0.086 C 
HETATM   27 BR1  UNL     1      -3.685  -0.650   4.765  1.00  0.00    -0.096 Br
ENDBRANCH  25  26
ENDBRANCH   9  25
TORSDOF 6
