REMARK  6 active torsions:
REMARK  status: ('A' for Active; 'I' for Inactive)
REMARK    1  A    between atoms: N1_1  and  N2_4 
REMARK    2  A    between atoms: C3_9  and  N4_10 
REMARK    3  A    between atoms: N4_10  and  C4_12 
REMARK    4  A    between atoms: C4_12  and  C5_13 
REMARK       I    between atoms: N7_19  and  C7_21 
REMARK       I    between atoms: C7_21  and  N8_23 
REMARK    5  A    between atoms: N8_23  and  N9_25 
REMARK    6  A    between atoms: C8_27  and  C9_28 
ROOT
HETATM    1  C5  UNL     1      -1.476  -1.371   0.685  1.00  0.00     0.087 A 
HETATM    2  N5  UNL     1      -0.372  -2.067   0.456  1.00  0.00    -0.294 N 
ATOM      3  H5  UNL     1      -0.406  -3.086   0.449  1.00  0.00     0.187 HD
HETATM    4  N6  UNL     1       0.726  -1.469   0.246  1.00  0.00    -0.279 N 
ATOM      5  H6  UNL     1       1.578  -2.000   0.069  1.00  0.00     0.189 HD
HETATM    6  C6  UNL     1       0.751  -0.135   0.260  1.00  0.00     0.169 A 
HETATM    7  N7  UNL     1       1.771   0.671   0.068  1.00  0.00    -0.286 N 
ATOM      8  H7  UNL     1       1.658   1.684   0.106  1.00  0.00     0.172 HD
HETATM    9  C7  UNL     1       3.022   0.089  -0.191  1.00  0.00     0.340 C 
HETATM   10  O1  UNL     1       3.328  -0.270  -1.367  1.00  0.00    -0.245 OA
HETATM   11  N8  UNL     1       3.955  -0.101   0.865  1.00  0.00    -0.252 N 
ATOM     12  H8  UNL     1       3.717   0.187   1.814  1.00  0.00     0.191 HD
HETATM   13  S1  UNL     1      -0.894   0.231   0.591  1.00  0.00    -0.036 SA
ENDROOT
BRANCH   1  14
HETATM   14  C4  UNL     1      -2.838  -1.908   0.954  1.00  0.00     0.204 C 
BRANCH  14  15
HETATM   15  N4  UNL     1      -3.826  -0.891   0.868  1.00  0.00    -0.219 N 
ATOM     16  H4  UNL     1      -4.379  -0.651   1.691  1.00  0.00     0.178 HD
BRANCH  15  17
HETATM   17  C3  UNL     1      -4.049  -0.205  -0.359  1.00  0.00     0.690 C 
HETATM   18  N2  UNL     1      -4.619  -0.842  -1.491  1.00  0.00    -0.129 N 
HETATM   19  C1  UNL     1      -4.975   0.175  -2.482  1.00  0.00     0.187 C 
HETATM   20  C2  UNL     1      -4.164   1.358  -1.991  1.00  0.00     0.160 C 
HETATM   21  N3  UNL     1      -3.801   1.010  -0.645  1.00  0.00    -0.223 N 
ATOM     22  H3  UNL     1      -3.387   1.669   0.014  1.00  0.00     0.177 HD
BRANCH  18  23
HETATM   23  N1  UNL     1      -4.823  -2.211  -1.661  1.00  0.00    -0.329 N 
ATOM     24  H12 UNL     1      -5.233  -2.669  -2.475  1.00  0.00     0.177 HD
ATOM     25  H11 UNL     1      -4.575  -2.920  -0.971  1.00  0.00     0.177 HD
ENDBRANCH  18  23
ENDBRANCH  15  17
ENDBRANCH  14  15
ENDBRANCH   1  14
BRANCH  11  26
HETATM   26  N9  UNL     1       5.188  -0.677   0.604  1.00  0.00    -0.304 N 
HETATM   27  C8  UNL     1       6.247   0.053   0.561  1.00  0.00     0.157 C 
ATOM     28  H9  UNL     1       5.256  -1.682   0.446  1.00  0.00     0.186 HD
BRANCH  27  29
HETATM   29  C9  UNL     1       6.200   1.484   0.780  1.00  0.00     0.148 A 
HETATM   30  N10 UNL     1       5.105   2.212   1.043  1.00  0.00    -0.269 N 
HETATM   31  N11 UNL     1       5.470   3.478   1.179  1.00  0.00    -0.007 NA
ATOM     32  H10 UNL     1       4.154   1.852   1.124  1.00  0.00     0.185 HD
HETATM   33  N12 UNL     1       6.779   3.591   1.009  1.00  0.00    -0.007 NA
HETATM   34  N13 UNL     1       7.218   2.360   0.764  1.00  0.00    -0.269 N 
ATOM     35  H13 UNL     1       8.192   2.115   0.588  1.00  0.00     0.185 HD
ENDBRANCH  27  29
ENDBRANCH  11  26
TORSDOF 6
