REMARK  5 active torsions:
REMARK  status: ('A' for Active; 'I' for Inactive)
REMARK    1  A    between atoms: N2_7  and  C4_8 
REMARK    2  A    between atoms: C4_8  and  C5_9 
REMARK    3  A    between atoms: C5_9  and  C6_10 
REMARK    4  A    between atoms: C6_10  and  C7_11 
REMARK    5  A    between atoms: N4_16  and  O1_17 
ROOT
HETATM    1  C4  UNL     1       0.092   0.756  -0.134  1.00  0.00     0.129 C 
ENDROOT
BRANCH   1   2
HETATM    2  N2  UNL     1       1.507   0.542   0.041  1.00  0.00    -0.353 N 
HETATM    3  C3  UNL     1       2.442   1.276  -0.583  1.00  0.00     0.095 A 
HETATM    4  C2  UNL     1       3.785   1.040  -0.389  1.00  0.00     0.065 A 
HETATM    5  C1  UNL     1       4.176   0.037   0.454  1.00  0.00     0.100 A 
HETATM    6  N1  UNL     1       5.431  -0.207   0.654  1.00  0.00    -0.385 N 
HETATM    7  N5  UNL     1       3.212  -0.675   1.059  1.00  0.00    -0.339 N 
ATOM      8  H12 UNL     1       6.163   0.334   0.194  1.00  0.00     0.157 HD
ATOM      9  H11 UNL     1       5.723  -0.955   1.283  1.00  0.00     0.157 HD
HETATM   10  C10 UNL     1       1.908  -0.436   0.863  1.00  0.00     0.184 A 
ATOM     11  H5  UNL     1       3.483  -1.427   1.693  1.00  0.00     0.168 HD
ENDBRANCH   1   2
BRANCH   1  12
HETATM   12  C5  UNL     1      -0.420  -0.073  -1.267  1.00  0.00     0.026 C 
BRANCH  12  13
HETATM   13  C6  UNL     1      -1.875   0.080  -1.533  1.00  0.00     0.063 C 
BRANCH  13  14
HETATM   14  C7  UNL     1      -2.769  -0.272  -0.431  1.00  0.00     0.060 A 
HETATM   15  C8  UNL     1      -3.345  -1.482  -0.105  1.00  0.00     0.048 A 
HETATM   16  C9  UNL     1      -4.121  -1.331   1.025  1.00  0.00     0.112 A 
HETATM   17  N3  UNL     1      -3.995  -0.038   1.352  1.00  0.00    -0.286 N 
HETATM   18  N4  UNL     1      -3.202   0.593   0.503  1.00  0.00    -0.168 N 
ATOM     19  H3  UNL     1      -4.451   0.402   2.151  1.00  0.00     0.188 HD
BRANCH  18  20
HETATM   20  O1  UNL     1      -2.876   1.950   0.574  1.00  0.00    -0.268 OA
ATOM     21  H1  UNL     1      -3.182   2.561   1.234  1.00  0.00     0.247 HD
ENDBRANCH  18  20
ENDBRANCH  13  14
ENDBRANCH  12  13
ENDBRANCH   1  12
TORSDOF 5
