REMARK  5 active torsions:
REMARK  status: ('A' for Active; 'I' for Inactive)
REMARK    1  A    between atoms: N2_6  and  C5_7 
REMARK    2  A    between atoms: C5_7  and  O1_8 
REMARK    3  A    between atoms: C5_7  and  C6_10 
REMARK    4  A    between atoms: C6_10  and  N3_11 
REMARK    5  A    between atoms: C6_10  and  N4_15 
ROOT
HETATM    1  C5  UNL     1       1.831  -0.358   0.354  1.00  0.00     0.415 C 
ENDROOT
BRANCH   1   2
HETATM    2  N2  UNL     1       0.440  -0.614   0.322  1.00  0.00     0.128 N 
HETATM    3  C4  UNL     1      -0.003  -1.958   0.046  1.00  0.00     0.285 C 
HETATM    4  C3  UNL     1      -1.111  -1.345  -0.800  1.00  0.00     0.077 C 
HETATM    5  C2  UNL     1      -2.418  -1.146  -0.101  1.00  0.00     0.280 C 
HETATM    6  C7  UNL     1      -0.378  -0.036  -0.693  1.00  0.00     0.262 C 
HETATM    7  N1  UNL     1      -2.523   0.215   0.310  1.00  0.00     0.086 N 
HETATM    8  C1  UNL     1      -3.676   0.913  -0.195  1.00  0.00     0.310 C 
HETATM    9  C8  UNL     1      -1.354   0.934  -0.098  1.00  0.00     0.308 C 
ENDBRANCH   1   2
BRANCH   1  10
HETATM   10  O1  UNL     1       2.525  -1.465  -0.151  1.00  0.00    -0.365 OA
ATOM     11  H1  UNL     1       3.459  -1.293  -0.130  1.00  0.00     0.212 HD
ENDBRANCH   1  10
BRANCH   1  12
HETATM   12  C6  UNL     1       2.318   0.839  -0.389  1.00  0.00     0.436 C 
BRANCH  12  13
HETATM   13  N3  UNL     1       3.780   0.813  -0.304  1.00  0.00    -0.046 N 
ATOM     14  H33 UNL     1       4.128   0.762   0.653  1.00  0.00     0.277 HD
ATOM     15  H32 UNL     1       4.189  -0.061  -0.634  1.00  0.00     0.277 HD
ATOM     16  H31 UNL     1       4.113   1.632  -0.812  1.00  0.00     0.277 HD
ENDBRANCH  12  13
BRANCH  12  17
HETATM   17  N4  UNL     1       1.947   2.102   0.257  1.00  0.00    -0.046 N 
ATOM     18  H43 UNL     1       0.940   2.152   0.408  1.00  0.00     0.277 HD
ATOM     19  H42 UNL     1       2.262   2.122   1.227  1.00  0.00     0.277 HD
ATOM     20  H41 UNL     1       2.280   2.921  -0.251  1.00  0.00     0.277 HD
ENDBRANCH  12  17
ENDBRANCH   1  12
TORSDOF 5
