REMARK  1 active torsions:
REMARK  status: ('A' for Active; 'I' for Inactive)
REMARK    1  A    between atoms: N2_3  and  C2_5 
ROOT
HETATM    1  C2  UNL     1      -0.483   0.046   0.163  1.00  0.00     0.133 C 
HETATM    2  C3  UNL     1      -1.505   1.043  -0.380  1.00  0.00     0.259 C 
HETATM    3  N3  UNL     1      -2.486  -0.023  -0.098  1.00  0.00    -0.071 N 
ATOM      4  H31 UNL     1      -3.406  -0.047  -0.538  1.00  0.00     0.277 HD
ATOM      5  H32 UNL     1      -2.966  -0.098   0.799  1.00  0.00     0.277 HD
HETATM    6  C4  UNL     1      -1.400  -0.943  -0.490  1.00  0.00     0.259 C 
ENDROOT
BRANCH   1   7
HETATM    7  N2  UNL     1       0.832   0.163  -0.346  1.00  0.00    -0.380 N 
HETATM    8  C1  UNL     1       1.831  -0.086   0.444  1.00  0.00     0.185 C 
HETATM    9  N1  UNL     1       3.185   0.005   0.026  1.00  0.00    -0.097 NA
ATOM     10  H2  UNL     1       0.992   0.438  -1.315  1.00  0.00     0.160 HD
ENDBRANCH   1   7
TORSDOF 1
