REMARK  3 active torsions:
REMARK  status: ('A' for Active; 'I' for Inactive)
REMARK    1  A    between atoms: N1_2  and  C2_5 
REMARK    2  A    between atoms: C2_5  and  C3_6 
REMARK    3  A    between atoms: C3_6  and  C4_7 
ROOT
HETATM    1  C4  UNL     1      -0.671  -0.619  -0.720  1.00  0.00     0.150 A 
HETATM    2  N2  UNL     1      -0.915   0.786  -0.629  1.00  0.00    -0.353 N 
ATOM      3  H2  UNL     1      -0.240   1.504  -0.892  1.00  0.00     0.163 HD
HETATM    4  C5  UNL     1      -2.096   1.033  -0.172  1.00  0.00     0.190 A 
HETATM    5  N3  UNL     1      -2.631   2.343   0.032  1.00  0.00    -0.063 NA
HETATM    6  N4  UNL     1      -2.704  -0.212   0.067  1.00  0.00    -0.321 N 
ATOM      7  H4  UNL     1      -3.650  -0.317   0.434  1.00  0.00     0.169 HD
HETATM    8  C6  UNL     1      -1.940  -1.204  -0.227  1.00  0.00     0.118 A 
HETATM    9  N5  UNL     1      -2.215  -2.606  -0.117  1.00  0.00    -0.085 NA
ENDROOT
BRANCH   1  10
HETATM   10  C3  UNL     1       0.434  -1.107   0.179  1.00  0.00     0.060 C 
BRANCH  10  11
HETATM   11  C2  UNL     1       1.753  -0.461  -0.111  1.00  0.00     0.234 C 
BRANCH  11  12
HETATM   12  N1  UNL     1       1.710   0.977   0.052  1.00  0.00    -0.079 N 
HETATM   13  C1  UNL     1       3.045   1.472  -0.259  1.00  0.00     0.266 C 
ATOM     14  H12 UNL     1       1.376   1.269   0.970  1.00  0.00     0.276 HD
ATOM     15  H11 UNL     1       0.976   1.423  -0.498  1.00  0.00     0.276 HD
ENDBRANCH  11  12
ENDBRANCH  10  11
ENDBRANCH   1  10
TORSDOF 3
