REMARK  12 active torsions:
REMARK  status: ('A' for Active; 'I' for Inactive)
REMARK       I    between atoms: C2_2  and  N1_4 
REMARK    1  A    between atoms: N1_4  and  C3_6 
REMARK    2  A    between atoms: C5_8  and  O2_9 
REMARK    3  A    between atoms: C5_8  and  N2_11 
REMARK    4  A    between atoms: N2_11  and  C6_13 
REMARK    5  A    between atoms: C6_13  and  C7_14 
REMARK    6  A    between atoms: N6_20  and  N7_21 
REMARK       I    between atoms: N7_21  and  C8_23 
REMARK    7  A    between atoms: C8_23  and  C9_25 
REMARK    8  A    between atoms: C9_25  and  N8_26 
REMARK    9  A    between atoms: C10_30  and  N9_31 
REMARK       I    between atoms: N9_31  and  C11_33 
REMARK   10  A    between atoms: C11_33  and  C12_35 
REMARK   11  A    between atoms: C12_35  and  C13_36 
REMARK   12  A    between atoms: C13_36  and  N10_37 
ROOT
HETATM    1  C3  UNL     1      -2.420   1.635   1.083  1.00  0.00     0.129 A 
HETATM    2  C4  UNL     1      -1.462   0.838   0.353  1.00  0.00     0.087 A 
HETATM    3  C5  UNL     1      -0.063   1.067   0.572  1.00  0.00     0.152 C 
HETATM    4  C10 UNL     1      -1.890  -0.224  -0.396  1.00  0.00     0.079 A 
HETATM    5  C14 UNL     1      -3.259  -0.493  -0.408  1.00  0.00     0.140 A 
HETATM    6  C15 UNL     1      -3.734  -1.605  -1.181  1.00  0.00     0.107 C 
HETATM    7  N11 UNL     1      -4.137  -2.500  -1.797  1.00  0.00    -0.191 NA
HETATM    8  C16 UNL     1      -4.145   0.269   0.292  1.00  0.00     0.272 A 
HETATM    9  O5  UNL     1      -5.402   0.028   0.287  1.00  0.00    -0.266 OA
HETATM   10  N12 UNL     1      -3.725   1.344   1.043  1.00  0.00    -0.302 N 
HETATM   11  C17 UNL     1      -4.717   2.135   1.690  1.00  0.00     0.161 C 
ENDROOT
BRANCH   4  12
HETATM   12  N9  UNL     1      -1.085  -1.064  -1.228  1.00  0.00    -0.325 N 
HETATM   13  C11 UNL     1      -1.019  -0.858  -2.636  1.00  0.00     0.223 C 
HETATM   14  O4  UNL     1      -1.685   0.075  -3.125  1.00  0.00    -0.273 OA
ATOM     15  H9  UNL     1      -0.550  -1.823  -0.806  1.00  0.00     0.169 HD
BRANCH  13  16
HETATM   16  C12 UNL     1      -0.197  -1.705  -3.509  1.00  0.00     0.130 C 
BRANCH  16  17
HETATM   17  C13 UNL     1      -0.327  -1.230  -4.940  1.00  0.00     0.238 C 
BRANCH  17  18
HETATM   18  N10 UNL     1       0.137   0.151  -4.952  1.00  0.00    -0.079 N 
ATOM     19 3H10 UNL     1      -0.346   0.748  -4.281  1.00  0.00     0.274 HD
ATOM     20 2H10 UNL     1       1.075   0.267  -4.569  1.00  0.00     0.274 HD
ATOM     21 1H10 UNL     1       0.049   0.471  -5.916  1.00  0.00     0.274 HD
ENDBRANCH  17  18
ENDBRANCH  16  17
ENDBRANCH  13  16
ENDBRANCH   4  12
BRANCH   1  22
HETATM   22  N1  UNL     1      -1.940   2.807   1.667  1.00  0.00    -0.312 N 
HETATM   23  C2  UNL     1      -2.204   3.606   2.733  1.00  0.00     0.219 C 
HETATM   24  C1  UNL     1      -1.562   4.976   2.840  1.00  0.00     0.117 C 
HETATM   25  O1  UNL     1      -2.946   3.347   3.693  1.00  0.00    -0.274 OA
ATOM     26  H1  UNL     1      -1.153   3.175   1.132  1.00  0.00     0.170 HD
ENDBRANCH   1  22
BRANCH   3  27
HETATM   27  O2  UNL     1       0.214   1.931   1.512  1.00  0.00    -0.346 OA
ATOM     28  H2  UNL     1       1.141   2.083   1.657  1.00  0.00     0.219 HD
ENDBRANCH   3  27
BRANCH   3  29
HETATM   29  N2  UNL     1       1.095   0.566  -0.006  1.00  0.00    -0.363 N 
ATOM     30  H2  UNL     1       1.002  -0.120  -0.755  1.00  0.00     0.162 HD
BRANCH  29  31
HETATM   31  C6  UNL     1       2.446   0.968   0.401  1.00  0.00     0.203 C 
BRANCH  31  32
HETATM   32  C7  UNL     1       2.805   0.610   1.763  1.00  0.00     0.153 A 
HETATM   33  N3  UNL     1       2.755   1.361   2.863  1.00  0.00    -0.272 N 
HETATM   34  N4  UNL     1       3.177   0.661   3.899  1.00  0.00    -0.223 N 
ATOM     35  H3  UNL     1       2.438   2.330   2.899  1.00  0.00     0.189 HD
HETATM   36  N5  UNL     1       3.502  -0.549   3.475  1.00  0.00     0.018 NA
ATOM     37  H4  UNL     1       3.241   0.995   4.861  1.00  0.00     0.205 HD
HETATM   38  N6  UNL     1       3.276  -0.585   2.161  1.00  0.00    -0.161 N 
BRANCH  38  39
HETATM   39  N7  UNL     1       3.503  -1.683   1.357  1.00  0.00    -0.247 N 
HETATM   40  C8  UNL     1       4.017  -2.913   1.844  1.00  0.00     0.262 C 
HETATM   41  O3  UNL     1       4.288  -3.041   3.068  1.00  0.00    -0.270 OA
ATOM     42  H7  UNL     1       3.291  -1.607   0.362  1.00  0.00     0.192 HD
BRANCH  40  43
HETATM   43  C9  UNL     1       4.257  -4.080   0.950  1.00  0.00     0.333 C 
BRANCH  43  44
HETATM   44  N8  UNL     1       4.789  -5.206   1.670  1.00  0.00    -0.071 N 
ATOM     45  H83 UNL     1       5.633  -4.953   2.184  1.00  0.00     0.274 HD
ATOM     46  H82 UNL     1       4.192  -5.459   2.457  1.00  0.00     0.274 HD
ATOM     47  H81 UNL     1       4.953  -6.005   1.058  1.00  0.00     0.274 HD
ENDBRANCH  43  44
ENDBRANCH  40  43
ENDBRANCH  38  39
ENDBRANCH  31  32
ENDBRANCH  29  31
ENDBRANCH   3  29
TORSDOF 12
