REMARK  7 active torsions:
REMARK  status: ('A' for Active; 'I' for Inactive)
REMARK       I    between atoms: N1_1  and  C1_5 
REMARK       I    between atoms: C1_5  and  N2_6 
REMARK       I    between atoms: C1_5  and  N3_10 
REMARK    1  A    between atoms: N3_10  and  C2_13 
REMARK    2  A    between atoms: C2_13  and  C3_14 
REMARK    3  A    between atoms: C3_14  and  C4_15 
REMARK    4  A    between atoms: C4_15  and  C5_16 
REMARK    5  A    between atoms: C5_16  and  C6_17 
REMARK    6  A    between atoms: C6_17  and  C7_18 
REMARK    7  A    between atoms: C8_21  and  N6_22 
ROOT
HETATM    1  C6  UNL     1      -1.519  -0.984  -0.444  1.00  0.00     0.056 C 
ENDROOT
BRANCH   1   2
HETATM    2  C5  UNL     1      -0.313  -1.111   0.382  1.00  0.00     0.004 C 
BRANCH   2   3
HETATM    3  C4  UNL     1       0.950  -0.484  -0.117  1.00  0.00     0.002 C 
BRANCH   3   4
HETATM    4  C3  UNL     1       2.103  -0.704   0.857  1.00  0.00     0.027 C 
BRANCH   4   5
HETATM    5  C2  UNL     1       3.333  -0.041   0.277  1.00  0.00     0.237 C 
BRANCH   5   6
HETATM    6  N3  UNL     1       4.483  -0.189   1.119  1.00  0.00    -0.022 N 
HETATM    7  C1  UNL     1       5.604   0.475   0.482  1.00  0.00     0.575 C 
HETATM    8  N1  UNL     1       5.890  -0.102  -0.817  1.00  0.00    -0.026 N 
HETATM    9  N2  UNL     1       6.816   0.379   1.268  1.00  0.00    -0.026 N 
ATOM     10  H13 UNL     1       6.697   0.322  -1.274  1.00  0.00     0.278 HD
ATOM     11  H12 UNL     1       6.256  -1.053  -0.761  1.00  0.00     0.278 HD
ATOM     12  H11 UNL     1       5.036  -0.034  -1.371  1.00  0.00     0.278 HD
ATOM     13  H23 UNL     1       7.182  -0.572   1.324  1.00  0.00     0.278 HD
ATOM     14  H22 UNL     1       7.623   0.803   0.811  1.00  0.00     0.278 HD
ATOM     15  H21 UNL     1       6.615   0.785   2.182  1.00  0.00     0.278 HD
ATOM     16  H32 UNL     1       4.681  -1.164   1.345  1.00  0.00     0.281 HD
ATOM     17  H31 UNL     1       4.319   0.143   2.069  1.00  0.00     0.281 HD
ENDBRANCH   5   6
ENDBRANCH   4   5
ENDBRANCH   3   4
ENDBRANCH   2   3
ENDBRANCH   1   2
BRANCH   1  18
HETATM   18  C7  UNL     1      -2.147   0.319  -0.698  1.00  0.00     0.155 C 
HETATM   19  N4  UNL     1      -3.326   0.126  -1.604  1.00  0.00    -0.107 NA
HETATM   20  N5  UNL     1      -3.960  -1.052  -1.267  1.00  0.00    -0.091 NA
HETATM   21  C8  UNL     1      -5.083  -0.877  -0.378  1.00  0.00     0.392 C 
HETATM   22  N7  UNL     1      -4.739  -0.359   0.903  1.00  0.00    -0.358 N 
HETATM   23  C9  UNL     1      -3.800   0.711   1.142  1.00  0.00     0.102 C 
ATOM     24  H7  UNL     1      -5.192  -0.777   1.716  1.00  0.00     0.162 HD
HETATM   25  C10 UNL     1      -2.706   1.028   0.495  1.00  0.00     0.070 C 
HETATM   26  C11 UNL     1      -1.611   1.929   0.386  1.00  0.00     0.254 C 
HETATM   27  O1  UNL     1      -1.083   2.788   1.175  1.00  0.00    -0.268 OA
HETATM   28  N8  UNL     1      -1.378   1.461  -0.948  1.00  0.00    -0.328 N 
ATOM     29  H8  UNL     1      -0.862   1.816  -1.753  1.00  0.00     0.165 HD
BRANCH  21  30
HETATM   30  N6  UNL     1      -6.037  -0.022  -1.087  1.00  0.00    -0.043 N 
ATOM     31  H63 UNL     1      -5.633   0.858  -1.407  1.00  0.00     0.278 HD
ATOM     32  H62 UNL     1      -6.299  -0.381  -2.005  1.00  0.00     0.278 HD
ATOM     33  H61 UNL     1      -6.831   0.102  -0.459  1.00  0.00     0.278 HD
ENDBRANCH  21  30
ENDBRANCH   1  18
TORSDOF 7
