REMARK  11 active torsions:
REMARK  status: ('A' for Active; 'I' for Inactive)
REMARK    1  A    between atoms: C2_2  and  C3_3 
REMARK    2  A    between atoms: C2_2  and  N2_8 
REMARK    3  A    between atoms: C3_3  and  N1_4 
REMARK    4  A    between atoms: N2_8  and  C4_10 
REMARK    5  A    between atoms: C5_14  and  C6_15 
REMARK    6  A    between atoms: C6_15  and  C7_16 
REMARK    7  A    between atoms: C7_16  and  N4_17 
REMARK    8  A    between atoms: N4_17  and  N5_18 
REMARK    9  A    between atoms: C9_22  and  O1_23 
REMARK   10  A    between atoms: C10_25  and  O2_26 
REMARK   11  A    between atoms: C11_28  and  N7_29 
ROOT
HETATM    1  N5  UNL     1      -4.858   1.983  -0.310  1.00  0.00    -0.240 N 
ATOM      2  H5  UNL     1      -4.233   2.636  -0.782  1.00  0.00     0.195 HD
HETATM    3  C8  UNL     1      -6.013   2.424   0.316  1.00  0.00     0.194 C 
HETATM    4  N6  UNL     1      -6.963   2.822   0.888  1.00  0.00    -0.171 NA
ENDROOT
BRANCH   1   5
HETATM    5  N4  UNL     1      -4.571   0.584  -0.273  1.00  0.00    -0.132 NA
BRANCH   5   6
HETATM    6  C7  UNL     1      -3.214   0.321  -0.756  1.00  0.00     0.138 C 
BRANCH   6   7
HETATM    7  C6  UNL     1      -2.404  -0.207   0.424  1.00  0.00     0.053 C 
BRANCH   7   8
HETATM    8  C5  UNL     1      -1.034  -0.574  -0.058  1.00  0.00     0.220 C 
HETATM    9  N3  UNL     1      -0.213  -0.986   1.106  1.00  0.00    -0.046 N 
HETATM   10  C4  UNL     1       1.176  -0.857   0.623  1.00  0.00     0.314 C 
ATOM     11  H32 UNL     1      -0.444  -1.907   1.479  1.00  0.00     0.280 HD
ATOM     12  H31 UNL     1      -0.410  -0.469   1.963  1.00  0.00     0.280 HD
HETATM   13  C11 UNL     1       1.264  -1.574  -0.657  1.00  0.00     0.264 C 
HETATM   14  C10 UNL     1       0.114  -2.647  -0.648  1.00  0.00     0.183 C 
HETATM   15  C9  UNL     1      -1.175  -1.917  -0.849  1.00  0.00     0.179 C 
BRANCH  10  16
HETATM   16  N2  UNL     1       1.515   0.499   0.729  1.00  0.00    -0.388 N 
ATOM     17  H2  UNL     1       0.746   1.161   0.832  1.00  0.00     0.155 HD
BRANCH  16  18
HETATM   18  C2  UNL     1       2.813   1.030   0.707  1.00  0.00     0.100 C 
HETATM   19  C1  UNL     1       3.629   0.918  -0.536  1.00  0.00     0.033 C 
BRANCH  18  20
HETATM   20  C3  UNL     1       2.665   2.576   0.963  1.00  0.00     0.254 C 
BRANCH  20  21
HETATM   21  N1  UNL     1       3.974   3.145   1.207  1.00  0.00    -0.077 N 
ATOM     22  H13 UNL     1       4.467   2.672   1.965  1.00  0.00     0.274 HD
ATOM     23  H12 UNL     1       4.632   2.938   0.456  1.00  0.00     0.274 HD
ATOM     24  H11 UNL     1       3.878   4.147   1.373  1.00  0.00     0.274 HD
ENDBRANCH  20  21
ENDBRANCH  18  20
ENDBRANCH  16  18
ENDBRANCH  10  16
BRANCH  13  25
HETATM   25  N7  UNL     1       2.429  -2.363  -0.913  1.00  0.00    -0.069 N 
ATOM     26  H73 UNL     1       3.258  -1.779  -0.801  1.00  0.00     0.275 HD
ATOM     27  H72 UNL     1       2.555  -3.028  -0.150  1.00  0.00     0.275 HD
ATOM     28  H71 UNL     1       2.490  -2.861  -1.801  1.00  0.00     0.275 HD
ENDBRANCH  13  25
BRANCH  14  29
HETATM   29  O2  UNL     1       0.372  -3.563  -1.632  1.00  0.00    -0.391 OA
ATOM     30  H2  UNL     1       1.191  -4.027  -1.504  1.00  0.00     0.210 HD
ENDBRANCH  14  29
BRANCH  15  31
HETATM   31  O1  UNL     1      -2.188  -2.578  -0.156  1.00  0.00    -0.391 OA
ATOM     32  H1  UNL     1      -2.274  -3.393  -0.636  1.00  0.00     0.210 HD
ENDBRANCH  15  31
ENDBRANCH   7   8
ENDBRANCH   6   7
ENDBRANCH   5   6
ENDBRANCH   1   5
TORSDOF 11
