REMARK  6 active torsions:
REMARK  status: ('A' for Active; 'I' for Inactive)
REMARK    1  A    between atoms: N1_1  and  C1_4 
REMARK    2  A    between atoms: C3_8  and  C4_9 
REMARK    3  A    between atoms: C4_9  and  N3_10 
REMARK    4  A    between atoms: C4_9  and  C5_14 
REMARK       I    between atoms: C5_14  and  N4_16 
REMARK    5  A    between atoms: N4_16  and  N5_18 
REMARK    6  A    between atoms: C6_23  and  N7_24 
ROOT
HETATM    1  C1  UNL     1      -2.686  -0.768   0.321  1.00  0.00     0.150 A 
HETATM    2  N2  UNL     1      -1.712  -1.582  -0.118  1.00  0.00    -0.347 N 
ATOM      3  H2  UNL     1      -1.879  -2.586  -0.184  1.00  0.00     0.167 HD
HETATM    4  C2  UNL     1      -0.498  -1.068  -0.476  1.00  0.00     0.117 A 
HETATM    5  C3  UNL     1      -0.242   0.276  -0.401  1.00  0.00     0.066 A 
HETATM    6  N6  UNL     1      -1.220   1.086   0.039  1.00  0.00    -0.335 N 
ATOM      7  H6  UNL     1      -1.046   2.089   0.103  1.00  0.00     0.167 HD
HETATM    8  C6  UNL     1      -2.436   0.597   0.401  1.00  0.00     0.218 A 
ENDROOT
BRANCH   5   9
HETATM    9  C4  UNL     1       1.076   0.827  -0.791  1.00  0.00     0.327 C 
BRANCH   9  10
HETATM   10  N3  UNL     1       1.555   0.261  -2.032  1.00  0.00    -0.061 N 
ATOM     11  H33 UNL     1       1.578  -0.758  -1.989  1.00  0.00     0.275 HD
ATOM     12  H32 UNL     1       0.870   0.376  -2.779  1.00  0.00     0.275 HD
ATOM     13  H31 UNL     1       2.463   0.641  -2.301  1.00  0.00     0.275 HD
ENDBRANCH   9  10
BRANCH   9  14
HETATM   14  C5  UNL     1       2.098   0.649   0.247  1.00  0.00     0.272 C 
HETATM   15  O1  UNL     1       1.948   1.049   1.444  1.00  0.00    -0.269 OA
HETATM   16  N4  UNL     1       3.314   0.003  -0.085  1.00  0.00    -0.275 N 
ATOM     17  H4  UNL     1       3.455  -0.326  -1.040  1.00  0.00     0.189 HD
BRANCH  16  18
HETATM   18  N5  UNL     1       4.327  -0.197   0.858  1.00  0.00    -0.343 N 
ATOM     19  H52 UNL     1       4.170   0.138   1.808  1.00  0.00     0.176 HD
ATOM     20  H51 UNL     1       5.203  -0.662   0.619  1.00  0.00     0.176 HD
ENDBRANCH  16  18
ENDBRANCH   9  14
ENDBRANCH   5   9
BRANCH   8  21
HETATM   21  N7  UNL     1      -3.418   1.505   0.855  1.00  0.00    -0.094 N 
HETATM   22  O2  UNL     1      -3.413   2.710   0.470  1.00  0.00    -0.530 OA
HETATM   23  O3  UNL     1      -4.418   1.132   1.727  1.00  0.00    -0.530 OA
ENDBRANCH   8  21
BRANCH   1  24
HETATM   24  N1  UNL     1      -3.859  -1.194   0.676  1.00  0.00    -0.382 N 
ATOM     25  H12 UNL     1      -4.042  -2.196   0.617  1.00  0.00     0.157 HD
ATOM     26  H11 UNL     1      -4.599  -0.576   1.009  1.00  0.00     0.157 HD
ENDBRANCH   1  24
TORSDOF 6
