REMARK  6 active torsions:
REMARK  status: ('A' for Active; 'I' for Inactive)
REMARK    1  A    between atoms: C2_2  and  C3_3 
REMARK    2  A    between atoms: C4_4  and  C5_5 
REMARK    3  A    between atoms: C5_5  and  C6_6 
REMARK    4  A    between atoms: C6_6  and  C7_7 
REMARK    5  A    between atoms: C7_7  and  N1_8 
REMARK    6  A    between atoms: C17_19  and  O2_20 
ROOT
HETATM    1  N1  UNL     1       1.201   0.511  -0.007  1.00  0.00     0.112 N 
HETATM    2  C8  UNL     1       1.425   0.873  -1.399  1.00  0.00     0.300 C 
HETATM    3  C9  UNL     1       0.182   1.490  -1.981  1.00  0.00     0.199 C 
HETATM    4  O1  UNL     1      -0.945   1.445  -1.257  1.00  0.00    -0.374 OA
HETATM    5  C10 UNL     1      -1.145   0.543  -0.274  1.00  0.00     0.116 C 
HETATM    6  C11 UNL     1      -1.628   1.277   0.962  1.00  0.00     0.021 C 
HETATM    7  C12 UNL     1      -0.786   2.445   1.357  1.00  0.00     0.013 C 
HETATM    8  C13 UNL     1      -2.968   1.824   0.472  1.00  0.00     0.013 C 
HETATM    9  C14 UNL     1      -3.452   0.741  -0.483  1.00  0.00     0.003 C 
HETATM   10  C15 UNL     1      -4.799   0.302  -0.056  1.00  0.00     0.015 C 
HETATM   11  C16 UNL     1      -5.705  -0.160  -1.181  1.00  0.00     0.013 C 
HETATM   12  C17 UNL     1      -4.774  -0.694   1.082  1.00  0.00     0.122 C 
HETATM   13  C18 UNL     1      -3.946  -1.861   0.665  1.00  0.00     0.033 C 
HETATM   14  C19 UNL     1      -2.533  -1.441   0.374  1.00  0.00     0.015 C 
HETATM   15  C20 UNL     1      -2.400  -0.298  -0.565  1.00  0.00    -0.005 C 
HETATM   16  C21 UNL     1      -2.404  -0.848  -1.973  1.00  0.00     0.019 C 
HETATM   17  C22 UNL     1       0.030  -0.345   0.056  1.00  0.00     0.353 C 
HETATM   18 CL1  UNL     1       0.221  -1.549  -1.236  1.00  0.00    -0.089 Cl
ENDROOT
BRANCH   1  19
HETATM   19  C7  UNL     1       2.375  -0.012   0.617  1.00  0.00     0.275 C 
BRANCH  19  20
HETATM   20  C6  UNL     1       2.820  -1.356   0.176  1.00  0.00     0.034 C 
BRANCH  20  21
HETATM   21  C5  UNL     1       4.085  -1.748   0.896  1.00  0.00     0.028 C 
BRANCH  21  22
HETATM   22  C4  UNL     1       5.221  -0.793   0.591  1.00  0.00    -0.031 C 
HETATM   23  C3  UNL     1       6.303  -1.261   0.019  1.00  0.00    -0.031 C 
BRANCH  23  24
HETATM   24  C2  UNL     1       7.457  -0.424  -0.320  1.00  0.00     0.022 C 
HETATM   25  C1  UNL     1       7.267   1.013   0.055  1.00  0.00     0.009 C 
ENDBRANCH  23  24
ENDBRANCH  21  22
ENDBRANCH  20  21
ENDBRANCH  19  20
ENDBRANCH   1  19
BRANCH  12  26
HETATM   26  O2  UNL     1      -6.087  -1.091   1.336  1.00  0.00    -0.395 OA
ATOM     27  H2  UNL     1      -6.071  -1.717   2.051  1.00  0.00     0.210 HD
ENDBRANCH  12  26
TORSDOF 6
