REMARK  9 active torsions:
REMARK  status: ('A' for Active; 'I' for Inactive)
REMARK    1  A    between atoms: N1_4  and  C4_5 
REMARK    2  A    between atoms: C4_5  and  C5_6 
REMARK    3  A    between atoms: C6_7  and  C7_8 
REMARK    4  A    between atoms: C7_8  and  N2_9 
REMARK    5  A    between atoms: N2_9  and  C9_11 
REMARK    6  A    between atoms: C9_11  and  C10_12 
REMARK    7  A    between atoms: C10_12  and  C11_13 
REMARK    8  A    between atoms: C15_22  and  N5_23 
REMARK       I    between atoms: N5_23  and  C16_25 
REMARK       I    between atoms: C16_25  and  N7_29 
REMARK    9  A    between atoms: N7_29  and  C18_31 
ROOT
HETATM    1  C1  UNL     1      -0.596  -2.300  -0.240  1.00  0.00     0.018 C 
HETATM    2  C2  UNL     1      -0.516  -0.999  -0.333  1.00  0.00    -0.039 C 
HETATM    3  C3  UNL     1       0.471  -0.251  -1.157  1.00  0.00     0.162 C 
HETATM    4  N1  UNL     1       0.697   0.926  -0.342  1.00  0.00    -0.336 N 
HETATM    5  C14 UNL     1      -0.241   1.003   0.723  1.00  0.00     0.248 C 
HETATM    6  O1  UNL     1      -0.171   1.710   1.757  1.00  0.00    -0.271 OA
HETATM    7  C15 UNL     1      -1.332   0.038   0.316  1.00  0.00     0.222 C 
ENDROOT
BRANCH   4   8
HETATM    8  C4  UNL     1       1.729   1.944  -0.528  1.00  0.00     0.220 C 
BRANCH   8   9
HETATM    9  C5  UNL     1       2.926   1.542   0.226  1.00  0.00    -0.081 C 
HETATM   10  C6  UNL     1       3.898   1.228   0.858  1.00  0.00    -0.060 C 
BRANCH  10  11
HETATM   11  C7  UNL     1       5.045   0.846   1.639  1.00  0.00     0.154 C 
BRANCH  11  12
HETATM   12  N2  UNL     1       5.866  -0.160   1.095  1.00  0.00    -0.367 N 
HETATM   13  C8  UNL     1       6.978  -0.598   1.856  1.00  0.00     0.155 C 
BRANCH  12  14
HETATM   14  C9  UNL     1       5.858  -0.399  -0.290  1.00  0.00     0.069 C 
BRANCH  14  15
HETATM   15  C10 UNL     1       6.446   0.717  -1.080  1.00  0.00     0.103 C 
BRANCH  15  16
HETATM   16  C11 UNL     1       7.844   1.024  -0.780  1.00  0.00     0.030 A 
HETATM   17  C12 UNL     1       8.960   0.457  -1.395  1.00  0.00     0.114 A 
HETATM   18  N3  UNL     1      10.047   1.012  -0.842  1.00  0.00    -0.360 N 
HETATM   19  C13 UNL     1       9.677   1.894   0.082  1.00  0.00     0.180 A 
ATOM     20  H3  UNL     1      11.011   0.792  -1.092  1.00  0.00     0.166 HD
HETATM   21  N4  UNL     1       8.335   1.896   0.115  1.00  0.00    -0.354 N 
ATOM     22  H4  UNL     1       7.769   2.478   0.733  1.00  0.00     0.166 HD
ENDBRANCH  15  16
ENDBRANCH  14  15
ENDBRANCH  12  14
ENDBRANCH  11  12
ENDBRANCH  10  11
ENDBRANCH   8   9
ENDBRANCH   4   8
BRANCH   7  23
HETATM   23  N5  UNL     1      -2.121  -0.359   1.424  1.00  0.00    -0.209 N 
HETATM   24  C16 UNL     1      -3.183  -1.278   1.273  1.00  0.00     0.670 C 
HETATM   25  N6  UNL     1      -3.485  -2.069   2.273  1.00  0.00    -0.231 N 
HETATM   26  N7  UNL     1      -3.962  -1.401   0.091  1.00  0.00    -0.220 N 
HETATM   27  C17 UNL     1      -4.537  -3.038   2.239  1.00  0.00     0.165 C 
ATOM     28  H6  UNL     1      -2.936  -1.989   3.129  1.00  0.00     0.177 HD
ATOM     29  H7  UNL     1      -3.620  -1.903  -0.728  1.00  0.00     0.178 HD
ATOM     30  H5  UNL     1      -1.919   0.026   2.347  1.00  0.00     0.179 HD
BRANCH  26  31
HETATM   31  C18 UNL     1      -5.274  -0.772   0.112  1.00  0.00     0.127 C 
HETATM   32  C19 UNL     1      -5.107   0.706   0.349  1.00  0.00     0.055 C 
HETATM   33  C20 UNL     1      -6.394   1.260  -0.223  1.00  0.00     0.238 C 
HETATM   34  N8  UNL     1      -6.899   0.309  -1.166  1.00  0.00    -0.073 N 
HETATM   35  C21 UNL     1      -7.091   0.941  -2.456  1.00  0.00     0.272 C 
HETATM   36  C22 UNL     1      -8.217  -0.142  -0.726  1.00  0.00     0.272 C 
HETATM   37  C23 UNL     1      -5.958  -0.794  -1.229  1.00  0.00     0.262 C 
ENDBRANCH  26  31
ENDBRANCH   7  23
TORSDOF 9
