REMARK  20 active torsions:
REMARK  status: ('A' for Active; 'I' for Inactive)
REMARK    1  A    between atoms: C2_2  and  C3_3 
REMARK    2  A    between atoms: C3_3  and  C4_4 
REMARK    3  A    between atoms: C6_8  and  C7_9 
REMARK    4  A    between atoms: C7_9  and  C8_10 
REMARK    5  A    between atoms: C8_10  and  N1_11 
REMARK       I    between atoms: N1_11  and  C9_13 
REMARK    6  A    between atoms: C9_13  and  O4_15 
REMARK    7  A    between atoms: O4_15  and  C10_16 
REMARK    8  A    between atoms: C15_24  and  C16_25 
REMARK    9  A    between atoms: C16_25  and  C17_26 
REMARK   10  A    between atoms: C17_26  and  C18_27 
REMARK   11  A    between atoms: C18_27  and  C19_28 
REMARK   12  A    between atoms: C19_28  and  C20_29 
REMARK   13  A    between atoms: C20_29  and  C21_30 
REMARK   14  A    between atoms: C21_30  and  C22_31 
REMARK   15  A    between atoms: C22_31  and  C23_32 
REMARK   16  A    between atoms: C23_32  and  C24_33 
REMARK   17  A    between atoms: C24_33  and  C25_34 
REMARK   18  A    between atoms: C25_34  and  C26_35 
REMARK   19  A    between atoms: C29_41  and  C30_42 
REMARK   20  A    between atoms: C30_42  and  O7_44 
ROOT
HETATM    1  C4  UNL     1      -3.415  -1.578  -1.286  1.00  0.00     0.227 C 
HETATM    2  O1  UNL     1      -3.049  -0.306  -0.967  1.00  0.00    -0.304 OA
HETATM    3  C5  UNL     1      -1.940   0.390  -0.725  1.00  0.00     0.282 C 
HETATM    4  O2  UNL     1      -1.549   0.934   0.369  1.00  0.00    -0.263 OA
HETATM    5  C6  UNL     1      -1.015   0.572  -1.856  1.00  0.00     0.185 C 
HETATM    6  N2  UNL     1       0.366   0.288  -1.489  1.00  0.00    -0.345 N 
ATOM      7  H2  UNL     1       0.970   1.100  -1.363  1.00  0.00     0.163 HD
HETATM    8  C14 UNL     1       0.967  -0.956  -1.288  1.00  0.00     0.241 C 
HETATM    9  O5  UNL     1       2.098  -1.171  -1.863  1.00  0.00    -0.271 OA
HETATM   10  C15 UNL     1       0.422  -2.068  -0.466  1.00  0.00     0.176 C 
HETATM   11  N3  UNL     1       0.198  -3.223  -1.326  1.00  0.00    -0.346 N 
ATOM     12  H3  UNL     1       0.966  -3.489  -1.943  1.00  0.00     0.163 HD
HETATM   13  C28 UNL     1      -0.955  -4.002  -1.394  1.00  0.00     0.243 C 
HETATM   14  O6  UNL     1      -1.338  -4.425  -2.542  1.00  0.00    -0.271 OA
HETATM   15  C29 UNL     1      -1.799  -4.400  -0.249  1.00  0.00     0.205 C 
HETATM   16  N4  UNL     1      -2.559  -3.373   0.372  1.00  0.00    -0.343 N 
ATOM     17  H4  UNL     1      -2.359  -3.236   1.363  1.00  0.00     0.163 HD
HETATM   18  C32 UNL     1      -3.537  -2.517  -0.149  1.00  0.00     0.248 C 
HETATM   19  O8  UNL     1      -4.686  -2.536   0.421  1.00  0.00    -0.271 OA
ENDROOT
BRANCH  10  20
HETATM   20  C16 UNL     1       1.250  -2.455   0.716  1.00  0.00     0.035 C 
BRANCH  20  21
HETATM   21  C17 UNL     1       2.632  -2.932   0.469  1.00  0.00     0.002 C 
BRANCH  21  22
HETATM   22  C18 UNL     1       3.316  -3.301   1.755  1.00  0.00     0.000 C 
BRANCH  22  23
HETATM   23  C19 UNL     1       3.464  -2.315   2.814  1.00  0.00     0.000 C 
BRANCH  23  24
HETATM   24  C20 UNL     1       4.249  -1.077   2.688  1.00  0.00     0.000 C 
BRANCH  24  25
HETATM   25  C21 UNL     1       3.905  -0.050   1.701  1.00  0.00     0.000 C 
BRANCH  25  26
HETATM   26  C22 UNL     1       4.816   1.190   1.846  1.00  0.00     0.000 C 
BRANCH  26  27
HETATM   27  C23 UNL     1       6.253   0.851   1.632  1.00  0.00     0.000 C 
BRANCH  27  28
HETATM   28  C24 UNL     1       7.089   2.101   1.769  1.00  0.00     0.000 C 
BRANCH  28  29
HETATM   29  C25 UNL     1       6.675   3.114   0.735  1.00  0.00    -0.000 C 
BRANCH  29  30
HETATM   30  C26 UNL     1       7.563   4.364   0.873  1.00  0.00    -0.005 C 
HETATM   31  C27 UNL     1       7.145   5.374  -0.167  1.00  0.00     0.005 C 
ENDBRANCH  29  30
ENDBRANCH  28  29
ENDBRANCH  27  28
ENDBRANCH  26  27
ENDBRANCH  25  26
ENDBRANCH  24  25
ENDBRANCH  23  24
ENDBRANCH  22  23
ENDBRANCH  21  22
ENDBRANCH  20  21
ENDBRANCH  10  20
BRANCH   5  32
HETATM   32  C7  UNL     1      -1.046   1.856  -2.587  1.00  0.00     0.055 C 
BRANCH  32  33
HETATM   33  C8  UNL     1      -2.316   2.226  -3.250  1.00  0.00     0.127 C 
BRANCH  33  34
HETATM   34  N1  UNL     1      -3.410   2.405  -2.361  1.00  0.00    -0.337 N 
HETATM   35  C9  UNL     1      -3.373   3.421  -1.356  1.00  0.00     0.361 C 
HETATM   36  O3  UNL     1      -2.389   4.184  -1.224  1.00  0.00    -0.238 OA
ATOM     37  H1  UNL     1      -4.229   1.803  -2.441  1.00  0.00     0.164 HD
BRANCH  35  38
HETATM   38  O4  UNL     1      -4.423   3.606  -0.486  1.00  0.00    -0.294 OA
BRANCH  38  39
HETATM   39  C10 UNL     1      -4.527   4.544   0.531  1.00  0.00     0.061 C 
HETATM   40  C11 UNL     1      -4.455   5.973   0.097  1.00  0.00     0.046 C 
HETATM   41  C12 UNL     1      -5.910   4.357   1.164  1.00  0.00     0.046 C 
HETATM   42  C13 UNL     1      -3.489   4.358   1.628  1.00  0.00     0.046 C 
ENDBRANCH  38  39
ENDBRANCH  35  38
ENDBRANCH  33  34
ENDBRANCH  32  33
ENDBRANCH   5  32
BRANCH  15  43
HETATM   43  C30 UNL     1      -2.687  -5.582  -0.599  1.00  0.00     0.146 C 
HETATM   44  C31 UNL     1      -3.238  -6.095   0.721  1.00  0.00     0.042 C 
BRANCH  43  45
HETATM   45  O7  UNL     1      -2.009  -6.610  -1.198  1.00  0.00    -0.393 OA
ATOM     46  H7  UNL     1      -2.564  -7.349  -1.417  1.00  0.00     0.210 HD
ENDBRANCH  43  45
ENDBRANCH  15  43
BRANCH   1  47
HETATM   47  C3  UNL     1      -4.736  -1.528  -2.038  1.00  0.00     0.068 C 
BRANCH  47  48
HETATM   48  C2  UNL     1      -5.236  -2.838  -2.441  1.00  0.00    -0.034 C 
HETATM   49  C1  UNL     1      -6.413  -3.269  -2.028  1.00  0.00     0.007 C 
ENDBRANCH  47  48
ENDBRANCH   1  47
TORSDOF 20
