REMARK  4 active torsions:
REMARK  status: ('A' for Active; 'I' for Inactive)
REMARK    1  A    between atoms: O1_2  and  C2_3 
REMARK    2  A    between atoms: C8_10  and  O2_11 
REMARK    3  A    between atoms: N3_19  and  O5_20 
REMARK    4  A    between atoms: O5_20  and  N4_21 
ROOT
HETATM    1  C2  UNL     1      -2.038  -0.179  -0.227  1.00  0.00     0.103 A 
HETATM    2  C3  UNL     1      -1.482   1.014   0.164  1.00  0.00     0.064 A 
HETATM    3  C4  UNL     1      -0.127   1.177   0.462  1.00  0.00     0.077 A 
HETATM    4  C5  UNL     1       0.366   2.468   0.865  1.00  0.00     0.102 C 
HETATM    5  N1  UNL     1       0.735   3.535   1.191  1.00  0.00    -0.191 NA
HETATM    6  C6  UNL     1       0.682   0.104   0.359  1.00  0.00     0.109 A 
HETATM    7  C7  UNL     1       0.157  -1.111  -0.032  1.00  0.00     0.099 A 
HETATM    8  C8  UNL     1      -1.174  -1.247  -0.318  1.00  0.00     0.117 A 
HETATM    9  C9  UNL     1       0.968  -2.226  -0.144  1.00  0.00     0.265 A 
HETATM   10  O3  UNL     1       0.476  -3.346  -0.506  1.00  0.00    -0.267 OA
HETATM   11  N2  UNL     1       2.262  -2.081   0.138  1.00  0.00    -0.273 N 
ATOM     12  H2  UNL     1       2.888  -2.883   0.066  1.00  0.00     0.173 HD
HETATM   13  C10 UNL     1       2.746  -0.896   0.514  1.00  0.00     0.356 A 
HETATM   14  O4  UNL     1       3.998  -0.852   0.763  1.00  0.00    -0.244 OA
HETATM   15  N3  UNL     1       1.985   0.208   0.633  1.00  0.00    -0.143 N 
ENDROOT
BRANCH   1  16
HETATM   16  O1  UNL     1      -3.369  -0.268  -0.502  1.00  0.00    -0.353 OA
HETATM   17  C1  UNL     1      -4.307   0.753  -0.437  1.00  0.00     0.210 C 
ENDBRANCH   1  16
BRANCH  15  18
HETATM   18  O5  UNL     1       2.607   1.337   1.022  1.00  0.00    -0.152 OA
BRANCH  18  19
HETATM   19  N4  UNL     1       3.888   1.661   0.687  1.00  0.00    -0.285 N 
ATOM     20  H42 UNL     1       4.394   0.994   0.104  1.00  0.00     0.186 HD
ATOM     21  H41 UNL     1       4.359   2.516   0.982  1.00  0.00     0.186 HD
ENDBRANCH  18  19
ENDBRANCH  15  18
BRANCH   8  22
HETATM   22  O2  UNL     1      -1.663  -2.481  -0.707  1.00  0.00    -0.357 OA
ATOM     23  H2  UNL     1      -1.067  -3.218  -0.770  1.00  0.00     0.217 HD
ENDBRANCH   8  22
TORSDOF 4
