REMARK  20 active torsions:
REMARK  status: ('A' for Active; 'I' for Inactive)
REMARK    1  A    between atoms: C2_2  and  C3_3 
REMARK    2  A    between atoms: C3_3  and  C4_4 
REMARK    3  A    between atoms: C4_4  and  C5_5 
REMARK    4  A    between atoms: C5_5  and  C6_6 
REMARK    5  A    between atoms: C6_6  and  C7_7 
REMARK    6  A    between atoms: C7_7  and  C8_8 
REMARK    7  A    between atoms: C8_8  and  C9_9 
REMARK    8  A    between atoms: C9_9  and  C10_10 
REMARK    9  A    between atoms: C10_10  and  C11_11 
REMARK   10  A    between atoms: C11_11  and  C12_12 
REMARK   11  A    between atoms: C12_12  and  O2_14 
REMARK   12  A    between atoms: O2_14  and  C13_15 
REMARK   13  A    between atoms: C15_17  and  O3_18 
REMARK   14  A    between atoms: C20_25  and  O4_26 
REMARK   15  A    between atoms: O4_26  and  C21_27 
REMARK   16  A    between atoms: C22_29  and  C23_30 
REMARK   17  A    between atoms: C23_30  and  O6_31 
REMARK   18  A    between atoms: C24_33  and  O7_34 
REMARK   19  A    between atoms: C25_36  and  O8_37 
REMARK   20  A    between atoms: C26_39  and  O9_40 
ROOT
HETATM    1  C13 UNL     1      -0.271   0.325   2.455  1.00  0.00     0.141 C 
HETATM    2  C14 UNL     1      -0.347   1.495   3.468  1.00  0.00     0.066 C 
HETATM    3  C15 UNL     1      -0.534   2.805   2.756  1.00  0.00     0.138 C 
HETATM    4  C16 UNL     1      -1.870   2.756   2.000  1.00  0.00     0.149 C 
HETATM    5  N1  UNL     1      -1.889   1.720   1.033  1.00  0.00    -0.403 N 
HETATM    6  C17 UNL     1      -1.984   2.272  -0.259  1.00  0.00     0.144 C 
HETATM    7  C18 UNL     1      -2.538   0.519   1.370  1.00  0.00     0.057 C 
HETATM    8  C19 UNL     1      -3.829   0.928   2.119  1.00  0.00     0.041 C 
HETATM    9  C20 UNL     1      -3.003  -0.327   0.247  1.00  0.00     0.152 C 
HETATM   10  C27 UNL     1      -1.977  -1.302  -0.277  1.00  0.00     0.035 C 
HETATM   11  C28 UNL     1      -1.678  -2.276   0.800  1.00  0.00     0.012 C 
HETATM   12  C29 UNL     1      -1.724  -1.741   2.183  1.00  0.00    -0.039 C 
HETATM   13  C30 UNL     1      -2.999  -2.274   2.860  1.00  0.00     0.015 C 
HETATM   14  C31 UNL     1      -0.584  -2.407   2.932  1.00  0.00     0.015 C 
HETATM   15  C32 UNL     1      -1.661  -0.260   2.324  1.00  0.00     0.053 C 
ENDROOT
BRANCH   9  16
HETATM   16  O4  UNL     1      -3.546   0.306  -0.848  1.00  0.00    -0.351 OA
BRANCH  16  17
HETATM   17  C21 UNL     1      -4.845  -0.032  -1.151  1.00  0.00     0.292 C 
HETATM   18  O5  UNL     1      -4.944  -0.632  -2.423  1.00  0.00    -0.348 OA
HETATM   19  C22 UNL     1      -6.133  -1.353  -2.443  1.00  0.00     0.179 C 
HETATM   20  C24 UNL     1      -7.292  -0.631  -1.818  1.00  0.00     0.180 C 
HETATM   21  C25 UNL     1      -7.087   0.836  -1.632  1.00  0.00     0.183 C 
HETATM   22  C26 UNL     1      -5.679   1.216  -1.227  1.00  0.00     0.204 C 
BRANCH  19  23
HETATM   23  C23 UNL     1      -6.471  -1.853  -3.828  1.00  0.00     0.198 C 
BRANCH  23  24
HETATM   24  O6  UNL     1      -6.615  -0.787  -4.725  1.00  0.00    -0.398 OA
ATOM     25  H6  UNL     1      -6.828  -1.101  -5.596  1.00  0.00     0.209 HD
ENDBRANCH  23  24
ENDBRANCH  19  23
BRANCH  20  26
HETATM   26  O7  UNL     1      -7.708  -1.255  -0.619  1.00  0.00    -0.390 OA
ATOM     27  H7  UNL     1      -8.441  -0.798  -0.224  1.00  0.00     0.210 HD
ENDBRANCH  20  26
BRANCH  21  28
HETATM   28  O8  UNL     1      -7.926   1.243  -0.579  1.00  0.00    -0.390 OA
ATOM     29  H8  UNL     1      -7.796   2.177  -0.461  1.00  0.00     0.210 HD
ENDBRANCH  21  28
BRANCH  22  30
HETATM   30  O9  UNL     1      -5.179   2.005  -2.289  1.00  0.00    -0.388 OA
ATOM     31  H9  UNL     1      -5.706   2.794  -2.337  1.00  0.00     0.210 HD
ENDBRANCH  22  30
ENDBRANCH  16  17
ENDBRANCH   9  16
BRANCH   1  32
HETATM   32  O2  UNL     1       0.329   0.731   1.276  1.00  0.00    -0.315 OA
BRANCH  32  33
HETATM   33  C12 UNL     1       1.596   0.309   0.912  1.00  0.00     0.259 C 
HETATM   34  O1  UNL     1       2.214  -0.467   1.683  1.00  0.00    -0.265 OA
BRANCH  33  35
HETATM   35  C11 UNL     1       2.245   0.741  -0.355  1.00  0.00     0.111 C 
BRANCH  35  36
HETATM   36  C10 UNL     1       2.142  -0.255  -1.459  1.00  0.00     0.010 C 
BRANCH  36  37
HETATM   37  C9  UNL     1       2.775  -1.575  -1.180  1.00  0.00     0.000 C 
BRANCH  37  38
HETATM   38  C8  UNL     1       4.268  -1.484  -0.913  1.00  0.00     0.000 C 
BRANCH  38  39
HETATM   39  C7  UNL     1       5.013  -0.913  -2.068  1.00  0.00     0.000 C 
BRANCH  39  40
HETATM   40  C6  UNL     1       6.493  -0.847  -1.791  1.00  0.00     0.000 C 
BRANCH  40  41
HETATM   41  C5  UNL     1       6.840   0.001  -0.621  1.00  0.00     0.000 C 
BRANCH  41  42
HETATM   42  C4  UNL     1       8.312   0.050  -0.375  1.00  0.00     0.000 C 
BRANCH  42  43
HETATM   43  C3  UNL     1       9.066   0.619  -1.552  1.00  0.00    -0.000 C 
BRANCH  43  44
HETATM   44  C2  UNL     1      10.561   0.666  -1.255  1.00  0.00    -0.005 C 
HETATM   45  C1  UNL     1      11.243   1.239  -2.460  1.00  0.00     0.005 C 
ENDBRANCH  43  44
ENDBRANCH  42  43
ENDBRANCH  41  42
ENDBRANCH  40  41
ENDBRANCH  39  40
ENDBRANCH  38  39
ENDBRANCH  37  38
ENDBRANCH  36  37
ENDBRANCH  35  36
ENDBRANCH  33  35
ENDBRANCH  32  33
ENDBRANCH   1  32
BRANCH   3  46
HETATM   46  O3  UNL     1      -0.662   3.792   3.709  1.00  0.00    -0.394 OA
ATOM     47  H3  UNL     1      -0.780   4.620   3.259  1.00  0.00     0.210 HD
ENDBRANCH   3  46
TORSDOF 20
