REMARK  0 active torsions:
REMARK  status: ('A' for Active; 'I' for Inactive)
ROOT
HETATM    1  C1  UNL     1       3.802   0.725  -0.500  1.00  0.00     0.029 C 
HETATM    2  C2  UNL     1       3.506   2.143  -0.051  1.00  0.00     0.021 C 
HETATM    3  C3  UNL     1       2.078   2.551  -0.422  1.00  0.00     0.113 C 
HETATM    4  N1  UNL     1       1.275   2.410   0.742  1.00  0.00    -0.421 N 
ATOM      5  H1  UNL     1       1.638   2.002   1.603  1.00  0.00     0.153 HD
HETATM    6  C4  UNL     1      -0.060   2.870   0.634  1.00  0.00     0.114 C 
HETATM    7  C5  UNL     1      -0.857   2.237  -0.477  1.00  0.00     0.029 C 
HETATM    8  C6  UNL     1      -2.004   1.381   0.079  1.00  0.00     0.026 C 
HETATM    9  C7  UNL     1      -2.962   1.108  -1.033  1.00  0.00     0.010 C 
HETATM   10  C8  UNL     1      -4.313   0.635  -0.575  1.00  0.00     0.006 C 
HETATM   11  C9  UNL     1      -4.356  -0.841  -0.273  1.00  0.00     0.045 C 
HETATM   12  C10 UNL     1      -3.378  -1.238   0.797  1.00  0.00     0.068 C 
HETATM   13  N2  UNL     1      -2.030  -1.050   0.474  1.00  0.00    -0.352 N 
HETATM   14  C11 UNL     1      -1.444  -1.865  -0.505  1.00  0.00     0.094 C 
HETATM   15  C12 UNL     1      -0.407  -2.824   0.047  1.00  0.00     0.212 C 
HETATM   16  O1  UNL     1       0.789  -2.721  -0.665  1.00  0.00    -0.385 OA
HETATM   17  C13 UNL     1       1.851  -3.275   0.003  1.00  0.00     0.195 C 
HETATM   18  C14 UNL     1       3.037  -2.337  -0.159  1.00  0.00     0.258 C 
HETATM   19  N3  UNL     1       2.812  -1.192   0.685  1.00  0.00    -0.073 N 
ATOM     20  H31 UNL     1       2.616  -1.481   1.643  1.00  0.00     0.277 HD
ATOM     21  H32 UNL     1       1.924  -0.744   0.459  1.00  0.00     0.277 HD
HETATM   22  C15 UNL     1       3.886  -0.240   0.650  1.00  0.00     0.232 C 
HETATM   23  C16 UNL     1      -1.439   0.195   0.747  1.00  0.00     0.072 C 
ENDROOT
TORSDOF 0
