REMARK  7 active torsions:
REMARK  status: ('A' for Active; 'I' for Inactive)
REMARK       I    between atoms: N1_2  and  C2_4 
REMARK    1  A    between atoms: C2_4  and  C3_6 
REMARK    2  A    between atoms: C4_9  and  N3_10 
REMARK    3  A    between atoms: N3_10  and  C5_12 
REMARK    4  A    between atoms: C6_15  and  N5_16 
REMARK    5  A    between atoms: N5_16  and  C7_18 
REMARK    6  A    between atoms: C10_28  and  N9_29 
REMARK    7  A    between atoms: N9_29  and  C11_31 
ROOT
HETATM    1  C5  UNL     1      -0.459   1.253  -0.918  1.00  0.00     0.713 A 
HETATM    2  N4  UNL     1      -1.508   1.888  -1.460  1.00  0.00    -0.021 N 
ATOM      3  H4  UNL     1      -1.415   2.869  -1.725  1.00  0.00     0.203 HD
HETATM    4  C6  UNL     1      -2.681   1.259  -1.662  1.00  0.00     0.713 A 
HETATM    5  N8  UNL     1      -2.789  -0.023  -1.310  1.00  0.00    -0.021 N 
ATOM      6  H8  UNL     1      -3.675  -0.506  -1.459  1.00  0.00     0.203 HD
HETATM    7  C10 UNL     1      -1.745  -0.707  -0.755  1.00  0.00     0.707 A 
HETATM    8  N10 UNL     1      -0.597  -0.047  -0.571  1.00  0.00    -0.021 N 
ATOM      9  H10 UNL     1       0.196  -0.537  -0.158  1.00  0.00     0.203 HD
ENDROOT
BRANCH   1  10
HETATM   10  N3  UNL     1       0.661   1.828  -0.718  1.00  0.00    -0.174 N 
ATOM     11  H3  UNL     1       0.769   2.808  -0.979  1.00  0.00     0.186 HD
BRANCH  10  12
HETATM   12  C4  UNL     1       1.763   1.141  -0.142  1.00  0.00     0.138 A 
HETATM   13  N2  UNL     1       2.724   0.540  -0.844  1.00  0.00    -0.322 N 
HETATM   14  C3  UNL     1       3.646  -0.035  -0.015  1.00  0.00     0.178 A 
ATOM     15  H2  UNL     1       2.766   0.513  -1.863  1.00  0.00     0.169 HD
HETATM   16  N11 UNL     1       3.227   0.227   1.214  1.00  0.00    -0.339 N 
HETATM   17  C15 UNL     1       2.068   0.950   1.176  1.00  0.00     0.141 A 
HETATM   18  C16 UNL     1       3.877  -0.178   2.456  1.00  0.00     0.157 C 
BRANCH  14  19
HETATM   19  C2  UNL     1       4.793  -0.751  -0.514  1.00  0.00     0.285 C 
HETATM   20  N1  UNL     1       5.782  -1.375   0.253  1.00  0.00    -0.359 N 
HETATM   21  C1  UNL     1       6.878  -2.058  -0.469  1.00  0.00     0.149 C 
ATOM     22  H1  UNL     1       5.749  -1.360   1.272  1.00  0.00     0.162 HD
HETATM   23  O1  UNL     1       4.922  -0.825  -1.799  1.00  0.00    -0.264 OA
ENDBRANCH  14  19
ENDBRANCH  10  12
ENDBRANCH   1  10
BRANCH   4  24
HETATM   24  N5  UNL     1      -3.755   1.974  -2.237  1.00  0.00    -0.168 N 
ATOM     25  H5  UNL     1      -4.091   1.723  -3.167  1.00  0.00     0.186 HD
BRANCH  24  26
HETATM   26  C7  UNL     1      -4.324   2.961  -1.581  1.00  0.00     0.180 A 
HETATM   27  N6  UNL     1      -4.015   3.420  -0.365  1.00  0.00    -0.279 N 
HETATM   28  N7  UNL     1      -4.681   4.389   0.109  1.00  0.00    -0.296 N 
ATOM     29  H6  UNL     1      -3.257   2.999   0.172  1.00  0.00     0.189 HD
HETATM   30  C8  UNL     1      -5.665   4.934  -0.591  1.00  0.00     0.066 A 
ATOM     31  H7  UNL     1      -4.458   4.752   1.036  1.00  0.00     0.187 HD
HETATM   32  C9  UNL     1      -6.571   6.077  -0.225  1.00  0.00     0.078 C 
HETATM   33  S1  UNL     1      -5.619   3.984  -2.021  1.00  0.00    -0.038 SA
ENDBRANCH  24  26
ENDBRANCH   4  24
BRANCH   7  34
HETATM   34  N9  UNL     1      -1.871  -1.918  -0.430  1.00  0.00    -0.217 N 
ATOM     35  H9  UNL     1      -2.792  -2.315  -0.616  1.00  0.00     0.178 HD
BRANCH  34  36
HETATM   36  C11 UNL     1      -0.943  -2.822   0.153  1.00  0.00     0.036 C 
HETATM   37  C12 UNL     1      -0.519  -2.388   1.536  1.00  0.00     0.038 C 
HETATM   38  C13 UNL     1      -1.685  -4.163   0.301  1.00  0.00     0.038 C 
HETATM   39  C14 UNL     1       0.283  -3.088  -0.697  1.00  0.00     0.038 C 
ENDBRANCH  34  36
ENDBRANCH   7  34
TORSDOF 7
