REMARK  9 active torsions:
REMARK  status: ('A' for Active; 'I' for Inactive)
REMARK    1  A    between atoms: O1_2  and  N1_3 
REMARK    2  A    between atoms: N1_3  and  C2_4 
REMARK    3  A    between atoms: C2_4  and  C3_5 
REMARK    4  A    between atoms: C2_4  and  C10_14 
REMARK    5  A    between atoms: C3_5  and  C4_6 
REMARK    6  A    between atoms: C7_9  and  O2_10 
REMARK       I    between atoms: C10_14  and  N2_16 
REMARK    7  A    between atoms: N2_16  and  N3_18 
REMARK    8  A    between atoms: N3_18  and  C11_20 
REMARK    9  A    between atoms: N4_22  and  N5_23 
ROOT
HETATM    1  N5  UNL     1       5.678   0.079   0.496  1.00  0.00    -0.222 N 
HETATM    2  C13 UNL     1       6.084  -1.277   0.644  1.00  0.00     0.192 C 
HETATM    3  C14 UNL     1       6.616   1.004  -0.022  1.00  0.00     0.200 C 
HETATM    4  N6  UNL     1       7.415   1.756  -0.487  1.00  0.00    -0.170 NA
ENDROOT
BRANCH   1   5
HETATM    5  N4  UNL     1       4.431   0.567   0.790  1.00  0.00    -0.203 N 
HETATM    6  C12 UNL     1       3.330   0.509  -0.005  1.00  0.00     0.159 A 
HETATM    7  C11 UNL     1       2.112   1.081   0.291  1.00  0.00     0.134 A 
HETATM    8  C16 UNL     1       2.016   1.771   1.514  1.00  0.00     0.279 A 
HETATM    9  N7  UNL     1       3.099   1.825   2.297  1.00  0.00    -0.272 N 
HETATM   10  O5  UNL     1       0.923   2.316   1.845  1.00  0.00    -0.265 OA
HETATM   11  C15 UNL     1       4.260   1.249   1.953  1.00  0.00     0.348 A 
ATOM     12  H7  UNL     1       3.040   2.321   3.186  1.00  0.00     0.174 HD
HETATM   13  O4  UNL     1       5.263   1.326   2.730  1.00  0.00    -0.245 OA
BRANCH   7  14
HETATM   14  N3  UNL     1       1.020   1.171  -0.604  1.00  0.00    -0.292 N 
ATOM     15  H3  UNL     1       0.918   2.102  -1.009  1.00  0.00     0.187 HD
BRANCH  14  16
HETATM   16  N2  UNL     1       0.097   0.320  -1.037  1.00  0.00    -0.268 N 
HETATM   17  C10 UNL     1      -0.855  -0.434  -0.298  1.00  0.00     0.258 C 
HETATM   18  O3  UNL     1      -0.948  -0.419   0.948  1.00  0.00    -0.270 OA
ATOM     19  H2  UNL     1       0.067   0.188  -2.048  1.00  0.00     0.190 HD
BRANCH  17  20
HETATM   20  C2  UNL     1      -1.806  -1.317  -1.106  1.00  0.00     0.204 C 
BRANCH  20  21
HETATM   21  N1  UNL     1      -1.062  -2.401  -1.597  1.00  0.00    -0.087 NA
BRANCH  21  22
HETATM   22  O1  UNL     1      -1.820  -3.410  -2.088  1.00  0.00    -0.291 OA
HETATM   23  C1  UNL     1      -2.469  -4.059  -1.029  1.00  0.00     0.231 C 
ENDBRANCH  21  22
ENDBRANCH  20  21
BRANCH  20  24
HETATM   24  C3  UNL     1      -2.674  -0.506  -2.015  1.00  0.00     0.072 C 
BRANCH  24  25
HETATM   25  C4  UNL     1      -3.397   0.464  -1.070  1.00  0.00    -0.056 A 
HETATM   26  C5  UNL     1      -3.133   1.779  -0.923  1.00  0.00     0.010 A 
HETATM   27  C6  UNL     1      -3.772   2.505   0.081  1.00  0.00     0.037 A 
HETATM   28  C7  UNL     1      -4.676   1.928   0.951  1.00  0.00     0.065 A 
HETATM   29  C8  UNL     1      -4.944   0.568   0.788  1.00  0.00     0.037 A 
HETATM   30  C9  UNL     1      -4.316  -0.122  -0.195  1.00  0.00     0.010 A 
BRANCH  28  31
HETATM   31  O2  UNL     1      -5.316   2.635   1.947  1.00  0.00    -0.361 OA
ATOM     32  H2  UNL     1      -5.938   2.238   2.545  1.00  0.00     0.217 HD
ENDBRANCH  28  31
ENDBRANCH  24  25
ENDBRANCH  20  24
ENDBRANCH  17  20
ENDBRANCH  14  16
ENDBRANCH   7  14
ENDBRANCH   1   5
TORSDOF 9
