REMARK  12 active torsions:
REMARK  status: ('A' for Active; 'I' for Inactive)
REMARK    1  A    between atoms: C2_2  and  O2_4 
REMARK    2  A    between atoms: O2_4  and  C3_5 
REMARK    3  A    between atoms: C3_5  and  C5_7 
REMARK    4  A    between atoms: C5_7  and  C7_9 
REMARK    5  A    between atoms: C7_9  and  C8_10 
REMARK    6  A    between atoms: C8_10  and  O3_11 
REMARK    7  A    between atoms: C8_10  and  C9_13 
REMARK    8  A    between atoms: C9_13  and  C11_15 
REMARK    9  A    between atoms: C15_19  and  O4_20 
REMARK   10  A    between atoms: C19_28  and  C20_29 
REMARK   11  A    between atoms: C21_32  and  C22_33 
REMARK   12  A    between atoms: C27_39  and  O9_40 
ROOT
HETATM    1  C11 UNL     1       0.331  -0.399   2.290  1.00  0.00    -0.044 C 
HETATM    2  C12 UNL     1       0.120  -1.333   1.180  1.00  0.00     0.064 C 
HETATM    3  C13 UNL     1      -0.658  -0.876   0.015  1.00  0.00    -0.014 C 
HETATM    4  C14 UNL     1      -1.864  -0.461  -0.326  1.00  0.00    -0.015 C 
HETATM    5  C15 UNL     1      -1.747  -0.198  -1.810  1.00  0.00     0.210 C 
HETATM    6 CL1  UNL     1      -1.404   1.517  -2.113  1.00  0.00    -0.076 Cl
HETATM    7  C16 UNL     1      -3.001  -0.643  -2.414  1.00  0.00     0.120 C 
HETATM    8  C17 UNL     1      -3.080  -1.490  -3.404  1.00  0.00     0.042 C 
HETATM    9  C18 UNL     1      -4.411  -1.875  -3.945  1.00  0.00     0.064 C 
HETATM   10 CL2  UNL     1      -1.658  -2.182  -4.112  1.00  0.00    -0.087 Cl
HETATM   11  O5  UNL     1      -4.147  -0.073  -1.835  1.00  0.00    -0.325 OA
HETATM   12  C19 UNL     1      -4.240   0.297  -0.474  1.00  0.00     0.176 C 
HETATM   13  C21 UNL     1      -5.193  -0.721   0.176  1.00  0.00     0.095 C 
HETATM   14  C23 UNL     1      -3.981  -1.479   0.612  1.00  0.00     0.033 C 
HETATM   15  C24 UNL     1      -3.142  -0.235   0.378  1.00  0.00     0.031 C 
HETATM   16  C25 UNL     1      -2.889   0.432   1.684  1.00  0.00     0.020 C 
HETATM   17  C26 UNL     1      -2.170  -0.580   2.591  1.00  0.00     0.037 C 
HETATM   18  C27 UNL     1      -0.904   0.032   3.037  1.00  0.00     0.147 C 
ENDROOT
BRANCH   1  19
HETATM   19  C9  UNL     1       1.333   0.701   2.154  1.00  0.00    -0.050 C 
HETATM   20  C10 UNL     1       0.861   1.952   1.489  1.00  0.00     0.046 C 
BRANCH  19  21
HETATM   21  C8  UNL     1       2.746   0.317   1.936  1.00  0.00     0.147 C 
BRANCH  21  22
HETATM   22  C7  UNL     1       3.314   0.077   0.617  1.00  0.00     0.043 C 
BRANCH  22  23
HETATM   23  C5  UNL     1       3.411   1.205  -0.355  1.00  0.00     0.013 C 
HETATM   24  C6  UNL     1       4.441   2.245   0.076  1.00  0.00     0.012 C 
BRANCH  23  25
HETATM   25  C3  UNL     1       4.038   0.589  -1.629  1.00  0.00     0.131 C 
HETATM   26  C4  UNL     1       3.094  -0.383  -2.280  1.00  0.00     0.040 C 
BRANCH  25  27
HETATM   27  O2  UNL     1       5.290   0.006  -1.331  1.00  0.00    -0.316 OA
BRANCH  27  28
HETATM   28  C2  UNL     1       6.486   0.443  -1.852  1.00  0.00     0.255 C 
HETATM   29  C1  UNL     1       7.787  -0.194  -1.517  1.00  0.00     0.126 C 
HETATM   30  O1  UNL     1       6.472   1.425  -2.646  1.00  0.00    -0.266 OA
ENDBRANCH  27  28
ENDBRANCH  25  27
ENDBRANCH  23  25
ENDBRANCH  22  23
ENDBRANCH  21  22
BRANCH  21  31
HETATM   31  O3  UNL     1       2.845  -0.959   2.621  1.00  0.00    -0.391 OA
ATOM     32  H3  UNL     1       2.474  -0.802   3.482  1.00  0.00     0.210 HD
ENDBRANCH  21  31
ENDBRANCH  19  21
ENDBRANCH   1  19
BRANCH  18  33
HETATM   33  O9  UNL     1      -0.749  -0.145   4.437  1.00  0.00    -0.391 OA
ATOM     34  H9  UNL     1      -1.528   0.127   4.908  1.00  0.00     0.210 HD
ENDBRANCH  18  33
BRANCH   5  35
HETATM   35  O4  UNL     1      -0.637  -0.905  -2.260  1.00  0.00    -0.366 OA
ATOM     36  H4  UNL     1      -0.563  -0.740  -3.193  1.00  0.00     0.212 HD
ENDBRANCH   5  35
BRANCH  12  37
HETATM   37  C20 UNL     1      -4.649   1.689  -0.345  1.00  0.00     0.211 C 
HETATM   38  O6  UNL     1      -4.817   2.358   0.694  1.00  0.00    -0.646 OA
HETATM   39  O7  UNL     1      -4.901   2.418  -1.527  1.00  0.00    -0.646 OA
ENDBRANCH  12  37
BRANCH  13  40
HETATM   40  C22 UNL     1      -6.073  -0.152   1.193  1.00  0.00     0.239 C 
HETATM   41  O8  UNL     1      -6.195  -0.682   2.285  1.00  0.00    -0.306 OA
ENDBRANCH  13  40
TORSDOF 12
