REMARK  6 active torsions:
REMARK  status: ('A' for Active; 'I' for Inactive)
REMARK    1  A    between atoms: C2_2  and  N1_3 
REMARK    2  A    between atoms: C2_2  and  N3_17 
REMARK       I    between atoms: N1_3  and  C3_5 
REMARK    3  A    between atoms: C3_5  and  C4_7 
REMARK       I    between atoms: C4_7  and  N2_9 
REMARK    4  A    between atoms: N2_9  and  C5_11 
REMARK    5  A    between atoms: C5_11  and  C6_12 
REMARK    6  A    between atoms: N3_17  and  C11_19 
ROOT
HETATM    1  C11 UNL     1      -0.884   0.995   0.047  1.00  0.00     0.028 C 
HETATM    2  C12 UNL     1      -1.817   2.001  -0.532  1.00  0.00     0.032 C 
HETATM    3  C13 UNL     1      -3.117   1.905   0.244  1.00  0.00     0.017 C 
HETATM    4  C14 UNL     1      -3.192   0.840   1.243  1.00  0.00    -0.008 C 
HETATM    5  C15 UNL     1      -4.603   0.436   1.305  1.00  0.00     0.073 C 
HETATM    6  N4  UNL     1      -5.191  -0.208   0.365  1.00  0.00    -0.365 N 
HETATM    7  C16 UNL     1      -6.564  -0.401   0.881  1.00  0.00     0.131 C 
HETATM    8  C17 UNL     1      -6.587  -1.978   0.943  1.00  0.00     0.047 C 
HETATM    9  C18 UNL     1      -5.300  -2.649   1.058  1.00  0.00    -0.028 C 
HETATM   10  C19 UNL     1      -4.100  -2.681   0.291  1.00  0.00    -0.015 C 
HETATM   11  C20 UNL     1      -3.571  -1.657  -0.678  1.00  0.00     0.020 C 
HETATM   12  C21 UNL     1      -3.281  -2.197  -2.058  1.00  0.00     0.020 C 
HETATM   13  C22 UNL     1      -4.473  -2.373  -2.930  1.00  0.00     0.002 C 
HETATM   14  C23 UNL     1      -4.997  -1.032  -3.340  1.00  0.00     0.006 C 
HETATM   15  C24 UNL     1      -4.966  -0.095  -2.153  1.00  0.00     0.054 C 
HETATM   16  C25 UNL     1      -4.875  -0.795  -0.899  1.00  0.00     0.001 C 
HETATM   17  C26 UNL     1      -2.571  -0.706  -0.346  1.00  0.00     0.007 C 
HETATM   18  C27 UNL     1      -2.564  -0.520   1.099  1.00  0.00     0.021 C 
HETATM   19  C28 UNL     1      -1.154  -0.432  -0.525  1.00  0.00     0.036 C 
HETATM   20  C29 UNL     1      -2.295   1.321   2.226  1.00  0.00     0.017 C 
HETATM   21  C30 UNL     1      -0.914   1.196   1.523  1.00  0.00     0.032 C 
ENDROOT
BRANCH   1  22
HETATM   22  N3  UNL     1       0.455   1.179  -0.340  1.00  0.00    -0.393 N 
ATOM     23  H3  UNL     1       0.827   0.428  -0.921  1.00  0.00     0.156 HD
BRANCH  22  24
HETATM   24  C2  UNL     1       1.338   2.166  -0.084  1.00  0.00     0.176 C 
HETATM   25  C1  UNL     1       1.050   3.535  -0.641  1.00  0.00     0.055 C 
BRANCH  24  26
HETATM   26  N1  UNL     1       2.622   1.782  -0.678  1.00  0.00    -0.333 N 
HETATM   27  C3  UNL     1       3.782   1.640   0.085  1.00  0.00     0.310 C 
HETATM   28  O1  UNL     1       3.723   1.847   1.328  1.00  0.00    -0.262 OA
ATOM     29  H1  UNL     1       2.669   1.613  -1.683  1.00  0.00     0.165 HD
BRANCH  27  30
HETATM   30  C4  UNL     1       5.062   1.263  -0.484  1.00  0.00     0.309 C 
HETATM   31  O2  UNL     1       5.155   1.070  -1.745  1.00  0.00    -0.262 OA
HETATM   32  N2  UNL     1       6.224   1.099   0.311  1.00  0.00    -0.353 N 
ATOM     33  H2  UNL     1       6.164   1.245   1.319  1.00  0.00     0.162 HD
BRANCH  32  34
HETATM   34  C5  UNL     1       7.481   0.733  -0.270  1.00  0.00     0.127 C 
BRANCH  34  35
HETATM   35  C6  UNL     1       8.575   0.595   0.779  1.00  0.00     0.003 C 
HETATM   36  C7  UNL     1       9.844   0.215   0.033  1.00  0.00     0.006 C 
HETATM   37  C8  UNL     1       9.644  -1.252  -0.189  1.00  0.00     0.000 C 
HETATM   38  C9  UNL     1       9.032  -1.734   1.085  1.00  0.00     0.000 C 
HETATM   39  C10 UNL     1       8.298  -0.582   1.696  1.00  0.00     0.006 C 
ENDBRANCH  34  35
ENDBRANCH  32  34
ENDBRANCH  27  30
ENDBRANCH  24  26
ENDBRANCH  22  24
ENDBRANCH   1  22
TORSDOF 6
