REMARK  9 active torsions:
REMARK  status: ('A' for Active; 'I' for Inactive)
REMARK    1  A    between atoms: C2_2  and  C3_3 
REMARK    2  A    between atoms: C3_3  and  C4_4 
REMARK    3  A    between atoms: C4_4  and  O1_5 
REMARK    4  A    between atoms: O1_5  and  C5_6 
REMARK    5  A    between atoms: C5_6  and  C6_7 
REMARK    6  A    between atoms: C6_7  and  C7_8 
REMARK    7  A    between atoms: C7_8  and  N1_9 
REMARK    8  A    between atoms: N1_9  and  C8_11 
REMARK    9  A    between atoms: C9_14  and  N3_15 
ROOT
HETATM    1  C8  UNL     1      -1.769   0.705   1.382  1.00  0.00     0.146 A 
HETATM    2  N2  UNL     1      -2.093   0.679   2.700  1.00  0.00    -0.175 N 
ATOM      3  H2  UNL     1      -1.415   1.044   3.369  1.00  0.00     0.186 HD
HETATM    4  C9  UNL     1      -3.255   0.201   3.175  1.00  0.00     0.678 A 
HETATM    5  N4  UNL     1      -4.136  -0.278   2.268  1.00  0.00    -0.189 N 
ATOM      6  H4  UNL     1      -5.027  -0.649   2.599  1.00  0.00     0.184 HD
HETATM    7  C10 UNL     1      -3.884  -0.285   0.946  1.00  0.00     0.092 A 
HETATM    8  C11 UNL     1      -2.685   0.211   0.477  1.00  0.00     0.106 A 
HETATM    9  N5  UNL     1      -2.662   0.098  -0.871  1.00  0.00    -0.351 N 
ATOM     10  H5  UNL     1      -1.888   0.391  -1.468  1.00  0.00     0.166 HD
HETATM   11  C12 UNL     1      -3.810  -0.458  -1.313  1.00  0.00     0.045 A 
HETATM   12  C13 UNL     1      -4.254  -0.773  -2.580  1.00  0.00     0.030 A 
HETATM   13  C14 UNL     1      -5.502  -1.345  -2.703  1.00  0.00     0.002 A 
HETATM   14  C15 UNL     1      -6.288  -1.595  -1.573  1.00  0.00     0.001 A 
HETATM   15  C16 UNL     1      -5.806  -1.264  -0.315  1.00  0.00     0.016 A 
HETATM   16  C17 UNL     1      -4.569  -0.696  -0.180  1.00  0.00     0.020 A 
ENDROOT
BRANCH   1  17
HETATM   17  N1  UNL     1      -0.530   1.221   0.929  1.00  0.00    -0.374 N 
ATOM     18  H1  UNL     1      -0.336   1.218  -0.072  1.00  0.00     0.161 HD
BRANCH  17  19
HETATM   19  C7  UNL     1       0.471   1.752   1.828  1.00  0.00     0.123 C 
BRANCH  19  20
HETATM   20  C6  UNL     1       1.695   2.236   1.093  1.00  0.00     0.046 C 
BRANCH  20  21
HETATM   21  C5  UNL     1       2.356   1.114   0.307  1.00  0.00     0.169 C 
BRANCH  21  22
HETATM   22  O1  UNL     1       3.467   1.630  -0.337  1.00  0.00    -0.391 OA
BRANCH  22  23
HETATM   23  C4  UNL     1       4.071   0.650  -1.093  1.00  0.00     0.167 C 
BRANCH  23  24
HETATM   24  C3  UNL     1       4.538  -0.511  -0.286  1.00  0.00     0.026 C 
BRANCH  24  25
HETATM   25  C2  UNL     1       5.211  -1.521  -1.211  1.00  0.00    -0.002 C 
HETATM   26  C1  UNL     1       6.396  -0.931  -1.924  1.00  0.00     0.005 C 
ENDBRANCH  24  25
ENDBRANCH  23  24
ENDBRANCH  22  23
ENDBRANCH  21  22
ENDBRANCH  20  21
ENDBRANCH  19  20
ENDBRANCH  17  19
ENDBRANCH   1  17
BRANCH   4  27
HETATM   27  N3  UNL     1      -3.528   0.194   4.449  1.00  0.00    -0.234 N 
ATOM     28  H32 UNL     1      -2.863   0.555   5.133  1.00  0.00     0.174 HD
ATOM     29  H31 UNL     1      -4.410  -0.169   4.810  1.00  0.00     0.174 HD
ENDBRANCH   4  27
TORSDOF 9
