REMARK  11 active torsions:
REMARK  status: ('A' for Active; 'I' for Inactive)
REMARK    1  A    between atoms: C2_2  and  N1_3 
REMARK    2  A    between atoms: C2_2  and  C16_24 
REMARK    3  A    between atoms: N1_3  and  C3_5 
REMARK    4  A    between atoms: C3_5  and  C4_6 
REMARK    5  A    between atoms: C3_5  and  C8_14 
REMARK    6  A    between atoms: C4_6  and  C5_7 
REMARK       I    between atoms: C8_14  and  N4_16 
REMARK    7  A    between atoms: N4_16  and  C10_18 
REMARK    8  A    between atoms: C16_24  and  N5_25 
REMARK    9  A    between atoms: C16_24  and  C28_43 
REMARK       I    between atoms: N5_25  and  C17_27 
REMARK   10  A    between atoms: C17_27  and  C18_29 
REMARK   11  A    between atoms: C18_29  and  N6_30 
ROOT
HETATM    1  C16 UNL     1      -1.187   2.122   0.016  1.00  0.00     0.110 C 
ENDROOT
BRANCH   1   2
HETATM    2  C2  UNL     1       0.229   2.055   0.585  1.00  0.00     0.096 C 
HETATM    3  C1  UNL     1       0.290   2.223   2.066  1.00  0.00     0.034 C 
BRANCH   2   4
HETATM    4  N1  UNL     1       0.868   0.837   0.194  1.00  0.00    -0.403 N 
ATOM      5  H1  UNL     1       0.357   0.073  -0.248  1.00  0.00     0.154 HD
BRANCH   4   6
HETATM    6  C3  UNL     1       2.272   0.761   0.464  1.00  0.00     0.175 C 
BRANCH   6   7
HETATM    7  C4  UNL     1       3.051   1.795  -0.327  1.00  0.00     0.093 C 
BRANCH   7   8
HETATM    8  C5  UNL     1       2.858   1.600  -1.792  1.00  0.00     0.028 A 
HETATM    9  C6  UNL     1       3.433   2.368  -2.777  1.00  0.00     0.114 A 
HETATM   10  N2  UNL     1       3.013   1.876  -3.970  1.00  0.00    -0.360 N 
HETATM   11  C7  UNL     1       2.202   0.834  -3.754  1.00  0.00     0.180 A 
ATOM     12  H2  UNL     1       3.274   2.242  -4.885  1.00  0.00     0.166 HD
HETATM   13  N3  UNL     1       2.115   0.675  -2.421  1.00  0.00    -0.354 N 
ATOM     14  H3  UNL     1       1.563  -0.045  -1.955  1.00  0.00     0.166 HD
ENDBRANCH   7   8
ENDBRANCH   6   7
BRANCH   6  15
HETATM   15  C8  UNL     1       2.776  -0.629   0.241  1.00  0.00     0.242 C 
HETATM   16  O1  UNL     1       1.955  -1.465  -0.304  1.00  0.00    -0.271 OA
HETATM   17  N4  UNL     1       4.029  -1.148   0.551  1.00  0.00    -0.350 N 
HETATM   18  C9  UNL     1       5.056  -0.375   1.193  1.00  0.00     0.153 C 
BRANCH  17  19
HETATM   19  C10 UNL     1       4.379  -2.537   0.241  1.00  0.00     0.086 C 
HETATM   20  C11 UNL     1       5.470  -2.503  -0.802  1.00  0.00     0.025 C 
HETATM   21  C12 UNL     1       5.939  -3.855  -1.230  1.00  0.00     0.002 C 
HETATM   22  C13 UNL     1       6.187  -4.704  -0.010  1.00  0.00     0.000 C 
HETATM   23  C14 UNL     1       6.205  -3.840   1.213  1.00  0.00     0.002 C 
HETATM   24  C15 UNL     1       4.798  -3.314   1.444  1.00  0.00     0.025 C 
ENDBRANCH  17  19
ENDBRANCH   6  15
ENDBRANCH   4   6
ENDBRANCH   2   4
ENDBRANCH   1   2
BRANCH   1  25
HETATM   25  N5  UNL     1      -2.034   1.114   0.587  1.00  0.00    -0.352 N 
HETATM   26  C17 UNL     1      -2.559   0.003  -0.127  1.00  0.00     0.255 C 
HETATM   27  O2  UNL     1      -2.246  -0.079  -1.346  1.00  0.00    -0.271 OA
ATOM     28  H5  UNL     1      -2.276   1.201   1.574  1.00  0.00     0.163 HD
BRANCH  26  29
HETATM   29  C18 UNL     1      -3.419  -0.999   0.506  1.00  0.00     0.210 C 
HETATM   30  C19 UNL     1      -4.843  -0.951  -0.010  1.00  0.00     0.032 C 
HETATM   31  C20 UNL     1      -5.691  -1.733   0.947  1.00  0.00     0.012 C 
HETATM   32  C24 UNL     1      -4.994  -1.506  -1.387  1.00  0.00     0.012 C 
HETATM   33  C21 UNL     1      -5.226  -3.171   0.939  1.00  0.00    -0.013 C 
HETATM   34  C22 UNL     1      -5.420  -3.747  -0.455  1.00  0.00     0.009 C 
HETATM   35  C27 UNL     1      -3.781  -3.258   1.362  1.00  0.00     0.012 C 
HETATM   36  C23 UNL     1      -4.565  -2.963  -1.403  1.00  0.00    -0.013 C 
HETATM   37  C25 UNL     1      -3.127  -3.015  -0.963  1.00  0.00     0.012 C 
HETATM   38  C26 UNL     1      -2.936  -2.407   0.410  1.00  0.00     0.032 C 
BRANCH  29  39
HETATM   39  N6  UNL     1      -3.525  -0.663   1.936  1.00  0.00    -0.061 N 
ATOM     40  H63 UNL     1      -2.616  -0.578   2.391  1.00  0.00     0.275 HD
ATOM     41  H62 UNL     1      -3.846   0.292   2.095  1.00  0.00     0.275 HD
ATOM     42  H61 UNL     1      -4.124  -1.361   2.377  1.00  0.00     0.275 HD
ENDBRANCH  29  39
ENDBRANCH  26  29
ENDBRANCH   1  25
BRANCH   1  43
HETATM   43  C28 UNL     1      -1.793   3.462  -0.045  1.00  0.00     0.010 C 
HETATM   44  C29 UNL     1      -1.021   4.453  -0.894  1.00  0.00     0.007 C 
HETATM   45  C30 UNL     1      -1.960   5.654  -1.101  1.00  0.00     0.000 C 
HETATM   46  C31 UNL     1      -2.130   6.292   0.259  1.00  0.00     0.000 C 
HETATM   47  C32 UNL     1      -2.986   5.328   1.088  1.00  0.00     0.000 C 
HETATM   48  C33 UNL     1      -2.201   4.026   1.268  1.00  0.00     0.007 C 
ENDBRANCH   1  43
TORSDOF 11
