REMARK  7 active torsions:
REMARK  status: ('A' for Active; 'I' for Inactive)
REMARK    1  A    between atoms: C6_6  and  N1_7 
REMARK    2  A    between atoms: N1_7  and  C7_9 
REMARK    3  A    between atoms: C14_20  and  C15_21 
REMARK    4  A    between atoms: C17_24  and  N4_25 
REMARK    5  A    between atoms: N4_25  and  C18_27 
REMARK    6  A    between atoms: C18_27  and  C19_28 
REMARK    7  A    between atoms: C19_28  and  C20_29 
ROOT
HETATM    1  C7  UNL     1      -2.322  -1.048  -0.388  1.00  0.00     0.136 A 
HETATM    2  N2  UNL     1      -3.463  -1.791  -0.185  1.00  0.00    -0.339 N 
ATOM      3  H2  UNL     1      -4.372  -1.337  -0.276  1.00  0.00     0.167 HD
HETATM    4  C8  UNL     1      -3.416  -3.089   0.128  1.00  0.00     0.060 A 
HETATM    5  C9  UNL     1      -4.547  -3.846   0.336  1.00  0.00     0.032 A 
HETATM    6  C10 UNL     1      -4.447  -5.176   0.657  1.00  0.00     0.002 A 
HETATM    7  C11 UNL     1      -3.230  -5.804   0.785  1.00  0.00     0.002 A 
HETATM    8  C12 UNL     1      -2.106  -5.045   0.577  1.00  0.00     0.032 A 
HETATM    9  C13 UNL     1      -2.186  -3.706   0.253  1.00  0.00     0.059 A 
HETATM   10  N3  UNL     1      -1.099  -2.956   0.049  1.00  0.00    -0.350 N 
ATOM     11  H3  UNL     1      -0.190  -3.409   0.141  1.00  0.00     0.166 HD
HETATM   12  C14 UNL     1      -1.113  -1.637  -0.271  1.00  0.00     0.105 A 
ENDROOT
BRANCH  12  13
HETATM   13  C15 UNL     1       0.160  -0.887  -0.479  1.00  0.00     0.071 A 
HETATM   14  C16 UNL     1       0.199   0.431  -0.793  1.00  0.00     0.085 A 
HETATM   15  S1  UNL     1       1.909   0.734  -0.899  1.00  0.00    -0.064 SA
HETATM   16  C17 UNL     1       2.435  -0.831  -0.536  1.00  0.00     0.144 A 
HETATM   17  N7  UNL     1       1.320  -1.510  -0.353  1.00  0.00    -0.334 N 
ATOM     18  H7  UNL     1       1.351  -2.502  -0.118  1.00  0.00     0.168 HD
BRANCH  16  19
HETATM   19  N4  UNL     1       3.672  -1.266  -0.455  1.00  0.00    -0.370 N 
ATOM     20  H4  UNL     1       3.871  -2.240  -0.228  1.00  0.00     0.161 HD
BRANCH  19  21
HETATM   21  C18 UNL     1       4.739  -0.329  -0.695  1.00  0.00     0.126 C 
BRANCH  21  22
HETATM   22  C19 UNL     1       4.940   0.436   0.601  1.00  0.00     0.060 C 
BRANCH  22  23
HETATM   23  C20 UNL     1       6.036   1.410   0.379  1.00  0.00    -0.027 A 
HETATM   24  C21 UNL     1       5.891   2.775   0.187  1.00  0.00     0.097 A 
HETATM   25  N5  UNL     1       7.096   3.309   0.024  1.00  0.00    -0.351 N 
HETATM   26  C22 UNL     1       8.034   2.346   0.101  1.00  0.00     0.115 A 
ATOM     27  H5  UNL     1       7.283   4.299  -0.135  1.00  0.00     0.166 HD
HETATM   28  N6  UNL     1       9.390   2.358   0.006  1.00  0.00    -0.352 N 
HETATM   29  C26 UNL     1       7.384   1.163   0.321  1.00  0.00     0.016 A 
HETATM   30  C23 UNL     1      10.136   1.246   0.118  1.00  0.00     0.089 A 
ATOM     31  H6  UNL     1       9.861   3.248  -0.157  1.00  0.00     0.166 HD
HETATM   32  C24 UNL     1       9.482   0.056   0.340  1.00  0.00     0.018 A 
HETATM   33  C25 UNL     1       8.106   0.010   0.442  1.00  0.00     0.017 A 
ENDBRANCH  22  23
ENDBRANCH  21  22
ENDBRANCH  19  21
ENDBRANCH  16  19
ENDBRANCH  12  13
BRANCH   1  34
HETATM   34  N1  UNL     1      -2.511   0.182  -0.682  1.00  0.00    -0.341 N 
ATOM     35  H1  UNL     1      -1.678   0.750  -0.836  1.00  0.00     0.167 HD
BRANCH  34  36
HETATM   36  C6  UNL     1      -3.750   0.831  -0.814  1.00  0.00     0.034 A 
HETATM   37  C5  UNL     1      -4.261   1.577   0.235  1.00  0.00     0.041 A 
HETATM   38  C4  UNL     1      -5.468   2.237   0.165  1.00  0.00    -0.024 A 
HETATM   39  C3  UNL     1      -5.951   2.977   1.235  1.00  0.00     0.012 A 
HETATM   40  C29 UNL     1      -6.213   2.170  -0.975  1.00  0.00    -0.026 A 
HETATM   41  C2  UNL     1      -7.163   3.626   1.132  1.00  0.00     0.001 A 
HETATM   42  C1  UNL     1      -7.914   3.557  -0.021  1.00  0.00     0.001 A 
HETATM   43  C30 UNL     1      -7.423   2.821  -1.073  1.00  0.00     0.012 A 
HETATM   44  C28 UNL     1      -5.717   1.422  -2.050  1.00  0.00     0.014 A 
HETATM   45  C27 UNL     1      -4.512   0.769  -1.966  1.00  0.00     0.030 A 
ENDBRANCH  34  36
ENDBRANCH   1  34
TORSDOF 7
