REMARK  12 active torsions:
REMARK  status: ('A' for Active; 'I' for Inactive)
REMARK    1  A    between atoms: C4_5  and  C5_6 
REMARK    2  A    between atoms: C5_6  and  C6_7 
REMARK    3  A    between atoms: C6_7  and  C7_8 
REMARK    4  A    between atoms: C12_13  and  N1_14 
REMARK       I    between atoms: N1_14  and  C13_16 
REMARK    5  A    between atoms: C18_25  and  C19_26 
REMARK    6  A    between atoms: C19_26  and  C20_28 
REMARK    7  A    between atoms: C20_28  and  C21_29 
REMARK    8  A    between atoms: C21_29  and  C22_30 
REMARK    9  A    between atoms: C22_30  and  C23_31 
REMARK   10  A    between atoms: C23_31  and  C24_32 
REMARK   11  A    between atoms: C24_32  and  C25_33 
REMARK   12  A    between atoms: C26_36  and  O4_37 
ROOT
HETATM    1  C1  UNL     1      -0.587  -3.185   0.844  1.00  0.00     0.025 C 
HETATM    2  C2  UNL     1      -0.508  -1.919   0.016  1.00  0.00     0.029 C 
HETATM    3  C3  UNL     1      -1.485  -1.949  -1.130  1.00  0.00     0.141 C 
HETATM    4  O1  UNL     1      -1.772  -2.812  -1.921  1.00  0.00    -0.297 OA
HETATM    5  C4  UNL     1      -1.854  -0.563  -0.819  1.00  0.00     0.065 C 
HETATM    6  C14 UNL     1      -1.334  -0.791   0.569  1.00  0.00     0.035 C 
HETATM    7  C15 UNL     1      -0.577   0.306   1.170  1.00  0.00    -0.024 C 
HETATM    8  C16 UNL     1       0.664   0.524   0.854  1.00  0.00    -0.024 C 
HETATM    9  C17 UNL     1       1.412  -0.287  -0.112  1.00  0.00     0.027 C 
HETATM   10  C18 UNL     1       2.798  -0.517   0.509  1.00  0.00     0.092 C 
HETATM   11  C26 UNL     1       3.155  -1.855  -0.144  1.00  0.00     0.130 C 
HETATM   12  C27 UNL     1       1.847  -2.608   0.143  1.00  0.00     0.039 C 
HETATM   13  C28 UNL     1       0.838  -1.600  -0.434  1.00  0.00     0.013 C 
ENDROOT
BRANCH   5  14
HETATM   14  C5  UNL     1      -3.296  -0.170  -0.986  1.00  0.00     0.013 C 
BRANCH  14  15
HETATM   15  C6  UNL     1      -4.188  -0.964  -0.137  1.00  0.00     0.007 C 
BRANCH  15  16
HETATM   16  C7  UNL     1      -5.649  -0.694  -0.230  1.00  0.00     0.008 C 
HETATM   17  C8  UNL     1      -6.253  -0.908  -1.603  1.00  0.00     0.007 C 
HETATM   18  C9  UNL     1      -7.615  -0.251  -1.706  1.00  0.00     0.001 C 
HETATM   19  C10 UNL     1      -8.300  -0.366  -0.369  1.00  0.00     0.002 C 
HETATM   20  C11 UNL     1      -7.592   0.385   0.736  1.00  0.00     0.025 C 
HETATM   21  C12 UNL     1      -6.115   0.590   0.398  1.00  0.00     0.088 C 
BRANCH  21  22
HETATM   22  N1  UNL     1      -5.898   1.754  -0.375  1.00  0.00    -0.360 N 
HETATM   23  C13 UNL     1      -6.270   3.015   0.137  1.00  0.00     0.182 C 
HETATM   24  N2  UNL     1      -6.127   3.232   1.393  1.00  0.00    -0.374 N 
HETATM   25  N3  UNL     1      -6.796   4.059  -0.672  1.00  0.00    -0.064 NA
ATOM     26  H22 UNL     1      -5.750   2.483   1.973  1.00  0.00     0.158 HD
ATOM     27  H21 UNL     1      -6.396   4.144   1.763  1.00  0.00     0.158 HD
ATOM     28  H1  UNL     1      -5.474   1.682  -1.300  1.00  0.00     0.162 HD
ENDBRANCH  21  22
ENDBRANCH  15  16
ENDBRANCH  14  15
ENDBRANCH   5  14
BRANCH  10  29
HETATM   29  C19 UNL     1       3.763   0.491   0.049  1.00  0.00     0.134 C 
HETATM   30  O2  UNL     1       3.439   1.354  -0.748  1.00  0.00    -0.297 OA
BRANCH  29  31
HETATM   31  C20 UNL     1       5.149   0.468   0.552  1.00  0.00     0.079 C 
BRANCH  31  32
HETATM   32  C21 UNL     1       6.126  -0.062  -0.471  1.00  0.00     0.007 C 
BRANCH  32  33
HETATM   33  C22 UNL     1       7.550  -0.082   0.033  1.00  0.00     0.001 C 
BRANCH  33  34
HETATM   34  C23 UNL     1       8.055   1.270   0.408  1.00  0.00     0.009 C 
BRANCH  34  35
HETATM   35  C24 UNL     1       9.477   1.148   0.889  1.00  0.00     0.099 C 
BRANCH  35  36
HETATM   36  C25 UNL     1       9.975   2.487   1.257  1.00  0.00     0.231 C 
HETATM   37  N4  UNL     1      11.299   2.615   1.744  1.00  0.00    -0.062 NA
HETATM   38  O3  UNL     1       9.239   3.481   1.138  1.00  0.00    -0.277 OA
ENDBRANCH  35  36
ENDBRANCH  34  35
ENDBRANCH  33  34
ENDBRANCH  32  33
ENDBRANCH  31  32
ENDBRANCH  29  31
ENDBRANCH  10  29
BRANCH  11  39
HETATM   39  O4  UNL     1       3.183  -1.692  -1.531  1.00  0.00    -0.395 OA
ATOM     40  H4  UNL     1       3.405  -2.522  -1.936  1.00  0.00     0.210 HD
ENDBRANCH  11  39
TORSDOF 12
