REMARK  3 active torsions:
REMARK  status: ('A' for Active; 'I' for Inactive)
REMARK    1  A    between atoms: N1_2  and  N2_4 
REMARK    2  A    between atoms: N1_2  and  C3_8 
REMARK    3  A    between atoms: N2_4  and  N3_5 
ROOT
HETATM    1  C1  UNL     1      -0.377   0.480   1.365  1.00  0.00     0.299 C 
HETATM    2  N1  UNL     1      -0.263   0.527  -0.067  1.00  0.00     0.025 N 
HETATM    3  C2  UNL     1      -0.052   1.943  -0.412  1.00  0.00     0.299 C 
ENDROOT
BRANCH   2   4
HETATM    4  N2  UNL     1      -1.491   0.175  -0.610  1.00  0.00     0.065 NA
BRANCH   4   5
HETATM    5  N3  UNL     1      -1.771  -1.171  -0.578  1.00  0.00    -0.323 N 
ATOM      6  H32 UNL     1      -1.116  -1.846  -0.182  1.00  0.00     0.174 HD
ATOM      7  H31 UNL     1      -2.673  -1.430  -0.977  1.00  0.00     0.174 HD
ENDBRANCH   4   5
ENDBRANCH   2   4
BRANCH   2   8
HETATM    8  C3  UNL     1       0.849  -0.197  -0.599  1.00  0.00     0.212 A 
HETATM    9  C4  UNL     1       1.977  -0.665   0.241  1.00  0.00     0.037 A 
HETATM   10  C5  UNL     1       1.031  -1.649  -0.427  1.00  0.00     0.037 A 
ENDBRANCH   2   8
TORSDOF 3
