REMARK  8 active torsions:
REMARK  status: ('A' for Active; 'I' for Inactive)
REMARK    1  A    between atoms: C3_3  and  C4_4 
REMARK       I    between atoms: C4_4  and  N1_6 
REMARK    2  A    between atoms: N1_6  and  N2_8 
REMARK    3  A    between atoms: N2_8  and  C5_10 
REMARK    4  A    between atoms: C7_13  and  N4_14 
REMARK    5  A    between atoms: N4_14  and  O2_16 
REMARK    6  A    between atoms: C8_20  and  N6_21 
REMARK    7  A    between atoms: N7_24  and  N8_25 
REMARK    8  A    between atoms: C10_32  and  N10_33 
ROOT
HETATM    1  C1  UNL     1      -3.898   1.117   1.726  1.00  0.00     0.073 C 
HETATM    2  C2  UNL     1      -4.083   0.192   0.568  1.00  0.00     0.074 A 
HETATM    3  C3  UNL     1      -3.165  -0.280  -0.322  1.00  0.00     0.142 A 
HETATM    4  N9  UNL     1      -3.850  -1.085  -1.175  1.00  0.00    -0.183 N 
ATOM      5  H9  UNL     1      -3.437  -1.590  -1.959  1.00  0.00     0.184 HD
HETATM    6  C10 UNL     1      -5.146  -1.121  -0.839  1.00  0.00     0.692 A 
HETATM    7  N11 UNL     1      -5.303  -0.338   0.234  1.00  0.00    -0.083 N 
HETATM    8  C11 UNL     1      -6.510  -0.103   0.899  1.00  0.00     0.204 C 
HETATM    9  N12 UNL     1      -7.505   0.104   1.456  1.00  0.00    -0.171 NA
ENDROOT
BRANCH   6  10
HETATM   10  N10 UNL     1      -6.080  -1.792  -1.441  1.00  0.00    -0.233 N 
ATOM     11 2H10 UNL     1      -5.960  -2.389  -2.259  1.00  0.00     0.174 HD
ATOM     12 1H10 UNL     1      -7.067  -1.819  -1.185  1.00  0.00     0.174 HD
ENDBRANCH   6  10
BRANCH   3  13
HETATM   13  C4  UNL     1      -1.749  -0.011  -0.388  1.00  0.00     0.289 C 
HETATM   14  O1  UNL     1      -1.120  -0.601  -1.347  1.00  0.00    -0.264 OA
HETATM   15  N1  UNL     1      -0.970   0.799   0.445  1.00  0.00    -0.263 N 
ATOM     16  H1  UNL     1      -1.397   1.297   1.226  1.00  0.00     0.190 HD
BRANCH  15  17
HETATM   17  N2  UNL     1       0.429   0.920   0.189  1.00  0.00    -0.284 N 
ATOM     18  H2  UNL     1       0.790   1.768  -0.248  1.00  0.00     0.188 HD
BRANCH  17  19
HETATM   19  C5  UNL     1       1.237  -0.025   0.502  1.00  0.00     0.150 C 
HETATM   20  N3  UNL     1       0.727  -1.194   1.106  1.00  0.00    -0.080 NA
HETATM   21  C6  UNL     1       2.649   0.107   0.240  1.00  0.00     0.123 A 
HETATM   22  C7  UNL     1       3.507  -0.941   0.592  1.00  0.00     0.160 A 
HETATM   23  C9  UNL     1       3.194   1.241  -0.353  1.00  0.00     0.299 A 
HETATM   24  N5  UNL     1       4.824  -0.827   0.352  1.00  0.00    -0.172 N 
HETATM   25  C8  UNL     1       5.289   0.291  -0.222  1.00  0.00     0.701 A 
ATOM     26  H5  UNL     1       5.462  -1.582   0.604  1.00  0.00     0.186 HD
HETATM   27  N7  UNL     1       4.514   1.329  -0.582  1.00  0.00    -0.054 N 
HETATM   28  O3  UNL     1       2.438   2.190  -0.675  1.00  0.00    -0.264 OA
BRANCH  22  29
HETATM   29  N4  UNL     1       2.978  -2.113   1.200  1.00  0.00    -0.252 N 
ATOM     30  H4  UNL     1       2.015  -2.410   1.043  1.00  0.00     0.196 HD
BRANCH  29  31
HETATM   31  O2  UNL     1       3.761  -2.767   1.944  1.00  0.00    -0.288 OA
ATOM     32  H2  UNL     1       3.408  -3.550   2.350  1.00  0.00     0.244 HD
ENDBRANCH  29  31
ENDBRANCH  22  29
BRANCH  25  33
HETATM   33  N6  UNL     1       6.562   0.410  -0.459  1.00  0.00    -0.233 N 
ATOM     34  H62 UNL     1       7.150  -0.377  -0.186  1.00  0.00     0.174 HD
ATOM     35  H61 UNL     1       6.916   1.261  -0.896  1.00  0.00     0.174 HD
ENDBRANCH  25  33
BRANCH  27  36
HETATM   36  N8  UNL     1       5.077   2.469  -1.181  1.00  0.00    -0.321 N 
ATOM     37  H82 UNL     1       6.080   2.536  -1.355  1.00  0.00     0.178 HD
ATOM     38  H81 UNL     1       4.489   3.256  -1.454  1.00  0.00     0.178 HD
ENDBRANCH  27  36
ENDBRANCH  17  19
ENDBRANCH  15  17
ENDBRANCH   3  13
TORSDOF 8
