REMARK  0 active torsions:
REMARK  status: ('A' for Active; 'I' for Inactive)
ROOT
HETATM    1  O1  UNL     1      -0.470  -3.152  -1.405  1.00  0.00    -0.285 OA
HETATM    2  C1  UNL     1      -0.303  -2.003  -0.920  1.00  0.00     0.213 A 
HETATM    3  C2  UNL     1       0.947  -1.450  -0.725  1.00  0.00     0.045 A 
HETATM    4  C3  UNL     1       2.082  -2.157  -1.063  1.00  0.00     0.019 A 
HETATM    5  C4  UNL     1       3.349  -1.646  -0.886  1.00  0.00     0.015 A 
HETATM    6  C5  UNL     1       3.517  -0.380  -0.352  1.00  0.00    -0.007 A 
HETATM    7  C6  UNL     1       4.790   0.148  -0.169  1.00  0.00     0.015 A 
HETATM    8  C7  UNL     1       4.913   1.392   0.358  1.00  0.00     0.018 A 
HETATM    9  C8  UNL     1       3.772   2.091   0.693  1.00  0.00     0.088 A 
HETATM   10  N1  UNL     1       2.541   1.555   0.504  1.00  0.00    -0.363 N 
ATOM     11  H1  UNL     1       1.718   2.100   0.762  1.00  0.00     0.165 HD
HETATM   12  C9  UNL     1       2.373   0.315  -0.019  1.00  0.00     0.070 A 
HETATM   13  C10 UNL     1       1.098  -0.185  -0.191  1.00  0.00     0.075 A 
HETATM   14  N2  UNL     1      -0.012   0.514   0.143  1.00  0.00    -0.351 N 
ATOM     15  H2  UNL     1       0.078   1.450   0.539  1.00  0.00     0.166 HD
HETATM   16  C11 UNL     1      -1.237  -0.019  -0.045  1.00  0.00     0.076 A 
HETATM   17  C12 UNL     1      -1.431  -1.282  -0.576  1.00  0.00     0.112 A 
HETATM   18  N3  UNL     1      -2.750  -1.549  -0.648  1.00  0.00    -0.350 N 
ATOM     19  H3  UNL     1      -3.156  -2.414  -1.004  1.00  0.00     0.166 HD
HETATM   20  C13 UNL     1      -3.450  -0.499  -0.178  1.00  0.00     0.045 A 
HETATM   21  C14 UNL     1      -4.814  -0.247  -0.026  1.00  0.00     0.030 A 
HETATM   22  C15 UNL     1      -5.179   0.952   0.497  1.00  0.00     0.002 A 
HETATM   23  C16 UNL     1      -4.262   1.911   0.876  1.00  0.00     0.001 A 
HETATM   24  C17 UNL     1      -2.908   1.673   0.731  1.00  0.00     0.016 A 
HETATM   25  C18 UNL     1      -2.522   0.455   0.199  1.00  0.00     0.020 A 
ENDROOT
TORSDOF 0
