REMARK  0 active torsions:
REMARK  status: ('A' for Active; 'I' for Inactive)
ROOT
HETATM    1  O1  UNL     1       0.768  -2.477   0.382  1.00  0.00    -0.285 OA
HETATM    2  C1  UNL     1       0.374  -1.295   0.249  1.00  0.00     0.216 A 
HETATM    3  C2  UNL     1      -0.972  -0.998   0.264  1.00  0.00     0.119 A 
HETATM    4  N1  UNL     1      -2.104  -1.710   0.398  1.00  0.00    -0.350 N 
ATOM      5  H1  UNL     1      -2.155  -2.721   0.527  1.00  0.00     0.166 HD
HETATM    6  C3  UNL     1      -3.172  -0.867   0.334  1.00  0.00     0.045 A 
HETATM    7  C4  UNL     1      -4.534  -1.064   0.411  1.00  0.00     0.030 A 
HETATM    8  C5  UNL     1      -5.434  -0.017   0.315  1.00  0.00     0.002 A 
HETATM    9  C6  UNL     1      -4.960   1.278   0.134  1.00  0.00     0.001 A 
HETATM   10  C7  UNL     1      -3.596   1.459   0.058  1.00  0.00     0.017 A 
HETATM   11  C8  UNL     1      -2.704   0.417   0.154  1.00  0.00     0.027 A 
HETATM   12  C9  UNL     1      -1.310   0.331   0.111  1.00  0.00     0.121 A 
HETATM   13  O2  UNL     1      -0.381   1.253  -0.041  1.00  0.00    -0.289 OA
HETATM   14  C10 UNL     1       0.894   1.019  -0.061  1.00  0.00     0.164 A 
HETATM   15  N2  UNL     1       1.987   1.792  -0.201  1.00  0.00    -0.335 N 
ATOM     16  H2  UNL     1       1.991   2.804  -0.328  1.00  0.00     0.168 HD
HETATM   17  C11 UNL     1       3.064   1.008  -0.145  1.00  0.00     0.045 A 
HETATM   18  C12 UNL     1       4.402   1.313  -0.235  1.00  0.00     0.030 A 
HETATM   19  C13 UNL     1       5.329   0.319  -0.147  1.00  0.00     0.002 A 
HETATM   20  C14 UNL     1       4.962  -1.006   0.034  1.00  0.00     0.001 A 
HETATM   21  C15 UNL     1       3.625  -1.329   0.126  1.00  0.00     0.015 A 
HETATM   22  C16 UNL     1       2.696  -0.315   0.035  1.00  0.00     0.009 A 
HETATM   23  C17 UNL     1       1.314  -0.303   0.088  1.00  0.00     0.080 A 
ENDROOT
TORSDOF 0
