REMARK  8 active torsions:
REMARK  status: ('A' for Active; 'I' for Inactive)
REMARK    1  A    between atoms: C1_2  and  N1_3 
REMARK    2  A    between atoms: N1_3  and  C2_5 
REMARK    3  A    between atoms: C2_5  and  O2_6 
REMARK    4  A    between atoms: C2_5  and  C3_8 
REMARK    5  A    between atoms: C3_8  and  O3_9 
REMARK    6  A    between atoms: C3_8  and  C4_11 
REMARK    7  A    between atoms: C4_11  and  N2_12 
REMARK    8  A    between atoms: N2_12  and  C5_14 
ROOT
HETATM    1  C3  UNL     1       1.626   1.003  -0.670  1.00  0.00     0.184 C 
ENDROOT
BRANCH   1   2
HETATM    2  C2  UNL     1       2.365   0.078   0.274  1.00  0.00     0.250 C 
BRANCH   2   3
HETATM    3  N1  UNL     1       3.736  -0.022  -0.186  1.00  0.00    -0.340 N 
ATOM      4  H1  UNL     1       4.284   0.834  -0.267  1.00  0.00     0.164 HD
BRANCH   3   5
HETATM    5  C1  UNL     1       4.349  -1.247  -0.528  1.00  0.00     0.350 C 
HETATM    6  O1  UNL     1       3.739  -2.355  -0.457  1.00  0.00    -0.284 OA
ENDBRANCH   3   5
ENDBRANCH   2   3
BRANCH   2   7
HETATM    7  O2  UNL     1       2.406   0.600   1.571  1.00  0.00    -0.374 OA
ATOM      8  H2  UNL     1       1.507   0.666   1.872  1.00  0.00     0.212 HD
ENDBRANCH   2   7
ENDBRANCH   1   2
BRANCH   1   9
HETATM    9  O3  UNL     1       2.266   2.231  -0.623  1.00  0.00    -0.390 OA
ATOM     10  H3  UNL     1       1.802   2.811  -1.215  1.00  0.00     0.210 HD
ENDBRANCH   1   9
BRANCH   1  11
HETATM   11  C4  UNL     1       0.178   1.136  -0.331  1.00  0.00     0.156 C 
BRANCH  11  12
HETATM   12  N2  UNL     1      -0.484  -0.149  -0.382  1.00  0.00    -0.387 N 
ATOM     13  H2  UNL     1       0.069  -0.969  -0.630  1.00  0.00     0.159 HD
BRANCH  12  14
HETATM   14  C5  UNL     1      -1.856  -0.326  -0.106  1.00  0.00     0.028 A 
HETATM   15  C6  UNL     1      -2.692   0.726   0.239  1.00  0.00     0.029 A 
HETATM   16  C7  UNL     1      -4.029   0.558   0.507  1.00  0.00     0.002 A 
HETATM   17  C8  UNL     1      -4.584  -0.712   0.435  1.00  0.00     0.000 A 
HETATM   18  C9  UNL     1      -3.780  -1.780   0.095  1.00  0.00     0.002 A 
HETATM   19  C10 UNL     1      -2.440  -1.572  -0.168  1.00  0.00     0.029 A 
ENDBRANCH  12  14
ENDBRANCH  11  12
ENDBRANCH   1  11
TORSDOF 8
