REMARK  8 active torsions:
REMARK  status: ('A' for Active; 'I' for Inactive)
REMARK    1  A    between atoms: N1_1  and  C1_4 
REMARK    2  A    between atoms: C6_17  and  C7_18 
REMARK    3  A    between atoms: C7_18  and  N5_19 
REMARK    4  A    between atoms: N5_19  and  C8_22 
REMARK    5  A    between atoms: C8_22  and  C9_23 
REMARK    6  A    between atoms: C9_23  and  N6_24 
REMARK    7  A    between atoms: N6_24  and  S1_26 
REMARK    8  A    between atoms: S1_26  and  C10_29 
ROOT
HETATM    1  C1  UNL     1      -4.698  -2.069  -0.300  1.00  0.00     0.677 A 
HETATM    2  N2  UNL     1      -5.538  -1.047  -0.050  1.00  0.00    -0.176 N 
ATOM      3  H2  UNL     1      -6.545  -1.183  -0.141  1.00  0.00     0.186 HD
HETATM    4  C2  UNL     1      -5.058   0.148   0.318  1.00  0.00     0.142 A 
HETATM    5  N3  UNL     1      -5.889   1.196   0.426  1.00  0.00    -0.293 N 
ATOM      6  H3  UNL     1      -6.897   1.078   0.324  1.00  0.00     0.172 HD
HETATM    7  C3  UNL     1      -5.349   2.427   0.677  1.00  0.00     0.328 A 
HETATM    8  O1  UNL     1      -6.142   3.395   0.777  1.00  0.00    -0.247 OA
HETATM    9  N4  UNL     1      -4.058   2.624   0.812  1.00  0.00    -0.275 N 
ATOM     10  H4  UNL     1      -3.710   3.564   1.003  1.00  0.00     0.173 HD
HETATM   11  C4  UNL     1      -3.172   1.585   0.700  1.00  0.00     0.265 A 
HETATM   12  O2  UNL     1      -1.963   1.802   0.846  1.00  0.00    -0.267 OA
HETATM   13  C5  UNL     1      -3.673   0.301   0.438  1.00  0.00     0.102 A 
HETATM   14  C6  UNL     1      -2.812  -0.736   0.184  1.00  0.00     0.071 A 
HETATM   15  N7  UNL     1      -3.384  -1.874  -0.172  1.00  0.00    -0.193 N 
ATOM     16  H7  UNL     1      -2.771  -2.667  -0.364  1.00  0.00     0.184 HD
ENDROOT
BRANCH  14  17
HETATM   17  C7  UNL     1      -1.393  -0.500   0.339  1.00  0.00     0.290 C 
BRANCH  17  18
HETATM   18  N5  UNL     1      -0.755  -0.862  -0.991  1.00  0.00    -0.068 N 
ATOM     19  H52 UNL     1      -0.623  -1.865  -1.118  1.00  0.00     0.277 HD
ATOM     20  H51 UNL     1      -1.372  -0.715  -1.790  1.00  0.00     0.277 HD
BRANCH  18  21
HETATM   21  C8  UNL     1       0.474  -0.107  -1.067  1.00  0.00     0.253 C 
BRANCH  21  22
HETATM   22  C9  UNL     1       1.590  -0.410  -0.204  1.00  0.00     0.159 C 
BRANCH  22  23
HETATM   23  N6  UNL     1       2.226  -1.708  -0.461  1.00  0.00    -0.314 N 
ATOM     24  H6  UNL     1       1.932  -2.409  -1.142  1.00  0.00     0.172 HD
BRANCH  23  25
HETATM   25  S1  UNL     1       3.597  -1.814   0.640  1.00  0.00     0.258 S 
HETATM   26  O3  UNL     1       4.365  -3.064   0.215  1.00  0.00    -0.201 OA
HETATM   27  O4  UNL     1       3.200  -1.914   2.038  1.00  0.00    -0.201 OA
BRANCH  25  28
HETATM   28  C10 UNL     1       4.599  -0.369   0.362  1.00  0.00     0.079 A 
HETATM   29  C11 UNL     1       4.377   0.724   1.159  1.00  0.00     0.025 A 
HETATM   30  C12 UNL     1       5.014   1.906   0.887  1.00  0.00     0.002 A 
HETATM   31  C13 UNL     1       5.883   1.982  -0.207  1.00  0.00     0.000 A 
HETATM   32  C14 UNL     1       6.097   0.889  -0.993  1.00  0.00     0.002 A 
HETATM   33  C15 UNL     1       5.443  -0.324  -0.705  1.00  0.00     0.025 A 
ENDBRANCH  25  28
ENDBRANCH  23  25
ENDBRANCH  22  23
ENDBRANCH  21  22
ENDBRANCH  18  21
ENDBRANCH  17  18
ENDBRANCH  14  17
BRANCH   1  34
HETATM   34  N1  UNL     1      -5.255  -3.201  -0.633  1.00  0.00    -0.234 N 
ATOM     35  H12 UNL     1      -6.259  -3.350  -0.731  1.00  0.00     0.174 HD
ATOM     36  H11 UNL     1      -4.619  -3.975  -0.822  1.00  0.00     0.174 HD
ENDBRANCH   1  34
TORSDOF 8
