REMARK  3 active torsions:
REMARK  status: ('A' for Active; 'I' for Inactive)
REMARK    1  A    between atoms: C2_2  and  C3_3 
REMARK    2  A    between atoms: N1_5  and  C5_6 
REMARK    3  A    between atoms: N2_7  and  N3_9 
ROOT
HETATM    1  C5  UNL     1       1.962   0.113  -0.708  1.00  0.00     0.196 C 
HETATM    2  N2  UNL     1       2.670  -0.219   0.310  1.00  0.00    -0.282 N 
ATOM      3  H2  UNL     1       2.231  -0.322   1.225  1.00  0.00     0.189 HD
ENDROOT
BRANCH   1   4
HETATM    4  N1  UNL     1       0.565   0.337  -0.560  1.00  0.00    -0.375 N 
HETATM    5  C4  UNL     1      -0.202   1.319   0.178  1.00  0.00     0.133 A 
HETATM    6  C3  UNL     1      -1.485   0.615  -0.228  1.00  0.00     0.043 A 
HETATM    7  C6  UNL     1      -0.630  -0.303  -1.068  1.00  0.00     0.133 A 
BRANCH   6   8
HETATM    8  C2  UNL     1      -2.112  -0.019   0.962  1.00  0.00    -0.029 C 
HETATM    9  C1  UNL     1      -3.422  -0.024   1.051  1.00  0.00     0.007 C 
ENDBRANCH   6   8
ENDBRANCH   1   4
BRANCH   2  10
HETATM   10  N3  UNL     1       4.040  -0.439   0.166  1.00  0.00    -0.248 N 
HETATM   11  N4  UNL     1       4.885   0.189   0.888  1.00  0.00    -0.331 N 
ATOM     12  H42 UNL     1       4.537   0.858   1.575  1.00  0.00     0.178 HD
ATOM     13  H41 UNL     1       5.887   0.028   0.783  1.00  0.00     0.178 HD
ATOM     14  H3  UNL     1       4.371  -1.111  -0.526  1.00  0.00     0.207 HD
ENDBRANCH   2  10
TORSDOF 3
