REMARK  9 active torsions:
REMARK  status: ('A' for Active; 'I' for Inactive)
REMARK       I    between atoms: C2_2  and  N1_4 
REMARK    1  A    between atoms: N1_4  and  C3_6 
REMARK    2  A    between atoms: C5_10  and  C6_11 
REMARK    3  A    between atoms: C6_11  and  N3_12 
REMARK    4  A    between atoms: C7_19  and  C8_20 
REMARK    5  A    between atoms: N5_22  and  C10_23 
REMARK    6  A    between atoms: C10_23  and  C11_24 
REMARK    7  A    between atoms: C11_24  and  C12_25 
REMARK    8  A    between atoms: C12_25  and  C13_26 
REMARK    9  A    between atoms: C13_26  and  N6_27 
REMARK       I    between atoms: N6_27  and  C14_29 
ROOT
HETATM    1  C3  UNL     1      -2.885   0.720  -1.551  1.00  0.00     0.118 C 
HETATM    2  C4  UNL     1      -2.760   0.365  -0.155  1.00  0.00     0.059 C 
HETATM    3  N2  UNL     1      -3.793   0.862   0.726  1.00  0.00    -0.361 N 
ATOM      4  H2  UNL     1      -4.170   1.810   0.745  1.00  0.00     0.161 HD
HETATM    5  C5  UNL     1      -4.188  -0.230   1.569  1.00  0.00     0.311 C 
HETATM    6  N4  UNL     1      -2.944  -0.987   1.676  1.00  0.00    -0.037 N 
ATOM      7  H41 UNL     1      -3.055  -1.919   2.076  1.00  0.00     0.281 HD
ATOM      8  H42 UNL     1      -2.302  -0.636   2.386  1.00  0.00     0.281 HD
HETATM    9  C7  UNL     1      -2.392  -0.979   0.304  1.00  0.00     0.291 C 
ENDROOT
BRANCH   9  10
HETATM   10  C8  UNL     1      -0.918  -1.156   0.509  1.00  0.00     0.081 A 
HETATM   11  C9  UNL     1       0.134  -0.517  -0.080  1.00  0.00     0.140 A 
HETATM   12  N5  UNL     1       1.266  -1.021   0.429  1.00  0.00    -0.287 N 
HETATM   13  N9  UNL     1       0.902  -1.946   1.310  1.00  0.00    -0.241 N 
HETATM   14  N10 UNL     1      -0.407  -2.041   1.370  1.00  0.00    -0.286 N 
ATOM     15  H9  UNL     1       1.550  -2.506   1.864  1.00  0.00     0.208 HD
ATOM     16  H10 UNL     1      -0.938  -2.676   1.966  1.00  0.00     0.188 HD
BRANCH  12  17
HETATM   17  C10 UNL     1       2.600  -0.641   0.084  1.00  0.00     0.150 C 
BRANCH  17  18
HETATM   18  C11 UNL     1       3.126   0.482   0.917  1.00  0.00     0.023 C 
BRANCH  18  19
HETATM   19  C12 UNL     1       4.520   0.882   0.569  1.00  0.00     0.021 C 
BRANCH  19  20
HETATM   20  C13 UNL     1       5.525  -0.232   0.749  1.00  0.00     0.122 C 
BRANCH  20  21
HETATM   21  N6  UNL     1       6.864   0.190   0.398  1.00  0.00    -0.365 N 
HETATM   22  C14 UNL     1       7.188   0.475  -0.956  1.00  0.00     0.181 C 
HETATM   23  N7  UNL     1       7.024   1.665  -1.412  1.00  0.00    -0.374 N 
HETATM   24  N8  UNL     1       7.686  -0.571  -1.763  1.00  0.00    -0.064 NA
ATOM     25  H72 UNL     1       6.664   2.421  -0.829  1.00  0.00     0.158 HD
ATOM     26  H71 UNL     1       7.257   1.870  -2.384  1.00  0.00     0.158 HD
ATOM     27  H6  UNL     1       7.576   0.283   1.123  1.00  0.00     0.162 HD
ENDBRANCH  20  21
ENDBRANCH  19  20
ENDBRANCH  18  19
ENDBRANCH  17  18
ENDBRANCH  12  17
ENDBRANCH   9  10
BRANCH   1  28
HETATM   28  N1  UNL     1      -3.981   0.406  -2.360  1.00  0.00    -0.336 N 
HETATM   29  C2  UNL     1      -4.591  -0.740  -2.811  1.00  0.00     0.217 C 
HETATM   30  C1  UNL     1      -5.790  -0.684  -3.687  1.00  0.00     0.117 C 
HETATM   31  O1  UNL     1      -4.201  -1.879  -2.532  1.00  0.00    -0.274 OA
ATOM     32  H1  UNL     1      -4.449   1.244  -2.705  1.00  0.00     0.168 HD
ENDBRANCH   1  28
BRANCH   5  33
HETATM   33  C6  UNL     1      -4.641   0.264   2.925  1.00  0.00     0.283 C 
BRANCH  33  34
HETATM   34  N3  UNL     1      -3.593   0.980   3.616  1.00  0.00    -0.076 N 
ATOM     35  H33 UNL     1      -2.746   0.416   3.691  1.00  0.00     0.274 HD
ATOM     36  H32 UNL     1      -3.228   1.743   3.046  1.00  0.00     0.274 HD
ATOM     37  H31 UNL     1      -3.898   1.313   4.530  1.00  0.00     0.274 HD
ENDBRANCH  33  34
ENDBRANCH   5  33
TORSDOF 9
