REMARK  5 active torsions:
REMARK  status: ('A' for Active; 'I' for Inactive)
REMARK    1  A    between atoms: C2_2  and  C3_3 
REMARK    2  A    between atoms: C3_3  and  C4_4 
REMARK    3  A    between atoms: C9_14  and  C10_15 
REMARK    4  A    between atoms: C10_15  and  O2_17 
REMARK    5  A    between atoms: O2_17  and  C11_18 
ROOT
HETATM    1  C4  UNL     1       1.505  -0.364   0.562  1.00  0.00     0.005 C 
HETATM    2  N1  UNL     1       2.419  -1.119   0.084  1.00  0.00    -0.340 N 
ATOM      3  H1  UNL     1       3.257  -0.679  -0.296  1.00  0.00     0.167 HD
HETATM    4  C5  UNL     1       2.334  -2.523   0.053  1.00  0.00     0.172 C 
HETATM    5  S1  UNL     1       3.513  -3.436  -0.553  1.00  0.00    -0.041 SA
HETATM    6  N2  UNL     1       1.143  -3.097   0.595  1.00  0.00    -0.357 N 
ATOM      7  H2  UNL     1       1.123  -4.040   0.984  1.00  0.00     0.162 HD
HETATM    8  C6  UNL     1      -0.053  -2.241   0.556  1.00  0.00     0.043 C 
HETATM    9  C7  UNL     1      -1.122  -2.970   1.351  1.00  0.00     0.039 C 
HETATM   10  C8  UNL     1      -0.491  -2.157  -0.870  1.00  0.00     0.039 C 
HETATM   11  C9  UNL     1       0.300  -0.920   1.147  1.00  0.00     0.158 C 
ENDROOT
BRANCH  11  12
HETATM   12  C10 UNL     1      -0.843   0.027   1.159  1.00  0.00     0.271 C 
HETATM   13  O1  UNL     1      -1.363   0.350   2.239  1.00  0.00    -0.264 OA
BRANCH  12  14
HETATM   14  O2  UNL     1      -1.363   0.574   0.001  1.00  0.00    -0.316 OA
BRANCH  14  15
HETATM   15  C11 UNL     1      -2.440   1.471  -0.036  1.00  0.00     0.123 C 
HETATM   16  C12 UNL     1      -3.618   0.831  -0.783  1.00  0.00     0.040 C 
HETATM   17  C13 UNL     1      -2.137   2.767  -0.712  1.00  0.00     0.040 C 
ENDBRANCH  14  15
ENDBRANCH  12  14
ENDBRANCH  11  12
BRANCH   1  18
HETATM   18  C3  UNL     1       1.745   1.112   0.518  1.00  0.00     0.053 C 
BRANCH  18  19
HETATM   19  C2  UNL     1       3.070   1.431  -0.141  1.00  0.00     0.001 C 
HETATM   20  C1  UNL     1       3.201   2.950  -0.128  1.00  0.00     0.005 C 
ENDBRANCH  18  19
ENDBRANCH   1  18
TORSDOF 5
