REMARK  12 active torsions:
REMARK  status: ('A' for Active; 'I' for Inactive)
REMARK    1  A    between atoms: O1_2  and  C2_3 
REMARK    2  A    between atoms: C2_3  and  O2_4 
REMARK    3  A    between atoms: C2_3  and  C3_6 
REMARK    4  A    between atoms: C3_6  and  O5_14 
REMARK       I    between atoms: N1_7  and  C4_9 
REMARK    5  A    between atoms: C4_9  and  O4_11 
REMARK    6  A    between atoms: O5_14  and  C6_15 
REMARK    7  A    between atoms: C7_17  and  C8_18 
REMARK    8  A    between atoms: C8_18  and  N3_19 
REMARK    9  A    between atoms: C11_22  and  O7_23 
REMARK   10  A    between atoms: C15_30  and  N5_31 
REMARK   11  A    between atoms: N5_31  and  C16_33 
REMARK   12  A    between atoms: C16_33  and  O8_35 
ROOT
HETATM    1  O4  UNL     1      -3.848  -2.749   2.414  1.00  0.00    -0.186 OA
HETATM    2  C5  UNL     1      -5.033  -3.383   2.654  1.00  0.00     0.238 C 
HETATM    3  N2  UNL     1      -6.035  -3.936   2.850  1.00  0.00    -0.163 NA
ENDROOT
BRANCH   1   4
HETATM    4  C4  UNL     1      -3.664  -2.055   1.226  1.00  0.00     0.381 C 
HETATM    5  N1  UNL     1      -2.410  -1.395   0.994  1.00  0.00    -0.281 N 
HETATM    6  C3  UNL     1      -1.485  -2.072   0.400  1.00  0.00     0.181 C 
ATOM      7  H1  UNL     1      -2.256  -0.430   1.287  1.00  0.00     0.173 HD
HETATM    8  O3  UNL     1      -4.605  -2.029   0.392  1.00  0.00    -0.237 OA
BRANCH   6   9
HETATM    9  C2  UNL     1      -1.657  -3.476  -0.045  1.00  0.00     0.332 C 
BRANCH   9  10
HETATM   10  O1  UNL     1      -1.476  -3.541  -1.410  1.00  0.00    -0.359 OA
HETATM   11  C1  UNL     1      -2.541  -4.112  -2.086  1.00  0.00     0.205 C 
ENDBRANCH   9  10
BRANCH   9  12
HETATM   12  O2  UNL     1      -0.629  -4.237   0.547  1.00  0.00    -0.364 OA
ATOM     13  H2  UNL     1      -0.754  -4.192   1.488  1.00  0.00     0.213 HD
ENDBRANCH   9  12
ENDBRANCH   6   9
BRANCH   6  14
HETATM   14  O5  UNL     1      -0.279  -1.417   0.184  1.00  0.00    -0.299 OA
BRANCH  14  15
HETATM   15  C6  UNL     1      -0.178  -0.034  -0.019  1.00  0.00     0.305 C 
HETATM   16  O6  UNL     1      -0.649   0.726   1.027  1.00  0.00    -0.345 OA
HETATM   17  C7  UNL     1      -1.061   1.966   0.551  1.00  0.00     0.201 C 
HETATM   18  C11 UNL     1      -0.034   3.044   0.819  1.00  0.00     0.249 C 
HETATM   19  N4  UNL     1       1.227   2.773   0.188  1.00  0.00    -0.361 N 
HETATM   20  C12 UNL     1       1.864   1.527  -0.130  1.00  0.00     0.041 A 
ATOM     21  H4  UNL     1       1.757   3.603  -0.078  1.00  0.00     0.162 HD
HETATM   22  C13 UNL     1       3.216   1.661  -0.351  1.00  0.00     0.032 A 
HETATM   23  C19 UNL     1       1.258   0.295  -0.223  1.00  0.00     0.025 A 
HETATM   24  C14 UNL     1       3.985   0.558  -0.669  1.00  0.00     0.031 A 
HETATM   25  C15 UNL     1       3.404  -0.680  -0.767  1.00  0.00     0.030 A 
HETATM   26  C18 UNL     1       2.048  -0.784  -0.541  1.00  0.00     0.043 A 
BRANCH  17  27
HETATM   27  C8  UNL     1      -2.352   2.420   1.211  1.00  0.00     0.307 C 
BRANCH  27  28
HETATM   28  N3  UNL     1      -2.659   3.730   0.614  1.00  0.00     0.082 N 
HETATM   29  C9  UNL     1      -3.882   4.272   1.175  1.00  0.00     0.309 C 
HETATM   30  C10 UNL     1      -2.907   3.449  -0.801  1.00  0.00     0.309 C 
ENDBRANCH  27  28
ENDBRANCH  17  27
BRANCH  18  31
HETATM   31  O7  UNL     1       0.119   3.261   2.190  1.00  0.00    -0.374 OA
ATOM     32  H7  UNL     1       0.764   3.938   2.358  1.00  0.00     0.212 HD
ENDBRANCH  18  31
BRANCH  25  33
HETATM   33  N5  UNL     1       4.164  -1.831  -1.088  1.00  0.00    -0.364 N 
ATOM     34  H5  UNL     1       3.671  -2.717  -1.200  1.00  0.00     0.162 HD
BRANCH  33  35
HETATM   35  C16 UNL     1       5.578  -1.823  -1.264  1.00  0.00     0.213 C 
HETATM   36  C17 UNL     1       6.379  -1.430  -0.066  1.00  0.00     0.063 C 
BRANCH  35  37
HETATM   37  O8  UNL     1       5.866  -1.011  -2.382  1.00  0.00    -0.377 OA
ATOM     38  H8  UNL     1       6.809  -1.006  -2.499  1.00  0.00     0.212 HD
ENDBRANCH  35  37
ENDBRANCH  33  35
ENDBRANCH  25  33
ENDBRANCH  14  15
ENDBRANCH   6  14
ENDBRANCH   1   4
TORSDOF 12
