REMARK  11 active torsions:
REMARK  status: ('A' for Active; 'I' for Inactive)
REMARK    1  A    between atoms: C2_5  and  N3_6 
REMARK    2  A    between atoms: C2_5  and  C6_19 
REMARK    3  A    between atoms: N3_6  and  C3_8 
REMARK    4  A    between atoms: C4_11  and  N5_12 
REMARK    5  A    between atoms: N5_12  and  C5_14 
REMARK    6  A    between atoms: C6_19  and  O2_20 
REMARK    7  A    between atoms: C6_19  and  C7_22 
REMARK    8  A    between atoms: C7_22  and  S2_23 
REMARK    9  A    between atoms: S2_23  and  C8_24 
REMARK   10  A    between atoms: C10_26  and  N7_27 
REMARK   11  A    between atoms: C13_33  and  N9_34 
ROOT
HETATM    1  N1  UNL     1       2.702   1.992   3.482  1.00  0.00    -0.172 NA
HETATM    2  C1  UNL     1       1.899   1.438   2.860  1.00  0.00     0.183 C 
HETATM    3  N2  UNL     1       0.934   0.801   2.114  1.00  0.00    -0.281 N 
ATOM      4  H2  UNL     1       0.006   0.749   2.533  1.00  0.00     0.179 HD
HETATM    5  C2  UNL     1       1.058   0.270   0.968  1.00  0.00     0.118 C 
ENDROOT
BRANCH   5   6
HETATM    6  N3  UNL     1       2.288   0.266   0.267  1.00  0.00    -0.336 N 
ATOM      7  H3  UNL     1       2.520   1.068  -0.319  1.00  0.00     0.164 HD
BRANCH   6   8
HETATM    8  C3  UNL     1       3.229  -0.829   0.348  1.00  0.00     0.394 C 
HETATM    9  N4  UNL     1       3.745  -1.079   1.653  1.00  0.00    -0.122 NA
HETATM   10  S1  UNL     1       5.277  -0.159   1.601  1.00  0.00    -0.007 SA
HETATM   11  C4  UNL     1       5.299   0.122  -0.216  1.00  0.00     0.370 C 
HETATM   12  N6  UNL     1       4.266  -0.782  -0.618  1.00  0.00    -0.008 N 
ATOM     13  H62 UNL     1       4.636  -1.711  -0.819  1.00  0.00     0.284 HD
ATOM     14  H61 UNL     1       3.907  -0.555  -1.545  1.00  0.00     0.284 HD
BRANCH  11  15
HETATM   15  N5  UNL     1       6.536  -0.355  -0.786  1.00  0.00    -0.331 N 
ATOM     16  H5  UNL     1       6.818  -1.320  -0.612  1.00  0.00     0.164 HD
BRANCH  15  17
HETATM   17  C5  UNL     1       7.371   0.469  -1.578  1.00  0.00     0.350 C 
HETATM   18  O1  UNL     1       7.068   1.685  -1.829  1.00  0.00    -0.284 OA
ENDBRANCH  15  17
ENDBRANCH  11  15
ENDBRANCH   6   8
ENDBRANCH   5   6
BRANCH   5  19
HETATM   19  C6  UNL     1      -0.122  -0.373   0.324  1.00  0.00     0.195 C 
BRANCH  19  20
HETATM   20  O2  UNL     1       0.146  -1.731   0.054  1.00  0.00    -0.387 OA
ATOM     21  H2  UNL     1      -0.606  -2.141  -0.357  1.00  0.00     0.210 HD
ENDBRANCH  19  20
BRANCH  19  22
HETATM   22  C7  UNL     1      -0.306   0.294  -1.015  1.00  0.00     0.119 C 
BRANCH  22  23
HETATM   23  S2  UNL     1      -1.706  -0.360  -1.945  1.00  0.00    -0.124 SA
BRANCH  23  24
HETATM   24  C8  UNL     1      -3.255   0.017  -1.172  1.00  0.00     0.038 A 
HETATM   25  C9  UNL     1      -3.858   1.249  -1.422  1.00  0.00     0.057 A 
HETATM   26  C10 UNL     1      -5.071   1.613  -0.887  1.00  0.00     0.106 A 
HETATM   27  C11 UNL     1      -5.708   0.723  -0.075  1.00  0.00     0.065 A 
HETATM   28  C12 UNL     1      -5.132  -0.500   0.186  1.00  0.00     0.083 A 
HETATM   29  N8  UNL     1      -5.852  -1.389   1.045  1.00  0.00    -0.100 NA
HETATM   30  C13 UNL     1      -3.908  -0.866  -0.355  1.00  0.00     0.143 A 
BRANCH  26  31
HETATM   31  N7  UNL     1      -5.644   2.884  -1.174  1.00  0.00    -0.116 N 
HETATM   32  O3  UNL     1      -5.075   3.706  -1.913  1.00  0.00    -0.532 OA
HETATM   33  O4  UNL     1      -6.853   3.236  -0.636  1.00  0.00    -0.532 OA
ENDBRANCH  26  31
BRANCH  30  34
HETATM   34  N9  UNL     1      -3.390  -2.148  -0.063  1.00  0.00    -0.112 N 
HETATM   35  O5  UNL     1      -3.309  -3.047  -0.932  1.00  0.00    -0.532 OA
HETATM   36  O6  UNL     1      -2.963  -2.431   1.193  1.00  0.00    -0.532 OA
ENDBRANCH  30  34
ENDBRANCH  23  24
ENDBRANCH  22  23
ENDBRANCH  19  22
ENDBRANCH   5  19
TORSDOF 11
