REMARK  13 active torsions:
REMARK  status: ('A' for Active; 'I' for Inactive)
REMARK    1  A    between atoms: N1_2  and  N2_3 
REMARK    2  A    between atoms: N1_2  and  S1_7 
REMARK    3  A    between atoms: N2_3  and  O1_5 
REMARK    4  A    between atoms: S1_7  and  C2_10 
REMARK    5  A    between atoms: C4_12  and  N3_13 
REMARK    6  A    between atoms: N3_13  and  N4_15 
REMARK    7  A    between atoms: N4_15  and  C5_17 
REMARK    8  A    between atoms: C8_22  and  N5_23 
REMARK    9  A    between atoms: N5_23  and  C9_25 
REMARK   10  A    between atoms: C9_25  and  C10_29 
REMARK   11  A    between atoms: C10_29  and  N7_30 
REMARK   12  A    between atoms: C10_29  and  O6_34 
REMARK   13  A    between atoms: C15_41  and  O8_42 
ROOT
HETATM    1  N4  UNL     1       0.736  -0.200  -0.230  1.00  0.00    -0.298 N 
ATOM      2  H4  UNL     1       0.544  -0.329  -1.223  1.00  0.00     0.187 HD
ENDROOT
BRANCH   1   3
HETATM    3  N3  UNL     1       0.087  -0.990   0.691  1.00  0.00    -0.300 N 
ATOM      4  H3  UNL     1       0.649  -1.476   1.390  1.00  0.00     0.187 HD
BRANCH   3   5
HETATM    5  C4  UNL     1      -1.329  -1.167   0.722  1.00  0.00     0.049 C 
HETATM    6  C3  UNL     1      -2.070  -0.492  -0.242  1.00  0.00     0.059 C 
HETATM    7  C2  UNL     1      -3.344  -0.764  -0.660  1.00  0.00     0.120 C 
HETATM    8  C15 UNL     1      -4.131  -1.875  -0.343  1.00  0.00     0.139 C 
HETATM    9  C14 UNL     1      -3.985  -2.763   0.703  1.00  0.00     0.206 C 
HETATM   10  C13 UNL     1      -3.027  -2.724   1.699  1.00  0.00     0.060 C 
HETATM   11  O7  UNL     1      -4.813  -3.691   0.737  1.00  0.00    -0.285 OA
HETATM   12  C12 UNL     1      -1.836  -1.992   1.704  1.00  0.00     0.035 C 
BRANCH   7  13
HETATM   13  S1  UNL     1      -4.090   0.398  -1.710  1.00  0.00     0.282 S 
HETATM   14  O2  UNL     1      -3.074   1.483  -2.000  1.00  0.00    -0.199 OA
HETATM   15  O3  UNL     1      -4.338  -0.271  -3.054  1.00  0.00    -0.199 OA
BRANCH  13  16
HETATM   16  N1  UNL     1      -5.511   1.054  -1.058  1.00  0.00    -0.199 N 
HETATM   17  C1  UNL     1      -5.484   1.801   0.173  1.00  0.00     0.194 C 
BRANCH  16  18
HETATM   18  N2  UNL     1      -6.726   0.877  -1.709  1.00  0.00    -0.199 N 
ATOM     19  H2  UNL     1      -7.485   0.374  -1.250  1.00  0.00     0.216 HD
BRANCH  18  20
HETATM   20  O1  UNL     1      -6.885   1.343  -2.875  1.00  0.00    -0.274 OA
ATOM     21  H1  UNL     1      -7.716   1.222  -3.320  1.00  0.00     0.246 HD
ENDBRANCH  18  20
ENDBRANCH  16  18
ENDBRANCH  13  16
ENDBRANCH   7  13
BRANCH   8  22
HETATM   22  O8  UNL     1      -5.175  -2.049  -1.234  1.00  0.00    -0.356 OA
ATOM     23  H8  UNL     1      -5.710  -2.804  -1.019  1.00  0.00     0.218 HD
ENDBRANCH   8  22
ENDBRANCH   3   5
ENDBRANCH   1   3
BRANCH   1  24
HETATM   24  C5  UNL     1       1.673   0.797   0.177  1.00  0.00     0.072 A 
HETATM   25  C6  UNL     1       1.270   2.095   0.447  1.00  0.00     0.177 A 
HETATM   26  O4  UNL     1       2.140   3.002   0.821  1.00  0.00    -0.284 OA
HETATM   27  C7  UNL     1       3.419   2.769   0.966  1.00  0.00     0.314 A 
HETATM   28  O5  UNL     1       4.192   3.718   1.335  1.00  0.00    -0.257 OA
HETATM   29  C8  UNL     1       3.912   1.510   0.722  1.00  0.00     0.112 A 
HETATM   30  C11 UNL     1       3.013   0.517   0.321  1.00  0.00     0.068 A 
BRANCH  29  31
HETATM   31  N5  UNL     1       5.293   1.219   0.869  1.00  0.00    -0.338 N 
ATOM     32  H5  UNL     1       5.934   1.957   1.162  1.00  0.00     0.167 HD
BRANCH  31  33
HETATM   33  C9  UNL     1       5.797  -0.087   0.614  1.00  0.00     0.132 C 
HETATM   34  N6  UNL     1       5.560  -1.038   1.441  1.00  0.00    -0.385 N 
ATOM     35  H62 UNL     1       5.012  -0.874   2.286  1.00  0.00     0.157 HD
ATOM     36  H61 UNL     1       5.921  -1.974   1.258  1.00  0.00     0.157 HD
BRANCH  33  37
HETATM   37  C10 UNL     1       6.590  -0.324  -0.609  1.00  0.00     0.384 C 
BRANCH  37  38
HETATM   38  N7  UNL     1       5.732   0.006  -1.752  1.00  0.00    -0.046 N 
ATOM     39  H73 UNL     1       4.846  -0.499  -1.746  1.00  0.00     0.277 HD
ATOM     40  H72 UNL     1       5.346   0.949  -1.703  1.00  0.00     0.277 HD
ATOM     41  H71 UNL     1       6.280  -0.158  -2.597  1.00  0.00     0.277 HD
ENDBRANCH  37  38
BRANCH  37  42
HETATM   42  O6  UNL     1       7.697   0.542  -0.688  1.00  0.00    -0.364 OA
ATOM     43  H6  UNL     1       8.207   0.390  -1.475  1.00  0.00     0.212 HD
ENDBRANCH  37  42
ENDBRANCH  33  37
ENDBRANCH  31  33
ENDBRANCH  29  31
ENDBRANCH   1  24
TORSDOF 13
