REMARK  2 active torsions:
REMARK  status: ('A' for Active; 'I' for Inactive)
REMARK    1  A    between atoms: C1_4  and  C2_5 
REMARK    2  A    between atoms: C1_4  and  O1_7 
ROOT
HETATM    1  N1  UNL     1       0.884   0.119   1.201  1.00  0.00    -0.382 N 
ATOM      2  H11 UNL     1       1.862  -0.145   1.320  1.00  0.00     0.158 HD
ATOM      3  H12 UNL     1       0.306   0.396   1.995  1.00  0.00     0.158 HD
HETATM    4  C1  UNL     1       0.355   0.107   0.041  1.00  0.00     0.137 C 
ENDROOT
BRANCH   4   5
HETATM    5  C2  UNL     1      -1.070   0.492  -0.133  1.00  0.00     0.170 C 
HETATM    6  S1  UNL     1      -2.040  -0.879  -0.848  1.00  0.00    -0.089 SA
ENDBRANCH   4   5
BRANCH   4   7
HETATM    7  O1  UNL     1       1.140  -0.269  -1.037  1.00  0.00    -0.252 OA
HETATM    8  S2  UNL     1       2.624  -1.066  -0.747  1.00  0.00     0.101 SA
ENDBRANCH   4   7
TORSDOF 2
