REMARK  3 active torsions:
REMARK  status: ('A' for Active; 'I' for Inactive)
REMARK       I    between atoms: C1_4  and  N3_6 
REMARK       I    between atoms: N3_6  and  C2_8 
REMARK       I    between atoms: C2_8  and  N5_12 
REMARK    1  A    between atoms: C6_16  and  C7_17 
REMARK       I    between atoms: C7_17  and  N6_19 
REMARK    2  A    between atoms: N6_19  and  S1_21 
REMARK    3  A    between atoms: S1_21  and  N7_22 
ROOT
HETATM    1  N1  UNL     1      -4.018   1.863   0.100  1.00  0.00    -0.373 N 
ATOM      2  H11 UNL     1      -4.010   1.203   0.878  1.00  0.00     0.158 HD
ATOM      3  H12 UNL     1      -4.613   2.691   0.120  1.00  0.00     0.158 HD
HETATM    4  C1  UNL     1      -3.249   1.605  -0.888  1.00  0.00     0.200 C 
HETATM    5  N2  UNL     1      -3.260   2.538  -1.987  1.00  0.00    -0.063 NA
HETATM    6  N3  UNL     1      -2.427   0.460  -0.915  1.00  0.00    -0.164 N 
ATOM      7  H3  UNL     1      -2.235  -0.007  -1.801  1.00  0.00     0.187 HD
HETATM    8  C2  UNL     1      -1.870  -0.041   0.279  1.00  0.00     0.677 C 
HETATM    9  N4  UNL     1      -2.494   0.232   1.377  1.00  0.00    -0.234 N 
ATOM     10  H41 UNL     1      -2.091  -0.131   2.241  1.00  0.00     0.174 HD
ATOM     11  H42 UNL     1      -3.348   0.789   1.352  1.00  0.00     0.174 HD
HETATM   12  N5  UNL     1      -0.691  -0.810   0.313  1.00  0.00    -0.204 N 
HETATM   13  C3  UNL     1      -0.280  -1.732  -0.704  1.00  0.00     0.142 C 
HETATM   14  C4  UNL     1       0.086  -2.948   0.161  1.00  0.00     0.023 C 
HETATM   15  C5  UNL     1       0.737  -2.299   1.348  1.00  0.00     0.037 C 
HETATM   16  C6  UNL     1       0.305  -0.828   1.338  1.00  0.00     0.195 C 
ENDROOT
BRANCH  16  17
HETATM   17  C7  UNL     1       1.505  -0.030   1.065  1.00  0.00     0.255 C 
HETATM   18  O1  UNL     1       2.418  -0.087   1.956  1.00  0.00    -0.270 OA
HETATM   19  N6  UNL     1       1.743   0.779  -0.063  1.00  0.00    -0.236 N 
ATOM     20  H6  UNL     1       1.033   0.849  -0.792  1.00  0.00     0.183 HD
BRANCH  19  21
HETATM   21  S1  UNL     1       3.220   1.651  -0.225  1.00  0.00     0.319 S 
HETATM   22  O2  UNL     1       3.589   2.328   1.087  1.00  0.00    -0.183 OA
HETATM   23  O3  UNL     1       3.039   2.756  -1.229  1.00  0.00    -0.183 OA
BRANCH  21  24
HETATM   24  N7  UNL     1       4.521   0.694  -0.688  1.00  0.00    -0.311 N 
ATOM     25  H72 UNL     1       4.429  -0.308  -0.854  1.00  0.00     0.170 HD
ATOM     26  H71 UNL     1       5.395   1.210  -0.784  1.00  0.00     0.170 HD
ENDBRANCH  21  24
ENDBRANCH  19  21
ENDBRANCH  16  17
TORSDOF 3
