REMARK  11 active torsions:
REMARK  status: ('A' for Active; 'I' for Inactive)
REMARK    1  A    between atoms: C2_2  and  O1_3 
REMARK    2  A    between atoms: O1_3  and  C3_4 
REMARK    3  A    between atoms: C3_4  and  C4_6 
REMARK    4  A    between atoms: C4_6  and  C5_7 
REMARK    5  A    between atoms: N1_9  and  N2_11 
REMARK    6  A    between atoms: N2_11  and  C7_12 
REMARK    7  A    between atoms: C8_15  and  N4_16 
REMARK    8  A    between atoms: C10_21  and  N5_22 
REMARK    9  A    between atoms: C15_27  and  C16_28 
REMARK   10  A    between atoms: C18_32  and  C19_33 
REMARK   11  A    between atoms: C21_36  and  O3_37 
ROOT
HETATM    1  C7  UNL     1      -2.190   0.317   0.727  1.00  0.00     0.283 A 
HETATM    2  N3  UNL     1      -1.736   1.576   1.068  1.00  0.00    -0.300 N 
ATOM      3  H3  UNL     1      -2.376   2.367   1.138  1.00  0.00     0.171 HD
HETATM    4  C8  UNL     1      -0.437   1.720   1.302  1.00  0.00     0.122 A 
HETATM    5  C9  UNL     1       0.457   0.641   1.211  1.00  0.00     0.080 A 
HETATM    6  S1  UNL     1       2.131   0.432   1.427  1.00  0.00    -0.064 SA
HETATM    7  C10 UNL     1       2.240  -1.243   1.085  1.00  0.00     0.109 A 
HETATM    8  C21 UNL     1       0.954  -1.591   0.810  1.00  0.00     0.128 A 
HETATM    9  C22 UNL     1       0.024  -0.611   0.875  1.00  0.00     0.093 A 
HETATM   10  N7  UNL     1      -1.321  -0.700   0.646  1.00  0.00    -0.311 N 
ATOM     11  H7  UNL     1      -1.693  -1.615   0.393  1.00  0.00     0.170 HD
ENDROOT
BRANCH   7  12
HETATM   12  N5  UNL     1       3.436  -2.066   1.096  1.00  0.00    -0.362 N 
HETATM   13  C11 UNL     1       3.333  -3.446   0.774  1.00  0.00     0.124 C 
HETATM   14  C12 UNL     1       4.598  -4.230   0.720  1.00  0.00     0.020 C 
HETATM   15  C13 UNL     1       5.754  -3.338   0.334  1.00  0.00     0.004 C 
HETATM   16  C14 UNL     1       5.844  -2.306   1.458  1.00  0.00     0.032 C 
HETATM   17  C15 UNL     1       4.661  -1.433   1.435  1.00  0.00     0.142 C 
BRANCH  17  18
HETATM   18  C16 UNL     1       4.961  -0.271   0.511  1.00  0.00     0.074 A 
HETATM   19  N6  UNL     1       4.863  -0.207  -0.797  1.00  0.00    -0.361 N 
HETATM   20  C17 UNL     1       5.167   0.883  -1.425  1.00  0.00     0.103 A 
ATOM     21  H6  UNL     1       4.545  -1.022  -1.322  1.00  0.00     0.165 HD
HETATM   22  C18 UNL     1       5.588   1.953  -0.676  1.00  0.00    -0.001 A 
HETATM   23  S2  UNL     1       5.518   1.308   0.905  1.00  0.00    -0.078 SA
BRANCH  22  24
HETATM   24  C19 UNL     1       6.003   3.327  -1.114  1.00  0.00     0.043 C 
HETATM   25  C20 UNL     1       5.916   3.466  -2.596  1.00  0.00     0.010 C 
ENDBRANCH  22  24
ENDBRANCH  17  18
ENDBRANCH   7  12
BRANCH   8  26
HETATM   26  O3  UNL     1       0.643  -2.944   0.473  1.00  0.00    -0.356 OA
ATOM     27  H3  UNL     1      -0.255  -3.187   0.281  1.00  0.00     0.218 HD
ENDBRANCH   8  26
BRANCH   4  28
HETATM   28  N4  UNL     1       0.104   2.852   1.629  1.00  0.00    -0.384 N 
ATOM     29  H42 UNL     1      -0.545   3.636   1.695  1.00  0.00     0.157 HD
ATOM     30  H41 UNL     1       1.102   2.963   1.809  1.00  0.00     0.157 HD
ENDBRANCH   4  28
BRANCH   1  31
HETATM   31  N2  UNL     1      -3.389   0.129   0.497  1.00  0.00    -0.287 NA
BRANCH  31  32
HETATM   32  N1  UNL     1      -4.599  -0.058   0.265  1.00  0.00    -0.230 N 
HETATM   33  C4  UNL     1      -5.519   0.451  -0.443  1.00  0.00     0.113 C 
ATOM     34  H1  UNL     1      -4.952  -0.851   0.801  1.00  0.00     0.202 HD
BRANCH  33  35
HETATM   35  C3  UNL     1      -6.858  -0.106  -0.414  1.00  0.00     0.308 C 
HETATM   36  O2  UNL     1      -7.176  -1.097   0.292  1.00  0.00    -0.258 OA
BRANCH  35  37
HETATM   37  O1  UNL     1      -7.897   0.435  -1.186  1.00  0.00    -0.317 OA
BRANCH  37  38
HETATM   38  C2  UNL     1      -9.198  -0.102  -1.163  1.00  0.00     0.175 C 
HETATM   39  C1  UNL     1      -9.721  -0.017   0.251  1.00  0.00     0.034 C 
ENDBRANCH  37  38
ENDBRANCH  35  37
ENDBRANCH  33  35
BRANCH  33  40
HETATM   40  C5  UNL     1      -5.216   1.620  -1.298  1.00  0.00     0.061 C 
HETATM   41  C6  UNL     1      -6.074   2.787  -0.890  1.00  0.00     0.011 C 
ENDBRANCH  33  40
ENDBRANCH  31  32
ENDBRANCH   1  31
TORSDOF 11
