REMARK  7 active torsions:
REMARK  status: ('A' for Active; 'I' for Inactive)
REMARK    1  A    between atoms: C6_7  and  C7_8 
REMARK    2  A    between atoms: C7_8  and  O1_9 
REMARK    3  A    between atoms: C7_8  and  C8_11 
REMARK    4  A    between atoms: C9_14  and  C10_15 
REMARK    5  A    between atoms: C10_15  and  C11_17 
REMARK    6  A    between atoms: C13_19  and  N1_20 
REMARK    7  A    between atoms: C16_25  and  O5_26 
ROOT
HETATM    1  C1  UNL     1      -2.802   3.183   0.531  1.00  0.00     0.010 C 
HETATM    2  C2  UNL     1      -2.281   1.930  -0.171  1.00  0.00    -0.014 C 
HETATM    3  C3  UNL     1      -3.405   1.392  -0.996  1.00  0.00     0.009 C 
HETATM    4  C4  UNL     1      -3.751  -0.024  -0.773  1.00  0.00     0.047 C 
HETATM    5  C5  UNL     1      -2.474  -0.810  -0.550  1.00  0.00    -0.010 A 
HETATM    6  S1  UNL     1      -1.862  -2.305  -1.100  1.00  0.00    -0.095 SA
HETATM    7  C6  UNL     1      -0.354  -2.314  -0.261  1.00  0.00     0.032 A 
HETATM    8  C9  UNL     1      -0.380  -1.132   0.424  1.00  0.00     0.038 A 
HETATM    9  C17 UNL     1      -1.478  -0.366   0.266  1.00  0.00    -0.029 A 
HETATM   10  C18 UNL     1      -1.799   0.982   0.884  1.00  0.00     0.045 C 
ENDROOT
BRANCH   8  11
HETATM   11  C10 UNL     1       0.729  -0.756   1.343  1.00  0.00     0.196 C 
HETATM   12  O2  UNL     1       0.624  -1.291   2.498  1.00  0.00    -0.286 OA
BRANCH  11  13
HETATM   13  C11 UNL     1       1.819   0.110   1.038  1.00  0.00     0.050 A 
HETATM   14  C12 UNL     1       2.204   0.480  -0.256  1.00  0.00     0.054 A 
HETATM   15  C13 UNL     1       3.260   1.275  -0.568  1.00  0.00     0.104 A 
HETATM   16  C14 UNL     1       4.027   1.771   0.472  1.00  0.00     0.039 A 
HETATM   17  C15 UNL     1       3.711   1.454   1.763  1.00  0.00     0.040 A 
HETATM   18  C16 UNL     1       2.622   0.630   2.058  1.00  0.00     0.080 A 
BRANCH  15  19
HETATM   19  N1  UNL     1       3.645   1.611  -1.885  1.00  0.00    -0.116 N 
HETATM   20  O3  UNL     1       2.988   1.196  -2.843  1.00  0.00    -0.532 OA
HETATM   21  O4  UNL     1       4.747   2.389  -2.113  1.00  0.00    -0.532 OA
ENDBRANCH  15  19
BRANCH  18  22
HETATM   22  O5  UNL     1       2.410   0.382   3.357  1.00  0.00    -0.360 OA
ATOM     23  H5  UNL     1       2.956   0.735   4.050  1.00  0.00     0.217 HD
ENDBRANCH  18  22
ENDBRANCH  11  13
ENDBRANCH   8  11
BRANCH   7  24
HETATM   24  C7  UNL     1       0.616  -3.426  -0.352  1.00  0.00     0.223 C 
BRANCH  24  25
HETATM   25  O1  UNL     1       1.919  -3.070  -0.579  1.00  0.00    -0.385 OA
ATOM     26  H1  UNL     1       2.542  -3.785  -0.637  1.00  0.00     0.210 HD
ENDBRANCH  24  25
BRANCH  24  27
HETATM   27  C8  UNL     1       0.122  -4.377  -1.451  1.00  0.00     0.386 C 
HETATM   28  F1  UNL     1       0.977  -5.443  -1.586  1.00  0.00    -0.211 F 
HETATM   29  F2  UNL     1      -1.122  -4.835  -1.142  1.00  0.00    -0.211 F 
ENDBRANCH  24  27
ENDBRANCH   7  24
TORSDOF 7
