REMARK  1 active torsions:
REMARK  status: ('A' for Active; 'I' for Inactive)
REMARK    1  A    between atoms: O1_1  and  C1_3 
ROOT
HETATM    1  C1  UNL     1       1.913  -0.840  -0.110  1.00  0.00     0.123 C 
HETATM    2  C2  UNL     1       2.341   0.523  -0.569  1.00  0.00     0.033 C 
HETATM    3  C3  UNL     1       1.206   1.475  -0.263  1.00  0.00     0.014 C 
HETATM    4  C4  UNL     1       0.032   0.596  -0.058  1.00  0.00    -0.006 C 
HETATM    5  C5  UNL     1      -0.931   1.089   1.000  1.00  0.00     0.042 C 
HETATM    6  C6  UNL     1      -2.269   1.048   0.315  1.00  0.00     0.273 C 
HETATM    7  N1  UNL     1      -2.070  -0.047  -0.652  1.00  0.00     0.089 N 
HETATM    8  C7  UNL     1      -1.846  -1.306   0.018  1.00  0.00     0.273 C 
HETATM    9  C8  UNL     1      -0.411  -1.795  -0.149  1.00  0.00     0.038 C 
HETATM   10  C9  UNL     1       0.522  -0.757   0.393  1.00  0.00     0.026 C 
HETATM   11  C10 UNL     1      -0.835   0.435  -1.292  1.00  0.00     0.282 C 
ENDROOT
BRANCH   1  12
HETATM   12  O1  UNL     1       2.782  -1.216   0.938  1.00  0.00    -0.395 OA
ATOM     13  H1  UNL     1       2.511  -2.079   1.229  1.00  0.00     0.210 HD
ENDBRANCH   1  12
TORSDOF 1
