REMARK  3 active torsions:
REMARK  status: ('A' for Active; 'I' for Inactive)
REMARK    1  A    between atoms: O1_2  and  C2_3 
REMARK    2  A    between atoms: C2_3  and  O2_4 
REMARK    3  A    between atoms: C7_10  and  O3_11 
ROOT
HETATM    1  C2  UNL     1      -1.016  -0.513  -0.280  1.00  0.00     0.163 C 
HETATM    2  C3  UNL     1       0.102  -1.509  -0.458  1.00  0.00     0.068 C 
HETATM    3  C4  UNL     1       1.148  -1.428   0.604  1.00  0.00     0.005 C 
HETATM    4  C5  UNL     1       2.322  -0.557   0.234  1.00  0.00     0.003 C 
HETATM    5  C6  UNL     1       1.841   0.878   0.371  1.00  0.00     0.032 C 
HETATM    6  C7  UNL     1       0.839   1.113  -0.732  1.00  0.00     0.123 C 
HETATM    7  C8  UNL     1      -0.579   0.902  -0.270  1.00  0.00     0.100 C 
ENDROOT
BRANCH   1   8
HETATM    8  O1  UNL     1      -1.757  -0.893   0.838  1.00  0.00    -0.360 OA
HETATM    9  C1  UNL     1      -2.889  -0.082   0.940  1.00  0.00     0.205 C 
ENDBRANCH   1   8
BRANCH   1  10
HETATM   10  O2  UNL     1      -1.880  -0.689  -1.386  1.00  0.00    -0.365 OA
ATOM     11  H2  UNL     1      -1.375  -0.430  -2.148  1.00  0.00     0.213 HD
ENDBRANCH   1  10
BRANCH   6  12
HETATM   12  O3  UNL     1       0.962   2.440  -1.140  1.00  0.00    -0.395 OA
ATOM     13  H3  UNL     1       0.331   2.588  -1.835  1.00  0.00     0.210 HD
ENDBRANCH   6  12
TORSDOF 3
