REMARK  12 active torsions:
REMARK  status: ('A' for Active; 'I' for Inactive)
REMARK    1  A    between atoms: C2_2  and  C3_3 
REMARK    2  A    between atoms: C7_9  and  C8_10 
REMARK    3  A    between atoms: C8_10  and  C9_11 
REMARK    4  A    between atoms: C11_16  and  C12_17 
REMARK    5  A    between atoms: C12_17  and  N3_18 
REMARK    6  A    between atoms: C18_27  and  C19_28 
REMARK    7  A    between atoms: C19_28  and  C20_29 
REMARK    8  A    between atoms: C20_29  and  C21_30 
REMARK    9  A    between atoms: C21_30  and  C22_31 
REMARK   10  A    between atoms: C22_31  and  C23_32 
REMARK   11  A    between atoms: C23_32  and  N5_33 
REMARK   12  A    between atoms: C28_41  and  O3_42 
ROOT
HETATM    1  C9  UNL     1      -3.633   0.287   0.709  1.00  0.00     0.181 C 
HETATM    2  N2  UNL     1      -2.882  -0.341   1.777  1.00  0.00    -0.346 N 
ATOM      3  H2  UNL     1      -2.786   0.185   2.646  1.00  0.00     0.163 HD
HETATM    4  C10 UNL     1      -2.269  -1.617   1.728  1.00  0.00     0.242 C 
HETATM    5  O1  UNL     1      -2.164  -2.310   2.792  1.00  0.00    -0.271 OA
HETATM    6  C11 UNL     1      -1.711  -2.251   0.496  1.00  0.00     0.204 C 
HETATM    7  N4  UNL     1      -0.308  -2.444   0.484  1.00  0.00    -0.344 N 
ATOM      8  H4  UNL     1       0.019  -3.217   1.064  1.00  0.00     0.163 HD
HETATM    9  C17 UNL     1       0.713  -1.746  -0.196  1.00  0.00     0.241 C 
HETATM   10  O2  UNL     1       1.441  -2.360  -1.067  1.00  0.00    -0.271 OA
HETATM   11  C18 UNL     1       1.089  -0.290  -0.026  1.00  0.00     0.175 C 
HETATM   12  N7  UNL     1       0.624   0.274   1.198  1.00  0.00    -0.359 N 
ATOM     13  H7  UNL     1       0.805  -0.324   2.004  1.00  0.00     0.162 HD
HETATM   14  C28 UNL     1      -0.016   1.447   1.534  1.00  0.00     0.135 C 
HETATM   15  C29 UNL     1      -1.082   2.237   1.006  1.00  0.00     0.161 C 
HETATM   16  C30 UNL     1      -0.437   3.632   0.776  1.00  0.00     0.035 C 
HETATM   17  C31 UNL     1      -0.080   3.440  -0.690  1.00  0.00     0.022 C 
HETATM   18  C32 UNL     1      -1.359   2.861  -1.186  1.00  0.00     0.127 C 
HETATM   19  N8  UNL     1      -1.826   1.960  -0.136  1.00  0.00    -0.338 N 
HETATM   20  C33 UNL     1      -2.877   1.011  -0.293  1.00  0.00     0.243 C 
HETATM   21  O4  UNL     1      -3.170   0.793  -1.522  1.00  0.00    -0.271 OA
ENDROOT
BRANCH  11  22
HETATM   22  C19 UNL     1       2.617  -0.351   0.160  1.00  0.00     0.035 C 
BRANCH  22  23
HETATM   23  C20 UNL     1       3.271   0.969   0.353  1.00  0.00     0.002 C 
BRANCH  23  24
HETATM   24  C21 UNL     1       4.771   0.614   0.519  1.00  0.00     0.002 C 
BRANCH  24  25
HETATM   25  C22 UNL     1       5.625   1.805   0.723  1.00  0.00     0.030 C 
BRANCH  25  26
HETATM   26  C23 UNL     1       7.058   1.414   0.890  1.00  0.00     0.260 C 
BRANCH  26  27
HETATM   27  N5  UNL     1       7.686   0.729  -0.184  1.00  0.00     0.006 N 
HETATM   28  C24 UNL     1       7.522  -0.731  -0.061  1.00  0.00     0.297 C 
HETATM   29  C25 UNL     1       7.287   1.084  -1.502  1.00  0.00     0.261 C 
HETATM   30  C26 UNL     1       8.609   1.204  -2.281  1.00  0.00     0.047 C 
HETATM   31  C27 UNL     1       9.466   1.812  -1.162  1.00  0.00     0.144 C 
HETATM   32  N6  UNL     1       9.067   0.969  -0.066  1.00  0.00    -0.047 NA
ENDBRANCH  26  27
ENDBRANCH  25  26
ENDBRANCH  24  25
ENDBRANCH  23  24
ENDBRANCH  22  23
ENDBRANCH  11  22
BRANCH  14  33
HETATM   33  O3  UNL     1       0.476   1.985   2.623  1.00  0.00    -0.348 OA
ATOM     34  H3  UNL     1       0.035   2.794   2.855  1.00  0.00     0.219 HD
ENDBRANCH  14  33
BRANCH   6  35
HETATM   35  C12 UNL     1      -2.590  -3.432   0.196  1.00  0.00     0.307 C 
BRANCH  35  36
HETATM   36  N3  UNL     1      -2.705  -4.438   1.196  1.00  0.00     0.090 N 
HETATM   37  C13 UNL     1      -3.872  -5.289   0.764  1.00  0.00     0.272 C 
HETATM   38  C14 UNL     1      -3.326  -5.886  -0.502  1.00  0.00     0.032 C 
HETATM   39  C15 UNL     1      -1.871  -6.109  -0.190  1.00  0.00     0.032 C 
HETATM   40  C16 UNL     1      -1.714  -5.492   1.188  1.00  0.00     0.272 C 
ENDBRANCH  35  36
ENDBRANCH   6  35
BRANCH   1  41
HETATM   41  C8  UNL     1      -4.780   1.032   1.340  1.00  0.00     0.076 C 
BRANCH  41  42
HETATM   42  C7  UNL     1      -5.688   1.757   0.454  1.00  0.00    -0.026 A 
HETATM   43  C3  UNL     1      -6.718   1.266  -0.297  1.00  0.00    -0.035 A 
HETATM   44  C4  UNL     1      -7.304   2.339  -0.941  1.00  0.00     0.095 A 
HETATM   45  N1  UNL     1      -6.644   3.438  -0.585  1.00  0.00    -0.368 N 
HETATM   46  C5  UNL     1      -5.658   3.143   0.257  1.00  0.00     0.012 A 
ATOM     47  H1  UNL     1      -6.864   4.378  -0.913  1.00  0.00     0.165 HD
HETATM   48  C6  UNL     1      -4.701   4.127   0.887  1.00  0.00     0.068 C 
BRANCH  43  49
HETATM   49  C2  UNL     1      -7.233  -0.112  -0.509  1.00  0.00     0.036 C 
HETATM   50  C1  UNL     1      -6.472  -0.840  -1.567  1.00  0.00     0.010 C 
ENDBRANCH  43  49
ENDBRANCH  41  42
ENDBRANCH   1  41
TORSDOF 12
