REMARK  17 active torsions:
REMARK  status: ('A' for Active; 'I' for Inactive)
REMARK    1  A    between atoms: C2_2  and  C3_3 
REMARK    2  A    between atoms: C5_5  and  C6_6 
REMARK    3  A    between atoms: C7_7  and  O1_8 
REMARK    4  A    between atoms: C7_7  and  N1_10 
REMARK    5  A    between atoms: N1_10  and  C9_12 
REMARK    6  A    between atoms: C9_12  and  C10_13 
REMARK    7  A    between atoms: C11_18  and  C12_19 
REMARK    8  A    between atoms: C12_19  and  N4_20 
REMARK    9  A    between atoms: N4_20  and  C13_22 
REMARK   10  A    between atoms: C13_22  and  C14_23 
REMARK   11  A    between atoms: C14_23  and  C15_24 
REMARK   12  A    between atoms: C15_24  and  C16_25 
REMARK   13  A    between atoms: C16_25  and  C17_26 
REMARK   14  A    between atoms: C17_26  and  C18_27 
REMARK   15  A    between atoms: C20_31  and  C21_32 
REMARK   16  A    between atoms: C21_32  and  N6_33 
REMARK   17  A    between atoms: C24_41  and  O4_42 
ROOT
HETATM    1  C13 UNL     1       0.060   0.090  -2.373  1.00  0.00     0.119 C 
ENDROOT
BRANCH   1   2
HETATM    2  N4  UNL     1      -0.612  -0.816  -1.467  1.00  0.00    -0.397 N 
ATOM      3  H4  UNL     1      -0.126  -1.089  -0.613  1.00  0.00     0.158 HD
BRANCH   2   4
HETATM    4  C12 UNL     1      -1.888  -1.340  -1.693  1.00  0.00     0.113 C 
BRANCH   4   5
HETATM    5  C11 UNL     1      -2.982  -0.912  -1.098  1.00  0.00     0.058 A 
HETATM    6  C3  UNL     1      -3.116   0.080  -0.178  1.00  0.00    -0.007 A 
HETATM    7  C4  UNL     1      -4.501   0.135   0.107  1.00  0.00     0.043 A 
HETATM    8  C5  UNL     1      -5.183  -0.797  -0.618  1.00  0.00     0.037 A 
HETATM    9  N3  UNL     1      -4.223  -1.421  -1.345  1.00  0.00    -0.354 N 
ATOM     10  H3  UNL     1      -4.407  -2.181  -1.999  1.00  0.00     0.166 HD
BRANCH   6  11
HETATM   11  C2  UNL     1      -2.127   0.957   0.431  1.00  0.00     0.003 C 
HETATM   12  C1  UNL     1      -2.513   2.067   1.084  1.00  0.00     0.012 C 
ENDBRANCH   6  11
BRANCH   8  13
HETATM   13  C6  UNL     1      -6.462  -1.086  -0.663  1.00  0.00     0.085 C 
HETATM   14  C7  UNL     1      -7.666  -0.672  -0.086  1.00  0.00     0.140 C 
BRANCH  14  15
HETATM   15  O1  UNL     1      -8.707  -1.429  -0.590  1.00  0.00    -0.346 OA
ATOM     16  H1  UNL     1      -9.525  -1.148  -0.198  1.00  0.00     0.219 HD
ENDBRANCH  14  15
BRANCH  14  17
HETATM   17  N1  UNL     1      -8.162   0.245   0.824  1.00  0.00    -0.358 N 
HETATM   18  C8  UNL     1      -7.469   1.222   1.583  1.00  0.00     0.152 C 
BRANCH  17  19
HETATM   19  C9  UNL     1      -9.643   0.247   1.083  1.00  0.00     0.223 C 
BRANCH  19  20
HETATM   20  C10 UNL     1     -10.269   1.183   0.112  1.00  0.00     0.248 C 
HETATM   21  N2  UNL     1      -9.523   1.902  -0.848  1.00  0.00    -0.061 NA
HETATM   22  O2  UNL     1     -11.514   1.374   0.110  1.00  0.00    -0.275 OA
ENDBRANCH  19  20
ENDBRANCH  17  19
ENDBRANCH  14  17
ENDBRANCH   8  13
ENDBRANCH   4   5
ENDBRANCH   2   4
ENDBRANCH   1   2
BRANCH   1  23
HETATM   23  C14 UNL     1       1.430   0.425  -1.869  1.00  0.00     0.020 C 
BRANCH  23  24
HETATM   24  C15 UNL     1       2.248  -0.839  -1.799  1.00  0.00     0.002 C 
BRANCH  24  25
HETATM   25  C16 UNL     1       3.651  -0.551  -1.298  1.00  0.00     0.005 C 
BRANCH  25  26
HETATM   26  C17 UNL     1       4.395  -1.870  -1.261  1.00  0.00     0.043 C 
BRANCH  26  27
HETATM   27  C18 UNL     1       5.785  -1.666  -0.777  1.00  0.00    -0.008 A 
HETATM   28  C19 UNL     1       6.957  -1.653  -1.532  1.00  0.00     0.098 A 
HETATM   29  N5  UNL     1       7.995  -1.437  -0.708  1.00  0.00    -0.365 N 
HETATM   30  C20 UNL     1       7.554  -1.307   0.566  1.00  0.00     0.063 A 
ATOM     31  H5  UNL     1       8.971  -1.379  -0.998  1.00  0.00     0.165 HD
HETATM   32  C24 UNL     1       6.184  -1.450   0.519  1.00  0.00     0.097 A 
BRANCH  30  33
HETATM   33  C21 UNL     1       8.400  -1.058   1.770  1.00  0.00     0.210 C 
BRANCH  33  34
HETATM   34  N6  UNL     1       8.307   0.319   2.213  1.00  0.00    -0.278 N 
HETATM   35  C22 UNL     1       9.143   1.297   1.760  1.00  0.00     0.205 A 
HETATM   36  N7  UNL     1       8.822   2.460   2.342  1.00  0.00    -0.302 N 
HETATM   37  C23 UNL     1       7.790   2.193   3.151  1.00  0.00     0.340 A 
ATOM     38  H7  UNL     1       9.272   3.364   2.198  1.00  0.00     0.171 HD
HETATM   39  O3  UNL     1       7.225   3.064   3.863  1.00  0.00    -0.245 OA
HETATM   40  N8  UNL     1       7.481   0.866   3.063  1.00  0.00    -0.248 N 
ATOM     41  H8  UNL     1       6.737   0.387   3.571  1.00  0.00     0.192 HD
ENDBRANCH  33  34
ENDBRANCH  30  33
BRANCH  32  42
HETATM   42  O4  UNL     1       5.367  -1.378   1.640  1.00  0.00    -0.358 OA
ATOM     43  H4  UNL     1       5.643  -1.229   2.537  1.00  0.00     0.217 HD
ENDBRANCH  32  42
ENDBRANCH  26  27
ENDBRANCH  25  26
ENDBRANCH  24  25
ENDBRANCH  23  24
ENDBRANCH   1  23
TORSDOF 17
