REMARK  7 active torsions:
REMARK  status: ('A' for Active; 'I' for Inactive)
REMARK    1  A    between atoms: C2_2  and  C4_4 
REMARK    2  A    between atoms: C15_18  and  C16_19 
REMARK    3  A    between atoms: C16_19  and  N2_20 
REMARK    4  A    between atoms: N2_20  and  S1_22 
REMARK    5  A    between atoms: S1_22  and  N3_25 
REMARK    6  A    between atoms: N3_25  and  C17_27 
REMARK    7  A    between atoms: C17_27  and  O4_28 
ROOT
HETATM    1  C4  UNL     1      -0.118   2.425  -0.063  1.00  0.00     0.179 C 
HETATM    2  N1  UNL     1      -0.770   1.935   1.134  1.00  0.00    -0.347 N 
ATOM      3  H1  UNL     1      -0.456   2.367   2.003  1.00  0.00     0.163 HD
HETATM    4  C5  UNL     1      -1.753   0.972   1.281  1.00  0.00     0.218 C 
HETATM    5  O1  UNL     1      -1.577   0.110   2.195  1.00  0.00    -0.274 OA
HETATM    6  C6  UNL     1      -3.044   0.917   0.574  1.00  0.00     0.103 C 
HETATM    7  C7  UNL     1      -3.784  -0.349   0.870  1.00  0.00     0.009 C 
HETATM    8  C8  UNL     1      -3.281  -1.422  -0.085  1.00  0.00     0.000 C 
HETATM    9  C9  UNL     1      -3.412  -2.803   0.506  1.00  0.00     0.000 C 
HETATM   10  C10 UNL     1      -2.741  -3.762  -0.469  1.00  0.00     0.000 C 
HETATM   11  C11 UNL     1      -1.235  -3.525  -0.528  1.00  0.00     0.000 C 
HETATM   12  C12 UNL     1      -0.881  -3.173  -1.941  1.00  0.00     0.000 C 
HETATM   13  C13 UNL     1       0.436  -2.467  -2.100  1.00  0.00     0.002 C 
HETATM   14  C14 UNL     1       1.175  -2.223  -0.840  1.00  0.00     0.027 C 
HETATM   15  C15 UNL     1       0.959  -0.851  -0.196  1.00  0.00     0.103 C 
HETATM   16  N4  UNL     1       0.033  -0.044  -0.873  1.00  0.00    -0.353 N 
ATOM     17  H4  UNL     1      -0.765  -0.539  -1.273  1.00  0.00     0.163 HD
HETATM   18  C18 UNL     1       0.042   1.339  -1.081  1.00  0.00     0.241 C 
HETATM   19  O5  UNL     1       0.162   1.743  -2.286  1.00  0.00    -0.271 OA
ENDROOT
BRANCH  15  20
HETATM   20  C16 UNL     1       2.336  -0.276   0.062  1.00  0.00     0.158 C 
BRANCH  20  21
HETATM   21  N2  UNL     1       2.466   0.227   1.406  1.00  0.00    -0.301 N 
ATOM     22  H2  UNL     1       1.683   0.534   1.983  1.00  0.00     0.173 HD
BRANCH  21  23
HETATM   23  S1  UNL     1       4.055   0.244   1.897  1.00  0.00     0.316 S 
HETATM   24  O2  UNL     1       4.029   0.307   3.469  1.00  0.00    -0.183 OA
HETATM   25  O3  UNL     1       4.784  -1.072   1.646  1.00  0.00    -0.183 OA
BRANCH  23  26
HETATM   26  N3  UNL     1       5.004   1.595   1.483  1.00  0.00    -0.281 N 
ATOM     27  H3  UNL     1       4.763   2.582   1.569  1.00  0.00     0.176 HD
BRANCH  26  28
HETATM   28  C17 UNL     1       6.232   1.018   0.981  1.00  0.00     0.300 C 
BRANCH  28  29
HETATM   29  O4  UNL     1       7.102   0.828   2.074  1.00  0.00    -0.382 OA
ATOM     30  H4  UNL     1       7.908   0.449   1.744  1.00  0.00     0.211 HD
ENDBRANCH  28  29
ENDBRANCH  26  28
ENDBRANCH  23  26
ENDBRANCH  21  23
ENDBRANCH  20  21
ENDBRANCH  15  20
BRANCH   1  31
HETATM   31  C2  UNL     1      -0.789   3.640  -0.610  1.00  0.00     0.009 C 
HETATM   32  C1  UNL     1      -1.590   4.395   0.441  1.00  0.00     0.012 C 
HETATM   33  C3  UNL     1      -1.613   3.503  -1.831  1.00  0.00     0.012 C 
ENDBRANCH   1  31
TORSDOF 7
