REMARK  5 active torsions:
REMARK  status: ('A' for Active; 'I' for Inactive)
REMARK    1  A    between atoms: N1_1  and  C1_5 
REMARK    2  A    between atoms: C1_5  and  C2_6 
REMARK    3  A    between atoms: C1_5  and  C4_10 
REMARK    4  A    between atoms: C2_6  and  C3_7 
REMARK    5  A    between atoms: C3_7  and  O1_8 
ROOT
HETATM    1  C4  UNL     1       1.048  -0.412   0.369  1.00  0.00    -0.004 A 
HETATM    2  C5  UNL     1       1.002  -0.086   1.803  1.00  0.00     0.018 A 
HETATM    3  C6  UNL     1       0.866  -1.497   1.337  1.00  0.00    -0.003 A 
HETATM    4  C7  UNL     1      -0.426  -2.220   1.351  1.00  0.00     0.010 C 
HETATM    5  C8  UNL     1      -1.200  -2.238   0.085  1.00  0.00    -0.013 C 
HETATM    6  C9  UNL     1      -2.543  -1.508   0.192  1.00  0.00     0.010 C 
HETATM    7  C10 UNL     1      -2.309  -0.083   0.636  1.00  0.00    -0.007 C 
HETATM    8  C11 UNL     1      -3.644   0.623   0.577  1.00  0.00     0.032 C 
HETATM    9  C12 UNL     1      -3.453   2.095   0.202  1.00  0.00     0.232 C 
HETATM   10  N2  UNL     1      -2.999   2.030  -1.173  1.00  0.00    -0.075 N 
ATOM     11  H21 UNL     1      -3.036   2.945  -1.622  1.00  0.00     0.277 HD
ATOM     12  H22 UNL     1      -3.668   1.537  -1.764  1.00  0.00     0.277 HD
HETATM   13  C13 UNL     1      -1.719   1.464  -1.264  1.00  0.00     0.237 C 
HETATM   14  C14 UNL     1      -1.225   0.632  -0.104  1.00  0.00     0.020 C 
HETATM   15  C15 UNL     1      -0.091  -0.189  -0.566  1.00  0.00     0.003 C 
HETATM   16  C16 UNL     1      -0.501  -1.576  -1.081  1.00  0.00     0.010 C 
ENDROOT
BRANCH   1  17
HETATM   17  C1  UNL     1       2.466  -0.351  -0.228  1.00  0.00     0.194 C 
BRANCH  17  18
HETATM   18  N1  UNL     1       2.487  -0.669  -1.612  1.00  0.00    -0.074 N 
ATOM     19  H13 UNL     1       2.015   0.035  -2.180  1.00  0.00     0.274 HD
ATOM     20  H12 UNL     1       3.418  -0.578  -2.017  1.00  0.00     0.274 HD
ATOM     21  H11 UNL     1       2.095  -1.601  -1.744  1.00  0.00     0.274 HD
ENDBRANCH  17  18
BRANCH  17  22
HETATM   22  C2  UNL     1       3.050   1.039  -0.031  1.00  0.00     0.059 C 
BRANCH  22  23
HETATM   23  C3  UNL     1       4.473   1.020  -0.550  1.00  0.00     0.166 C 
BRANCH  23  24
HETATM   24  O1  UNL     1       5.007   2.293  -0.369  1.00  0.00    -0.401 OA
ATOM     25  H1  UNL     1       5.899   2.281  -0.694  1.00  0.00     0.209 HD
ENDBRANCH  23  24
ENDBRANCH  22  23
ENDBRANCH  17  22
ENDBRANCH   1  17
TORSDOF 5
