REMARK  5 active torsions:
REMARK  status: ('A' for Active; 'I' for Inactive)
REMARK    1  A    between atoms: N1_2  and  C3_4 
REMARK    2  A    between atoms: C5_9  and  N3_10 
REMARK    3  A    between atoms: C6_14  and  N4_15 
REMARK    4  A    between atoms: N4_15  and  S1_17 
REMARK    5  A    between atoms: S1_17  and  N5_18 
ROOT
HETATM    1  C3  UNL     1      -0.942   0.299  -0.159  1.00  0.00     0.443 C 
HETATM    2  N2  UNL     1      -1.914  -0.767  -0.455  1.00  0.00    -0.039 N 
ATOM      3  H21 UNL     1      -2.644  -0.475  -1.105  1.00  0.00     0.279 HD
ATOM      4  H22 UNL     1      -2.522  -0.986   0.334  1.00  0.00     0.279 HD
HETATM    5  C4  UNL     1      -1.159  -1.908  -0.924  1.00  0.00     0.270 C 
HETATM    6  C5  UNL     1       0.280  -1.438  -1.055  1.00  0.00     0.236 C 
HETATM    7  C6  UNL     1       0.288  -0.430   0.116  1.00  0.00     0.190 C 
ENDROOT
BRANCH   7   8
HETATM    8  N4  UNL     1       1.526   0.160   0.172  1.00  0.00    -0.288 N 
HETATM    9  C7  UNL     1       2.539  -0.635   0.779  1.00  0.00     0.165 C 
BRANCH   8  10
HETATM   10  S1  UNL     1       2.127   1.240  -0.929  1.00  0.00     0.315 S 
HETATM   11  O1  UNL     1       3.659   1.200  -0.832  1.00  0.00    -0.183 OA
HETATM   12  O2  UNL     1       1.861   0.990  -2.373  1.00  0.00    -0.183 OA
BRANCH  10  13
HETATM   13  N5  UNL     1       1.735   2.898  -0.514  1.00  0.00    -0.311 N 
ATOM     14  H52 UNL     1       1.197   3.152   0.315  1.00  0.00     0.170 HD
ATOM     15  H51 UNL     1       2.105   3.564  -1.192  1.00  0.00     0.170 HD
ENDBRANCH  10  13
ENDBRANCH   8  10
ENDBRANCH   7   8
BRANCH   1  16
HETATM   16  N1  UNL     1      -1.495   1.100   0.876  1.00  0.00     0.113 N 
HETATM   17  C1  UNL     1      -2.715   1.720   0.354  1.00  0.00     0.312 C 
HETATM   18  C2  UNL     1      -1.835   0.426   2.078  1.00  0.00     0.312 C 
ENDBRANCH   1  16
BRANCH   6  19
HETATM   19  N3  UNL     1       1.237  -2.477  -0.875  1.00  0.00    -0.071 N 
ATOM     20  H33 UNL     1       1.092  -2.950   0.017  1.00  0.00     0.274 HD
ATOM     21  H32 UNL     1       1.051  -3.252  -1.511  1.00  0.00     0.274 HD
ATOM     22  H31 UNL     1       2.203  -2.161  -0.963  1.00  0.00     0.274 HD
ENDBRANCH   6  19
TORSDOF 5
