REMARK  13 active torsions:
REMARK  status: ('A' for Active; 'I' for Inactive)
REMARK    1  A    between atoms: C2_2  and  C3_3 
REMARK    2  A    between atoms: C3_3  and  O1_4 
REMARK    3  A    between atoms: C9_11  and  C10_12 
REMARK    4  A    between atoms: C10_12  and  C11_13 
REMARK    5  A    between atoms: C11_13  and  C12_14 
REMARK    6  A    between atoms: C14_16  and  O2_17 
REMARK    7  A    between atoms: C15_19  and  C16_20 
REMARK    8  A    between atoms: C16_20  and  C17_21 
REMARK    9  A    between atoms: C16_20  and  N1_26 
REMARK   10  A    between atoms: C18_22  and  C19_23 
REMARK   11  A    between atoms: C19_23  and  O3_24 
REMARK   12  A    between atoms: C26_34  and  C27_35 
REMARK   13  A    between atoms: C27_35  and  O5_36 
ROOT
HETATM    1  C12 UNL     1       0.870  -0.018  -0.356  1.00  0.00     0.124 C 
HETATM    2  C13 UNL     1       1.070  -1.131   0.611  1.00  0.00     0.066 C 
HETATM    3  C14 UNL     1       2.570  -1.383   0.555  1.00  0.00     0.152 C 
HETATM    4  C15 UNL     1       3.079  -0.160  -0.097  1.00  0.00     0.185 C 
HETATM    5  O4  UNL     1       2.018   0.756  -0.141  1.00  0.00    -0.375 OA
ENDROOT
BRANCH   1   6
HETATM    6  C11 UNL     1      -0.368   0.830  -0.064  1.00  0.00     0.033 C 
BRANCH   6   7
HETATM    7  C10 UNL     1      -1.614   0.039  -0.099  1.00  0.00     0.012 C 
BRANCH   7   8
HETATM    8  C9  UNL     1      -2.914   0.691   0.108  1.00  0.00     0.025 C 
HETATM    9  C7  UNL     1      -4.051  -0.352  -0.026  1.00  0.00    -0.032 C 
HETATM   10  C6  UNL     1      -3.818  -0.988  -1.371  1.00  0.00     0.010 C 
HETATM   11  C8  UNL     1      -3.804  -1.373   1.054  1.00  0.00     0.016 C 
HETATM   12  C30 UNL     1      -5.364   0.298   0.137  1.00  0.00     0.008 C 
HETATM   13  C5  UNL     1      -5.051  -1.585  -2.002  1.00  0.00     0.002 C 
HETATM   14  C4  UNL     1      -6.187  -0.597  -2.075  1.00  0.00     0.012 C 
HETATM   15  C2  UNL     1      -6.504  -0.195  -0.669  1.00  0.00    -0.018 C 
HETATM   16  C1  UNL     1      -7.568   0.910  -0.777  1.00  0.00     0.018 C 
HETATM   17  C29 UNL     1      -5.231   1.814   0.016  1.00  0.00     0.033 C 
HETATM   18  C28 UNL     1      -4.363   2.223   1.149  1.00  0.00    -0.021 C 
HETATM   19  C26 UNL     1      -3.134   1.625   1.196  1.00  0.00    -0.056 C 
BRANCH  15  20
HETATM   20  C3  UNL     1      -7.248  -1.353  -0.000  1.00  0.00     0.173 C 
BRANCH  20  21
HETATM   21  O1  UNL     1      -7.733  -1.004   1.245  1.00  0.00    -0.400 OA
ATOM     22  H1  UNL     1      -8.195  -1.723   1.660  1.00  0.00     0.209 HD
ENDBRANCH  20  21
ENDBRANCH  15  20
BRANCH  19  23
HETATM   23  C27 UNL     1      -2.285   2.030   2.314  1.00  0.00     0.198 C 
BRANCH  23  24
HETATM   24  O5  UNL     1      -1.886   1.021   3.180  1.00  0.00    -0.397 OA
ATOM     25  H5  UNL     1      -1.334   1.284   3.907  1.00  0.00     0.209 HD
ENDBRANCH  23  24
ENDBRANCH  19  23
ENDBRANCH   7   8
ENDBRANCH   6   7
ENDBRANCH   1   6
BRANCH   3  26
HETATM   26  O2  UNL     1       2.766  -2.458  -0.320  1.00  0.00    -0.393 OA
ATOM     27  H2  UNL     1       3.702  -2.615  -0.355  1.00  0.00     0.210 HD
ENDBRANCH   3  26
BRANCH   4  28
HETATM   28  C16 UNL     1       4.247   0.530   0.486  1.00  0.00     0.191 C 
BRANCH  28  29
HETATM   29  C17 UNL     1       4.507   1.724  -0.363  1.00  0.00    -0.076 C 
HETATM   30  C18 UNL     1       4.698   2.695  -1.054  1.00  0.00    -0.079 C 
BRANCH  30  31
HETATM   31  C19 UNL     1       4.903   3.870  -1.877  1.00  0.00     0.257 C 
BRANCH  31  32
HETATM   32  O3  UNL     1       5.554   3.604  -3.068  1.00  0.00    -0.389 OA
ATOM     33  H3  UNL     1       5.688   4.374  -3.608  1.00  0.00     0.210 HD
ENDBRANCH  31  32
ENDBRANCH  30  31
ENDBRANCH  28  29
BRANCH  28  34
HETATM   34  N1  UNL     1       5.467  -0.156   0.631  1.00  0.00    -0.396 N 
HETATM   35  C20 UNL     1       5.539  -1.255   1.521  1.00  0.00     0.118 C 
HETATM   36  C21 UNL     1       7.010  -1.427   1.944  1.00  0.00     0.019 C 
HETATM   37  C22 UNL     1       7.736  -2.158   0.871  1.00  0.00     0.002 C 
HETATM   38  C23 UNL     1       8.454  -1.234  -0.089  1.00  0.00     0.002 C 
HETATM   39  C24 UNL     1       7.615  -0.008  -0.398  1.00  0.00     0.019 C 
HETATM   40  C25 UNL     1       6.165  -0.382  -0.621  1.00  0.00     0.118 C 
ENDBRANCH  28  34
ENDBRANCH   4  28
TORSDOF 13
