REMARK  10 active torsions:
REMARK  status: ('A' for Active; 'I' for Inactive)
REMARK    1  A    between atoms: C18_20  and  O2_21 
REMARK    2  A    between atoms: C30_34  and  O3_35 
REMARK    3  A    between atoms: O3_35  and  C31_36 
REMARK    4  A    between atoms: C31_36  and  C32_38 
REMARK    5  A    between atoms: C32_38  and  C33_39 
REMARK    6  A    between atoms: C33_39  and  C34_40 
REMARK    7  A    between atoms: C34_40  and  C35_41 
REMARK    8  A    between atoms: C35_41  and  C36_42 
REMARK    9  A    between atoms: C36_42  and  N2_43 
REMARK       I    between atoms: N2_43  and  C37_45 
REMARK       I    between atoms: C37_45  and  N3_47 
REMARK   10  A    between atoms: N3_47  and  C38_49 
ROOT
HETATM    1  C1  UNL     1       1.550   2.496  -1.158  1.00  0.00     0.013 C 
HETATM    2  C2  UNL     1       0.365   1.679  -0.633  1.00  0.00     0.017 C 
HETATM    3  C3  UNL     1      -0.953   2.401  -0.837  1.00  0.00     0.002 C 
HETATM    4  C4  UNL     1      -1.405   2.860   0.488  1.00  0.00    -0.001 C 
HETATM    5  C5  UNL     1      -1.908   1.702   1.257  1.00  0.00     0.012 C 
HETATM    6  C6  UNL     1      -3.187   1.100   0.646  1.00  0.00     0.006 C 
HETATM    7  C7  UNL     1      -3.446  -0.115   1.379  1.00  0.00    -0.007 C 
HETATM    8  C8  UNL     1      -3.286   0.320   2.877  1.00  0.00     0.018 C 
HETATM    9  C9  UNL     1      -2.548  -1.288   1.338  1.00  0.00     0.282 C 
HETATM   10  N1  UNL     1      -3.085  -2.082   2.461  1.00  0.00     0.089 N 
HETATM   11  C10 UNL     1      -2.520  -3.408   2.456  1.00  0.00     0.310 C 
HETATM   12  C11 UNL     1      -4.485  -2.105   2.086  1.00  0.00     0.223 C 
HETATM   13  C12 UNL     1      -5.423  -2.453   3.192  1.00  0.00     0.043 C 
HETATM   14  C13 UNL     1      -4.786  -0.757   1.433  1.00  0.00     0.031 C 
HETATM   15  C14 UNL     1      -5.437  -1.056   0.138  1.00  0.00     0.040 C 
HETATM   16  C15 UNL     1      -5.459   0.231  -0.641  1.00  0.00     0.129 C 
HETATM   17  O1  UNL     1      -6.635   0.139  -1.422  1.00  0.00    -0.385 OA
HETATM   18  C16 UNL     1      -6.497  -0.882  -2.386  1.00  0.00     0.170 C 
HETATM   19  C17 UNL     1      -5.387  -0.566  -3.369  1.00  0.00     0.058 C 
HETATM   20  C18 UNL     1      -4.755   0.747  -2.817  1.00  0.00     0.127 C 
HETATM   21  C19 UNL     1      -4.199   0.384  -1.511  1.00  0.00     0.053 C 
HETATM   22  C20 UNL     1      -3.202   1.288  -0.831  1.00  0.00    -0.023 C 
HETATM   23  C21 UNL     1      -3.940   2.655  -0.995  1.00  0.00     0.012 C 
HETATM   24  C22 UNL     1      -3.078   3.857  -0.902  1.00  0.00     0.011 C 
HETATM   25  C23 UNL     1      -2.346   4.000   0.403  1.00  0.00    -0.036 A 
HETATM   26  C24 UNL     1      -3.003   4.590   1.591  1.00  0.00     0.011 A 
HETATM   27  C25 UNL     1      -1.942   5.352   0.888  1.00  0.00     0.011 A 
HETATM   28  C26 UNL     1      -1.909   1.460  -1.551  1.00  0.00     0.010 C 
HETATM   29  C27 UNL     1      -1.024   0.517  -2.128  1.00  0.00    -0.016 C 
HETATM   30  C28 UNL     1      -1.346  -0.880  -2.469  1.00  0.00     0.018 C 
HETATM   31  C29 UNL     1      -0.485   1.055  -3.498  1.00  0.00     0.018 C 
HETATM   32  C30 UNL     1       0.310   0.410  -1.355  1.00  0.00     0.144 C 
ENDROOT
BRANCH  32  33
HETATM   33  O3  UNL     1       0.322  -0.761  -0.629  1.00  0.00    -0.315 OA
BRANCH  33  34
HETATM   34  C31 UNL     1       1.206  -1.837  -0.761  1.00  0.00     0.262 C 
HETATM   35  O4  UNL     1       2.076  -1.715  -1.628  1.00  0.00    -0.265 OA
BRANCH  34  36
HETATM   36  C32 UNL     1       1.096  -3.028   0.076  1.00  0.00     0.138 C 
BRANCH  36  37
HETATM   37  C33 UNL     1       2.242  -3.950   0.028  1.00  0.00    -0.021 C 
BRANCH  37  38
HETATM   38  C34 UNL     1       3.547  -3.624   0.585  1.00  0.00    -0.029 C 
BRANCH  38  39
HETATM   39  C35 UNL     1       4.369  -2.494   0.134  1.00  0.00     0.046 C 
BRANCH  39  40
HETATM   40  C36 UNL     1       5.711  -2.482   0.935  1.00  0.00     0.128 C 
BRANCH  40  41
HETATM   41  N2  UNL     1       6.495  -1.363   0.450  1.00  0.00    -0.343 N 
HETATM   42  C37 UNL     1       7.786  -1.082   0.967  1.00  0.00     0.316 C 
HETATM   43  O5  UNL     1       8.224  -1.846   1.870  1.00  0.00    -0.247 OA
HETATM   44  N3  UNL     1       8.604  -0.025   0.548  1.00  0.00    -0.335 N 
ATOM     45  H3  UNL     1       8.256   0.599  -0.180  1.00  0.00     0.165 HD
ATOM     46  H2  UNL     1       6.109  -0.764  -0.280  1.00  0.00     0.164 HD
BRANCH  44  47
HETATM   47  C38 UNL     1       9.922   0.224   1.100  1.00  0.00     0.023 C 
HETATM   48  C39 UNL     1       9.901   0.477   2.571  1.00  0.00     0.037 C 
HETATM   49  C40 UNL     1      10.768  -1.035   0.863  1.00  0.00     0.037 C 
HETATM   50  C41 UNL     1      10.621   1.362   0.412  1.00  0.00     0.037 C 
ENDBRANCH  44  47
ENDBRANCH  40  41
ENDBRANCH  39  40
ENDBRANCH  38  39
ENDBRANCH  37  38
ENDBRANCH  36  37
ENDBRANCH  34  36
ENDBRANCH  33  34
ENDBRANCH  32  33
BRANCH  20  51
HETATM   51  O2  UNL     1      -4.050   1.241  -3.829  1.00  0.00    -0.395 OA
ATOM     52  H2  UNL     1      -3.665   2.041  -3.492  1.00  0.00     0.210 HD
ENDBRANCH  20  51
TORSDOF 10
