REMARK  16 active torsions:
REMARK  status: ('A' for Active; 'I' for Inactive)
REMARK    1  A    between atoms: C2_2  and  C3_3 
REMARK    2  A    between atoms: C3_3  and  C4_4 
REMARK    3  A    between atoms: C4_4  and  C5_5 
REMARK    4  A    between atoms: C5_5  and  C6_6 
REMARK    5  A    between atoms: C7_7  and  C9_9 
REMARK    6  A    between atoms: C10_10  and  C11_11 
REMARK    7  A    between atoms: C15_16  and  O2_17 
REMARK    8  A    between atoms: C16_19  and  C17_20 
REMARK    9  A    between atoms: C17_20  and  O3_21 
REMARK   10  A    between atoms: C24_29  and  C25_30 
REMARK   11  A    between atoms: C26_31  and  C27_32 
REMARK   12  A    between atoms: C27_32  and  C28_33 
REMARK   13  A    between atoms: C28_33  and  C29_34 
REMARK       I    between atoms: C29_34  and  N1_36 
REMARK   14  A    between atoms: N1_36  and  C30_38 
REMARK   15  A    between atoms: C30_38  and  C31_39 
REMARK   16  A    between atoms: C31_39  and  O5_40 
ROOT
HETATM    1  C4  UNL     1      -0.170  -1.009  -1.720  1.00  0.00    -0.037 C 
HETATM    2  C18 UNL     1      -0.105  -2.476  -2.019  1.00  0.00     0.010 C 
HETATM    3  C19 UNL     1       1.301  -3.002  -2.085  1.00  0.00     0.011 C 
HETATM    4  C20 UNL     1       2.182  -2.702  -0.940  1.00  0.00    -0.033 C 
HETATM    5  C21 UNL     1       2.307  -3.815   0.101  1.00  0.00     0.010 C 
HETATM    6  C22 UNL     1       3.450  -4.370  -0.728  1.00  0.00     0.002 C 
HETATM    7  C23 UNL     1       3.647  -2.952  -1.248  1.00  0.00     0.010 C 
HETATM    8  C24 UNL     1       1.890  -1.369  -0.329  1.00  0.00     0.017 C 
HETATM    9  C32 UNL     1       1.206  -0.511  -1.331  1.00  0.00     0.019 C 
ENDROOT
BRANCH   1  10
HETATM   10  C3  UNL     1      -0.856  -0.133  -2.671  1.00  0.00     0.009 C 
BRANCH  10  11
HETATM   11  C2  UNL     1      -0.468   0.074  -4.054  1.00  0.00    -0.004 C 
HETATM   12  C1  UNL     1       0.878   0.693  -4.317  1.00  0.00     0.005 C 
ENDBRANCH  10  11
ENDBRANCH   1  10
BRANCH   1  13
HETATM   13  C5  UNL     1      -0.984  -0.883  -0.404  1.00  0.00     0.037 C 
BRANCH  13  14
HETATM   14  C6  UNL     1      -1.015   0.457   0.132  1.00  0.00    -0.019 C 
HETATM   15  C7  UNL     1      -2.122   1.136   0.305  1.00  0.00    -0.066 C 
HETATM   16  C8  UNL     1      -2.018   2.538   0.879  1.00  0.00     0.048 C 
BRANCH  15  17
HETATM   17  C9  UNL     1      -3.467   0.703   0.006  1.00  0.00     0.003 C 
HETATM   18  C10 UNL     1      -4.509   1.471   0.224  1.00  0.00    -0.021 C 
BRANCH  18  19
HETATM   19  C11 UNL     1      -5.887   1.013  -0.089  1.00  0.00     0.023 C 
HETATM   20  C12 UNL     1      -6.505   1.854  -1.188  1.00  0.00     0.087 C 
HETATM   21  C13 UNL     1      -7.847   1.328  -1.494  1.00  0.00     0.130 C 
HETATM   22  O1  UNL     1      -8.243   1.284  -2.632  1.00  0.00    -0.298 OA
HETATM   23  C14 UNL     1      -8.718   0.850  -0.399  1.00  0.00     0.110 C 
HETATM   24  C15 UNL     1      -8.166   1.415   0.896  1.00  0.00     0.132 C 
HETATM   25  C16 UNL     1      -6.756   0.997   1.146  1.00  0.00     0.046 C 
BRANCH  24  26
HETATM   26  O2  UNL     1      -8.956   0.872   1.926  1.00  0.00    -0.395 OA
ATOM     27  H2  UNL     1      -8.610   1.226   2.737  1.00  0.00     0.210 HD
ENDBRANCH  24  26
BRANCH  25  28
HETATM   28  C17 UNL     1      -6.128   1.911   2.171  1.00  0.00     0.172 C 
BRANCH  28  29
HETATM   29  O3  UNL     1      -6.843   1.973   3.351  1.00  0.00    -0.400 OA
ATOM     30  H3  UNL     1      -6.448   2.548   3.996  1.00  0.00     0.209 HD
ENDBRANCH  28  29
ENDBRANCH  25  28
ENDBRANCH  18  19
ENDBRANCH  15  17
ENDBRANCH  13  14
ENDBRANCH   1  13
BRANCH   8  31
HETATM   31  C25 UNL     1       3.143  -0.716   0.169  1.00  0.00    -0.025 C 
HETATM   32  C26 UNL     1       3.619   0.437  -0.201  1.00  0.00    -0.030 C 
BRANCH  32  33
HETATM   33  C27 UNL     1       4.895   0.951   0.400  1.00  0.00     0.036 C 
BRANCH  33  34
HETATM   34  C28 UNL     1       5.471   0.000   1.397  1.00  0.00     0.106 C 
BRANCH  34  35
HETATM   35  C29 UNL     1       6.740   0.618   1.947  1.00  0.00     0.217 C 
HETATM   36  O4  UNL     1       7.059   1.755   1.532  1.00  0.00    -0.274 OA
HETATM   37  N1  UNL     1       7.457  -0.141   2.882  1.00  0.00    -0.359 N 
ATOM     38  H1  UNL     1       7.083  -1.060   3.119  1.00  0.00     0.162 HD
BRANCH  37  39
HETATM   39  C30 UNL     1       8.661   0.257   3.531  1.00  0.00     0.148 C 
BRANCH  39  40
HETATM   40  C31 UNL     1       8.538   1.440   4.429  1.00  0.00     0.183 C 
BRANCH  40  41
HETATM   41  O5  UNL     1       8.126   2.616   3.856  1.00  0.00    -0.399 OA
ATOM     42  H5  UNL     1       8.048   3.370   4.428  1.00  0.00     0.209 HD
ENDBRANCH  40  41
ENDBRANCH  39  40
ENDBRANCH  37  39
ENDBRANCH  34  35
ENDBRANCH  33  34
ENDBRANCH  32  33
ENDBRANCH   8  31
TORSDOF 16
