REMARK  3 active torsions:
REMARK  status: ('A' for Active; 'I' for Inactive)
REMARK       I    between atoms: C1_2  and  N1_3 
REMARK       I    between atoms: C1_2  and  N2_8 
REMARK    1  A    between atoms: N1_3  and  C2_5 
REMARK    2  A    between atoms: C2_5  and  C3_6 
REMARK       I    between atoms: N3_11  and  C6_12 
REMARK       I    between atoms: C6_12  and  N4_14 
REMARK    3  A    between atoms: N4_14  and  C7_16 
ROOT
HETATM    1  O1  UNL     1      -3.795  -0.035   1.317  1.00  0.00    -0.247 OA
HETATM    2  C1  UNL     1      -3.369  -0.334   0.182  1.00  0.00     0.318 C 
HETATM    3  N1  UNL     1      -4.150  -0.131  -0.974  1.00  0.00    -0.342 N 
ATOM      4  H1  UNL     1      -3.751  -0.398  -1.874  1.00  0.00     0.164 HD
HETATM    5  N2  UNL     1      -2.082  -0.886   0.055  1.00  0.00    -0.331 N 
HETATM    6  C4  UNL     1      -1.261  -1.115   1.216  1.00  0.00     0.147 C 
HETATM    7  C5  UNL     1       0.075  -0.444   0.980  1.00  0.00     0.147 C 
HETATM    8  N3  UNL     1       0.654  -0.874  -0.280  1.00  0.00    -0.331 N 
HETATM    9  C6  UNL     1       1.996  -0.547  -0.555  1.00  0.00     0.318 C 
HETATM   10  O2  UNL     1       2.532  -0.915  -1.659  1.00  0.00    -0.247 OA
HETATM   11  N4  UNL     1       2.765   0.194   0.396  1.00  0.00    -0.338 N 
ATOM     12  H4  UNL     1       2.341   0.488   1.276  1.00  0.00     0.164 HD
HETATM   13  C11 UNL     1      -0.110  -1.623  -1.255  1.00  0.00     0.147 C 
HETATM   14  C12 UNL     1      -1.569  -1.231  -1.240  1.00  0.00     0.147 C 
ENDROOT
BRANCH  11  15
HETATM   15  C7  UNL     1       4.142   0.527   0.112  1.00  0.00     0.086 C 
HETATM   16  C8  UNL     1       4.395   2.012   0.291  1.00  0.00     0.025 C 
HETATM   17  C9  UNL     1       5.612   1.633   1.126  1.00  0.00     0.004 C 
HETATM   18  C10 UNL     1       5.077   0.219   1.266  1.00  0.00     0.025 C 
ENDBRANCH  11  15
BRANCH   3  19
HETATM   19  C2  UNL     1      -5.487   0.435  -0.962  1.00  0.00     0.139 C 
BRANCH  19  20
HETATM   20  C3  UNL     1      -5.430   1.820  -0.405  1.00  0.00     0.134 C 
HETATM   21 CL1  UNL     1      -4.358   2.869  -1.388  1.00  0.00    -0.129 Cl
ENDBRANCH  19  20
ENDBRANCH   3  19
TORSDOF 3
