REMARK  4 active torsions:
REMARK  status: ('A' for Active; 'I' for Inactive)
REMARK    1  A    between atoms: C2_3  and  C3_5 
REMARK    2  A    between atoms: C4_8  and  N3_9 
REMARK    3  A    between atoms: N3_9  and  N4_11 
REMARK    4  A    between atoms: C5_16  and  N6_17 
ROOT
HETATM    1  C1  UNL     1      -3.108   1.214   1.659  1.00  0.00     0.264 C 
HETATM    2  N1  UNL     1      -2.046   1.242   0.735  1.00  0.00    -0.414 NA
HETATM    3  C2  UNL     1      -1.045   1.272  -0.139  1.00  0.00     0.355 C 
HETATM    4  O1  UNL     1      -0.796   2.182  -1.015  1.00  0.00    -0.248 OA
ENDROOT
BRANCH   3   5
HETATM    5  C3  UNL     1      -0.030   0.179  -0.226  1.00  0.00     0.218 A 
HETATM    6  N2  UNL     1       1.134   0.394  -0.805  1.00  0.00    -0.167 N 
HETATM    7  C4  UNL     1       2.056  -0.599  -0.908  1.00  0.00     0.712 A 
ATOM      8  H2  UNL     1       1.346   1.318  -1.181  1.00  0.00     0.186 HD
HETATM    9  N5  UNL     1       1.699  -1.773  -0.402  1.00  0.00    -0.021 N 
HETATM   10  C5  UNL     1       0.492  -2.008   0.199  1.00  0.00     0.692 A 
ATOM     11  H5  UNL     1       2.363  -2.545  -0.465  1.00  0.00     0.203 HD
HETATM   12  N7  UNL     1      -0.401  -1.010   0.296  1.00  0.00    -0.169 N 
ATOM     13  H7  UNL     1      -1.310  -1.143   0.740  1.00  0.00     0.186 HD
BRANCH   7  14
HETATM   14  N3  UNL     1       3.219  -0.386  -1.446  1.00  0.00    -0.138 N 
ATOM     15  H3  UNL     1       3.879  -1.162  -1.501  1.00  0.00     0.205 HD
BRANCH  14  16
HETATM   16  N4  UNL     1       3.603   0.845  -1.948  1.00  0.00    -0.331 N 
ATOM     17  H42 UNL     1       2.930   1.609  -1.885  1.00  0.00     0.177 HD
ATOM     18  H41 UNL     1       4.516   1.012  -2.370  1.00  0.00     0.177 HD
ENDBRANCH  14  16
ENDBRANCH   7  14
BRANCH  10  19
HETATM   19  N6  UNL     1       0.195  -3.163   0.667  1.00  0.00    -0.234 N 
ATOM     20  H62 UNL     1       0.873  -3.921   0.593  1.00  0.00     0.174 HD
ATOM     21  H61 UNL     1      -0.705  -3.338   1.115  1.00  0.00     0.174 HD
ENDBRANCH  10  19
ENDBRANCH   3   5
TORSDOF 3
