REMARK  4 active torsions:
REMARK  status: ('A' for Active; 'I' for Inactive)
REMARK    1  A    between atoms: N1_1  and  C1_4 
REMARK    2  A    between atoms: C3_11  and  C4_12 
REMARK       I    between atoms: C4_12  and  N4_14 
REMARK    3  A    between atoms: N4_14  and  N5_16 
REMARK    4  A    between atoms: N6_19  and  N7_20 
ROOT
HETATM    1  C1  UNL     1      -2.214  -0.115   0.362  1.00  0.00     0.193 A 
HETATM    2  C2  UNL     1      -2.368  -1.362  -0.208  1.00  0.00     0.305 A 
HETATM    3  O1  UNL     1      -3.501  -1.916  -0.325  1.00  0.00    -0.263 OA
HETATM    4  N2  UNL     1      -1.247  -1.969  -0.638  1.00  0.00    -0.262 N 
ATOM      5  H2  UNL     1      -1.321  -2.893  -1.065  1.00  0.00     0.190 HD
HETATM    6  N3  UNL     1      -0.050  -1.412  -0.528  1.00  0.00    -0.276 N 
ATOM      7  H3  UNL     1       0.766  -1.918  -0.872  1.00  0.00     0.189 HD
HETATM    8  C3  UNL     1       0.120  -0.197   0.025  1.00  0.00     0.214 A 
HETATM    9  N6  UNL     1      -0.985   0.430   0.462  1.00  0.00    -0.219 N 
ENDROOT
BRANCH   8  10
HETATM   10  C4  UNL     1       1.458   0.421   0.146  1.00  0.00     0.306 C 
HETATM   11  O2  UNL     1       1.514   1.562   0.678  1.00  0.00    -0.262 OA
HETATM   12  N4  UNL     1       2.621  -0.228  -0.309  1.00  0.00    -0.270 N 
ATOM     13  H4  UNL     1       2.558  -1.152  -0.737  1.00  0.00     0.189 HD
BRANCH  12  14
HETATM   14  N5  UNL     1       3.850   0.392  -0.173  1.00  0.00    -0.342 N 
ATOM     15  H52 UNL     1       3.896   1.316   0.257  1.00  0.00     0.176 HD
ATOM     16  H51 UNL     1       4.693  -0.078  -0.503  1.00  0.00     0.176 HD
ENDBRANCH  12  14
ENDBRANCH   8  10
BRANCH   9  17
HETATM   17  N7  UNL     1      -0.839   1.687   1.037  1.00  0.00    -0.335 N 
ATOM     18  H72 UNL     1      -1.678   2.163   1.369  1.00  0.00     0.177 HD
ATOM     19  H71 UNL     1       0.091   2.099   1.113  1.00  0.00     0.177 HD
ENDBRANCH   9  17
BRANCH   1  20
HETATM   20  N1  UNL     1      -3.278   0.480   0.779  1.00  0.00    -0.379 N 
ATOM     21  H12 UNL     1      -4.208   0.068   0.703  1.00  0.00     0.158 HD
ATOM     22  H11 UNL     1      -3.164   1.402   1.200  1.00  0.00     0.158 HD
ENDBRANCH   1  20
TORSDOF 4
