REMARK  13 active torsions:
REMARK  status: ('A' for Active; 'I' for Inactive)
REMARK       I    between atoms: N1_2  and  C3_4 
REMARK    1  A    between atoms: N3_6  and  C4_8 
REMARK    2  A    between atoms: C4_8  and  C5_12 
REMARK       I    between atoms: N5_16  and  C9_17 
REMARK    3  A    between atoms: C9_17  and  C10_19 
REMARK    4  A    between atoms: C10_19  and  N6_20 
REMARK    5  A    between atoms: N6_20  and  C11_23 
REMARK    6  A    between atoms: C11_23  and  C12_24 
REMARK    7  A    between atoms: C12_24  and  C13_25 
REMARK    8  A    between atoms: C13_25  and  C14_26 
REMARK    9  A    between atoms: C14_26  and  C15_27 
REMARK   10  A    between atoms: C15_27  and  C16_28 
REMARK   11  A    between atoms: C16_28  and  C17_29 
REMARK   12  A    between atoms: C17_29  and  C18_30 
REMARK   13  A    between atoms: C18_30  and  N7_31 
REMARK       I    between atoms: N7_31  and  C19_33 
REMARK       I    between atoms: C19_33  and  N9_37 
ROOT
HETATM    1  N6  UNL     1      -1.165   0.106   1.316  1.00  0.00    -0.067 N 
ATOM      2  H61 UNL     1      -0.796  -0.195   0.414  1.00  0.00     0.277 HD
ATOM      3  H62 UNL     1      -1.441  -0.806   1.679  1.00  0.00     0.277 HD
ENDROOT
BRANCH   1   4
HETATM    4  C10 UNL     1      -2.287   0.982   1.167  1.00  0.00     0.334 C 
BRANCH   4   5
HETATM    5  C9  UNL     1      -3.356   0.381   0.316  1.00  0.00     0.246 C 
HETATM    6  N5  UNL     1      -4.528   1.122   0.077  1.00  0.00    -0.339 N 
HETATM    7  C5  UNL     1      -5.632   0.673  -0.727  1.00  0.00     0.154 C 
HETATM    8  C8  UNL     1      -4.811   2.433   0.584  1.00  0.00     0.127 C 
HETATM    9  C6  UNL     1      -6.564   1.861  -0.871  1.00  0.00     0.035 C 
HETATM   10  C7  UNL     1      -6.282   2.663   0.391  1.00  0.00     0.022 C 
HETATM   11  O1  UNL     1      -3.140  -0.777  -0.147  1.00  0.00    -0.272 OA
BRANCH   7  12
HETATM   12  C4  UNL     1      -6.374  -0.454  -0.140  1.00  0.00     0.100 C 
HETATM   13  N4  UNL     1      -6.114  -1.003   0.970  1.00  0.00    -0.387 N 
ATOM     14  H42 UNL     1      -6.628  -1.784   1.377  1.00  0.00     0.157 HD
ATOM     15  H41 UNL     1      -5.324  -0.631   1.498  1.00  0.00     0.157 HD
BRANCH  12  16
HETATM   16  N3  UNL     1      -7.492  -0.981  -0.887  1.00  0.00    -0.319 N 
HETATM   17  C3  UNL     1      -8.644  -0.995  -0.332  1.00  0.00     0.191 C 
HETATM   18  N1  UNL     1      -9.754  -1.503  -1.035  1.00  0.00    -0.364 N 
HETATM   19  N2  UNL     1      -8.796  -0.502   0.987  1.00  0.00    -0.063 NA
HETATM   20  C1  UNL     1     -11.106  -1.191  -0.562  1.00  0.00     0.151 C 
HETATM   21  C2  UNL     1      -9.606  -2.335  -2.226  1.00  0.00     0.151 C 
ATOM     22  H3  UNL     1      -7.366  -1.334  -1.836  1.00  0.00     0.169 HD
ENDBRANCH  12  16
ENDBRANCH   7  12
ENDBRANCH   4   5
ENDBRANCH   1   4
BRANCH   1  23
HETATM   23  C11 UNL     1      -0.158   0.717   2.124  1.00  0.00     0.233 C 
BRANCH  23  24
HETATM   24  C12 UNL     1       0.493   1.872   1.467  1.00  0.00     0.027 C 
BRANCH  24  25
HETATM   25  C13 UNL     1       1.151   1.696   0.154  1.00  0.00     0.002 C 
BRANCH  25  26
HETATM   26  C14 UNL     1       2.276   0.776  -0.001  1.00  0.00     0.000 C 
BRANCH  26  27
HETATM   27  C15 UNL     1       2.061  -0.664   0.228  1.00  0.00     0.000 C 
BRANCH  27  28
HETATM   28  C16 UNL     1       3.348  -1.447  -0.024  1.00  0.00     0.002 C 
BRANCH  28  29
HETATM   29  C17 UNL     1       4.476  -1.036   0.850  1.00  0.00     0.020 C 
BRANCH  29  30
HETATM   30  C18 UNL     1       5.681  -1.894   0.488  1.00  0.00     0.138 C 
BRANCH  30  31
HETATM   31  N7  UNL     1       5.993  -1.653  -0.909  1.00  0.00    -0.227 N 
HETATM   32  C19 UNL     1       6.505  -0.402  -1.365  1.00  0.00     0.669 C 
HETATM   33  N8  UNL     1       5.714   0.523  -1.810  1.00  0.00    -0.235 N 
HETATM   34  N9  UNL     1       7.885  -0.108  -1.360  1.00  0.00    -0.218 N 
ATOM     35  H82 UNL     1       4.716   0.310  -1.814  1.00  0.00     0.174 HD
ATOM     36  H81 UNL     1       6.080   1.417  -2.136  1.00  0.00     0.174 HD
HETATM   37  C20 UNL     1       8.786  -0.678  -2.326  1.00  0.00     0.141 C 
HETATM   38  C24 UNL     1       8.410   0.785  -0.363  1.00  0.00     0.141 C 
HETATM   39  C21 UNL     1       9.978  -1.330  -1.655  1.00  0.00     0.020 C 
HETATM   40  C22 UNL     1      10.514  -0.493  -0.523  1.00  0.00     0.003 C 
HETATM   41  C23 UNL     1       9.462   0.005   0.416  1.00  0.00     0.020 C 
ATOM     42  H7  UNL     1       5.841  -2.401  -1.585  1.00  0.00     0.177 HD
ENDBRANCH  30  31
ENDBRANCH  29  30
ENDBRANCH  28  29
ENDBRANCH  27  28
ENDBRANCH  26  27
ENDBRANCH  25  26
ENDBRANCH  24  25
ENDBRANCH  23  24
ENDBRANCH   1  23
TORSDOF 13
