REMARK  14 active torsions:
REMARK  status: ('A' for Active; 'I' for Inactive)
REMARK       I    between atoms: C1_4  and  N3_6 
REMARK    1  A    between atoms: N3_6  and  C2_8 
REMARK    2  A    between atoms: C2_8  and  C3_9 
REMARK    3  A    between atoms: C3_9  and  C4_10 
REMARK    4  A    between atoms: C4_10  and  C5_11 
REMARK    5  A    between atoms: C5_11  and  C6_12 
REMARK    6  A    between atoms: C6_12  and  C7_13 
REMARK    7  A    between atoms: C7_13  and  C8_14 
REMARK    8  A    between atoms: C8_14  and  C9_15 
REMARK       I    between atoms: C9_15  and  N4_17 
REMARK    9  A    between atoms: N4_17  and  C10_19 
REMARK   10  A    between atoms: C10_19  and  C11_20 
REMARK   11  A    between atoms: C11_20  and  C12_21 
REMARK   12  A    between atoms: C12_21  and  C13_22 
REMARK   13  A    between atoms: C13_22  and  N5_23 
REMARK       I    between atoms: N5_23  and  C14_25 
REMARK       I    between atoms: C14_25  and  N6_27 
REMARK       I    between atoms: N7_30  and  C17_31 
REMARK   14  A    between atoms: C17_31  and  C18_33 
ROOT
HETATM    1  C11 UNL     1       1.596   2.025   2.584  1.00  0.00     0.021 C 
ENDROOT
BRANCH   1   2
HETATM    2  C10 UNL     1       2.318   3.140   1.909  1.00  0.00     0.122 C 
BRANCH   2   3
HETATM    3  N4  UNL     1       3.702   3.152   2.283  1.00  0.00    -0.361 N 
HETATM    4  C9  UNL     1       4.615   2.093   2.027  1.00  0.00     0.217 C 
HETATM    5  O1  UNL     1       4.176   1.088   1.428  1.00  0.00    -0.274 OA
ATOM      6  H4  UNL     1       4.056   3.978   2.766  1.00  0.00     0.162 HD
BRANCH   4   7
HETATM    7  C8  UNL     1       6.020   2.154   2.439  1.00  0.00     0.103 C 
BRANCH   7   8
HETATM    8  C7  UNL     1       6.818   1.018   1.874  1.00  0.00     0.009 C 
BRANCH   8   9
HETATM    9  C6  UNL     1       6.856   1.098   0.388  1.00  0.00     0.000 C 
BRANCH   9  10
HETATM   10  C5  UNL     1       7.728  -0.037  -0.179  1.00  0.00     0.000 C 
BRANCH  10  11
HETATM   11  C4  UNL     1       7.149  -1.339   0.196  1.00  0.00     0.002 C 
BRANCH  11  12
HETATM   12  C3  UNL     1       7.849  -2.566  -0.264  1.00  0.00     0.020 C 
BRANCH  12  13
HETATM   13  C2  UNL     1       7.944  -2.751  -1.731  1.00  0.00     0.122 C 
BRANCH  13  14
HETATM   14  N3  UNL     1       8.691  -1.768  -2.447  1.00  0.00    -0.365 N 
HETATM   15  C1  UNL     1      10.098  -1.699  -2.241  1.00  0.00     0.181 C 
HETATM   16  N1  UNL     1      10.749  -0.601  -2.386  1.00  0.00    -0.374 N 
HETATM   17  N2  UNL     1      10.827  -2.851  -1.872  1.00  0.00    -0.064 NA
ATOM     18  H12 UNL     1      11.757  -0.552  -2.238  1.00  0.00     0.158 HD
ATOM     19  H11 UNL     1      10.223   0.231  -2.652  1.00  0.00     0.158 HD
ATOM     20  H3  UNL     1       8.227  -1.129  -3.092  1.00  0.00     0.162 HD
ENDBRANCH  13  14
ENDBRANCH  12  13
ENDBRANCH  11  12
ENDBRANCH  10  11
ENDBRANCH   9  10
ENDBRANCH   8   9
ENDBRANCH   7   8
ENDBRANCH   4   7
ENDBRANCH   2   3
ENDBRANCH   1   2
BRANCH   1  21
HETATM   21  C12 UNL     1       0.113   1.962   2.240  1.00  0.00     0.021 C 
BRANCH  21  22
HETATM   22  C13 UNL     1      -0.138   1.761   0.785  1.00  0.00     0.124 C 
BRANCH  22  23
HETATM   23  N5  UNL     1      -1.530   1.705   0.416  1.00  0.00    -0.343 N 
HETATM   24  C14 UNL     1      -2.447   0.734   0.888  1.00  0.00     0.318 C 
HETATM   25  O2  UNL     1      -1.960  -0.139   1.690  1.00  0.00    -0.247 OA
HETATM   26  N6  UNL     1      -3.821   0.688   0.528  1.00  0.00    -0.331 N 
HETATM   27  C15 UNL     1      -4.630  -0.369   1.098  1.00  0.00     0.147 C 
HETATM   28  C25 UNL     1      -4.371   1.656  -0.359  1.00  0.00     0.147 C 
HETATM   29  C16 UNL     1      -5.751  -0.675   0.125  1.00  0.00     0.145 C 
HETATM   30  N7  UNL     1      -6.446   0.473  -0.346  1.00  0.00    -0.349 N 
HETATM   31  C17 UNL     1      -7.659   0.355  -1.058  1.00  0.00     0.224 C 
HETATM   32  C24 UNL     1      -5.882   1.781  -0.084  1.00  0.00     0.145 C 
HETATM   33  O3  UNL     1      -8.227   1.437  -1.465  1.00  0.00    -0.273 OA
ATOM     34  H5  UNL     1      -1.879   2.413  -0.230  1.00  0.00     0.164 HD
BRANCH  31  35
HETATM   35  C18 UNL     1      -8.359  -0.902  -1.389  1.00  0.00     0.078 C 
HETATM   36  C19 UNL     1      -9.501  -0.610  -2.334  1.00  0.00     0.014 C 
HETATM   37  C20 UNL     1     -10.010  -1.965  -2.824  1.00  0.00     0.001 C 
HETATM   38  C21 UNL     1     -10.626  -2.712  -1.647  1.00  0.00     0.000 C 
HETATM   39  C22 UNL     1     -10.320  -1.969  -0.352  1.00  0.00     0.001 C 
HETATM   40  C23 UNL     1      -8.861  -1.646  -0.207  1.00  0.00     0.014 C 
ENDBRANCH  31  35
ENDBRANCH  22  23
ENDBRANCH  21  22
ENDBRANCH   1  21
TORSDOF 14
