REMARK  1 active torsions:
REMARK  status: ('A' for Active; 'I' for Inactive)
REMARK    1  A    between atoms: C2_2  and  C3_3 
ROOT
HETATM    1  C3  UNL     1       0.759   0.176  -0.142  1.00  0.00     0.055 C 
HETATM    2  N1  UNL     1       1.346   1.318  -0.731  1.00  0.00    -0.102 NA
HETATM    3  C4  UNL     1      -0.550   0.097  -0.082  1.00  0.00    -0.012 A 
HETATM    4  C5  UNL     1      -1.292  -1.010   0.491  1.00  0.00     0.013 A 
HETATM    5  C6  UNL     1      -2.568  -0.703   0.354  1.00  0.00     0.001 A 
HETATM    6  C7  UNL     1      -2.708   0.595  -0.304  1.00  0.00     0.001 A 
HETATM    7  C8  UNL     1      -1.501   1.079  -0.568  1.00  0.00     0.013 A 
ENDROOT
BRANCH   1   8
HETATM    8  C2  UNL     1       1.606  -0.884   0.385  1.00  0.00     0.017 C 
HETATM    9  C1  UNL     1       2.912  -0.781   0.313  1.00  0.00     0.013 C 
ENDBRANCH   1   8
TORSDOF 1
