REMARK  16 active torsions:
REMARK  status: ('A' for Active; 'I' for Inactive)
REMARK    1  A    between atoms: O1_2  and  C2_3 
REMARK    2  A    between atoms: C2_3  and  O2_4 
REMARK    3  A    between atoms: C6_9  and  C7_10 
REMARK    4  A    between atoms: C7_10  and  O4_11 
REMARK    5  A    between atoms: C7_10  and  C8_13 
REMARK    6  A    between atoms: C8_13  and  O5_14 
REMARK    7  A    between atoms: C13_21  and  O7_22 
REMARK    8  A    between atoms: O7_22  and  C14_23 
REMARK    9  A    between atoms: C20_31  and  N1_32 
REMARK   10  A    between atoms: C22_37  and  O10_38 
REMARK   11  A    between atoms: O10_38  and  S1_39 
REMARK   12  A    between atoms: S1_39  and  O13_42 
REMARK   13  A    between atoms: O13_42  and  C23_43 
REMARK   14  A    between atoms: C23_43  and  C24_44 
REMARK   15  A    between atoms: C25_48  and  O14_49 
REMARK   16  A    between atoms: C26_51  and  N3_52 
ROOT
HETATM    1  C14 UNL     1      -0.464  -1.836  -0.908  1.00  0.00     0.291 C 
HETATM    2  O8  UNL     1      -0.773  -3.181  -0.624  1.00  0.00    -0.351 OA
HETATM    3  C15 UNL     1      -0.155  -3.683   0.491  1.00  0.00     0.150 C 
HETATM    4  C16 UNL     1      -0.534  -5.167   0.559  1.00  0.00     0.042 C 
HETATM    5  C17 UNL     1       1.323  -3.558   0.442  1.00  0.00     0.159 C 
HETATM    6  O9  UNL     1       2.053  -4.712   0.378  1.00  0.00    -0.376 OA
HETATM    7  C18 UNL     1       3.315  -4.258  -0.002  1.00  0.00     0.149 C 
HETATM    8  C19 UNL     1       4.189  -5.316  -0.590  1.00  0.00     0.042 C 
HETATM    9  C20 UNL     1       3.078  -3.121  -1.014  1.00  0.00     0.221 C 
HETATM   10  C21 UNL     1       1.635  -2.975  -0.954  1.00  0.00     0.085 C 
HETATM   11  C22 UNL     1       1.025  -1.597  -0.898  1.00  0.00     0.208 C 
ENDROOT
BRANCH   1  12
HETATM   12  O7  UNL     1      -1.220  -0.978  -0.151  1.00  0.00    -0.347 OA
BRANCH  12  13
HETATM   13  C13 UNL     1      -2.205  -0.335  -0.844  1.00  0.00     0.194 C 
HETATM   14  C2  UNL     1      -3.610  -0.625  -0.354  1.00  0.00     0.193 C 
HETATM   15  C4  UNL     1      -4.344   0.330  -1.338  1.00  0.00     0.112 C 
HETATM   16  C5  UNL     1      -3.628   1.614  -0.902  1.00  0.00     0.101 C 
HETATM   17  O3  UNL     1      -4.212   2.034   0.262  1.00  0.00    -0.344 OA
HETATM   18  C9  UNL     1      -3.876   2.751  -1.824  1.00  0.00     0.156 C 
HETATM   19  C11 UNL     1      -2.195   1.174  -0.778  1.00  0.00     0.053 C 
HETATM   20  C6  UNL     1      -5.082   3.067  -0.015  1.00  0.00     0.292 C 
HETATM   21  O6  UNL     1      -5.179   3.136  -1.423  1.00  0.00    -0.351 OA
HETATM   22  C10 UNL     1      -2.977   3.891  -1.472  1.00  0.00     0.042 C 
HETATM   23  C12 UNL     1      -1.391   1.638  -2.002  1.00  0.00     0.016 C 
BRANCH  14  24
HETATM   24  O1  UNL     1      -3.983  -1.927  -0.587  1.00  0.00    -0.358 OA
HETATM   25  C1  UNL     1      -5.297  -2.196  -0.314  1.00  0.00     0.205 C 
ENDBRANCH  14  24
BRANCH  14  26
HETATM   26  O2  UNL     1      -3.761  -0.191   0.917  1.00  0.00    -0.358 OA
HETATM   27  C3  UNL     1      -3.117  -0.798   1.937  1.00  0.00     0.205 C 
ENDBRANCH  14  26
BRANCH  20  28
HETATM   28  C7  UNL     1      -6.475   2.850   0.497  1.00  0.00     0.197 C 
BRANCH  28  29
HETATM   29  O4  UNL     1      -7.242   3.963   0.152  1.00  0.00    -0.389 OA
ATOM     30  H4  UNL     1      -8.124   3.826   0.476  1.00  0.00     0.210 HD
ENDBRANCH  28  29
BRANCH  28  31
HETATM   31  C8  UNL     1      -6.536   2.690   1.994  1.00  0.00     0.200 C 
BRANCH  31  32
HETATM   32  O5  UNL     1      -7.860   2.503   2.387  1.00  0.00    -0.398 OA
ATOM     33  H5  UNL     1      -7.898   2.402   3.331  1.00  0.00     0.209 HD
ENDBRANCH  31  32
ENDBRANCH  28  31
ENDBRANCH  20  28
ENDBRANCH  12  13
ENDBRANCH   1  12
BRANCH  11  34
HETATM   34  O10 UNL     1       1.360  -0.897   0.219  1.00  0.00    -0.243 OA
BRANCH  34  35
HETATM   35  S1  UNL     1       2.148   0.372   0.619  1.00  0.00     0.402 S 
HETATM   36  O11 UNL     1       1.455   0.631   2.073  1.00  0.00    -0.169 OA
HETATM   37  O12 UNL     1       2.059   1.107  -1.124  1.00  0.00    -0.169 OA
BRANCH  35  38
HETATM   38  O13 UNL     1       3.433   1.320   0.912  1.00  0.00    -0.250 OA
BRANCH  38  39
HETATM   39  C23 UNL     1       4.509   1.631   0.127  1.00  0.00     0.253 C 
BRANCH  39  40
HETATM   40  C24 UNL     1       5.469   2.569   0.826  1.00  0.00     0.351 C 
HETATM   41  N2  UNL     1       5.995   2.013   2.035  1.00  0.00    -0.016 N 
HETATM   42  C25 UNL     1       7.431   2.099   1.941  1.00  0.00     0.378 C 
ATOM     43  H22 UNL     1       5.620   2.451   2.876  1.00  0.00     0.283 HD
ATOM     44  H21 UNL     1       5.660   1.068   2.222  1.00  0.00     0.283 HD
HETATM   45  C26 UNL     1       7.658   2.959   0.742  1.00  0.00     0.377 C 
HETATM   46  O15 UNL     1       6.547   2.751  -0.040  1.00  0.00    -0.321 OA
BRANCH  42  47
HETATM   47  O14 UNL     1       7.954   2.754   3.061  1.00  0.00    -0.366 OA
ATOM     48  H14 UNL     1       8.900   2.811   2.999  1.00  0.00     0.212 HD
ENDBRANCH  42  47
BRANCH  45  49
HETATM   49  N3  UNL     1       8.848   2.553   0.014  1.00  0.00    -0.049 N 
ATOM     50  H33 UNL     1       9.668   2.534   0.620  1.00  0.00     0.277 HD
ATOM     51  H32 UNL     1       8.813   1.565  -0.236  1.00  0.00     0.277 HD
ATOM     52  H31 UNL     1       9.003   3.141  -0.805  1.00  0.00     0.277 HD
ENDBRANCH  45  49
ENDBRANCH  39  40
ENDBRANCH  38  39
ENDBRANCH  35  38
ENDBRANCH  34  35
ENDBRANCH  11  34
BRANCH   9  53
HETATM   53  N1  UNL     1       3.912  -2.006  -0.760  1.00  0.00    -0.072 N 
ATOM     54  H13 UNL     1       3.808  -1.676   0.200  1.00  0.00     0.274 HD
ATOM     55  H12 UNL     1       4.895  -2.277  -0.730  1.00  0.00     0.274 HD
ATOM     56  H11 UNL     1       3.755  -1.253  -1.430  1.00  0.00     0.274 HD
ENDBRANCH   9  53
TORSDOF 16
