REMARK  6 active torsions:
REMARK  status: ('A' for Active; 'I' for Inactive)
REMARK    1  A    between atoms: C2_2  and  N1_3 
REMARK    2  A    between atoms: C2_2  and  C3_7 
REMARK    3  A    between atoms: C3_7  and  O1_8 
REMARK    4  A    between atoms: C3_7  and  N2_10 
REMARK    5  A    between atoms: C5_16  and  N5_17 
REMARK    6  A    between atoms: N5_17  and  N6_19 
ROOT
HETATM    1  N2  UNL     1       0.650   0.363   0.413  1.00  0.00    -0.090 N 
HETATM    2  N3  UNL     1       0.561   1.620   0.806  1.00  0.00    -0.277 N 
ATOM      3  H3  UNL     1      -0.300   2.140   0.976  1.00  0.00     0.188 HD
HETATM    4  C4  UNL     1       1.810   2.088   0.940  1.00  0.00     0.215 A 
HETATM    5  N4  UNL     1       2.687   1.092   0.621  1.00  0.00    -0.184 N 
ATOM      6  H4  UNL     1       3.705   1.153   0.630  1.00  0.00     0.185 HD
HETATM    7  C5  UNL     1       1.951   0.015   0.292  1.00  0.00     0.716 A 
ENDROOT
BRANCH   1   8
HETATM    8  C3  UNL     1      -0.421  -0.548   0.139  1.00  0.00     0.289 C 
BRANCH   8   9
HETATM    9  C2  UNL     1      -1.781  -0.018   0.362  1.00  0.00     0.230 C 
HETATM   10  C1  UNL     1      -2.762  -1.180   0.166  1.00  0.00     0.044 C 
BRANCH   9  11
HETATM   11  N1  UNL     1      -2.197   1.032  -0.494  1.00  0.00    -0.071 N 
ATOM     12  H13 UNL     1      -2.283   0.742  -1.468  1.00  0.00     0.274 HD
ATOM     13  H12 UNL     1      -3.170   1.302  -0.350  1.00  0.00     0.274 HD
ATOM     14  H11 UNL     1      -1.544   1.805  -0.364  1.00  0.00     0.274 HD
ENDBRANCH   9  11
ENDBRANCH   8   9
BRANCH   8  15
HETATM   15  O1  UNL     1      -0.262  -1.072  -1.150  1.00  0.00    -0.372 OA
ATOM     16  H1  UNL     1       0.613  -1.413  -1.293  1.00  0.00     0.212 HD
ENDBRANCH   8  15
ENDBRANCH   1   8
BRANCH   7  17
HETATM   17  N5  UNL     1       2.423  -1.142  -0.073  1.00  0.00    -0.137 N 
ATOM     18  H5  UNL     1       1.776  -1.897  -0.302  1.00  0.00     0.205 HD
BRANCH  17  19
HETATM   19  N6  UNL     1       3.793  -1.368  -0.156  1.00  0.00    -0.331 N 
ATOM     20  H62 UNL     1       4.426  -0.603   0.077  1.00  0.00     0.177 HD
ATOM     21  H61 UNL     1       4.163  -2.275  -0.442  1.00  0.00     0.177 HD
ENDBRANCH  17  19
ENDBRANCH   7  17
TORSDOF 6
