REMARK  4 active torsions:
REMARK  status: ('A' for Active; 'I' for Inactive)
REMARK    1  A    between atoms: C2_3  and  C3_4 
REMARK    2  A    between atoms: C4_7  and  N3_8 
REMARK       I    between atoms: N3_8  and  C5_10 
REMARK    3  A    between atoms: C9_22  and  C10_23 
REMARK    4  A    between atoms: C10_23  and  N8_24 
ROOT
HETATM    1  C1  UNL     1      -1.082  -2.414   0.235  1.00  0.00     0.159 C 
HETATM    2  N1  UNL     1      -1.772  -1.175   0.002  1.00  0.00    -0.324 N 
HETATM    3  C2  UNL     1      -1.241   0.046  -0.180  1.00  0.00     0.154 A 
HETATM    4  N7  UNL     1      -2.260   0.862  -0.356  1.00  0.00    -0.339 N 
ATOM      5  H7  UNL     1      -2.167   1.864  -0.520  1.00  0.00     0.167 HD
HETATM    6  C9  UNL     1      -3.433   0.217  -0.294  1.00  0.00     0.074 A 
HETATM    7  C11 UNL     1      -3.131  -1.088  -0.066  1.00  0.00     0.141 A 
HETATM    8  C12 UNL     1      -4.085  -2.165   0.076  1.00  0.00     0.120 C 
HETATM    9  N9  UNL     1      -4.843  -3.032   0.208  1.00  0.00    -0.190 NA
ENDROOT
BRANCH   6  10
HETATM   10  C10 UNL     1      -4.818   0.739  -0.435  1.00  0.00     0.289 C 
BRANCH  10  11
HETATM   11  N8  UNL     1      -4.822   2.163  -0.672  1.00  0.00    -0.074 N 
ATOM     12  H83 UNL     1      -4.305   2.664   0.051  1.00  0.00     0.274 HD
ATOM     13  H82 UNL     1      -4.246   2.410  -1.477  1.00  0.00     0.274 HD
ATOM     14  H81 UNL     1      -5.772   2.521  -0.769  1.00  0.00     0.274 HD
ENDBRANCH  10  11
ENDBRANCH   6  10
BRANCH   3  15
HETATM   15  C3  UNL     1       0.211   0.326  -0.170  1.00  0.00     0.157 A 
HETATM   16  N2  UNL     1       1.077  -0.700   0.034  1.00  0.00    -0.325 N 
HETATM   17  C4  UNL     1       2.396  -0.475   0.048  1.00  0.00     0.114 A 
ATOM     18  H2  UNL     1       0.721  -1.645   0.177  1.00  0.00     0.169 HD
HETATM   19  C6  UNL     1       2.917   0.791  -0.142  1.00  0.00     0.123 A 
HETATM   20  C7  UNL     1       2.036   1.826  -0.348  1.00  0.00     0.252 A 
HETATM   21  O1  UNL     1       2.432   3.016  -0.531  1.00  0.00    -0.268 OA
HETATM   22  N6  UNL     1       0.702   1.562  -0.357  1.00  0.00    -0.301 N 
HETATM   23  C8  UNL     1      -0.239   2.649  -0.574  1.00  0.00     0.161 C 
BRANCH  17  24
HETATM   24  N3  UNL     1       3.342  -1.538   0.262  1.00  0.00    -0.317 N 
HETATM   25  C5  UNL     1       4.739  -1.293   0.276  1.00  0.00     0.187 C 
HETATM   26  N4  UNL     1       5.337  -1.308   1.416  1.00  0.00    -0.373 N 
HETATM   27  N5  UNL     1       5.490  -1.037  -0.900  1.00  0.00    -0.064 NA
ATOM     28  H42 UNL     1       4.797  -1.492   2.262  1.00  0.00     0.158 HD
ATOM     29  H41 UNL     1       6.342  -1.132   1.426  1.00  0.00     0.158 HD
ATOM     30  H3  UNL     1       3.001  -2.488   0.407  1.00  0.00     0.170 HD
ENDBRANCH  17  24
ENDBRANCH   3  15
TORSDOF 4
