REMARK  3 active torsions:
REMARK  status: ('A' for Active; 'I' for Inactive)
REMARK    1  A    between atoms: C4_7  and  C5_8 
REMARK    2  A    between atoms: C5_8  and  N2_9 
REMARK    3  A    between atoms: N2_9  and  C6_11 
ROOT
HETATM    1  C5  UNL     1      -0.363  -1.575  -0.024  1.00  0.00     0.118 C 
ENDROOT
BRANCH   1   2
HETATM    2  C4  UNL     1      -1.575  -1.038  -0.149  1.00  0.00     0.117 A 
HETATM    3  C3  UNL     1      -2.592  -1.552  -0.923  1.00  0.00     0.275 A 
HETATM    4  N1  UNL     1      -3.648  -0.719  -0.780  1.00  0.00    -0.308 N 
HETATM    5  O1  UNL     1      -2.507  -2.602  -1.614  1.00  0.00    -0.266 OA
HETATM    6  C2  UNL     1      -3.320   0.297   0.057  1.00  0.00     0.098 A 
ATOM      7  H1  UNL     1      -4.554  -0.837  -1.233  1.00  0.00     0.170 HD
HETATM    8  C1  UNL     1      -4.115   1.303   0.427  1.00  0.00     0.063 C 
HETATM    9  N4  UNL     1      -2.047   0.070   0.423  1.00  0.00    -0.338 N 
ATOM     10  H4  UNL     1      -1.513   0.666   1.055  1.00  0.00     0.167 HD
ENDBRANCH   1   2
BRANCH   1  11
HETATM   11  N2  UNL     1       0.641  -0.994   0.790  1.00  0.00    -0.391 N 
ATOM     12  H2  UNL     1       0.544  -0.961   1.805  1.00  0.00     0.159 HD
BRANCH  11  13
HETATM   13  C6  UNL     1       1.803  -0.451   0.134  1.00  0.00     0.108 C 
HETATM   14  C7  UNL     1       2.795   0.138   1.116  1.00  0.00     0.054 C 
HETATM   15  C8  UNL     1       3.640   0.981   0.154  1.00  0.00     0.234 C 
HETATM   16  N3  UNL     1       2.762   1.384  -0.908  1.00  0.00    -0.073 N 
HETATM   17  C9  UNL     1       1.492   0.755  -0.717  1.00  0.00     0.257 C 
ATOM     18  H32 UNL     1       2.687   2.398  -0.989  1.00  0.00     0.277 HD
ATOM     19  H31 UNL     1       3.155   1.198  -1.831  1.00  0.00     0.277 HD
ENDBRANCH  11  13
ENDBRANCH   1  11
TORSDOF 3
