REMARK  6 active torsions:
REMARK  status: ('A' for Active; 'I' for Inactive)
REMARK       I    between atoms: C2_2  and  N1_4 
REMARK    1  A    between atoms: N1_4  and  C3_6 
REMARK    2  A    between atoms: C3_6  and  N2_7 
REMARK    3  A    between atoms: C6_16  and  N5_17 
REMARK    4  A    between atoms: N5_17  and  C7_20 
REMARK    5  A    between atoms: C7_20  and  O2_21 
REMARK    6  A    between atoms: O2_21  and  N6_22 
ROOT
HETATM    1  C3  UNL     1      -0.820  -0.328   1.096  1.00  0.00     0.283 C 
HETATM    2  C4  UNL     1      -0.736  -1.801   0.999  1.00  0.00     0.148 C 
HETATM    3  N3  UNL     1      -1.867  -2.602   0.606  1.00  0.00    -0.083 NA
HETATM    4  N4  UNL     1       0.436  -2.171   1.310  1.00  0.00    -0.376 N 
ATOM      5  H4  UNL     1       0.744  -3.143   1.320  1.00  0.00     0.160 HD
HETATM    6  C5  UNL     1       1.286  -1.047   1.649  1.00  0.00     0.159 C 
HETATM    7  C6  UNL     1       0.573   0.138   0.933  1.00  0.00     0.269 C 
ENDROOT
BRANCH   1   8
HETATM    8  N1  UNL     1      -1.832   0.189   0.256  1.00  0.00    -0.321 N 
HETATM    9  C2  UNL     1      -2.022   0.035  -1.110  1.00  0.00     0.215 C 
HETATM   10  C1  UNL     1      -3.174   0.693  -1.801  1.00  0.00     0.117 C 
HETATM   11  O1  UNL     1      -1.260  -0.646  -1.819  1.00  0.00    -0.274 OA
ATOM     12  H1  UNL     1      -2.531   0.764   0.726  1.00  0.00     0.165 HD
ENDBRANCH   1   8
BRANCH   1  13
HETATM   13  N2  UNL     1      -1.160  -0.092   2.527  1.00  0.00    -0.043 N 
ATOM     14  H23 UNL     1      -1.343   0.893   2.716  1.00  0.00     0.278 HD
ATOM     15  H22 UNL     1      -2.079  -0.466   2.765  1.00  0.00     0.278 HD
ATOM     16  H21 UNL     1      -0.430  -0.465   3.133  1.00  0.00     0.278 HD
ENDBRANCH   1  13
BRANCH   7  17
HETATM   17  N5  UNL     1       1.104   0.223  -0.384  1.00  0.00    -0.042 N 
ATOM     18  H52 UNL     1       1.304  -0.694  -0.782  1.00  0.00     0.280 HD
ATOM     19  H51 UNL     1       0.408   0.525  -1.065  1.00  0.00     0.280 HD
BRANCH  17  20
HETATM   20  C7  UNL     1       2.277   1.090  -0.366  1.00  0.00     0.432 C 
BRANCH  20  21
HETATM   21  O2  UNL     1       2.829   1.206  -1.628  1.00  0.00    -0.260 OA
BRANCH  21  22
HETATM   22  N6  UNL     1       3.883   1.955  -1.756  1.00  0.00    -0.309 N 
ATOM     23  H62 UNL     1       4.276   2.433  -0.945  1.00  0.00     0.184 HD
ATOM     24  H61 UNL     1       4.290   2.041  -2.687  1.00  0.00     0.184 HD
ENDBRANCH  21  22
ENDBRANCH  20  21
ENDBRANCH  17  20
ENDBRANCH   7  17
TORSDOF 6
