REMARK  10 active torsions:
REMARK  status: ('A' for Active; 'I' for Inactive)
REMARK    1  A    between atoms: C2_2  and  C4_4 
REMARK    2  A    between atoms: C11_11  and  O1_12 
REMARK    3  A    between atoms: O1_12  and  S1_13 
REMARK    4  A    between atoms: C12_17  and  C13_18 
REMARK    5  A    between atoms: C13_18  and  N1_19 
REMARK    6  A    between atoms: N1_19  and  C14_21 
REMARK    7  A    between atoms: C14_21  and  C15_22 
REMARK    8  A    between atoms: C15_22  and  C16_23 
REMARK    9  A    between atoms: C16_23  and  C17_24 
REMARK   10  A    between atoms: C17_24  and  O6_26 
ROOT
HETATM    1  C4  UNL     1      -0.699  -0.344  -0.151  1.00  0.00    -0.001 C 
HETATM    2  C5  UNL     1      -1.594   0.234  -1.198  1.00  0.00     0.016 C 
HETATM    3  C6  UNL     1      -2.799  -0.665  -1.299  1.00  0.00     0.011 C 
HETATM    4  C7  UNL     1      -2.816  -1.473  -0.034  1.00  0.00    -0.033 A 
HETATM    5  C8  UNL     1      -4.043  -2.072   0.501  1.00  0.00     0.011 A 
HETATM    6  C9  UNL     1      -2.965  -2.960  -0.104  1.00  0.00     0.011 A 
HETATM    7  C10 UNL     1      -1.727  -0.972   0.832  1.00  0.00     0.039 C 
HETATM    8  C11 UNL     1      -1.827   0.399   1.429  1.00  0.00     0.161 C 
HETATM    9  C12 UNL     1      -0.349   0.572   0.988  1.00  0.00     0.068 C 
ENDROOT
BRANCH   9  10
HETATM   10  C13 UNL     1       0.018   1.971   0.709  1.00  0.00     0.064 C 
BRANCH  10  11
HETATM   11  N1  UNL     1       1.151   2.209  -0.094  1.00  0.00    -0.402 N 
ATOM     12  H1  UNL     1       1.076   2.569  -1.045  1.00  0.00     0.158 HD
BRANCH  11  13
HETATM   13  C14 UNL     1       2.445   1.906   0.525  1.00  0.00     0.119 C 
BRANCH  13  14
HETATM   14  C15 UNL     1       3.480   2.428  -0.439  1.00  0.00     0.029 C 
BRANCH  14  15
HETATM   15  C16 UNL     1       3.432   1.742  -1.768  1.00  0.00     0.112 C 
BRANCH  15  16
HETATM   16  C17 UNL     1       3.801   0.314  -1.740  1.00  0.00     0.258 C 
HETATM   17  O5  UNL     1       4.204  -0.242  -0.694  1.00  0.00    -0.265 OA
BRANCH  16  18
HETATM   18  O6  UNL     1       3.714  -0.448  -2.872  1.00  0.00    -0.326 OA
HETATM   19  C18 UNL     1       4.074  -1.839  -2.881  1.00  0.00     0.213 C 
ENDBRANCH  16  18
ENDBRANCH  15  16
ENDBRANCH  14  15
ENDBRANCH  13  14
ENDBRANCH  11  13
ENDBRANCH  10  11
ENDBRANCH   9  10
BRANCH   1  20
HETATM   20  C2  UNL     1       0.303  -1.342  -0.575  1.00  0.00    -0.083 C 
HETATM   21  C1  UNL     1       0.348  -1.721  -1.841  1.00  0.00     0.015 C 
HETATM   22  C3  UNL     1       1.244  -1.949   0.391  1.00  0.00     0.043 C 
ENDBRANCH   1  20
BRANCH   8  23
HETATM   23  O1  UNL     1      -1.896   0.430   2.824  1.00  0.00    -0.250 OA
BRANCH  23  24
HETATM   24  S1  UNL     1      -3.014   1.610   3.242  1.00  0.00     0.252 S 
HETATM   25  O2  UNL     1      -2.416   2.434   4.374  1.00  0.00    -0.572 OA
HETATM   26  O3  UNL     1      -4.239   0.884   3.770  1.00  0.00    -0.572 OA
HETATM   27  O4  UNL     1      -3.411   2.594   1.938  1.00  0.00    -0.572 OA
ENDBRANCH  23  24
ENDBRANCH   8  23
TORSDOF 10
