REMARK  15 active torsions:
REMARK  status: ('A' for Active; 'I' for Inactive)
REMARK    1  A    between atoms: N1_1  and  C1_4 
REMARK    2  A    between atoms: C2_7  and  N3_8 
REMARK    3  A    between atoms: N3_8  and  C3_10 
REMARK    4  A    between atoms: C4_12  and  C5_13 
REMARK    5  A    between atoms: C4_12  and  C6_16 
REMARK    6  A    between atoms: C5_13  and  O2_14 
REMARK    7  A    between atoms: C7_19  and  O5_20 
REMARK    8  A    between atoms: C8_22  and  O6_23 
REMARK    9  A    between atoms: N4_28  and  C11_29 
REMARK   10  A    between atoms: C11_29  and  O8_30 
REMARK   11  A    between atoms: N5_32  and  C12_33 
REMARK   12  A    between atoms: C14_36  and  N6_37 
REMARK       I    between atoms: N6_37  and  C15_39 
REMARK   13  A    between atoms: C15_39  and  C16_41 
REMARK   14  A    between atoms: C16_41  and  N7_42 
REMARK   15  A    between atoms: C17_46  and  O11_47 
ROOT
HETATM    1  C1  UNL     1       1.124  -0.593  -2.791  1.00  0.00     0.679 A 
HETATM    2  N2  UNL     1       2.164  -0.233  -2.019  1.00  0.00    -0.176 N 
ATOM      3  H2  UNL     1       3.106  -0.480  -2.321  1.00  0.00     0.186 HD
HETATM    4  C2  UNL     1       2.010   0.449  -0.848  1.00  0.00     0.138 A 
HETATM    5  C9  UNL     1       0.721   0.762  -0.476  1.00  0.00     0.124 A 
HETATM    6  C10 UNL     1       0.192   1.415   0.593  1.00  0.00     0.282 A 
HETATM    7  O7  UNL     1       0.817   1.922   1.565  1.00  0.00    -0.265 OA
HETATM    8  N4  UNL     1      -1.153   1.421   0.422  1.00  0.00    -0.226 N 
HETATM    9  N5  UNL     1      -1.502   0.823  -0.672  1.00  0.00    -0.236 N 
HETATM   10  C18 UNL     1      -0.364   0.401  -1.255  1.00  0.00     0.160 A 
HETATM   11  N8  UNL     1      -0.126  -0.269  -2.393  1.00  0.00    -0.174 N 
ATOM     12  H8  UNL     1      -0.916  -0.543  -2.978  1.00  0.00     0.186 HD
ENDROOT
BRANCH   4  13
HETATM   13  N3  UNL     1       3.111   0.810  -0.067  1.00  0.00    -0.346 N 
ATOM     14  H3  UNL     1       2.955   1.320   0.803  1.00  0.00     0.163 HD
BRANCH  13  15
HETATM   15  C3  UNL     1       4.478   0.480  -0.458  1.00  0.00     0.255 C 
HETATM   16  O1  UNL     1       5.401   0.939   0.461  1.00  0.00    -0.337 OA
HETATM   17  C4  UNL     1       5.834  -0.119   1.214  1.00  0.00     0.200 C 
HETATM   18  C7  UNL     1       5.917  -1.256   0.225  1.00  0.00     0.199 C 
HETATM   19  C8  UNL     1       4.706  -0.980  -0.654  1.00  0.00     0.199 C 
BRANCH  17  20
HETATM   20  C5  UNL     1       4.886  -0.407   2.346  1.00  0.00     0.216 C 
BRANCH  20  21
HETATM   21  O2  UNL     1       5.318  -1.480   3.117  1.00  0.00    -0.397 OA
ATOM     22  H2  UNL     1       4.719  -1.662   3.832  1.00  0.00     0.209 HD
ENDBRANCH  20  21
ENDBRANCH  17  20
BRANCH  17  23
HETATM   23  C6  UNL     1       7.203   0.104   1.756  1.00  0.00     0.214 C 
HETATM   24  O3  UNL     1       7.858   1.151   1.532  1.00  0.00    -0.646 OA
HETATM   25  O4  UNL     1       7.793  -0.875   2.541  1.00  0.00    -0.646 OA
ENDBRANCH  17  23
BRANCH  18  26
HETATM   26  O5  UNL     1       7.087  -1.057  -0.544  1.00  0.00    -0.389 OA
ATOM     27  H5  UNL     1       7.139  -1.773  -1.167  1.00  0.00     0.210 HD
ENDBRANCH  18  26
BRANCH  19  28
HETATM   28  O6  UNL     1       4.985  -1.283  -1.987  1.00  0.00    -0.388 OA
ATOM     29  H6  UNL     1       5.130  -2.213  -2.112  1.00  0.00     0.210 HD
ENDBRANCH  19  28
ENDBRANCH  13  15
ENDBRANCH   4  13
BRANCH   1  30
HETATM   30  N1  UNL     1       1.320  -1.244  -3.901  1.00  0.00    -0.234 N 
ATOM     31  H12 UNL     1       2.264  -1.489  -4.201  1.00  0.00     0.174 HD
ATOM     32  H11 UNL     1       0.531  -1.517  -4.487  1.00  0.00     0.174 HD
ENDBRANCH   1  30
BRANCH   8  33
HETATM   33  C11 UNL     1      -2.055   2.035   1.372  1.00  0.00     0.317 C 
BRANCH  33  34
HETATM   34  O8  UNL     1      -2.271   3.385   1.040  1.00  0.00    -0.380 OA
ATOM     35  H8  UNL     1      -2.863   3.788   1.664  1.00  0.00     0.211 HD
ENDBRANCH  33  34
ENDBRANCH   8  33
BRANCH   9  36
HETATM   36  C12 UNL     1      -2.814   0.610  -1.222  1.00  0.00     0.277 C 
HETATM   37  O9  UNL     1      -3.667   1.680  -1.115  1.00  0.00    -0.360 OA
HETATM   38  C13 UNL     1      -4.860   1.131  -1.640  1.00  0.00     0.198 C 
HETATM   39  C14 UNL     1      -5.001  -0.119  -0.803  1.00  0.00     0.141 C 
HETATM   40  C17 UNL     1      -3.563  -0.513  -0.563  1.00  0.00     0.193 C 
BRANCH  39  41
HETATM   41  N6  UNL     1      -5.731   0.095   0.415  1.00  0.00    -0.350 N 
HETATM   42  C15 UNL     1      -6.913  -0.597   0.762  1.00  0.00     0.243 C 
HETATM   43  O10 UNL     1      -7.357  -1.450  -0.034  1.00  0.00    -0.272 OA
ATOM     44  H6  UNL     1      -5.374   0.790   1.071  1.00  0.00     0.163 HD
BRANCH  42  45
HETATM   45  C16 UNL     1      -7.636  -0.349   2.023  1.00  0.00     0.332 C 
BRANCH  45  46
HETATM   46  N7  UNL     1      -8.800  -1.187   2.123  1.00  0.00    -0.071 N 
ATOM     47  H73 UNL     1      -9.410  -1.082   1.312  1.00  0.00     0.274 HD
ATOM     48  H72 UNL     1      -8.564  -2.173   2.012  1.00  0.00     0.274 HD
ATOM     49  H71 UNL     1      -9.300  -1.015   2.995  1.00  0.00     0.274 HD
ENDBRANCH  45  46
ENDBRANCH  42  45
ENDBRANCH  39  41
BRANCH  40  50
HETATM   50  O11 UNL     1      -3.338  -1.698  -1.262  1.00  0.00    -0.389 OA
ATOM     51  H11 UNL     1      -3.812  -2.408  -0.845  1.00  0.00     0.210 HD
ENDBRANCH  40  50
ENDBRANCH   9  36
TORSDOF 15
