REMARK  15 active torsions:
REMARK  status: ('A' for Active; 'I' for Inactive)
REMARK    1  A    between atoms: C2_2  and  C4_4 
REMARK    2  A    between atoms: C2_2  and  C8_13 
REMARK    3  A    between atoms: C4_4  and  S1_5 
REMARK    4  A    between atoms: S1_5  and  C5_6 
REMARK       I    between atoms: C8_13  and  N3_15 
REMARK    5  A    between atoms: N3_15  and  C9_17 
REMARK    6  A    between atoms: C11_19  and  O2_20 
REMARK    7  A    between atoms: C11_19  and  C17_33 
REMARK    8  A    between atoms: O2_20  and  C12_21 
REMARK    9  A    between atoms: C12_21  and  C13_23 
REMARK   10  A    between atoms: C13_23  and  C14_24 
REMARK   11  A    between atoms: C14_24  and  O4_25 
REMARK   12  A    between atoms: C14_24  and  C15_28 
REMARK   13  A    between atoms: C16_29  and  N4_30 
REMARK   14  A    between atoms: C19_37  and  N5_38 
REMARK   15  A    between atoms: N5_38  and  N6_39 
ROOT
HETATM    1  C9  UNL     1      -0.312  -1.181  -0.161  1.00  0.00     0.291 C 
HETATM    2  C10 UNL     1      -1.472  -0.643   0.590  1.00  0.00     0.104 C 
HETATM    3  C11 UNL     1      -2.759  -1.386   0.479  1.00  0.00     0.165 C 
HETATM    4  C18 UNL     1      -2.805  -2.470  -0.540  1.00  0.00     0.102 C 
HETATM    5  C19 UNL     1      -1.525  -2.876  -1.165  1.00  0.00     0.303 C 
HETATM    6  N7  UNL     1      -0.357  -2.605  -0.398  1.00  0.00    -0.035 N 
ATOM      7  H71 UNL     1      -0.310  -3.152   0.461  1.00  0.00     0.281 HD
ATOM      8  H72 UNL     1       0.494  -2.963  -0.831  1.00  0.00     0.281 HD
ENDROOT
BRANCH   1   9
HETATM    9  N3  UNL     1       0.918  -0.914   0.555  1.00  0.00    -0.333 N 
HETATM   10  C8  UNL     1       1.994  -0.193  -0.025  1.00  0.00     0.228 C 
HETATM   11  O1  UNL     1       1.867   0.226  -1.204  1.00  0.00    -0.273 OA
ATOM     12  H3  UNL     1       1.015  -1.257   1.511  1.00  0.00     0.164 HD
BRANCH  10  13
HETATM   13  C2  UNL     1       3.251   0.086   0.692  1.00  0.00     0.042 C 
HETATM   14  C1  UNL     1       3.011   0.895   1.950  1.00  0.00     0.026 C 
HETATM   15  C3  UNL     1       3.950  -1.215   1.097  1.00  0.00     0.026 C 
BRANCH  13  16
HETATM   16  C4  UNL     1       4.234   0.844  -0.175  1.00  0.00     0.100 C 
BRANCH  16  17
HETATM   17  S1  UNL     1       5.760   1.041   0.770  1.00  0.00    -0.093 SA
BRANCH  17  18
HETATM   18  C5  UNL     1       6.996   1.931  -0.173  1.00  0.00     0.136 C 
HETATM   19  N1  UNL     1       6.802   2.371  -1.378  1.00  0.00    -0.369 N 
HETATM   20  C6  UNL     1       7.969   3.047  -1.881  1.00  0.00     0.141 C 
ATOM     21  H1  UNL     1       5.934   2.253  -1.901  1.00  0.00     0.161 HD
HETATM   22  C7  UNL     1       8.835   3.272  -0.653  1.00  0.00     0.141 C 
HETATM   23  N2  UNL     1       8.309   2.268   0.251  1.00  0.00    -0.369 N 
ATOM     24  H2  UNL     1       8.798   1.872   1.054  1.00  0.00     0.161 HD
ENDBRANCH  17  18
ENDBRANCH  16  17
ENDBRANCH  13  16
ENDBRANCH  10  13
ENDBRANCH   1   9
BRANCH   3  25
HETATM   25  O2  UNL     1      -3.771  -0.448   0.157  1.00  0.00    -0.298 OA
BRANCH  25  26
HETATM   26  C12 UNL     1      -3.797   0.339  -0.966  1.00  0.00     0.264 C 
HETATM   27  O3  UNL     1      -2.857   0.239  -1.795  1.00  0.00    -0.265 OA
BRANCH  26  28
HETATM   28  C13 UNL     1      -4.889   1.308  -1.249  1.00  0.00     0.175 C 
BRANCH  28  29
HETATM   29  C14 UNL     1      -5.934   1.292  -0.147  1.00  0.00     0.191 C 
HETATM   30  S2  UNL     1      -5.239   1.853   1.422  1.00  0.00    -0.041 SA
BRANCH  29  31
HETATM   31  O4  UNL     1      -6.478   0.019  -0.056  1.00  0.00    -0.367 OA
ATOM     32  H4  UNL     1      -7.132   0.009   0.633  1.00  0.00     0.212 HD
ENDBRANCH  29  31
BRANCH  29  33
HETATM   33  C15 UNL     1      -7.023   2.199  -0.510  1.00  0.00    -0.033 C 
HETATM   34  C16 UNL     1      -7.932   2.933  -0.816  1.00  0.00     0.007 C 
BRANCH  34  35
HETATM   35  N4  UNL     1      -8.999   3.765  -1.174  1.00  0.00    -0.359 N 
ATOM     36  H42 UNL     1      -8.791   2.772  -1.071  1.00  0.00     0.166 HD
ATOM     37  H41 UNL     1      -9.767   4.385  -1.432  1.00  0.00     0.166 HD
ENDBRANCH  34  35
ENDBRANCH  29  33
ENDBRANCH  28  29
ENDBRANCH  26  28
ENDBRANCH  25  26
ENDBRANCH   3  25
BRANCH   3  38
HETATM   38  C17 UNL     1      -3.097  -1.966   1.792  1.00  0.00     0.210 C 
HETATM   39  O5  UNL     1      -2.347  -2.825   2.294  1.00  0.00    -0.646 OA
HETATM   40  O6  UNL     1      -4.227  -1.566   2.459  1.00  0.00    -0.646 OA
ENDBRANCH   3  38
BRANCH   5  41
HETATM   41  N5  UNL     1      -1.547  -4.289  -1.559  1.00  0.00    -0.115 NA
BRANCH  41  42
HETATM   42  N6  UNL     1      -1.756  -5.140  -0.496  1.00  0.00    -0.346 N 
ATOM     43  H62 UNL     1      -1.881  -4.807   0.460  1.00  0.00     0.172 HD
ATOM     44  H61 UNL     1      -1.771  -6.122  -0.770  1.00  0.00     0.172 HD
ENDBRANCH  41  42
ENDBRANCH   5  41
TORSDOF 15
