REMARK  10 active torsions:
REMARK  status: ('A' for Active; 'I' for Inactive)
REMARK    1  A    between atoms: C2_9  and  S1_10 
REMARK    2  A    between atoms: S1_10  and  C3_11 
REMARK    3  A    between atoms: C3_11  and  C4_12 
REMARK       I    between atoms: C4_12  and  N5_14 
REMARK    4  A    between atoms: N5_14  and  C5_15 
REMARK    5  A    between atoms: C7_17  and  N6_18 
REMARK    6  A    between atoms: N6_18  and  C8_20 
REMARK    7  A    between atoms: C11_26  and  N8_27 
REMARK    8  A    between atoms: N8_27  and  C12_29 
REMARK    9  A    between atoms: C12_29  and  C13_30 
REMARK   10  A    between atoms: C16_43  and  O5_44 
ROOT
HETATM    1  N6  UNL     1      -1.362  -0.461  -1.115  1.00  0.00    -0.338 N 
ATOM      2  H6  UNL     1      -1.744  -1.405  -1.060  1.00  0.00     0.167 HD
ENDROOT
BRANCH   1   3
HETATM    3  C7  UNL     1      -0.050  -0.326  -0.647  1.00  0.00     0.089 A 
HETATM    4  C6  UNL     1       0.679   0.733  -0.182  1.00  0.00     0.098 A 
HETATM    5  C5  UNL     1       1.939   0.380   0.275  1.00  0.00     0.187 A 
HETATM    6  N13 UNL     1       1.951  -1.018   0.057  1.00  0.00    -0.310 N 
HETATM    7  C16 UNL     1       0.827  -1.411  -0.463  1.00  0.00     0.170 A 
ATOM      8  H13 UNL     1       2.734  -1.633   0.278  1.00  0.00     0.170 HD
BRANCH   5   9
HETATM    9  N5  UNL     1       3.008   0.992   0.814  1.00  0.00    -0.351 NA
HETATM   10  C4  UNL     1       4.091   1.618   1.363  1.00  0.00     0.303 C 
HETATM   11  O1  UNL     1       4.271   2.801   1.631  1.00  0.00    -0.256 OA
BRANCH  10  12
HETATM   12  C3  UNL     1       5.261   0.698   1.689  1.00  0.00     0.201 C 
BRANCH  12  13
HETATM   13  S1  UNL     1       6.199   0.468   0.173  1.00  0.00    -0.081 SA
BRANCH  13  14
HETATM   14  C2  UNL     1       7.530  -0.670   0.503  1.00  0.00     0.178 A 
HETATM   15  N1  UNL     1       8.751  -0.350   0.911  1.00  0.00    -0.259 N 
HETATM   16  C1  UNL     1       9.228   1.013   1.152  1.00  0.00     0.181 C 
HETATM   17  N2  UNL     1       9.397  -1.488   1.036  1.00  0.00    -0.224 N 
HETATM   18  N3  UNL     1       8.634  -2.517   0.722  1.00  0.00    -0.226 N 
ATOM     19  H2  UNL     1      10.368  -1.566   1.338  1.00  0.00     0.210 HD
HETATM   20  N4  UNL     1       7.447  -2.007   0.383  1.00  0.00    -0.263 N 
ATOM     21  H3  UNL     1       8.897  -3.502   0.735  1.00  0.00     0.210 HD
ATOM     22  H4  UNL     1       6.626  -2.536   0.087  1.00  0.00     0.190 HD
ENDBRANCH  13  14
ENDBRANCH  12  13
ENDBRANCH  10  12
ENDBRANCH   5   9
BRANCH   7  23
HETATM   23  O5  UNL     1       0.480  -2.737  -0.816  1.00  0.00    -0.344 OA
ATOM     24  H5  UNL     1       1.072  -3.469  -0.692  1.00  0.00     0.219 HD
ENDBRANCH   7  23
ENDBRANCH   1   3
BRANCH   1  25
HETATM   25  C8  UNL     1      -2.226   0.493  -1.644  1.00  0.00     0.126 A 
HETATM   26  C9  UNL     1      -1.999   1.831  -1.852  1.00  0.00     0.123 A 
HETATM   27  C10 UNL     1      -2.979   2.704  -2.347  1.00  0.00     0.263 A 
HETATM   28  O2  UNL     1      -2.759   3.911  -2.530  1.00  0.00    -0.268 OA
HETATM   29  N7  UNL     1      -4.183   2.196  -2.625  1.00  0.00    -0.156 N 
HETATM   30  C11 UNL     1      -4.453   0.897  -2.439  1.00  0.00     0.682 A 
ATOM     31  H7  UNL     1      -4.912   2.810  -2.987  1.00  0.00     0.187 HD
HETATM   32  N12 UNL     1      -3.503   0.094  -1.969  1.00  0.00    -0.176 N 
ATOM     33  H12 UNL     1      -3.738  -0.890  -1.840  1.00  0.00     0.186 HD
BRANCH  30  34
HETATM   34  N8  UNL     1      -5.645   0.475  -2.719  1.00  0.00    -0.219 N 
ATOM     35  H8  UNL     1      -6.334   1.138  -3.072  1.00  0.00     0.178 HD
BRANCH  34  36
HETATM   36  C12 UNL     1      -6.029  -0.914  -2.545  1.00  0.00     0.216 C 
BRANCH  36  37
HETATM   37  C13 UNL     1      -6.238  -1.130  -1.079  1.00  0.00     0.117 A 
HETATM   38  N9  UNL     1      -6.204  -2.384  -0.561  1.00  0.00    -0.306 N 
HETATM   39  C14 UNL     1      -6.394  -2.502   0.761  1.00  0.00     0.316 A 
ATOM     40  H9  UNL     1      -6.041  -3.200  -1.151  1.00  0.00     0.170 HD
HETATM   41  O3  UNL     1      -6.377  -3.639   1.325  1.00  0.00    -0.262 OA
HETATM   42  C15 UNL     1      -6.617  -1.410   1.587  1.00  0.00     0.328 A 
HETATM   43  O4  UNL     1      -6.791  -1.559   2.832  1.00  0.00    -0.261 OA
HETATM   44  N10 UNL     1      -6.637  -0.211   1.015  1.00  0.00    -0.260 N 
HETATM   45  N11 UNL     1      -6.453  -0.078  -0.279  1.00  0.00    -0.284 N 
ATOM     46  H10 UNL     1      -6.797   0.617   1.588  1.00  0.00     0.190 HD
ATOM     47  H11 UNL     1      -6.475   0.856  -0.687  1.00  0.00     0.188 HD
ENDBRANCH  36  37
ENDBRANCH  34  36
ENDBRANCH  30  34
ENDBRANCH   1  25
TORSDOF 10
