REMARK  6 active torsions:
REMARK  status: ('A' for Active; 'I' for Inactive)
REMARK    1  A    between atoms: C2_2  and  C3_3 
REMARK    2  A    between atoms: C3_3  and  C4_4 
REMARK    3  A    between atoms: C4_4  and  C5_5 
REMARK    4  A    between atoms: C5_5  and  C6_6 
REMARK    5  A    between atoms: C7_7  and  C8_8 
REMARK    6  A    between atoms: C9_9  and  N1_10 
ROOT
HETATM    1  C6  UNL     1       1.584   0.920   0.034  1.00  0.00    -0.092 C 
HETATM    2  C7  UNL     1       2.782   0.747   0.012  1.00  0.00    -0.013 C 
ENDROOT
BRANCH   2   3
HETATM    3  C8  UNL     1       4.180   0.528  -0.031  1.00  0.00     0.009 C 
HETATM    4  C9  UNL     1       5.379   0.323  -0.075  1.00  0.00     0.040 C 
BRANCH   4   5
HETATM    5  N1  UNL     1       6.753   0.066  -0.132  1.00  0.00    -0.264 N 
HETATM    6  N2  UNL     1       7.424   0.228   0.931  1.00  0.00    -0.338 N 
ATOM      7  H22 UNL     1       6.964   0.535   1.788  1.00  0.00     0.177 HD
ATOM      8  H21 UNL     1       8.426   0.041   0.889  1.00  0.00     0.177 HD
ATOM      9  H1  UNL     1       7.198  -0.240  -0.997  1.00  0.00     0.197 HD
ENDBRANCH   4   5
ENDBRANCH   2   3
BRANCH   1  10
HETATM   10  C5  UNL     1       0.132   1.105   0.050  1.00  0.00     0.095 C 
BRANCH  10  11
HETATM   11  C4  UNL     1      -0.604  -0.208  -0.086  1.00  0.00     0.012 C 
BRANCH  11  12
HETATM   12  C3  UNL     1      -2.092   0.136  -0.054  1.00  0.00     0.000 C 
BRANCH  12  13
HETATM   13  C2  UNL     1      -2.940  -1.109  -0.184  1.00  0.00    -0.005 C 
HETATM   14  C1  UNL     1      -4.387  -0.665  -0.141  1.00  0.00     0.005 C 
ENDBRANCH  12  13
ENDBRANCH  11  12
ENDBRANCH  10  11
ENDBRANCH   1  10
TORSDOF 6
