REMARK  3 active torsions:
REMARK  status: ('A' for Active; 'I' for Inactive)
REMARK    1  A    between atoms: C3_3  and  C4_4 
REMARK    2  A    between atoms: C4_4  and  C5_5 
REMARK    3  A    between atoms: C5_5  and  N1_6 
ROOT
HETATM    1  C1  UNL     1       4.200   1.055   0.087  1.00  0.00     0.096 C 
HETATM    2  C2  UNL     1       3.544   0.026   0.044  1.00  0.00    -0.187 C 
HETATM    3  C3  UNL     1       2.782  -1.229   0.002  1.00  0.00     0.084 C 
ENDROOT
BRANCH   3   4
HETATM    4  C4  UNL     1       1.384  -0.963   0.439  1.00  0.00     0.055 C 
BRANCH   4   5
HETATM    5  C5  UNL     1       0.629   0.027  -0.428  1.00  0.00     0.059 C 
BRANCH   5   6
HETATM    6  N1  UNL     1      -0.657   0.158   0.110  1.00  0.00    -0.393 N 
HETATM    7  C6  UNL     1      -1.571  -0.896   0.040  1.00  0.00     0.122 C 
HETATM    8  C7  UNL     1      -2.926  -0.233   0.308  1.00  0.00     0.021 C 
HETATM    9  C8  UNL     1      -2.700   1.125  -0.328  1.00  0.00     0.021 C 
HETATM   10  C9  UNL     1      -1.280   1.405   0.189  1.00  0.00     0.122 C 
ENDBRANCH   5   6
ENDBRANCH   4   5
ENDBRANCH   3   4
TORSDOF 3
