REMARK  10 active torsions:
REMARK  status: ('A' for Active; 'I' for Inactive)
REMARK    1  A    between atoms: N1_1  and  C1_4 
REMARK    2  A    between atoms: C2_7  and  S1_8 
REMARK    3  A    between atoms: S1_8  and  N3_9 
REMARK    4  A    between atoms: N4_13  and  C3_14 
REMARK    5  A    between atoms: C5_19  and  N6_20 
REMARK    6  A    between atoms: N6_20  and  S2_22 
REMARK    7  A    between atoms: S2_22  and  C6_25 
REMARK    8  A    between atoms: C6_25  and  C7_26 
REMARK    9  A    between atoms: C7_26  and  N7_27 
REMARK   10  A    between atoms: C9_32  and  O4_33 
ROOT
HETATM    1  C3  UNL     1      -1.470  -0.144   0.231  1.00  0.00     0.325 C 
HETATM    2  N5  UNL     1      -1.012  -0.544   1.554  1.00  0.00    -0.049 N 
ATOM      3  H51 UNL     1      -0.848  -1.550   1.596  1.00  0.00     0.279 HD
ATOM      4  H52 UNL     1      -1.764  -0.471   2.239  1.00  0.00     0.279 HD
HETATM    5  C4  UNL     1       0.144   0.183   1.981  1.00  0.00     0.260 C 
HETATM    6  C5  UNL     1       1.342   0.007   1.027  1.00  0.00     0.121 C 
HETATM    7  C8  UNL     1       0.865  -1.027   0.019  1.00  0.00     0.063 C 
HETATM    8  C9  UNL     1      -0.364  -0.562  -0.717  1.00  0.00     0.171 C 
ENDROOT
BRANCH   1   9
HETATM    9  N4  UNL     1      -2.737  -0.721  -0.002  1.00  0.00    -0.243 N 
HETATM   10  C2  UNL     1      -3.805   0.086  -0.087  1.00  0.00     0.218 A 
HETATM   11  N2  UNL     1      -5.037  -0.476  -0.320  1.00  0.00    -0.166 N 
HETATM   12  C1  UNL     1      -5.210  -1.795  -0.464  1.00  0.00     0.682 A 
ATOM     13  H2  UNL     1      -5.851   0.136  -0.386  1.00  0.00     0.186 HD
HETATM   14  N8  UNL     1      -4.141  -2.594  -0.378  1.00  0.00    -0.141 N 
HETATM   15  C10 UNL     1      -2.941  -2.030  -0.150  1.00  0.00     0.344 A 
ATOM     16  H8  UNL     1      -4.233  -3.604  -0.483  1.00  0.00     0.189 HD
HETATM   17  O5  UNL     1      -1.966  -2.804  -0.075  1.00  0.00    -0.246 OA
BRANCH  10  18
HETATM   18  S1  UNL     1      -3.742   1.752   0.073  1.00  0.00     0.180 S 
HETATM   19  O1  UNL     1      -3.057   2.548   1.255  1.00  0.00    -0.227 OA
BRANCH  18  20
HETATM   20  N3  UNL     1      -3.390   2.483  -1.449  1.00  0.00    -0.343 N 
ATOM     21  H32 UNL     1      -3.832   1.969  -2.212  1.00  0.00     0.167 HD
ATOM     22  H31 UNL     1      -3.352   3.498  -1.352  1.00  0.00     0.167 HD
ENDBRANCH  18  20
ENDBRANCH  10  18
BRANCH  12  23
HETATM   23  N1  UNL     1      -6.354  -2.344  -0.683  1.00  0.00    -0.234 N 
ATOM     24  H12 UNL     1      -7.169  -1.735  -0.749  1.00  0.00     0.174 HD
ATOM     25  H11 UNL     1      -6.486  -3.349  -0.793  1.00  0.00     0.174 HD
ENDBRANCH  12  23
ENDBRANCH   1   9
BRANCH   8  26
HETATM   26  O4  UNL     1       0.086   0.551  -1.474  1.00  0.00    -0.392 OA
ATOM     27  H4  UNL     1       0.779   0.289  -2.068  1.00  0.00     0.210 HD
ENDBRANCH   8  26
BRANCH   6  28
HETATM   28  N6  UNL     1       2.455  -0.559   1.719  1.00  0.00    -0.313 N 
ATOM     29  H6  UNL     1       2.408  -1.460   2.195  1.00  0.00     0.172 HD
BRANCH  28  30
HETATM   30  S2  UNL     1       3.851   0.379   1.687  1.00  0.00     0.228 S 
HETATM   31  O2  UNL     1       4.885  -0.354   2.572  1.00  0.00    -0.206 OA
HETATM   32  O3  UNL     1       3.596   1.743   2.363  1.00  0.00    -0.206 OA
BRANCH  30  33
HETATM   33  C6  UNL     1       4.595   0.705   0.156  1.00  0.00     0.190 C 
BRANCH  33  34
HETATM   34  C7  UNL     1       3.799   1.440  -0.866  1.00  0.00     0.246 C 
BRANCH  34  35
HETATM   35  N7  UNL     1       4.664   1.660  -2.049  1.00  0.00    -0.078 N 
ATOM     36  H73 UNL     1       5.538   2.131  -1.816  1.00  0.00     0.274 HD
ATOM     37  H72 UNL     1       5.067   0.795  -2.410  1.00  0.00     0.274 HD
ATOM     38  H71 UNL     1       4.119   2.163  -2.749  1.00  0.00     0.274 HD
ENDBRANCH  34  35
ENDBRANCH  33  34
ENDBRANCH  30  33
ENDBRANCH  28  30
ENDBRANCH   6  28
TORSDOF 10
