REMARK  10 active torsions:
REMARK  status: ('A' for Active; 'I' for Inactive)
REMARK    1  A    between atoms: C2_3  and  N2_4 
REMARK    2  A    between atoms: N4_11  and  C4_12 
REMARK    3  A    between atoms: C4_12  and  C5_13 
REMARK    4  A    between atoms: C6_17  and  N7_18 
REMARK    5  A    between atoms: N8_21  and  C7_22 
REMARK    6  A    between atoms: C7_22  and  C8_23 
REMARK    7  A    between atoms: C10_27  and  C11_28 
REMARK    8  A    between atoms: C11_28  and  N9_29 
REMARK    9  A    between atoms: C12_33  and  O4_34 
REMARK   10  A    between atoms: C12_33  and  C13_36 
ROOT
HETATM    1  C13 UNL     1       0.262   1.984   1.312  1.00  0.00     0.164 C 
HETATM    2  C14 UNL     1      -0.620   1.578   2.369  1.00  0.00     0.062 C 
HETATM    3  N10 UNL     1      -1.330   1.275   3.228  1.00  0.00    -0.197 NA
ENDROOT
BRANCH   1   4
HETATM    4  C12 UNL     1       0.219   1.123   0.069  1.00  0.00     0.106 C 
HETATM    5  C5  UNL     1       0.606  -0.254   0.459  1.00  0.00     0.166 C 
HETATM    6  N5  UNL     1      -0.679  -0.900   0.797  1.00  0.00    -0.255 N 
HETATM    7  N6  UNL     1      -1.186  -1.906   1.441  1.00  0.00    -0.128 N 
HETATM    8  C9  UNL     1      -1.709  -0.218   0.250  1.00  0.00     0.127 A 
HETATM    9  C6  UNL     1      -2.518  -1.927   1.347  1.00  0.00     0.694 A 
ATOM     10  H6  UNL     1      -0.636  -2.595   1.955  1.00  0.00     0.206 HD
HETATM   11  N8  UNL     1      -2.847  -0.842   0.583  1.00  0.00    -0.159 N 
HETATM   12  C10 UNL     1      -1.133   0.939  -0.506  1.00  0.00     0.118 C 
BRANCH   5  13
HETATM   13  C4  UNL     1       1.399  -1.123  -0.417  1.00  0.00     0.185 C 
BRANCH  13  14
HETATM   14  N4  UNL     1       2.670  -0.724  -0.894  1.00  0.00    -0.224 N 
HETATM   15  N1  UNL     1       3.792  -0.737  -0.146  1.00  0.00    -0.122 N 
HETATM   16  C1  UNL     1       3.923  -1.186   1.231  1.00  0.00     0.198 C 
HETATM   17  C2  UNL     1       4.826  -0.264  -0.856  1.00  0.00     0.696 A 
HETATM   18  N3  UNL     1       4.353   0.049  -2.058  1.00  0.00    -0.139 N 
HETATM   19  C3  UNL     1       3.017  -0.235  -2.088  1.00  0.00     0.356 A 
ATOM     20  H3  UNL     1       4.897   0.436  -2.829  1.00  0.00     0.189 HD
HETATM   21  O1  UNL     1       2.357  -0.024  -3.136  1.00  0.00    -0.244 OA
BRANCH  17  22
HETATM   22  N2  UNL     1       6.050  -0.124  -0.483  1.00  0.00    -0.233 N 
ATOM     23  H22 UNL     1       6.413  -0.364   0.439  1.00  0.00     0.174 HD
ATOM     24  H21 UNL     1       6.837   0.236  -1.023  1.00  0.00     0.174 HD
ENDBRANCH  17  22
ENDBRANCH  13  14
ENDBRANCH   5  13
BRANCH   9  25
HETATM   25  N7  UNL     1      -3.361  -2.749   1.838  1.00  0.00    -0.233 N 
ATOM     26  H72 UNL     1      -3.116  -3.558   2.408  1.00  0.00     0.174 HD
ATOM     27  H71 UNL     1      -4.378  -2.765   1.766  1.00  0.00     0.174 HD
ENDBRANCH   9  25
BRANCH  11  28
HETATM   28  C7  UNL     1      -4.234  -0.501   0.237  1.00  0.00     0.262 C 
BRANCH  28  29
HETATM   29  C8  UNL     1      -4.584  -1.146  -1.045  1.00  0.00     0.192 C 
HETATM   30  O2  UNL     1      -5.736  -0.978  -1.522  1.00  0.00    -0.647 OA
HETATM   31  O3  UNL     1      -3.703  -1.938  -1.769  1.00  0.00    -0.647 OA
ENDBRANCH  28  29
ENDBRANCH  11  28
BRANCH  12  32
HETATM   32  C11 UNL     1      -2.080   2.049  -0.538  1.00  0.00     0.245 C 
BRANCH  32  33
HETATM   33  N9  UNL     1      -1.596   3.233  -1.241  1.00  0.00    -0.079 N 
ATOM     34  H93 UNL     1      -0.703   3.538  -0.852  1.00  0.00     0.274 HD
ATOM     35  H92 UNL     1      -1.301   2.990  -2.186  1.00  0.00     0.274 HD
ATOM     36  H91 UNL     1      -2.258   4.009  -1.263  1.00  0.00     0.274 HD
ENDBRANCH  32  33
ENDBRANCH  12  32
BRANCH   4  37
HETATM   37  O4  UNL     1       1.058   1.736  -0.828  1.00  0.00    -0.386 OA
ATOM     38  H4  UNL     1       0.810   2.618  -1.078  1.00  0.00     0.210 HD
ENDBRANCH   4  37
ENDBRANCH   1   4
TORSDOF 10
