REMARK  1 active torsions:
REMARK  status: ('A' for Active; 'I' for Inactive)
REMARK    1  A    between atoms: C5_7  and  O1_8 
ROOT
HETATM    1  C1  UNL     1       3.171  -0.017  -0.047  1.00  0.00     0.037 C 
HETATM    2  C2  UNL     1       1.966  -0.093   0.015  1.00  0.00    -0.001 C 
HETATM    3  N1  UNL     1       0.557  -0.204   0.094  1.00  0.00    -0.312 N 
HETATM    4  C3  UNL     1      -0.352  -1.140   0.720  1.00  0.00     0.160 C 
HETATM    5  C4  UNL     1      -1.420  -0.088   0.621  1.00  0.00     0.150 C 
HETATM    6 CL1  UNL     1      -2.941  -0.764  -0.028  1.00  0.00    -0.119 Cl
HETATM    7  C5  UNL     1      -0.540   0.565  -0.415  1.00  0.00     0.247 C 
ENDROOT
BRANCH   7   8
HETATM    8  O1  UNL     1      -0.362   1.934  -0.262  1.00  0.00    -0.374 OA
ATOM      9  H1  UNL     1      -1.089   2.444  -0.599  1.00  0.00     0.212 HD
ENDBRANCH   7   8
TORSDOF 1
