REMARK  2 active torsions:
REMARK  status: ('A' for Active; 'I' for Inactive)
REMARK    1  A    between atoms: C5_5  and  C6_6 
REMARK    2  A    between atoms: N1_7  and  N2_9 
ROOT
HETATM    1  C6  UNL     1       1.736  -1.208   0.471  1.00  0.00     0.086 C 
HETATM    2  N1  UNL     1       2.977  -0.882   0.437  1.00  0.00    -0.301 N 
ATOM      3  H1  UNL     1       3.651  -1.450   0.951  1.00  0.00     0.187 HD
ENDROOT
BRANCH   1   4
HETATM    4  C5  UNL     1       0.757  -0.414  -0.253  1.00  0.00     0.026 C 
HETATM    5  C4  UNL     1       0.288   0.811   0.520  1.00  0.00     0.010 C 
HETATM    6  C3  UNL     1      -0.782   1.302  -0.441  1.00  0.00     0.005 C 
HETATM    7  C2  UNL     1      -1.495   0.020  -0.793  1.00  0.00    -0.018 C 
HETATM    8  C1  UNL     1      -2.795  -0.068  -0.024  1.00  0.00     0.010 C 
HETATM    9  C7  UNL     1      -0.573  -1.115  -0.444  1.00  0.00     0.014 C 
ENDBRANCH   1   4
BRANCH   2  10
HETATM   10  N2  UNL     1       3.435   0.227  -0.282  1.00  0.00    -0.250 N 
HETATM   11  N3  UNL     1       4.080   1.133   0.337  1.00  0.00    -0.331 N 
ATOM     12  H32 UNL     1       4.251   1.037   1.338  1.00  0.00     0.178 HD
ATOM     13  H31 UNL     1       4.414   1.942  -0.187  1.00  0.00     0.178 HD
ATOM     14  H2  UNL     1       3.256   0.308  -1.283  1.00  0.00     0.207 HD
ENDBRANCH   2  10
TORSDOF 2
