REMARK  2 active torsions:
REMARK  status: ('A' for Active; 'I' for Inactive)
REMARK    1  A    between atoms: C2_2  and  C3_10 
REMARK    2  A    between atoms: N1_3  and  N2_5 
ROOT
HETATM    1  C1  UNL     1       1.330  -1.976   0.386  1.00  0.00     0.065 C 
HETATM    2  C2  UNL     1       1.039  -0.516   0.137  1.00  0.00     0.005 C 
HETATM    3  N1  UNL     1       1.984   0.283   0.413  1.00  0.00    -0.295 N 
ATOM      4  H1  UNL     1       2.835  -0.150   0.772  1.00  0.00     0.187 HD
ENDROOT
BRANCH   3   5
HETATM    5  N2  UNL     1       2.020   1.648   0.295  1.00  0.00    -0.249 N 
HETATM    6  N3  UNL     1       2.479   2.366   1.227  1.00  0.00    -0.331 N 
ATOM      7  H32 UNL     1       2.823   1.909   2.071  1.00  0.00     0.178 HD
ATOM      8  H31 UNL     1       2.506   3.382   1.139  1.00  0.00     0.178 HD
ATOM      9  H2  UNL     1       1.672   2.089  -0.556  1.00  0.00     0.207 HD
ENDBRANCH   3   5
BRANCH   2  10
HETATM   10  C3  UNL     1      -0.285  -0.200  -0.389  1.00  0.00     0.032 C 
HETATM   11  C4  UNL     1      -1.394  -0.673   0.564  1.00  0.00     0.010 C 
HETATM   12  C5  UNL     1      -2.191   0.532   0.045  1.00  0.00     0.001 C 
HETATM   13  C6  UNL     1      -0.817   1.196  -0.153  1.00  0.00     0.010 C 
ENDBRANCH   2  10
TORSDOF 2
