REMARK  4 active torsions:
REMARK  status: ('A' for Active; 'I' for Inactive)
REMARK    1  A    between atoms: C3_3  and  C4_4 
REMARK    2  A    between atoms: C5_5  and  C6_6 
REMARK    3  A    between atoms: C7_7  and  N1_8 
REMARK    4  A    between atoms: N1_8  and  C8_10 
ROOT
HETATM    1  C1  UNL     1       5.377   0.962  -0.696  1.00  0.00     0.013 C 
HETATM    2  C2  UNL     1       4.719  -0.017  -0.450  1.00  0.00    -0.105 C 
HETATM    3  C3  UNL     1       3.904  -1.201  -0.128  1.00  0.00     0.187 C 
ENDROOT
BRANCH   3   4
HETATM    4  C4  UNL     1       2.597  -0.802   0.415  1.00  0.00    -0.090 C 
HETATM    5  C5  UNL     1       1.522  -0.463   0.844  1.00  0.00    -0.076 C 
BRANCH   5   6
HETATM    6  C6  UNL     1       0.219  -0.039   1.341  1.00  0.00     0.081 C 
HETATM    7  C7  UNL     1      -0.862  -0.315   0.641  1.00  0.00     0.092 C 
BRANCH   7   8
HETATM    8  N1  UNL     1      -2.118   0.104   1.138  1.00  0.00    -0.394 N 
ATOM      9  H1  UNL     1      -2.301   0.006   2.137  1.00  0.00     0.159 HD
BRANCH   8  10
HETATM   10  C8  UNL     1      -3.156   0.665   0.300  1.00  0.00     0.081 A 
HETATM   11  C9  UNL     1      -3.643  -0.216  -0.787  1.00  0.00     0.027 A 
HETATM   12  C10 UNL     1      -2.856   0.970  -1.123  1.00  0.00     0.027 A 
ENDBRANCH   8  10
ENDBRANCH   7   8
ENDBRANCH   5   6
ENDBRANCH   3   4
TORSDOF 4
