REMARK  2 active torsions:
REMARK  status: ('A' for Active; 'I' for Inactive)
REMARK    1  A    between atoms: C2_2  and  C3_3 
REMARK    2  A    between atoms: C7_7  and  N1_8 
ROOT
HETATM    1  C3  UNL     1       1.126  -0.677  -0.730  1.00  0.00     0.039 C 
HETATM    2  C4  UNL     1       1.118   0.853  -0.769  1.00  0.00     0.017 C 
HETATM    3  C5  UNL     1      -0.326   0.745  -1.212  1.00  0.00     0.013 C 
HETATM    4  C6  UNL     1      -1.157   1.815  -0.612  1.00  0.00     0.012 C 
HETATM    5  C7  UNL     1      -0.392  -0.622  -0.619  1.00  0.00     0.196 C 
ENDROOT
BRANCH   5   6
HETATM    6  N1  UNL     1      -0.814  -0.757   0.729  1.00  0.00    -0.074 N 
HETATM    7  C8  UNL     1      -2.252  -0.718   0.878  1.00  0.00     0.267 C 
ATOM      8  H12 UNL     1      -0.427  -1.603   1.149  1.00  0.00     0.277 HD
ATOM      9  H11 UNL     1      -0.368  -0.057   1.322  1.00  0.00     0.277 HD
ENDBRANCH   5   6
BRANCH   1  10
HETATM   10  C2  UNL     1       1.839  -1.155   0.469  1.00  0.00    -0.030 C 
HETATM   11  C1  UNL     1       2.727  -0.399   1.081  1.00  0.00     0.007 C 
ENDBRANCH   1  10
TORSDOF 2
