REMARK  2 active torsions:
REMARK  status: ('A' for Active; 'I' for Inactive)
REMARK    1  A    between atoms: N1_2  and  C4_5 
REMARK    2  A    between atoms: C7_8  and  N2_9 
ROOT
HETATM    1  C4  UNL     1       0.371   0.320   0.180  1.00  0.00     0.219 C 
HETATM    2  C5  UNL     1       0.925  -0.485   1.365  1.00  0.00     0.037 C 
HETATM    3  C6  UNL     1       2.266  -0.442   0.649  1.00  0.00     0.037 C 
HETATM    4  C7  UNL     1       1.464  -0.217  -0.643  1.00  0.00     0.214 C 
ENDROOT
BRANCH   1   5
HETATM    5  N1  UNL     1      -0.969   0.014  -0.073  1.00  0.00    -0.072 N 
HETATM    6  C1  UNL     1      -1.665  -0.107   1.219  1.00  0.00     0.272 C 
HETATM    7  C2  UNL     1      -1.598   1.172  -0.727  1.00  0.00     0.272 C 
HETATM    8  C3  UNL     1      -1.276  -1.136  -0.835  1.00  0.00     0.272 C 
ENDBRANCH   1   5
BRANCH   4   9
HETATM    9  N2  UNL     1       2.209   0.739  -1.460  1.00  0.00    -0.073 N 
ATOM     10  H23 UNL     1       1.561   1.259  -2.052  1.00  0.00     0.274 HD
ATOM     11  H22 UNL     1       2.566   1.488  -0.867  1.00  0.00     0.274 HD
ATOM     12  H21 UNL     1       2.968   0.366  -2.031  1.00  0.00     0.274 HD
ENDBRANCH   4   9
TORSDOF 2
