REMARK  1 active torsions:
REMARK  status: ('A' for Active; 'I' for Inactive)
REMARK    1  A    between atoms: C1_2  and  N1_3 
ROOT
HETATM    1  N1  UNL     1       1.050  -0.366  -0.127  1.00  0.00    -0.359 N 
HETATM    2  C2  UNL     1       0.047  -1.285   0.302  1.00  0.00     0.125 C 
HETATM    3  C3  UNL     1      -1.350  -0.854  -0.012  1.00  0.00     0.020 C 
HETATM    4  C4  UNL     1      -1.613   0.593   0.303  1.00  0.00     0.003 C 
HETATM    5  C5  UNL     1      -0.487   1.507  -0.002  1.00  0.00     0.020 C 
HETATM    6  C6  UNL     1       0.649   0.887  -0.751  1.00  0.00     0.125 C 
ENDROOT
BRANCH   1   7
HETATM    7  C1  UNL     1       2.414  -0.700   0.065  1.00  0.00     0.350 C 
HETATM    8  O1  UNL     1       2.720  -1.773   0.598  1.00  0.00    -0.284 OA
ENDBRANCH   1   7
TORSDOF 1
