REMARK  3 active torsions:
REMARK  status: ('A' for Active; 'I' for Inactive)
REMARK    1  A    between atoms: O1_2  and  C2_3 
REMARK    2  A    between atoms: C8_13  and  C9_14 
REMARK    3  A    between atoms: C9_14  and  C10_15 
ROOT
HETATM    1  C2  UNL     1       3.542   0.394   0.318  1.00  0.00     0.104 A 
HETATM    2  C3  UNL     1       4.900   0.174   0.435  1.00  0.00     0.090 A 
HETATM    3 CL1  UNL     1       5.965   1.423   1.057  1.00  0.00    -0.080 Cl
HETATM    4  C4  UNL     1       5.428  -1.029   0.064  1.00  0.00     0.060 A 
HETATM    5 CL2  UNL     1       7.140  -1.347   0.194  1.00  0.00    -0.082 Cl
HETATM    6  C5  UNL     1       4.622  -2.035  -0.429  1.00  0.00     0.056 A 
HETATM    7  C6  UNL     1       3.259  -1.771  -0.531  1.00  0.00     0.047 A 
HETATM    8  N1  UNL     1       2.305  -2.591  -0.978  1.00  0.00    -0.365 N 
ATOM      9  H1  UNL     1       2.437  -3.544  -1.316  1.00  0.00     0.165 HD
HETATM   10  C7  UNL     1       1.143  -1.930  -0.901  1.00  0.00     0.096 A 
HETATM   11  C8  UNL     1       1.320  -0.661  -0.400  1.00  0.00    -0.027 A 
HETATM   12  C20 UNL     1       2.701  -0.574  -0.165  1.00  0.00     0.033 A 
ENDROOT
BRANCH  11  13
HETATM   13  C9  UNL     1       0.396   0.421  -0.109  1.00  0.00     0.051 C 
BRANCH  13  14
HETATM   14  C10 UNL     1      -1.029   0.064   0.156  1.00  0.00    -0.032 C 
HETATM   15  C11 UNL     1      -1.254  -0.855   1.307  1.00  0.00     0.015 C 
HETATM   16  C12 UNL     1      -2.680  -0.447   1.716  1.00  0.00    -0.013 C 
HETATM   17  C13 UNL     1      -2.396   1.049   1.925  1.00  0.00     0.010 C 
HETATM   18  C18 UNL     1      -3.612  -0.677   0.573  1.00  0.00     0.014 C 
HETATM   19  C14 UNL     1      -1.752   1.360   0.595  1.00  0.00    -0.005 C 
HETATM   20  C15 UNL     1      -2.893   1.543  -0.383  1.00  0.00     0.014 C 
HETATM   21  C16 UNL     1      -3.223   0.096  -0.656  1.00  0.00    -0.043 C 
HETATM   22  C17 UNL     1      -4.121  -0.115  -1.811  1.00  0.00     0.015 C 
HETATM   23  C19 UNL     1      -1.814  -0.415  -1.021  1.00  0.00     0.019 C 
ENDBRANCH  13  14
ENDBRANCH  11  13
BRANCH   1  24
HETATM   24  O1  UNL     1       3.075   1.637   0.712  1.00  0.00    -0.353 OA
HETATM   25  C1  UNL     1       3.022   2.737  -0.189  1.00  0.00     0.210 C 
ENDBRANCH   1  24
TORSDOF 3
