REMARK  10 active torsions:
REMARK  status: ('A' for Active; 'I' for Inactive)
REMARK    1  A    between atoms: C2_2  and  C3_3 
REMARK    2  A    between atoms: C3_3  and  C4_4 
REMARK    3  A    between atoms: C4_4  and  C5_5 
REMARK    4  A    between atoms: C5_5  and  C6_6 
REMARK    5  A    between atoms: C6_6  and  N1_7 
REMARK    6  A    between atoms: N1_7  and  C7_9 
REMARK    7  A    between atoms: C9_13  and  C10_14 
REMARK    8  A    between atoms: C10_14  and  N3_15 
REMARK    9  A    between atoms: C13_18  and  C14_19 
REMARK   10  A    between atoms: C16_23  and  N5_24 
ROOT
HETATM    1  C10 UNL     1      -1.452  -2.012  -0.209  1.00  0.00     0.320 C 
ENDROOT
BRANCH   1   2
HETATM    2  C9  UNL     1      -0.345  -0.994  -0.232  1.00  0.00     0.029 A 
HETATM    3  C8  UNL     1      -0.285   0.232  -0.840  1.00  0.00     0.106 A 
HETATM    4  N2  UNL     1       0.806   0.929  -0.700  1.00  0.00    -0.346 N 
HETATM    5  C7  UNL     1       1.803   0.414   0.024  1.00  0.00     0.144 A 
ATOM      6  H2  UNL     1       0.897   1.848  -1.134  1.00  0.00     0.167 HD
HETATM    7  S2  UNL     1       1.183  -1.094   0.522  1.00  0.00    -0.056 SA
BRANCH   5   8
HETATM    8  N1  UNL     1       2.975   0.965   0.276  1.00  0.00    -0.370 N 
ATOM      9  H1  UNL     1       3.227   1.885  -0.086  1.00  0.00     0.161 HD
BRANCH   8  10
HETATM   10  C6  UNL     1       3.885   0.188   1.097  1.00  0.00     0.121 C 
BRANCH  10  11
HETATM   11  C5  UNL     1       5.272   0.222   0.413  1.00  0.00     0.020 C 
BRANCH  11  12
HETATM   12  C4  UNL     1       5.082  -0.378  -0.928  1.00  0.00     0.002 C 
BRANCH  12  13
HETATM   13  C3  UNL     1       6.300  -0.513  -1.730  1.00  0.00    -0.000 C 
BRANCH  13  14
HETATM   14  C2  UNL     1       7.079   0.681  -2.090  1.00  0.00    -0.005 C 
HETATM   15  C1  UNL     1       7.706   1.459  -0.986  1.00  0.00     0.005 C 
ENDBRANCH  13  14
ENDBRANCH  12  13
ENDBRANCH  11  12
ENDBRANCH  10  11
ENDBRANCH   8  10
ENDBRANCH   5   8
ENDBRANCH   1   2
BRANCH   1  16
HETATM   16  N3  UNL     1      -2.073  -1.934   1.085  1.00  0.00     0.093 N 
HETATM   17  C11 UNL     1      -3.127  -2.878   1.251  1.00  0.00     0.273 C 
HETATM   18  C12 UNL     1      -4.381  -2.049   1.249  1.00  0.00     0.042 C 
HETATM   19  C13 UNL     1      -3.941  -0.776   1.942  1.00  0.00     0.057 C 
HETATM   20  C18 UNL     1      -2.549  -0.610   1.323  1.00  0.00     0.282 C 
BRANCH  19  21
HETATM   21  C14 UNL     1      -4.863   0.322   1.477  1.00  0.00     0.007 A 
HETATM   22  C15 UNL     1      -5.604   1.183   2.245  1.00  0.00     0.105 A 
HETATM   23  N4  UNL     1      -6.340   2.063   1.633  1.00  0.00    -0.346 N 
HETATM   24  C16 UNL     1      -6.336   2.084   0.300  1.00  0.00     0.144 A 
ATOM     25  H4  UNL     1      -6.909   2.724   2.162  1.00  0.00     0.167 HD
HETATM   26  S1  UNL     1      -5.262   0.822  -0.104  1.00  0.00    -0.057 SA
BRANCH  24  27
HETATM   27  N5  UNL     1      -7.008   2.892  -0.492  1.00  0.00    -0.375 N 
HETATM   28  C17 UNL     1      -6.816   2.692  -1.922  1.00  0.00     0.148 C 
ATOM     29  H5  UNL     1      -7.627   3.616  -0.126  1.00  0.00     0.161 HD
ENDBRANCH  24  27
ENDBRANCH  19  21
ENDBRANCH   1  16
TORSDOF 10
