REMARK  4 active torsions:
REMARK  status: ('A' for Active; 'I' for Inactive)
REMARK    1  A    between atoms: N1_1  and  C1_4 
REMARK    2  A    between atoms: C2_7  and  C3_8 
REMARK    3  A    between atoms: C3_8  and  C4_10 
REMARK       I    between atoms: C4_10  and  N3_12 
REMARK    4  A    between atoms: N3_12  and  N4_14 
ROOT
HETATM    1  C1  UNL     1      -2.120  -1.250  -0.267  1.00  0.00     0.681 A 
HETATM    2  N2  UNL     1      -0.855  -0.823  -0.148  1.00  0.00    -0.172 N 
ATOM      3  H2  UNL     1      -0.101  -1.396  -0.528  1.00  0.00     0.186 HD
HETATM    4  C2  UNL     1      -0.551   0.336   0.456  1.00  0.00     0.181 A 
HETATM    5  N5  UNL     1      -1.562   1.069   0.946  1.00  0.00    -0.290 N 
ATOM      6  H5  UNL     1      -1.361   1.955   1.410  1.00  0.00     0.172 HD
HETATM    7  C5  UNL     1      -2.843   0.652   0.834  1.00  0.00     0.340 A 
HETATM    8  O3  UNL     1      -3.784   1.350   1.298  1.00  0.00    -0.246 OA
HETATM    9  N6  UNL     1      -3.122  -0.513   0.224  1.00  0.00    -0.141 N 
ATOM     10  H6  UNL     1      -4.087  -0.831   0.137  1.00  0.00     0.189 HD
ENDROOT
BRANCH   4  11
HETATM   11  C3  UNL     1       0.822   0.814   0.593  1.00  0.00     0.285 C 
HETATM   12  O1  UNL     1       1.059   1.903   1.165  1.00  0.00    -0.278 OA
BRANCH  11  13
HETATM   13  C4  UNL     1       1.954   0.056   0.079  1.00  0.00     0.313 C 
HETATM   14  O2  UNL     1       1.745  -1.041  -0.500  1.00  0.00    -0.262 OA
HETATM   15  N3  UNL     1       3.276   0.516   0.211  1.00  0.00    -0.270 N 
ATOM     16  H3  UNL     1       3.417   1.408   0.685  1.00  0.00     0.189 HD
BRANCH  15  17
HETATM   17  N4  UNL     1       4.397  -0.141  -0.248  1.00  0.00    -0.342 N 
ATOM     18  H42 UNL     1       4.237  -1.031  -0.719  1.00  0.00     0.176 HD
ATOM     19  H41 UNL     1       5.356   0.193  -0.152  1.00  0.00     0.176 HD
ENDBRANCH  15  17
ENDBRANCH  11  13
ENDBRANCH   4  11
BRANCH   1  20
HETATM   20  N1  UNL     1      -2.405  -2.384  -0.859  1.00  0.00    -0.234 N 
ATOM     21  H12 UNL     1      -1.641  -2.946  -1.234  1.00  0.00     0.174 HD
ATOM     22  H11 UNL     1      -3.368  -2.709  -0.950  1.00  0.00     0.174 HD
ENDBRANCH   1  20
TORSDOF 4
