REMARK  6 active torsions:
REMARK  status: ('A' for Active; 'I' for Inactive)
REMARK    1  A    between atoms: C3_5  and  C4_6 
REMARK    2  A    between atoms: C3_5  and  N3_11 
REMARK    3  A    between atoms: C4_6  and  N2_7 
REMARK    4  A    between atoms: N3_11  and  C5_13 
REMARK    5  A    between atoms: C5_13  and  N4_15 
REMARK    6  A    between atoms: N4_15  and  N5_17 
ROOT
HETATM    1  C1  UNL     1      -3.530   1.599  -1.136  1.00  0.00     0.037 C 
HETATM    2  C2  UNL     1      -2.408   1.368  -0.720  1.00  0.00     0.000 C 
HETATM    3  N1  UNL     1      -1.121   1.129  -0.242  1.00  0.00    -0.304 N 
ATOM      4  H1  UNL     1      -0.506   1.919  -0.048  1.00  0.00     0.177 HD
HETATM    5  C3  UNL     1      -0.692  -0.066  -0.040  1.00  0.00     0.116 C 
ENDROOT
BRANCH   5   6
HETATM    6  C4  UNL     1      -1.617  -1.191  -0.335  1.00  0.00     0.306 C 
BRANCH   6   7
HETATM    7  N2  UNL     1      -1.858  -1.959   0.860  1.00  0.00    -0.073 N 
ATOM      8  H23 UNL     1      -0.990  -2.281   1.289  1.00  0.00     0.274 HD
ATOM      9  H22 UNL     1      -2.197  -1.377   1.626  1.00  0.00     0.274 HD
ATOM     10  H21 UNL     1      -2.493  -2.731   0.658  1.00  0.00     0.274 HD
ENDBRANCH   6   7
ENDBRANCH   5   6
BRANCH   5  11
HETATM   11  N3  UNL     1       0.638  -0.302   0.455  1.00  0.00    -0.320 N 
ATOM     12  H3  UNL     1       0.780  -1.020   1.166  1.00  0.00     0.169 HD
BRANCH  11  13
HETATM   13  C5  UNL     1       1.758   0.430  -0.012  1.00  0.00     0.191 C 
HETATM   14  S1  UNL     1       1.485   1.567  -1.147  1.00  0.00    -0.039 SA
BRANCH  13  15
HETATM   15  N4  UNL     1       3.043   0.190   0.479  1.00  0.00    -0.283 N 
ATOM     16  H4  UNL     1       3.179  -0.528   1.190  1.00  0.00     0.188 HD
BRANCH  15  17
HETATM   17  N5  UNL     1       4.135   0.905   0.022  1.00  0.00    -0.343 N 
ATOM     18  H52 UNL     1       3.981   1.620  -0.689  1.00  0.00     0.176 HD
ATOM     19  H51 UNL     1       5.074   0.730   0.381  1.00  0.00     0.176 HD
ENDBRANCH  15  17
ENDBRANCH  13  15
ENDBRANCH  11  13
ENDBRANCH   5  11
TORSDOF 6
