REMARK  3 active torsions:
REMARK  status: ('A' for Active; 'I' for Inactive)
REMARK    1  A    between atoms: C12_13  and  O2_14 
REMARK    2  A    between atoms: C16_19  and  O3_20 
REMARK    3  A    between atoms: C19_25  and  O5_26 
ROOT
HETATM    1  C1  UNL     1       3.257   0.905   1.349  1.00  0.00     0.018 C 
HETATM    2  C2  UNL     1       2.513   0.054   0.306  1.00  0.00    -0.012 C 
HETATM    3  C3  UNL     1       2.040  -1.164   1.013  1.00  0.00     0.012 C 
HETATM    4  C4  UNL     1       0.626  -0.775   1.478  1.00  0.00     0.009 C 
HETATM    5  C5  UNL     1      -0.248  -1.011   0.223  1.00  0.00     0.033 C 
HETATM    6  C6  UNL     1      -1.612  -1.177   0.707  1.00  0.00     0.012 C 
HETATM    7  C7  UNL     1      -1.723  -2.591   1.335  1.00  0.00     0.020 C 
HETATM    8  C8  UNL     1      -2.000  -0.271   1.876  1.00  0.00     0.181 C 
HETATM    9  O1  UNL     1      -2.412   0.964   1.521  1.00  0.00    -0.374 OA
HETATM   10  C9  UNL     1      -2.601   1.250   0.229  1.00  0.00     0.111 C 
HETATM   11  C10 UNL     1      -1.472   1.851  -0.507  1.00  0.00     0.046 C 
HETATM   12  C11 UNL     1      -0.734   0.912  -1.389  1.00  0.00     0.042 C 
HETATM   13  C12 UNL     1       0.201  -0.041  -0.745  1.00  0.00     0.067 C 
HETATM   14  C13 UNL     1       1.408   0.816  -0.310  1.00  0.00     0.031 C 
HETATM   15  C14 UNL     1       2.055   1.447  -1.525  1.00  0.00     0.011 C 
HETATM   16  C15 UNL     1       3.565   1.205  -1.384  1.00  0.00     0.033 C 
HETATM   17  C16 UNL     1       3.518  -0.214  -0.791  1.00  0.00     0.126 C 
HETATM   18  C17 UNL     1      -3.963   1.900  -0.008  1.00  0.00     0.209 C 
HETATM   19  O4  UNL     1      -4.484   0.593   0.003  1.00  0.00    -0.377 OA
HETATM   20  C18 UNL     1      -3.265   0.202  -0.607  1.00  0.00     0.187 C 
HETATM   21  C19 UNL     1      -2.759  -1.160  -0.243  1.00  0.00     0.161 C 
ENDROOT
BRANCH  13  22
HETATM   22  O2  UNL     1       0.771  -0.717  -1.873  1.00  0.00    -0.389 OA
ATOM     23  H2  UNL     1       1.067  -0.078  -2.511  1.00  0.00     0.210 HD
ENDBRANCH  13  22
BRANCH  21  24
HETATM   24  O5  UNL     1      -2.583  -2.014  -1.337  1.00  0.00    -0.392 OA
ATOM     25  H5  UNL     1      -3.315  -2.003  -1.943  1.00  0.00     0.210 HD
ENDBRANCH  21  24
BRANCH  17  26
HETATM   26  O3  UNL     1       4.745  -0.587  -0.283  1.00  0.00    -0.395 OA
ATOM     27  H3  UNL     1       5.377  -0.755  -0.972  1.00  0.00     0.210 HD
ENDBRANCH  17  26
TORSDOF 3
