REMARK  4 active torsions:
REMARK  status: ('A' for Active; 'I' for Inactive)
REMARK    1  A    between atoms: C3_3  and  O1_4 
REMARK    2  A    between atoms: C4_6  and  O2_7 
REMARK    3  A    between atoms: C4_6  and  C5_9 
REMARK    4  A    between atoms: C17_23  and  O5_24 
ROOT
HETATM    1  C1  UNL     1      -0.303  -0.126   2.669  1.00  0.00     0.014 C 
HETATM    2  C2  UNL     1       0.135  -0.256   1.201  1.00  0.00     0.025 C 
HETATM    3  C3  UNL     1       1.580   0.021   1.157  1.00  0.00     0.157 C 
HETATM    4  C4  UNL     1       2.322  -0.750   0.055  1.00  0.00     0.087 C 
HETATM    5  C8  UNL     1       2.010  -0.008  -1.229  1.00  0.00     0.041 C 
HETATM    6  C9  UNL     1       0.546  -0.325  -1.543  1.00  0.00     0.009 C 
HETATM    7  C10 UNL     1      -0.366   0.741  -1.044  1.00  0.00     0.005 C 
HETATM    8  C11 UNL     1      -1.786   0.471  -1.466  1.00  0.00     0.029 C 
HETATM    9  C12 UNL     1      -2.057  -0.747  -2.263  1.00  0.00     0.009 C 
HETATM   10  C13 UNL     1      -3.065  -1.490  -1.407  1.00  0.00     0.008 C 
HETATM   11  C14 UNL     1      -2.435  -1.289  -0.019  1.00  0.00     0.020 C 
HETATM   12  C15 UNL     1      -3.570  -1.603   0.966  1.00  0.00     0.013 C 
HETATM   13  C16 UNL     1      -2.078   0.118  -0.018  1.00  0.00     0.112 C 
HETATM   14  O3  UNL     1      -3.137   0.915   0.479  1.00  0.00    -0.225 OA
HETATM   15  O4  UNL     1      -3.075   2.076  -0.136  1.00  0.00    -0.207 OA
HETATM   16  C17 UNL     1      -2.045   2.790   0.420  1.00  0.00     0.294 C 
HETATM   17  C18 UNL     1      -1.024   1.940   1.120  1.00  0.00     0.077 C 
HETATM   18  C19 UNL     1      -0.755   0.618   0.398  1.00  0.00     0.009 C 
ENDROOT
BRANCH   4  19
HETATM   19  O2  UNL     1       1.877  -2.042  -0.065  1.00  0.00    -0.387 OA
ATOM     20  H2  UNL     1       2.336  -2.519  -0.747  1.00  0.00     0.210 HD
ENDBRANCH   4  19
BRANCH   4  21
HETATM   21  C5  UNL     1       3.794  -0.651   0.407  1.00  0.00     0.022 A 
HETATM   22  C6  UNL     1       4.710  -1.361  -0.577  1.00  0.00     0.008 A 
HETATM   23  C7  UNL     1       4.724   0.121  -0.445  1.00  0.00     0.008 A 
ENDBRANCH   4  21
BRANCH   3  24
HETATM   24  O1  UNL     1       1.976   1.319   1.061  1.00  0.00    -0.392 OA
ATOM     25  H1  UNL     1       2.909   1.498   1.033  1.00  0.00     0.210 HD
ENDBRANCH   3  24
BRANCH  16  26
HETATM   26  O5  UNL     1      -1.454   3.706  -0.466  1.00  0.00    -0.368 OA
ATOM     27  H5  UNL     1      -0.740   4.201  -0.081  1.00  0.00     0.212 HD
ENDBRANCH  16  26
TORSDOF 4
