REMARK  1 active torsions:
REMARK  status: ('A' for Active; 'I' for Inactive)
REMARK    1  A    between atoms: C2_3  and  N2_4 
ROOT
HETATM    1  N1  UNL     1      -4.983   0.151   0.139  1.00  0.00    -0.196 NA
HETATM    2  C1  UNL     1      -3.880  -0.215   0.168  1.00  0.00     0.079 C 
HETATM    3  C2  UNL     1      -2.475  -0.666   0.227  1.00  0.00     0.262 C 
ENDROOT
BRANCH   3   4
HETATM    4  N2  UNL     1      -1.641   0.338  -0.373  1.00  0.00    -0.212 N 
HETATM    5  C3  UNL     1      -0.375   0.328  -0.331  1.00  0.00     0.708 C 
HETATM    6  N3  UNL     1       0.280   1.411  -0.985  1.00  0.00    -0.130 N 
HETATM    7  N7  UNL     1       0.252  -0.763   0.363  1.00  0.00    -0.021 N 
HETATM    8  N4  UNL     1       1.646   1.708  -0.937  1.00  0.00    -0.261 N 
ATOM      9  H3  UNL     1      -0.305   2.032  -1.544  1.00  0.00     0.205 HD
HETATM   10  C4  UNL     1       2.758   1.010  -0.383  1.00  0.00     0.208 C 
ATOM     11  H4  UNL     1       1.893   2.591  -1.383  1.00  0.00     0.190 HD
HETATM   12 CL1  UNL     1       4.361   1.728  -0.637  1.00  0.00    -0.043 Cl
HETATM   13  N5  UNL     1       2.711  -0.090   0.283  1.00  0.00    -0.164 N 
HETATM   14  C5  UNL     1       1.631  -0.928   0.670  1.00  0.00     0.692 C 
ATOM     15  H5  UNL     1       3.624  -0.424   0.592  1.00  0.00     0.186 HD
HETATM   16  N6  UNL     1       1.909  -1.967   1.384  1.00  0.00    -0.234 N 
ATOM     17  H62 UNL     1       2.898  -2.085   1.604  1.00  0.00     0.174 HD
ATOM     18  H61 UNL     1       1.134  -2.569   1.662  1.00  0.00     0.174 HD
ATOM     19  H7  UNL     1      -0.368  -1.511   0.674  1.00  0.00     0.203 HD
ATOM     20  H2  UNL     1      -2.097   1.107  -0.864  1.00  0.00     0.178 HD
ENDBRANCH   3   4
TORSDOF 1
