REMARK  1 active torsions:
REMARK  status: ('A' for Active; 'I' for Inactive)
REMARK    1  A    between atoms: N1_3  and  C5_6 
ROOT
HETATM    1  C1  UNL     1      -1.328   2.277  -0.429  1.00  0.00     0.044 C 
HETATM    2  C2  UNL     1      -1.010   1.136  -0.141  1.00  0.00     0.105 C 
HETATM    3  N1  UNL     1      -0.660  -0.180   0.202  1.00  0.00    -0.003 N 
HETATM    4  C3  UNL     1      -0.877  -0.383   1.612  1.00  0.00     0.290 C 
HETATM    5  C4  UNL     1      -1.656  -1.043  -0.461  1.00  0.00     0.290 C 
ENDROOT
BRANCH   3   6
HETATM    6  C5  UNL     1       0.617  -0.555  -0.274  1.00  0.00     0.255 A 
HETATM    7  C6  UNL     1       1.824  -0.258   0.537  1.00  0.00     0.268 A 
HETATM    8  N2  UNL     1       2.410   0.577  -0.482  1.00  0.00    -0.071 N 
HETATM    9  C7  UNL     1       1.267   0.269  -1.324  1.00  0.00     0.268 A 
ATOM     10  H22 UNL     1       2.666   1.544  -0.282  1.00  0.00     0.277 HD
ATOM     11  H21 UNL     1       3.361   0.411  -0.811  1.00  0.00     0.277 HD
ENDBRANCH   3   6
TORSDOF 1
