REMARK  2 active torsions:
REMARK  status: ('A' for Active; 'I' for Inactive)
REMARK    1  A    between atoms: C2_2  and  N1_3 
REMARK    2  A    between atoms: N1_3  and  C5_6 
ROOT
HETATM    1  C5  UNL     1       1.047  -0.486  -0.514  1.00  0.00     0.254 A 
HETATM    2  C6  UNL     1       1.789   0.700  -0.997  1.00  0.00     0.252 A 
HETATM    3  N2  UNL     1       2.670   1.444  -0.105  1.00  0.00    -0.058 N 
ATOM      4  H21 UNL     1       2.641   2.339   0.383  1.00  0.00     0.278 HD
ATOM      5  H22 UNL     1       3.556   1.942  -0.190  1.00  0.00     0.278 HD
HETATM    6  C7  UNL     1       2.259   0.098   0.172  1.00  0.00     0.252 A 
ENDROOT
BRANCH   1   7
HETATM    7  N1  UNL     1      -0.239  -0.391   0.110  1.00  0.00    -0.067 N 
HETATM    8  C3  UNL     1      -1.125  -1.446  -0.405  1.00  0.00     0.272 C 
HETATM    9  C4  UNL     1      -0.167  -0.597   1.543  1.00  0.00     0.272 C 
BRANCH   7  10
HETATM   10  C2  UNL     1      -0.799   0.920  -0.111  1.00  0.00     0.232 C 
HETATM   11  C1  UNL     1      -2.317   0.912  -0.101  1.00  0.00     0.035 C 
ENDBRANCH   7  10
ENDBRANCH   1   7
TORSDOF 2
