REMARK  8 active torsions:
REMARK  status: ('A' for Active; 'I' for Inactive)
REMARK    1  A    between atoms: C2_2  and  C3_3 
REMARK    2  A    between atoms: C3_3  and  C4_4 
REMARK    3  A    between atoms: C4_4  and  C5_5 
REMARK    4  A    between atoms: C4_4  and  C11_15 
REMARK       I    between atoms: N2_9  and  C8_10 
REMARK       I    between atoms: C11_15  and  N4_17 
REMARK    5  A    between atoms: C16_22  and  C17_23 
REMARK       I    between atoms: C17_23  and  N5_25 
REMARK    6  A    between atoms: N5_25  and  C18_27 
REMARK    7  A    between atoms: C18_27  and  C19_28 
REMARK    8  A    between atoms: C19_28  and  N6_29 
ROOT
HETATM    1  C11 UNL     1       0.002  -1.619   0.104  1.00  0.00     0.230 C 
HETATM    2  O2  UNL     1       0.580  -1.803   1.197  1.00  0.00    -0.273 OA
HETATM    3  N4  UNL     1       0.710  -1.378  -1.063  1.00  0.00    -0.338 N 
HETATM    4  C12 UNL     1       0.120  -1.254  -2.412  1.00  0.00     0.127 C 
HETATM    5  C13 UNL     1       1.027  -2.105  -3.295  1.00  0.00     0.020 C 
HETATM    6  C14 UNL     1       1.746  -3.192  -2.527  1.00  0.00     0.004 C 
HETATM    7  C15 UNL     1       2.628  -2.658  -1.405  1.00  0.00     0.035 C 
HETATM    8  C16 UNL     1       2.135  -1.252  -1.095  1.00  0.00     0.179 C 
ENDROOT
BRANCH   1   9
HETATM    9  C4  UNL     1      -1.519  -1.683   0.194  1.00  0.00     0.119 C 
BRANCH   9  10
HETATM   10  C3  UNL     1      -1.919  -2.504   1.355  1.00  0.00     0.045 C 
BRANCH  10  11
HETATM   11  C2  UNL     1      -3.305  -2.977   1.452  1.00  0.00    -0.036 C 
HETATM   12  C1  UNL     1      -4.129  -3.193   0.421  1.00  0.00     0.007 C 
ENDBRANCH  10  11
ENDBRANCH   9  10
BRANCH   9  13
HETATM   13  C5  UNL     1      -1.986  -0.306   0.009  1.00  0.00     0.072 C 
HETATM   14  N1  UNL     1      -3.300   0.061  -0.017  1.00  0.00    -0.389 N 
HETATM   15  C6  UNL     1      -4.058   0.282   1.156  1.00  0.00     0.141 C 
HETATM   16  C10 UNL     1      -3.839   0.621  -1.218  1.00  0.00     0.141 C 
HETATM   17  C7  UNL     1      -4.430   1.746   1.355  1.00  0.00     0.147 C 
HETATM   18  N2  UNL     1      -4.751   2.433   0.146  1.00  0.00    -0.333 N 
HETATM   19  C8  UNL     1      -5.678   3.506   0.202  1.00  0.00     0.330 C 
HETATM   20  C9  UNL     1      -4.171   2.076  -1.113  1.00  0.00     0.147 C 
HETATM   21  N3  UNL     1      -6.018   4.214  -0.985  1.00  0.00    -0.040 NA
HETATM   22  O1  UNL     1      -6.217   3.851   1.310  1.00  0.00    -0.251 OA
ENDBRANCH   9  13
ENDBRANCH   1   9
BRANCH   8  23
HETATM   23  C17 UNL     1       2.784  -0.550  -0.016  1.00  0.00     0.240 C 
HETATM   24  O3  UNL     1       2.111   0.324   0.631  1.00  0.00    -0.271 OA
HETATM   25  N5  UNL     1       4.123  -0.764   0.382  1.00  0.00    -0.358 N 
ATOM     26  H5  UNL     1       4.659  -1.466  -0.128  1.00  0.00     0.162 HD
BRANCH  25  27
HETATM   27  C18 UNL     1       4.778  -0.081   1.432  1.00  0.00     0.142 C 
BRANCH  27  28
HETATM   28  C19 UNL     1       4.867   1.398   1.158  1.00  0.00     0.141 C 
BRANCH  28  29
HETATM   29  N6  UNL     1       5.564   2.074   2.268  1.00  0.00    -0.365 N 
HETATM   30  C20 UNL     1       6.630   2.779   2.056  1.00  0.00     0.197 C 
HETATM   31  N7  UNL     1       7.109   2.881   0.725  1.00  0.00    -0.067 NA
HETATM   32  N8  UNL     1       7.325   3.440   3.080  1.00  0.00    -0.067 NA
ATOM     33  H6  UNL     1       5.201   1.985   3.217  1.00  0.00     0.161 HD
ENDBRANCH  28  29
ENDBRANCH  27  28
ENDBRANCH  25  27
ENDBRANCH   8  23
TORSDOF 8
