REMARK  1 active torsions:
REMARK  status: ('A' for Active; 'I' for Inactive)
REMARK    1  A    between atoms: C2_2  and  N1_3 
ROOT
HETATM    1  N1  UNL     1       0.070  -0.153   0.206  1.00  0.00     0.012 N 
HETATM    2  C3  UNL     1      -0.549   0.157   1.474  1.00  0.00     0.262 C 
HETATM    3  C4  UNL     1      -1.897   0.696   0.948  1.00  0.00     0.054 C 
HETATM    4  C5  UNL     1      -1.646   0.402  -0.513  1.00  0.00     0.136 C 
HETATM    5  C6  UNL     1      -0.985  -0.956  -0.437  1.00  0.00     0.283 C 
HETATM    6  N2  UNL     1      -0.300   0.864  -0.690  1.00  0.00    -0.040 NA
ENDROOT
BRANCH   1   7
HETATM    7  C2  UNL     1       1.370  -0.647   0.172  1.00  0.00     0.256 C 
HETATM    8  C1  UNL     1       2.431   0.312  -0.300  1.00  0.00     0.036 C 
ENDBRANCH   1   7
TORSDOF 1
