REMARK  0 active torsions:
REMARK  status: ('A' for Active; 'I' for Inactive)
ROOT
HETATM    1  C1  UNL     1       1.927   0.246  -0.318  1.00  0.00     0.081 C 
HETATM    2  S1  UNL     1       0.302  -0.389  -0.647  1.00  0.00    -0.173 SA
HETATM    3  C2  UNL     1      -1.056   0.721  -0.417  1.00  0.00     0.298 C 
HETATM    4  N1  UNL     1      -1.817  -0.396   0.169  1.00  0.00    -0.060 N 
ATOM      5  H11 UNL     1      -2.302  -1.072  -0.421  1.00  0.00     0.278 HD
ATOM      6  H12 UNL     1      -2.695  -0.236   0.663  1.00  0.00     0.278 HD
HETATM    7  C3  UNL     1      -0.613  -0.751   0.879  1.00  0.00     0.298 C 
ENDROOT
TORSDOF 0
