REMARK  8 active torsions:
REMARK  status: ('A' for Active; 'I' for Inactive)
REMARK    1  A    between atoms: C1_2  and  C2_4 
REMARK    2  A    between atoms: C4_8  and  C5_9 
REMARK    3  A    between atoms: C5_9  and  O4_11 
REMARK    4  A    between atoms: O4_11  and  C6_12 
REMARK    5  A    between atoms: C6_12  and  C7_13 
REMARK    6  A    between atoms: C7_13  and  C8_14 
REMARK    7  A    between atoms: C8_14  and  C9_15 
REMARK    8  A    between atoms: C9_15  and  C10_16 
ROOT
HETATM    1  C6  UNL     1       1.250   0.150   0.097  1.00  0.00     0.179 C 
ENDROOT
BRANCH   1   2
HETATM    2  O4  UNL     1       2.542   0.232   0.361  1.00  0.00    -0.317 OA
BRANCH   2   3
HETATM    3  C5  UNL     1       3.544   0.079   1.232  1.00  0.00     0.305 C 
HETATM    4  O3  UNL     1       3.242  -0.280   2.391  1.00  0.00    -0.258 OA
BRANCH   3   5
HETATM    5  C4  UNL     1       4.938   0.328   0.870  1.00  0.00     0.082 C 
HETATM    6  N1  UNL     1       5.381   1.685   0.925  1.00  0.00    -0.387 N 
HETATM    7  C3  UNL     1       6.789   1.626   0.552  1.00  0.00     0.135 C 
ATOM      8  H1  UNL     1       4.834   2.511   1.170  1.00  0.00     0.159 HD
HETATM    9  C2  UNL     1       7.115   0.193   0.189  1.00  0.00     0.110 C 
HETATM   10  C18 UNL     1       5.689  -0.321  -0.209  1.00  0.00     0.080 C 
BRANCH   9  11
HETATM   11  C1  UNL     1       8.093   0.011  -0.840  1.00  0.00     0.178 C 
HETATM   12  O1  UNL     1       8.572   1.151  -1.304  1.00  0.00    -0.648 OA
HETATM   13  O2  UNL     1       8.560  -1.148  -1.364  1.00  0.00    -0.648 OA
ENDBRANCH   9  11
ENDBRANCH   3   5
ENDBRANCH   2   3
ENDBRANCH   1   2
BRANCH   1  14
HETATM   14  C7  UNL     1       0.724  -1.204  -0.393  1.00  0.00     0.027 C 
BRANCH  14  15
HETATM   15  C8  UNL     1      -0.650  -1.184  -0.878  1.00  0.00     0.004 C 
BRANCH  15  16
HETATM   16  C9  UNL     1      -1.851  -1.124  -0.005  1.00  0.00     0.032 C 
BRANCH  16  17
HETATM   17  C10 UNL     1      -3.069  -0.894  -0.927  1.00  0.00     0.122 C 
HETATM   18  C11 UNL     1      -2.939   0.511  -1.495  1.00  0.00     0.035 C 
HETATM   19  C12 UNL     1      -4.031   1.173  -0.606  1.00  0.00     0.040 C 
HETATM   20  C13 UNL     1      -4.999   0.053  -0.443  1.00  0.00     0.061 C 
HETATM   21  C14 UNL     1      -5.639   0.066   0.924  1.00  0.00     0.038 C 
HETATM   22  C17 UNL     1      -6.095   0.093  -1.445  1.00  0.00     0.038 C 
HETATM   23  O5  UNL     1      -4.266  -1.143  -0.480  1.00  0.00    -0.375 OA
HETATM   24  C15 UNL     1      -7.099   0.340   0.679  1.00  0.00     0.003 C 
HETATM   25  C16 UNL     1      -7.354  -0.249  -0.691  1.00  0.00     0.003 C 
ENDBRANCH  16  17
ENDBRANCH  15  16
ENDBRANCH  14  15
ENDBRANCH   1  14
TORSDOF 8
