REMARK  14 active torsions:
REMARK  status: ('A' for Active; 'I' for Inactive)
REMARK    1  A    between atoms: C2_4  and  C3_5 
REMARK    2  A    between atoms: C3_5  and  C4_6 
REMARK    3  A    between atoms: C4_6  and  C5_7 
REMARK    4  A    between atoms: C5_7  and  C6_8 
REMARK    5  A    between atoms: C6_8  and  C7_9 
REMARK    6  A    between atoms: C7_9  and  C8_10 
REMARK    7  A    between atoms: C8_10  and  C9_11 
REMARK    8  A    between atoms: C9_11  and  C10_12 
REMARK    9  A    between atoms: C10_12  and  C11_13 
REMARK   10  A    between atoms: C11_13  and  C12_14 
REMARK   11  A    between atoms: C12_14  and  C13_15 
REMARK   12  A    between atoms: C13_15  and  C14_16 
REMARK   13  A    between atoms: C14_16  and  C15_17 
REMARK   14  A    between atoms: C15_17  and  C16_18 
ROOT
HETATM    1  C7  UNL     1       2.388   0.685  -1.338  1.00  0.00     0.000 C 
ENDROOT
BRANCH   1   2
HETATM    2  C6  UNL     1       3.160  -0.476  -0.757  1.00  0.00     0.000 C 
BRANCH   2   3
HETATM    3  C5  UNL     1       4.638  -0.072  -0.820  1.00  0.00     0.000 C 
BRANCH   3   4
HETATM    4  C4  UNL     1       5.510  -1.154  -0.267  1.00  0.00     0.007 C 
BRANCH   4   5
HETATM    5  C3  UNL     1       6.951  -0.704  -0.356  1.00  0.00     0.078 C 
BRANCH   5   6
HETATM    6  C2  UNL     1       7.195   0.537   0.411  1.00  0.00     0.096 A 
HETATM    7  N1  UNL     1       7.096   1.794  -0.042  1.00  0.00    -0.340 N 
HETATM    8  C1  UNL     1       7.391   2.651   0.940  1.00  0.00     0.198 A 
ATOM      9  H1  UNL     1       6.835   2.057  -0.992  1.00  0.00     0.168 HD
HETATM   10  N3  UNL     1       7.678   1.903   2.021  1.00  0.00    -0.295 N 
HETATM   11  N2  UNL     1       7.563   0.639   1.711  1.00  0.00    -0.288 N 
ATOM     12  H3  UNL     1       7.943   2.265   2.937  1.00  0.00     0.187 HD
ATOM     13  H2  UNL     1       7.724  -0.144   2.345  1.00  0.00     0.188 HD
ENDBRANCH   5   6
ENDBRANCH   4   5
ENDBRANCH   3   4
ENDBRANCH   2   3
ENDBRANCH   1   2
BRANCH   1  14
HETATM   14  C8  UNL     1       0.896   0.439  -1.353  1.00  0.00     0.000 C 
BRANCH  14  15
HETATM   15  C9  UNL     1       0.351   0.214   0.017  1.00  0.00     0.000 C 
BRANCH  15  16
HETATM   16  C10 UNL     1      -1.127  -0.027   0.044  1.00  0.00     0.000 C 
BRANCH  16  17
HETATM   17  C11 UNL     1      -1.484  -1.231  -0.758  1.00  0.00     0.000 C 
BRANCH  17  18
HETATM   18  C12 UNL     1      -2.961  -1.547  -0.785  1.00  0.00     0.000 C 
BRANCH  18  19
HETATM   19  C13 UNL     1      -3.527  -1.813   0.589  1.00  0.00     0.000 C 
BRANCH  19  20
HETATM   20  C14 UNL     1      -4.970  -2.118   0.601  1.00  0.00     0.000 C 
BRANCH  20  21
HETATM   21  C15 UNL     1      -5.927  -1.097   0.135  1.00  0.00     0.004 C 
BRANCH  21  22
HETATM   22  C16 UNL     1      -6.016   0.171   0.889  1.00  0.00    -0.014 C 
HETATM   23  C17 UNL     1      -4.814   1.059   1.016  1.00  0.00     0.004 C 
HETATM   24  C18 UNL     1      -5.815   2.241   0.961  1.00  0.00     0.001 C 
HETATM   25  C19 UNL     1      -6.647   1.306   0.060  1.00  0.00     0.004 C 
ENDBRANCH  21  22
ENDBRANCH  20  21
ENDBRANCH  19  20
ENDBRANCH  18  19
ENDBRANCH  17  18
ENDBRANCH  16  17
ENDBRANCH  15  16
ENDBRANCH  14  15
ENDBRANCH   1  14
TORSDOF 14
