REMARK  11 active torsions:
REMARK  status: ('A' for Active; 'I' for Inactive)
REMARK    1  A    between atoms: C2_2  and  C3_3 
REMARK    2  A    between atoms: C6_7  and  O2_8 
REMARK    3  A    between atoms: O2_8  and  C7_9 
REMARK    4  A    between atoms: C8_11  and  C9_12 
REMARK    5  A    between atoms: C9_12  and  N1_13 
REMARK    6  A    between atoms: C12_19  and  N2_20 
REMARK    7  A    between atoms: C13_24  and  O4_25 
REMARK    8  A    between atoms: O4_25  and  C14_26 
REMARK    9  A    between atoms: C15_27  and  N3_28 
REMARK   10  A    between atoms: C17_33  and  N4_34 
REMARK   11  A    between atoms: C20_40  and  N5_41 
ROOT
HETATM    1  C3  UNL     1       0.942   2.523  -1.829  1.00  0.00     0.157 C 
HETATM    2  O1  UNL     1       1.689   1.799  -2.756  1.00  0.00    -0.351 OA
HETATM    3  C4  UNL     1       0.830   0.956  -3.441  1.00  0.00     0.324 C 
HETATM    4  C5  UNL     1       0.905  -0.422  -2.762  1.00  0.00     0.096 C 
HETATM    5  C6  UNL     1       0.949  -0.110  -1.247  1.00  0.00     0.160 C 
HETATM    6  C13 UNL     1      -0.280   0.655  -0.846  1.00  0.00     0.184 C 
HETATM    7  C22 UNL     1      -0.411   1.842  -1.788  1.00  0.00     0.248 C 
HETATM    8  N6  UNL     1      -0.512   1.427  -3.188  1.00  0.00    -0.040 N 
ATOM      9  H61 UNL     1      -1.255   0.759  -3.393  1.00  0.00     0.280 HD
ATOM     10  H62 UNL     1      -0.852   2.141  -3.832  1.00  0.00     0.280 HD
ENDROOT
BRANCH   6  11
HETATM   11  O4  UNL     1      -1.365  -0.207  -0.849  1.00  0.00    -0.372 OA
BRANCH  11  12
HETATM   12  C14 UNL     1      -2.057  -0.320   0.311  1.00  0.00     0.183 C 
HETATM   13  C15 UNL     1      -1.821  -1.629   1.071  1.00  0.00     0.216 C 
HETATM   14  C16 UNL     1      -3.099  -2.243   1.552  1.00  0.00     0.068 C 
HETATM   15  C17 UNL     1      -4.052  -1.339   2.217  1.00  0.00     0.191 C 
HETATM   16  C18 UNL     1      -3.943   0.061   1.720  1.00  0.00     0.045 C 
HETATM   17  C19 UNL     1      -5.218   0.843   1.845  1.00  0.00     0.014 C 
HETATM   18  C20 UNL     1      -3.523  -0.068   0.243  1.00  0.00     0.221 C 
BRANCH  13  19
HETATM   19  N3  UNL     1      -0.947  -1.393   2.188  1.00  0.00    -0.072 N 
ATOM     20  H33 UNL     1      -0.072  -0.951   1.904  1.00  0.00     0.274 HD
ATOM     21  H32 UNL     1      -1.295  -0.653   2.798  1.00  0.00     0.274 HD
ATOM     22  H31 UNL     1      -0.790  -2.265   2.694  1.00  0.00     0.274 HD
ENDBRANCH  13  19
BRANCH  15  23
HETATM   23  N4  UNL     1      -3.958  -1.423   3.668  1.00  0.00    -0.075 N 
ATOM     24  H43 UNL     1      -4.070  -2.384   3.992  1.00  0.00     0.274 HD
ATOM     25  H42 UNL     1      -3.004  -1.257   3.988  1.00  0.00     0.274 HD
ATOM     26  H41 UNL     1      -4.618  -0.797   4.129  1.00  0.00     0.274 HD
ENDBRANCH  15  23
BRANCH  18  27
HETATM   27  N5  UNL     1      -4.072   0.919  -0.570  1.00  0.00    -0.072 N 
HETATM   28  C21 UNL     1      -3.936   0.616  -1.970  1.00  0.00     0.267 C 
ATOM     29  H52 UNL     1      -5.046   1.097  -0.325  1.00  0.00     0.277 HD
ATOM     30  H51 UNL     1      -3.679   1.835  -0.352  1.00  0.00     0.277 HD
ENDBRANCH  18  27
ENDBRANCH  11  12
ENDBRANCH   6  11
BRANCH   5  31
HETATM   31  O2  UNL     1       1.177  -1.288  -0.597  1.00  0.00    -0.351 OA
BRANCH  31  32
HETATM   32  C7  UNL     1       2.464  -1.375  -0.065  1.00  0.00     0.291 C 
HETATM   33  O3  UNL     1       2.415  -1.339   1.311  1.00  0.00    -0.352 OA
HETATM   34  C8  UNL     1       3.664  -1.192   1.895  1.00  0.00     0.150 C 
HETATM   35  C10 UNL     1       4.739  -2.029   1.255  1.00  0.00     0.036 C 
HETATM   36  C11 UNL     1       4.034  -3.188   0.537  1.00  0.00     0.040 C 
HETATM   37  C12 UNL     1       3.256  -2.523  -0.598  1.00  0.00     0.238 C 
BRANCH  34  38
HETATM   38  C9  UNL     1       4.126   0.248   1.908  1.00  0.00     0.261 C 
BRANCH  38  39
HETATM   39  N1  UNL     1       5.431   0.289   2.536  1.00  0.00    -0.077 N 
ATOM     40  H13 UNL     1       5.438  -0.137   3.463  1.00  0.00     0.274 HD
ATOM     41  H12 UNL     1       6.103  -0.338   2.094  1.00  0.00     0.274 HD
ATOM     42  H11 UNL     1       5.743   1.260   2.545  1.00  0.00     0.274 HD
ENDBRANCH  38  39
ENDBRANCH  34  38
BRANCH  37  43
HETATM   43  N2  UNL     1       4.252  -2.048  -1.539  1.00  0.00    -0.070 N 
ATOM     44  H23 UNL     1       3.836  -1.492  -2.286  1.00  0.00     0.274 HD
ATOM     45  H22 UNL     1       4.850  -1.329  -1.131  1.00  0.00     0.274 HD
ATOM     46  H21 UNL     1       4.793  -2.832  -1.903  1.00  0.00     0.274 HD
ENDBRANCH  37  43
ENDBRANCH  31  32
ENDBRANCH   5  31
BRANCH   1  47
HETATM   47  C2  UNL     1       0.835   3.940  -2.353  1.00  0.00     0.029 C 
HETATM   48  C1  UNL     1       0.034   4.821  -1.416  1.00  0.00     0.007 C 
ENDBRANCH   1  47
TORSDOF 11
