REMARK  7 active torsions:
REMARK  status: ('A' for Active; 'I' for Inactive)
REMARK    1  A    between atoms: C2_3  and  O1_4 
REMARK    2  A    between atoms: O1_4  and  C3_5 
REMARK    3  A    between atoms: C3_5  and  C4_6 
REMARK    4  A    between atoms: C4_6  and  O2_7 
REMARK    5  A    between atoms: C4_6  and  C5_9 
REMARK    6  A    between atoms: C4_6  and  C6_12 
REMARK    7  A    between atoms: C5_9  and  O3_10 
ROOT
HETATM    1  C4  UNL     1      -1.394   0.032  -0.781  1.00  0.00     0.122 C 
ENDROOT
BRANCH   1   2
HETATM    2  C3  UNL     1      -0.053   0.147  -0.106  1.00  0.00     0.219 C 
BRANCH   2   3
HETATM    3  O1  UNL     1       1.028   0.172  -0.994  1.00  0.00    -0.331 OA
BRANCH   3   4
HETATM    4  C2  UNL     1       2.297   0.276  -0.473  1.00  0.00     0.176 A 
HETATM    5  C1  UNL     1       3.061  -0.840  -0.253  1.00  0.00     0.165 A 
HETATM    6  N1  UNL     1       2.566  -2.134  -0.557  1.00  0.00    -0.092 NA
HETATM    7  C10 UNL     1       4.345  -0.712   0.275  1.00  0.00     0.278 A 
HETATM    8  N5  UNL     1       4.835   0.513   0.572  1.00  0.00    -0.274 N 
HETATM    9  O6  UNL     1       5.047  -1.717   0.479  1.00  0.00    -0.266 OA
HETATM   10  C9  UNL     1       4.050   1.577   0.339  1.00  0.00     0.329 A 
ATOM     11  H5  UNL     1       5.771   0.625   0.961  1.00  0.00     0.173 HD
HETATM   12  N4  UNL     1       2.800   1.476  -0.173  1.00  0.00    -0.287 N 
HETATM   13  O5  UNL     1       4.510   2.718   0.616  1.00  0.00    -0.247 OA
ATOM     14  H4  UNL     1       2.243   2.316  -0.329  1.00  0.00     0.172 HD
ENDBRANCH   3   4
ENDBRANCH   2   3
ENDBRANCH   1   2
BRANCH   1  15
HETATM   15  O2  UNL     1      -1.479  -1.131  -1.531  1.00  0.00    -0.383 OA
ATOM     16  H2  UNL     1      -2.325  -1.204  -1.957  1.00  0.00     0.210 HD
ENDBRANCH   1  15
BRANCH   1  17
HETATM   17  C5  UNL     1      -1.582   1.206  -1.734  1.00  0.00     0.206 C 
BRANCH  17  18
HETATM   18  O3  UNL     1      -1.520   2.401  -1.019  1.00  0.00    -0.398 OA
ATOM     19  H3  UNL     1      -1.637   3.133  -1.613  1.00  0.00     0.209 HD
ENDBRANCH  17  18
ENDBRANCH   1  17
BRANCH   1  20
HETATM   20  C6  UNL     1      -2.447   0.115   0.288  1.00  0.00     0.142 C 
HETATM   21  C7  UNL     1      -2.191  -1.052   1.246  1.00  0.00     0.152 C 
HETATM   22  N2  UNL     1      -3.500  -1.198   1.846  1.00  0.00    -0.341 N 
HETATM   23  C8  UNL     1      -4.497  -0.646   0.964  1.00  0.00     0.316 C 
ATOM     24  H2  UNL     1      -3.688  -1.625   2.753  1.00  0.00     0.164 HD
HETATM   25  O4  UNL     1      -5.738  -0.613   1.196  1.00  0.00    -0.247 OA
HETATM   26  N3  UNL     1      -3.772  -0.176  -0.164  1.00  0.00    -0.334 N 
ATOM     27  H3  UNL     1      -4.128  -0.067  -1.114  1.00  0.00     0.164 HD
ENDBRANCH   1  20
TORSDOF 7
