REMARK  13 active torsions:
REMARK  status: ('A' for Active; 'I' for Inactive)
REMARK    1  A    between atoms: C2_2  and  N1_3 
REMARK    2  A    between atoms: N1_3  and  C3_4 
REMARK    3  A    between atoms: N1_3  and  C13_26 
REMARK    4  A    between atoms: N1_3  and  N8_32 
REMARK    5  A    between atoms: C3_4  and  C4_5 
REMARK    6  A    between atoms: C4_5  and  N2_6 
REMARK       I    between atoms: N2_6  and  C5_8 
REMARK    7  A    between atoms: C5_8  and  C6_10 
REMARK    8  A    between atoms: C7_11  and  N3_12 
REMARK    9  A    between atoms: C9_17  and  O2_18 
REMARK   10  A    between atoms: C10_20  and  O3_21 
REMARK   11  A    between atoms: C13_26  and  C14_27 
REMARK   12  A    between atoms: C14_27  and  N7_28 
REMARK   13  A    between atoms: N8_32  and  C18_34 
ROOT
HETATM    1  N2  UNL     1      -1.117  -0.397  -1.123  1.00  0.00    -0.357 N 
ATOM      2  H2  UNL     1      -1.068   0.361  -1.803  1.00  0.00     0.162 HD
HETATM    3  C5  UNL     1      -2.060  -0.280  -0.068  1.00  0.00     0.253 C 
HETATM    4  O1  UNL     1      -2.113  -1.224   0.759  1.00  0.00    -0.271 OA
ENDROOT
BRANCH   1   5
HETATM    5  C4  UNL     1      -0.222  -1.518  -1.298  1.00  0.00     0.153 C 
BRANCH   5   6
HETATM    6  C3  UNL     1       0.759  -1.771  -0.231  1.00  0.00     0.290 C 
BRANCH   6   7
HETATM    7  N1  UNL     1       1.738  -0.753   0.116  1.00  0.00     0.032 N 
BRANCH   7   8
HETATM    8  C2  UNL     1       1.393  -0.180   1.423  1.00  0.00     0.266 C 
HETATM    9  C1  UNL     1       1.095  -1.265   2.433  1.00  0.00     0.037 C 
ENDBRANCH   7   8
BRANCH   7  10
HETATM   10  C13 UNL     1       1.960   0.148  -0.931  1.00  0.00     0.254 C 
BRANCH  10  11
HETATM   11  C14 UNL     1       1.914   1.596  -0.914  1.00  0.00     0.228 C 
BRANCH  11  12
HETATM   12  N7  UNL     1       2.775   2.469  -0.241  1.00  0.00    -0.057 N 
HETATM   13  C15 UNL     1       4.097   2.053   0.095  1.00  0.00     0.277 C 
HETATM   14  C16 UNL     1       3.079   3.660  -1.147  1.00  0.00     0.277 C 
HETATM   15  C17 UNL     1       2.178   3.136   0.900  1.00  0.00     0.277 C 
ENDBRANCH  11  12
ENDBRANCH  10  11
ENDBRANCH   7  10
BRANCH   7  16
HETATM   16  N8  UNL     1       2.944  -1.357   0.424  1.00  0.00    -0.244 N 
ATOM     17  H8  UNL     1       3.550  -0.830   1.053  1.00  0.00     0.188 HD
BRANCH  16  18
HETATM   18  C18 UNL     1       3.430  -2.540   0.012  1.00  0.00     0.107 C 
HETATM   19  C19 UNL     1       3.826  -2.630  -1.432  1.00  0.00     0.027 C 
HETATM   20  C20 UNL     1       4.705  -3.914  -1.450  1.00  0.00     0.002 C 
HETATM   21  C21 UNL     1       5.561  -3.662  -0.238  1.00  0.00     0.002 C 
HETATM   22  C22 UNL     1       4.826  -2.735   0.677  1.00  0.00     0.027 C 
ENDBRANCH  16  18
ENDBRANCH   7  16
ENDBRANCH   6   7
ENDBRANCH   5   6
ENDBRANCH   1   5
BRANCH   3  23
HETATM   23  C6  UNL     1      -2.979   0.837   0.149  1.00  0.00     0.338 C 
HETATM   24  C7  UNL     1      -4.394   0.280   0.088  1.00  0.00     0.158 C 
HETATM   25  C9  UNL     1      -4.715   0.019  -1.362  1.00  0.00     0.173 C 
HETATM   26  C10 UNL     1      -4.881   1.348  -2.046  1.00  0.00     0.177 C 
HETATM   27  C11 UNL     1      -4.071   2.371  -1.333  1.00  0.00     0.307 C 
HETATM   28  N6  UNL     1      -2.800   1.889  -0.832  1.00  0.00     0.102 N 
HETATM   29  C12 UNL     1      -2.181   3.036  -0.183  1.00  0.00     0.311 C 
BRANCH  24  30
HETATM   30  N3  UNL     1      -4.556  -0.897   0.903  1.00  0.00    -0.357 N 
HETATM   31  C8  UNL     1      -5.549  -1.055   1.724  1.00  0.00     0.197 C 
HETATM   32  N4  UNL     1      -5.669  -2.234   2.510  1.00  0.00    -0.067 NA
HETATM   33  N5  UNL     1      -6.562  -0.068   1.878  1.00  0.00    -0.067 NA
ATOM     34  H3  UNL     1      -3.860  -1.639   0.832  1.00  0.00     0.162 HD
ENDBRANCH  24  30
BRANCH  25  35
HETATM   35  O2  UNL     1      -5.903  -0.683  -1.537  1.00  0.00    -0.391 OA
ATOM     36  H2  UNL     1      -6.105  -0.847  -2.451  1.00  0.00     0.210 HD
ENDBRANCH  25  35
BRANCH  26  37
HETATM   37  O3  UNL     1      -4.569   1.279  -3.404  1.00  0.00    -0.391 OA
ATOM     38  H3  UNL     1      -4.674   2.119  -3.836  1.00  0.00     0.210 HD
ENDBRANCH  26  37
ENDBRANCH   3  23
TORSDOF 13
