REMARK  10 active torsions:
REMARK  status: ('A' for Active; 'I' for Inactive)
REMARK    1  A    between atoms: C2_2  and  C3_3 
REMARK    2  A    between atoms: C4_4  and  C5_5 
REMARK    3  A    between atoms: C12_14  and  C13_15 
REMARK    4  A    between atoms: C13_15  and  C14_16 
REMARK    5  A    between atoms: C14_16  and  C15_17 
REMARK    6  A    between atoms: C15_17  and  N2_18 
REMARK    7  A    between atoms: C18_27  and  C19_28 
REMARK    8  A    between atoms: C19_28  and  C20_29 
REMARK    9  A    between atoms: C20_29  and  C21_30 
REMARK   10  A    between atoms: C21_30  and  N6_31 
ROOT
HETATM    1  C3  UNL     1      -1.634  -3.386  -0.287  1.00  0.00     0.048 C 
HETATM    2  C4  UNL     1      -3.150  -3.450  -0.427  1.00  0.00     0.085 C 
HETATM    3  C6  UNL     1      -3.671  -2.774   0.808  1.00  0.00     0.017 C 
HETATM    4  C7  UNL     1      -2.567  -1.943   1.327  1.00  0.00     0.033 C 
HETATM    5  C8  UNL     1      -1.420  -2.021   0.385  1.00  0.00     0.043 C 
HETATM    6  C9  UNL     1      -0.169  -2.145   1.235  1.00  0.00     0.058 C 
HETATM    7  C10 UNL     1       1.057  -2.503   0.516  1.00  0.00    -0.027 C 
HETATM    8  C11 UNL     1       1.953  -1.742  -0.062  1.00  0.00    -0.017 C 
HETATM    9  C12 UNL     1       2.035  -0.280  -0.189  1.00  0.00     0.100 C 
HETATM   10  C17 UNL     1       1.618   0.493   0.998  1.00  0.00     0.226 C 
HETATM   11  O2  UNL     1       2.335   0.289   2.047  1.00  0.00    -0.273 OA
HETATM   12  N5  UNL     1       0.550   1.401   1.099  1.00  0.00    -0.347 N 
ATOM     13  H5  UNL     1       0.793   2.350   1.382  1.00  0.00     0.163 HD
HETATM   14  C18 UNL     1      -0.850   1.152   0.850  1.00  0.00     0.176 C 
HETATM   15  C23 UNL     1      -1.144   0.408  -0.379  1.00  0.00     0.241 C 
HETATM   16  O3  UNL     1      -1.194   1.149  -1.432  1.00  0.00    -0.271 OA
HETATM   17  N9  UNL     1      -1.375  -0.961  -0.577  1.00  0.00    -0.349 N 
ATOM     18  H9  UNL     1      -1.534  -1.242  -1.545  1.00  0.00     0.163 HD
ENDROOT
BRANCH   1  19
HETATM   19  C2  UNL     1      -1.027  -3.504  -1.610  1.00  0.00    -0.029 C 
HETATM   20  C1  UNL     1      -1.730  -3.770  -2.692  1.00  0.00     0.007 C 
ENDBRANCH   1  19
BRANCH   2  21
HETATM   21  C5  UNL     1      -3.629  -4.852  -0.434  1.00  0.00     0.236 C 
HETATM   22  N1  UNL     1      -5.009  -5.165  -0.554  1.00  0.00    -0.062 NA
HETATM   23  O1  UNL     1      -2.824  -5.826  -0.332  1.00  0.00    -0.276 OA
ENDBRANCH   2  21
BRANCH  14  24
HETATM   24  C19 UNL     1      -1.546   2.534   0.797  1.00  0.00     0.036 C 
BRANCH  24  25
HETATM   25  C20 UNL     1      -3.024   2.400   0.556  1.00  0.00     0.022 C 
BRANCH  25  26
HETATM   26  C21 UNL     1      -3.642   3.776   0.519  1.00  0.00     0.122 C 
BRANCH  26  27
HETATM   27  N6  UNL     1      -3.090   4.598  -0.527  1.00  0.00    -0.367 N 
HETATM   28  C22 UNL     1      -3.606   5.730  -0.867  1.00  0.00     0.196 C 
HETATM   29  N7  UNL     1      -3.042   6.519  -1.901  1.00  0.00    -0.067 NA
HETATM   30  N8  UNL     1      -4.761   6.166  -0.172  1.00  0.00    -0.067 NA
ATOM     31  H6  UNL     1      -2.258   4.272  -1.018  1.00  0.00     0.161 HD
ENDBRANCH  26  27
ENDBRANCH  25  26
ENDBRANCH  24  25
ENDBRANCH  14  24
BRANCH   9  32
HETATM   32  C13 UNL     1       3.423   0.122  -0.648  1.00  0.00     0.019 C 
BRANCH  32  33
HETATM   33  C14 UNL     1       4.545  -0.275   0.229  1.00  0.00     0.021 C 
BRANCH  33  34
HETATM   34  C15 UNL     1       5.826   0.227  -0.477  1.00  0.00     0.122 C 
BRANCH  34  35
HETATM   35  N2  UNL     1       6.990  -0.110   0.292  1.00  0.00    -0.367 N 
HETATM   36  C16 UNL     1       7.971   0.720   0.333  1.00  0.00     0.196 C 
HETATM   37  N3  UNL     1       9.146   0.434   1.080  1.00  0.00    -0.067 NA
HETATM   38  N4  UNL     1       7.904   1.949  -0.371  1.00  0.00    -0.067 NA
ATOM     39  H2  UNL     1       7.038  -0.994   0.798  1.00  0.00     0.161 HD
ENDBRANCH  34  35
ENDBRANCH  33  34
ENDBRANCH  32  33
ENDBRANCH   9  32
TORSDOF 10
