REMARK  3 active torsions:
REMARK  status: ('A' for Active; 'I' for Inactive)
REMARK    1  A    between atoms: N1_1  and  N2_4 
REMARK    2  A    between atoms: N2_4  and  S1_6 
REMARK    3  A    between atoms: S1_6  and  N3_9 
ROOT
HETATM    1  S1  UNL     1       0.718  -0.906   0.202  1.00  0.00     0.338 S 
HETATM    2  O1  UNL     1       0.240  -2.005  -0.708  1.00  0.00    -0.181 OA
HETATM    3  O2  UNL     1       0.741  -1.379   1.621  1.00  0.00    -0.181 OA
ENDROOT
BRANCH   1   4
HETATM    4  N2  UNL     1       2.355  -0.496  -0.246  1.00  0.00    -0.216 N 
ATOM      5  H2  UNL     1       2.777  -0.589  -1.170  1.00  0.00     0.201 HD
BRANCH   4   6
HETATM    6  N1  UNL     1       2.975  -0.015   0.914  1.00  0.00    -0.335 N 
ATOM      7  H12 UNL     1       2.542   0.073   1.833  1.00  0.00     0.177 HD
ATOM      8  H11 UNL     1       3.931   0.225   0.652  1.00  0.00     0.177 HD
ENDBRANCH   4   6
ENDBRANCH   1   4
BRANCH   1   9
HETATM    9  N3  UNL     1      -0.248   0.475  -0.032  1.00  0.00    -0.242 N 
HETATM   10  C1  UNL     1      -1.521   0.498  -0.069  1.00  0.00     0.211 C 
HETATM   11  N4  UNL     1      -2.191   1.725  -0.272  1.00  0.00    -0.066 NA
HETATM   12  N5  UNL     1      -2.273  -0.685   0.088  1.00  0.00    -0.066 NA
ATOM     13  H3  UNL     1       0.236   1.365  -0.154  1.00  0.00     0.182 HD
ENDBRANCH   1   9
TORSDOF 3
