REMARK  15 active torsions:
REMARK  status: ('A' for Active; 'I' for Inactive)
REMARK    1  A    between atoms: C2_5  and  N3_6 
REMARK    2  A    between atoms: N3_6  and  C3_8 
REMARK    3  A    between atoms: C3_8  and  C4_9 
REMARK    4  A    between atoms: C4_9  and  O1_10 
REMARK    5  A    between atoms: O1_10  and  S1_11 
REMARK    6  A    between atoms: S1_11  and  N4_12 
REMARK    7  A    between atoms: C5_19  and  N6_20 
REMARK       I    between atoms: N6_20  and  C6_22 
REMARK       I    between atoms: C6_22  and  N7_23 
REMARK       I    between atoms: C6_22  and  N8_27 
REMARK    8  A    between atoms: C7_31  and  N9_32 
REMARK    9  A    between atoms: N9_32  and  O4_33 
REMARK   10  A    between atoms: N9_32  and  N10_35 
REMARK   11  A    between atoms: C9_37  and  O5_38 
REMARK   12  A    between atoms: C10_40  and  O6_41 
REMARK   13  A    between atoms: C11_43  and  O7_44 
REMARK   14  A    between atoms: C12_46  and  C13_47 
REMARK   15  A    between atoms: C13_47  and  O8_48 
ROOT
HETATM    1  N1  UNL     1      -0.864   2.374   1.209  1.00  0.00    -0.080 NA
HETATM    2  C1  UNL     1       0.026   1.347   0.834  1.00  0.00     0.160 A 
HETATM    3  N2  UNL     1       1.202   1.230   1.446  1.00  0.00    -0.177 N 
ATOM      4  H2  UNL     1       1.440   1.891   2.186  1.00  0.00     0.185 HD
HETATM    5  C2  UNL     1       2.096   0.260   1.119  1.00  0.00     0.681 A 
HETATM    6  N5  UNL     1       1.738  -0.593   0.132  1.00  0.00    -0.175 N 
ATOM      7  H5  UNL     1       2.399  -1.326  -0.124  1.00  0.00     0.186 HD
HETATM    8  C5  UNL     1       0.583  -0.543  -0.528  1.00  0.00     0.148 A 
HETATM    9  C7  UNL     1      -0.305   0.475  -0.153  1.00  0.00     0.140 A 
ENDROOT
BRANCH   9  10
HETATM   10  N9  UNL     1      -1.560   0.579  -0.826  1.00  0.00    -0.084 NA
BRANCH  10  11
HETATM   11  O4  UNL     1      -1.446   1.660  -1.619  1.00  0.00    -0.293 OA
ATOM     12  H4  UNL     1      -2.281   1.729  -2.067  1.00  0.00     0.239 HD
ENDBRANCH  10  11
BRANCH  10  13
HETATM   13  N10 UNL     1      -2.630   0.553  -0.000  1.00  0.00    -0.210 NA
HETATM   14  C8  UNL     1      -2.538  -0.590   0.876  1.00  0.00     0.145 C 
HETATM   15  C9  UNL     1      -3.833  -0.982   1.497  1.00  0.00     0.164 C 
HETATM   16  C10 UNL     1      -4.780   0.133   1.755  1.00  0.00     0.178 C 
HETATM   17  C11 UNL     1      -4.764   1.216   0.707  1.00  0.00     0.170 C 
HETATM   18  C12 UNL     1      -3.935   0.770  -0.494  1.00  0.00     0.132 C 
BRANCH  15  19
HETATM   19  O5  UNL     1      -4.445  -2.057   0.811  1.00  0.00    -0.392 OA
ATOM     20  H5  UNL     1      -5.271  -2.307   1.207  1.00  0.00     0.210 HD
ENDBRANCH  15  19
BRANCH  16  21
HETATM   21  O6  UNL     1      -6.075  -0.396   1.851  1.00  0.00    -0.390 OA
ATOM     22  H6  UNL     1      -6.681   0.317   2.016  1.00  0.00     0.210 HD
ENDBRANCH  16  21
BRANCH  17  23
HETATM   23  O7  UNL     1      -6.066   1.506   0.379  1.00  0.00    -0.391 OA
ATOM     24  H7  UNL     1      -6.056   2.189  -0.282  1.00  0.00     0.210 HD
ENDBRANCH  17  23
BRANCH  18  25
HETATM   25  C13 UNL     1      -4.077   1.673  -1.662  1.00  0.00     0.188 C 
BRANCH  25  26
HETATM   26  O8  UNL     1      -5.425   1.829  -2.068  1.00  0.00    -0.399 OA
ATOM     27  H8  UNL     1      -5.516   2.407  -2.816  1.00  0.00     0.209 HD
ENDBRANCH  25  26
ENDBRANCH  18  25
ENDBRANCH  10  13
ENDBRANCH   9  10
BRANCH   8  28
HETATM   28  N6  UNL     1       0.280  -1.372  -1.463  1.00  0.00    -0.325 N 
HETATM   29  C6  UNL     1       1.228  -2.402  -1.816  1.00  0.00     0.481 C 
HETATM   30  N7  UNL     1       0.608  -3.432  -2.639  1.00  0.00    -0.033 N 
HETATM   31  N8  UNL     1       2.347  -1.887  -2.591  1.00  0.00    -0.033 N 
ATOM     32  H73 UNL     1      -0.220  -3.823  -2.189  1.00  0.00     0.278 HD
ATOM     33  H72 UNL     1       0.163  -3.033  -3.466  1.00  0.00     0.278 HD
ATOM     34  H71 UNL     1       1.278  -4.160  -2.888  1.00  0.00     0.278 HD
ATOM     35  H83 UNL     1       2.021  -1.388  -3.419  1.00  0.00     0.278 HD
ATOM     36  H82 UNL     1       2.806  -1.116  -2.105  1.00  0.00     0.278 HD
ATOM     37  H81 UNL     1       3.017  -2.615  -2.840  1.00  0.00     0.278 HD
ATOM     38  H6  UNL     1      -0.615  -1.303  -1.947  1.00  0.00     0.165 HD
ENDBRANCH   8  28
BRANCH   5  39
HETATM   39  N3  UNL     1       3.192   0.232   1.762  1.00  0.00    -0.224 N 
ATOM     40  H3  UNL     1       3.323   0.943   2.481  1.00  0.00     0.177 HD
BRANCH  39  41
HETATM   41  C3  UNL     1       4.259  -0.700   1.574  1.00  0.00     0.165 C 
BRANCH  41  42
HETATM   42  C4  UNL     1       5.220  -0.301   0.472  1.00  0.00     0.212 C 
BRANCH  42  43
HETATM   43  O1  UNL     1       5.810   0.933   0.751  1.00  0.00    -0.258 OA
BRANCH  43  44
HETATM   44  S1  UNL     1       6.871   1.400  -0.438  1.00  0.00     0.355 S 
HETATM   45  O2  UNL     1       6.877   2.900  -0.530  1.00  0.00    -0.176 OA
HETATM   46  O3  UNL     1       6.436   0.780  -1.742  1.00  0.00    -0.176 OA
BRANCH  44  47
HETATM   47  N4  UNL     1       8.504   0.904  -0.078  1.00  0.00    -0.306 N 
ATOM     48  H42 UNL     1       8.760   0.390   0.765  1.00  0.00     0.171 HD
ATOM     49  H41 UNL     1       9.156   1.191  -0.808  1.00  0.00     0.171 HD
ENDBRANCH  44  47
ENDBRANCH  43  44
ENDBRANCH  42  43
ENDBRANCH  41  42
ENDBRANCH  39  41
ENDBRANCH   5  39
TORSDOF 15
