REMARK  6 active torsions:
REMARK  status: ('A' for Active; 'I' for Inactive)
REMARK    1  A    between atoms: C2_2  and  C3_3 
REMARK    2  A    between atoms: C3_3  and  N2_6 
REMARK    3  A    between atoms: C7_15  and  N7_16 
REMARK    4  A    between atoms: N7_16  and  C8_18 
REMARK    5  A    between atoms: C8_18  and  C11_29 
REMARK    6  A    between atoms: N8_19  and  C9_21 
ROOT
HETATM    1  C3  UNL     1      -2.335  -1.333   0.096  1.00  0.00     0.197 C 
HETATM    2  C4  UNL     1      -3.017  -2.265  -0.843  1.00  0.00     0.085 C 
HETATM    3  N1  UNL     1      -3.541  -2.985  -1.590  1.00  0.00    -0.195 NA
ENDROOT
BRANCH   1   4
HETATM    4  C2  UNL     1      -3.273  -1.015   1.160  1.00  0.00     0.036 C 
HETATM    5  C1  UNL     1      -2.788  -0.074   2.220  1.00  0.00     0.008 C 
ENDBRANCH   1   4
BRANCH   1   6
HETATM    6  N2  UNL     1      -1.646  -0.381  -0.673  1.00  0.00    -0.300 N 
HETATM    7  C5  UNL     1      -2.300   0.736  -1.290  1.00  0.00     0.197 A 
HETATM    8  N3  UNL     1      -3.689   0.803  -1.024  1.00  0.00    -0.063 NA
HETATM    9  N4  UNL     1      -1.746   1.618  -2.015  1.00  0.00    -0.305 N 
HETATM   10  C6  UNL     1      -0.352   1.494  -2.242  1.00  0.00     0.193 A 
ATOM     11  H4  UNL     1      -2.283   2.386  -2.419  1.00  0.00     0.171 HD
HETATM   12  N5  UNL     1       0.336   2.454  -3.046  1.00  0.00    -0.063 NA
HETATM   13  N6  UNL     1       0.275   0.523  -1.724  1.00  0.00    -0.326 N 
HETATM   14  C7  UNL     1      -0.228  -0.538  -0.895  1.00  0.00     0.297 A 
ATOM     15  H6  UNL     1       1.275   0.489  -1.923  1.00  0.00     0.166 HD
BRANCH  14  16
HETATM   16  N7  UNL     1       0.485  -0.618   0.336  1.00  0.00    -0.333 N 
ATOM     17  H7  UNL     1      -0.016  -0.635   1.225  1.00  0.00     0.165 HD
BRANCH  16  18
HETATM   18  C8  UNL     1       1.963  -0.676   0.305  1.00  0.00     0.184 C 
HETATM   19  N8  UNL     1       2.611   0.284   0.683  1.00  0.00    -0.321 N 
ATOM     20  H8  UNL     1       1.929   0.987   0.969  1.00  0.00     0.169 HD
BRANCH  19  21
HETATM   21  C9  UNL     1       3.836   0.842   0.896  1.00  0.00     0.140 A 
HETATM   22  C10 UNL     1       4.084   1.919   1.745  1.00  0.00     0.158 A 
HETATM   23  N9  UNL     1       5.385   2.170   1.682  1.00  0.00    -0.294 N 
HETATM   24  N10 UNL     1       5.938   1.303   0.840  1.00  0.00    -0.241 N 
ATOM     25  H9  UNL     1       5.877   2.903   2.193  1.00  0.00     0.187 HD
HETATM   26  N11 UNL     1       5.030   0.494   0.354  1.00  0.00    -0.270 N 
ATOM     27  H10 UNL     1       6.930   1.272   0.605  1.00  0.00     0.208 HD
ATOM     28  H11 UNL     1       5.191  -0.262  -0.312  1.00  0.00     0.190 HD
ENDBRANCH  19  21
BRANCH  18  29
HETATM   29  C11 UNL     1       2.556  -1.909  -0.181  1.00  0.00     0.245 C 
HETATM   30  O1  UNL     1       3.781  -2.046  -0.239  1.00  0.00    -0.642 OA
HETATM   31  O2  UNL     1       1.769  -2.974  -0.596  1.00  0.00    -0.642 OA
ENDBRANCH  18  29
ENDBRANCH  16  18
ENDBRANCH  14  16
ENDBRANCH   1   6
TORSDOF 6
