REMARK  7 active torsions:
REMARK  status: ('A' for Active; 'I' for Inactive)
REMARK       I    between atoms: C2_2  and  N1_4 
REMARK    1  A    between atoms: N1_4  and  N2_6 
REMARK    2  A    between atoms: C4_9  and  N4_10 
REMARK    3  A    between atoms: N4_10  and  O2_12 
REMARK    4  A    between atoms: C5_14  and  S1_15 
REMARK    5  A    between atoms: S1_15  and  N5_16 
REMARK    6  A    between atoms: S1_15  and  N6_19 
REMARK    7  A    between atoms: C6_23  and  C7_24 
ROOT
HETATM    1  N2  UNL     1       1.543  -0.042   0.038  1.00  0.00    -0.200 N 
HETATM    2  C3  UNL     1       0.871  -0.167  -1.163  1.00  0.00     0.171 A 
HETATM    3  N3  UNL     1       1.651  -0.292  -2.348  1.00  0.00    -0.078 NA
HETATM    4  C4  UNL     1      -0.506  -0.174  -1.242  1.00  0.00     0.120 A 
HETATM    5  C5  UNL     1      -1.223  -0.056  -0.106  1.00  0.00     0.112 A 
HETATM    6  C6  UNL     1      -0.622   0.071   1.089  1.00  0.00     0.134 A 
HETATM    7  C8  UNL     1       0.785   0.074   1.123  1.00  0.00     0.286 A 
HETATM    8  O6  UNL     1       1.298   0.192   2.250  1.00  0.00    -0.265 OA
ENDROOT
BRANCH   5   9
HETATM    9  S1  UNL     1      -3.260  -0.238  -0.217  1.00  0.00     0.134 S 
HETATM   10  O3  UNL     1      -3.477  -1.171  -0.158  1.00  0.00    -0.224 OA
BRANCH   9  11
HETATM   11  N5  UNL     1      -3.843   0.566  -1.959  1.00  0.00    -0.341 N 
ATOM     12  H52 UNL     1      -3.225   0.986  -2.654  1.00  0.00     0.167 HD
ATOM     13  H51 UNL     1      -4.857   0.475  -2.014  1.00  0.00     0.167 HD
ENDBRANCH   9  11
BRANCH   9  14
HETATM   14  N6  UNL     1      -4.085   0.844   1.217  1.00  0.00    -0.341 N 
ATOM     15  H62 UNL     1      -3.565   1.399   1.897  1.00  0.00     0.167 HD
ATOM     16  H61 UNL     1      -5.099   0.753   1.162  1.00  0.00     0.167 HD
ENDBRANCH   9  14
ENDBRANCH   5   9
BRANCH   4  17
HETATM   17  N4  UNL     1      -1.086  -0.308  -2.532  1.00  0.00    -0.264 N 
ATOM     18  H4  UNL     1      -1.417   0.518  -3.031  1.00  0.00     0.194 HD
BRANCH  17  19
HETATM   19  O2  UNL     1      -1.191  -1.448  -3.059  1.00  0.00    -0.289 OA
ATOM     20  H2  UNL     1      -1.579  -1.538  -3.922  1.00  0.00     0.244 HD
ENDBRANCH  17  19
ENDBRANCH   4  17
BRANCH   6  21
HETATM   21  C7  UNL     1      -1.327   0.216   2.357  1.00  0.00     0.216 C 
HETATM   22  O4  UNL     1      -1.595   1.379   2.755  1.00  0.00    -0.644 OA
HETATM   23  O5  UNL     1      -1.690  -0.897   3.099  1.00  0.00    -0.644 OA
ENDBRANCH   6  21
BRANCH   1  24
HETATM   24  N1  UNL     1       2.938  -0.050  -0.007  1.00  0.00    -0.259 N 
HETATM   25  C2  UNL     1       3.914   0.050   0.959  1.00  0.00     0.232 C 
HETATM   26  C1  UNL     1       5.379  -0.003   0.501  1.00  0.00     0.119 C 
HETATM   27  O1  UNL     1       3.771   0.179   2.174  1.00  0.00    -0.272 OA
ATOM     28  H1  UNL     1       3.312  -0.151  -0.951  1.00  0.00     0.190 HD
ENDBRANCH   1  24
TORSDOF 7
