REMARK  16 active torsions:
REMARK  status: ('A' for Active; 'I' for Inactive)
REMARK    1  A    between atoms: O1_1  and  C1_3 
REMARK    2  A    between atoms: C1_3  and  C2_4 
REMARK    3  A    between atoms: C3_6  and  N1_7 
REMARK    4  A    between atoms: N1_7  and  C4_10 
REMARK    5  A    between atoms: C4_10  and  C5_11 
REMARK    6  A    between atoms: C5_11  and  C6_12 
REMARK    7  A    between atoms: C6_12  and  C7_13 
REMARK    8  A    between atoms: C7_13  and  C8_14 
REMARK    9  A    between atoms: C8_14  and  C9_15 
REMARK   10  A    between atoms: C9_15  and  C10_16 
REMARK   11  A    between atoms: C10_16  and  C11_17 
REMARK   12  A    between atoms: C11_17  and  N2_18 
REMARK   13  A    between atoms: N2_18  and  C12_20 
REMARK   14  A    between atoms: C17_25  and  O3_26 
REMARK   15  A    between atoms: C18_28  and  O4_29 
REMARK   16  A    between atoms: C19_31  and  O5_32 
ROOT
HETATM    1  N1  UNL     1      -3.327   0.773  -0.046  1.00  0.00    -0.046 N 
ATOM      2  H11 UNL     1      -3.746   1.394   0.647  1.00  0.00     0.280 HD
ATOM      3  H12 UNL     1      -3.075   1.462  -0.755  1.00  0.00     0.280 HD
ENDROOT
BRANCH   1   4
HETATM    4  C3  UNL     1      -4.305  -0.166  -0.560  1.00  0.00     0.353 C 
HETATM    5  O2  UNL     1      -5.204   0.487  -1.342  1.00  0.00    -0.347 OA
HETATM    6  C2  UNL     1      -6.387   0.886  -0.835  1.00  0.00     0.179 C 
HETATM    7  C19 UNL     1      -7.033  -0.090   0.095  1.00  0.00     0.180 C 
HETATM    8  C18 UNL     1      -6.262  -1.391   0.181  1.00  0.00     0.182 C 
HETATM    9  C17 UNL     1      -4.839  -1.014   0.542  1.00  0.00     0.205 C 
BRANCH   6  10
HETATM   10  C1  UNL     1      -7.356   1.003  -2.034  1.00  0.00     0.198 C 
BRANCH  10  11
HETATM   11  O1  UNL     1      -6.868   1.931  -2.964  1.00  0.00    -0.398 OA
ATOM     12  H1  UNL     1      -7.463   2.003  -3.701  1.00  0.00     0.209 HD
ENDBRANCH  10  11
ENDBRANCH   6  10
BRANCH   7  13
HETATM   13  O5  UNL     1      -7.068   0.452   1.399  1.00  0.00    -0.390 OA
ATOM     14  H5  UNL     1      -7.479  -0.168   1.990  1.00  0.00     0.210 HD
ENDBRANCH   7  13
BRANCH   8  15
HETATM   15  O4  UNL     1      -6.265  -1.993  -1.072  1.00  0.00    -0.390 OA
ATOM     16  H4  UNL     1      -7.157  -2.229  -1.298  1.00  0.00     0.210 HD
ENDBRANCH   8  15
BRANCH   9  17
HETATM   17  O3  UNL     1      -4.788  -0.390   1.782  1.00  0.00    -0.388 OA
ATOM     18  H3  UNL     1      -5.129  -0.931   2.485  1.00  0.00     0.210 HD
ENDBRANCH   9  17
ENDBRANCH   1   4
BRANCH   1  19
HETATM   19  C4  UNL     1      -2.142   0.119   0.490  1.00  0.00     0.235 C 
BRANCH  19  20
HETATM   20  C5  UNL     1      -1.317  -0.494  -0.608  1.00  0.00     0.027 C 
BRANCH  20  21
HETATM   21  C6  UNL     1      -0.088  -1.206  -0.167  1.00  0.00     0.002 C 
BRANCH  21  22
HETATM   22  C7  UNL     1       0.900  -0.322   0.575  1.00  0.00     0.000 C 
BRANCH  22  23
HETATM   23  C8  UNL     1       1.349   0.832  -0.215  1.00  0.00     0.000 C 
BRANCH  23  24
HETATM   24  C9  UNL     1       2.396   1.673   0.380  1.00  0.00     0.005 C 
BRANCH  24  25
HETATM   25  C10 UNL     1       3.808   1.190   0.353  1.00  0.00     0.044 C 
BRANCH  25  26
HETATM   26  C11 UNL     1       4.092  -0.096   0.956  1.00  0.00     0.056 C 
BRANCH  26  27
HETATM   27  N2  UNL     1       5.397  -0.591   1.110  1.00  0.00    -0.398 N 
ATOM     28  H2  UNL     1       5.752  -0.674   2.063  1.00  0.00     0.159 HD
BRANCH  27  29
HETATM   29  C12 UNL     1       6.245  -0.976   0.088  1.00  0.00     0.080 C 
HETATM   30  C13 UNL     1       6.817   0.078  -0.798  1.00  0.00     0.025 C 
HETATM   31  C14 UNL     1       7.890   0.712   0.105  1.00  0.00     0.002 C 
HETATM   32  C15 UNL     1       8.143  -0.233   1.225  1.00  0.00     0.002 C 
HETATM   33  C16 UNL     1       7.536  -1.526   0.737  1.00  0.00     0.025 C 
ENDBRANCH  27  29
ENDBRANCH  26  27
ENDBRANCH  25  26
ENDBRANCH  24  25
ENDBRANCH  23  24
ENDBRANCH  22  23
ENDBRANCH  21  22
ENDBRANCH  20  21
ENDBRANCH  19  20
ENDBRANCH   1  19
TORSDOF 16
