REMARK  8 active torsions:
REMARK  status: ('A' for Active; 'I' for Inactive)
REMARK    1  A    between atoms: N1_1  and  N2_4 
REMARK    2  A    between atoms: C1_6  and  C2_7 
REMARK    3  A    between atoms: C1_6  and  N7_17 
REMARK    4  A    between atoms: C2_7  and  N3_8 
REMARK       I    between atoms: C3_10  and  N5_12 
REMARK    5  A    between atoms: N5_12  and  N6_14 
REMARK    6  A    between atoms: N7_17  and  C4_19 
REMARK    7  A    between atoms: C4_19  and  C5_20 
REMARK    8  A    between atoms: C5_20  and  N8_21 
ROOT
HETATM    1  N2  UNL     1      -1.412  -3.032   1.086  1.00  0.00    -0.294 N 
ATOM      2  H2  UNL     1      -1.887  -3.206   1.972  1.00  0.00     0.187 HD
HETATM    3  C1  UNL     1      -1.619  -1.905   0.508  1.00  0.00     0.109 C 
ENDROOT
BRANCH   3   4
HETATM    4  C2  UNL     1      -2.538  -0.934   1.174  1.00  0.00     0.199 C 
BRANCH   4   5
HETATM    5  N3  UNL     1      -3.656  -0.670   0.321  1.00  0.00    -0.356 N 
HETATM    6  C3  UNL     1      -3.955   0.527  -0.047  1.00  0.00     0.202 C 
HETATM    7  N4  UNL     1      -5.075   0.682  -0.889  1.00  0.00    -0.062 NA
HETATM    8  N5  UNL     1      -3.160   1.607   0.403  1.00  0.00    -0.280 N 
ATOM      9  H5  UNL     1      -2.186   1.682   0.108  1.00  0.00     0.189 HD
ATOM     10  H3  UNL     1      -4.230  -1.449  -0.003  1.00  0.00     0.162 HD
BRANCH   8  11
HETATM   11  N6  UNL     1      -3.714   2.578   1.258  1.00  0.00    -0.343 N 
ATOM     12  H62 UNL     1      -4.689   2.488   1.543  1.00  0.00     0.176 HD
ATOM     13  H61 UNL     1      -3.141   3.357   1.582  1.00  0.00     0.176 HD
ENDBRANCH   8  11
ENDBRANCH   4   5
ENDBRANCH   3   4
BRANCH   3  14
HETATM   14  N7  UNL     1      -1.047  -1.505  -0.718  1.00  0.00    -0.376 N 
ATOM     15  H7  UNL     1      -1.609  -1.511  -1.569  1.00  0.00     0.160 HD
BRANCH  14  16
HETATM   16  C4  UNL     1       0.326  -1.089  -0.767  1.00  0.00     0.141 C 
BRANCH  16  17
HETATM   17  C5  UNL     1       0.579   0.219  -0.044  1.00  0.00     0.157 C 
BRANCH  17  18
HETATM   18  N8  UNL     1       2.011   0.517  -0.181  1.00  0.00    -0.265 N 
HETATM   19  C6  UNL     1       2.811   0.023   0.783  1.00  0.00     0.254 A 
HETATM   20  O1  UNL     1       2.344  -0.658   1.741  1.00  0.00    -0.268 OA
HETATM   21  C7  UNL     1       4.156   0.278   0.697  1.00  0.00     0.119 A 
HETATM   22  C8  UNL     1       4.637   1.019  -0.353  1.00  0.00     0.125 A 
HETATM   23  N9  UNL     1       6.052   1.301  -0.462  1.00  0.00    -0.082 NA
HETATM   24  N10 UNL     1       3.788   1.486  -1.286  1.00  0.00    -0.296 N 
HETATM   25  C9  UNL     1       2.471   1.243  -1.213  1.00  0.00     0.330 A 
ATOM     26  H10 UNL     1       4.153   2.036  -2.064  1.00  0.00     0.171 HD
HETATM   27  O2  UNL     1       1.708   1.692  -2.098  1.00  0.00    -0.246 OA
ENDBRANCH  17  18
ENDBRANCH  16  17
ENDBRANCH  14  16
ENDBRANCH   3  14
BRANCH   1  28
HETATM   28  N1  UNL     1      -0.589  -4.026   0.590  1.00  0.00    -0.344 N 
ATOM     29  H12 UNL     1      -0.122  -3.834  -0.296  1.00  0.00     0.176 HD
ATOM     30  H11 UNL     1      -0.424  -4.922   1.049  1.00  0.00     0.176 HD
ENDBRANCH   1  28
TORSDOF 8
