REMARK  2 active torsions:
REMARK  status: ('A' for Active; 'I' for Inactive)
REMARK    1  A    between atoms: C4_5  and  O1_6 
REMARK    2  A    between atoms: N1_8  and  O2_9 
ROOT
HETATM    1  C1  UNL     1      -1.550  -0.415   0.395  1.00  0.00     0.029 C 
HETATM    2  C2  UNL     1      -0.609   0.165  -0.602  1.00  0.00     0.095 C 
HETATM    3  C3  UNL     1      -0.456   1.640  -0.365  1.00  0.00     0.099 C 
HETATM    4  S1  UNL     1       1.025   1.658   0.723  1.00  0.00    -0.119 SA
HETATM    5  C4  UNL     1       1.388  -0.138   0.569  1.00  0.00     0.282 C 
HETATM    6  N1  UNL     1       0.686  -0.437  -0.634  1.00  0.00    -0.156 NA
ENDROOT
BRANCH   5   7
HETATM    7  O1  UNL     1       2.756  -0.330   0.326  1.00  0.00    -0.370 OA
ATOM      8  H1  UNL     1       2.944  -1.258   0.246  1.00  0.00     0.212 HD
ENDBRANCH   5   7
BRANCH   6   9
HETATM    9  O2  UNL     1       0.518  -1.776  -0.706  1.00  0.00    -0.309 OA
ATOM     10  H2  UNL     1       1.379  -2.176  -0.727  1.00  0.00     0.237 HD
ENDBRANCH   6   9
TORSDOF 2
