REMARK  11 active torsions:
REMARK  status: ('A' for Active; 'I' for Inactive)
REMARK    1  A    between atoms: C2_2  and  N1_3 
REMARK    2  A    between atoms: C2_2  and  C11_29 
REMARK    3  A    between atoms: N1_3  and  C3_5 
REMARK    4  A    between atoms: C3_5  and  C4_6 
REMARK    5  A    between atoms: C3_5  and  C6_12 
REMARK    6  A    between atoms: C4_6  and  N2_8 
REMARK    7  A    between atoms: C6_12  and  N3_13 
REMARK    8  A    between atoms: C6_12  and  C8_18 
REMARK       I    between atoms: C8_18  and  N6_20 
REMARK       I    between atoms: C9_22  and  N8_24 
REMARK       I    between atoms: C11_29  and  N11_31 
REMARK    9  A    between atoms: N11_31  and  C12_33 
REMARK   10  A    between atoms: C12_33  and  C13_34 
REMARK   11  A    between atoms: C12_33  and  C14_37 
ROOT
HETATM    1  C3  UNL     1       1.218  -0.614  -0.223  1.00  0.00     0.139 C 
ENDROOT
BRANCH   1   2
HETATM    2  N1  UNL     1       0.262  -0.579   0.739  1.00  0.00    -0.401 N 
ATOM      3  H1  UNL     1       0.603  -0.149   1.599  1.00  0.00     0.154 HD
BRANCH   2   4
HETATM    4  C2  UNL     1      -1.033  -0.971   0.848  1.00  0.00     0.165 C 
HETATM    5  C1  UNL     1      -1.405  -2.436   0.843  1.00  0.00     0.042 C 
BRANCH   4   6
HETATM    6  C11 UNL     1      -1.992  -0.246  -0.072  1.00  0.00     0.240 C 
HETATM    7  O2  UNL     1      -1.556   0.626  -0.817  1.00  0.00    -0.271 OA
HETATM    8  N11 UNL     1      -3.337  -0.610  -0.026  1.00  0.00    -0.346 N 
ATOM      9  H11 UNL     1      -3.651  -1.342   0.612  1.00  0.00     0.163 HD
BRANCH   8  10
HETATM   10  C12 UNL     1      -4.303   0.073  -0.908  1.00  0.00     0.181 C 
BRANCH  10  11
HETATM   11  C13 UNL     1      -4.858  -0.899  -1.884  1.00  0.00     0.254 C 
HETATM   12  N12 UNL     1      -5.795  -0.568  -2.890  1.00  0.00    -0.060 NA
HETATM   13  O3  UNL     1      -4.488  -2.118  -1.844  1.00  0.00    -0.275 OA
ENDBRANCH  10  11
BRANCH  10  14
HETATM   14  C14 UNL     1      -5.401   0.701  -0.116  1.00  0.00    -0.022 C 
HETATM   15  C15 UNL     1      -4.863   1.736   0.875  1.00  0.00     0.017 C 
HETATM   16  C16 UNL     1      -6.258  -0.315   0.604  1.00  0.00     0.017 C 
HETATM   17  C17 UNL     1      -6.319   1.473  -1.036  1.00  0.00     0.017 C 
ENDBRANCH  10  14
ENDBRANCH   8  10
ENDBRANCH   4   6
ENDBRANCH   2   4
ENDBRANCH   1   2
BRANCH   1  18
HETATM   18  C4  UNL     1       1.754  -1.858  -0.844  1.00  0.00     0.204 C 
HETATM   19  C5  UNL     1       0.773  -2.686  -1.628  1.00  0.00     0.042 C 
BRANCH  18  20
HETATM   20  N2  UNL     1       2.461  -2.693   0.133  1.00  0.00    -0.073 N 
ATOM     21  H23 UNL     1       3.196  -2.168   0.607  1.00  0.00     0.274 HD
ATOM     22  H22 UNL     1       1.871  -2.904   0.938  1.00  0.00     0.274 HD
ATOM     23  H21 UNL     1       2.828  -3.545  -0.292  1.00  0.00     0.274 HD
ENDBRANCH  18  20
ENDBRANCH   1  18
BRANCH   1  24
HETATM   24  C6  UNL     1       2.480   0.165   0.259  1.00  0.00     0.200 C 
BRANCH  24  25
HETATM   25  N3  UNL     1       3.435   0.100  -0.785  1.00  0.00    -0.352 N 
HETATM   26  C7  UNL     1       3.606   0.870  -1.775  1.00  0.00     0.197 C 
HETATM   27  N4  UNL     1       2.855   2.028  -2.091  1.00  0.00    -0.067 NA
HETATM   28  N5  UNL     1       4.676   0.547  -2.691  1.00  0.00    -0.067 NA
ATOM     29  H3  UNL     1       4.083  -0.686  -0.731  1.00  0.00     0.162 HD
ENDBRANCH  24  25
BRANCH  24  30
HETATM   30  C8  UNL     1       3.022  -0.397   1.511  1.00  0.00     0.248 C 
HETATM   31  O1  UNL     1       2.338  -0.555   2.559  1.00  0.00    -0.271 OA
HETATM   32  N6  UNL     1       4.396  -0.821   1.654  1.00  0.00    -0.299 N 
HETATM   33  C9  UNL     1       5.355   0.045   1.757  1.00  0.00     0.197 C 
ATOM     34  H6  UNL     1       4.615  -1.817   1.674  1.00  0.00     0.171 HD
HETATM   35  N7  UNL     1       6.707  -0.338   1.897  1.00  0.00    -0.063 NA
HETATM   36  N8  UNL     1       4.984   1.421   1.719  1.00  0.00    -0.307 N 
HETATM   37  C10 UNL     1       5.308   2.298   2.585  1.00  0.00     0.203 C 
ATOM     38  H8  UNL     1       4.411   1.729   0.933  1.00  0.00     0.170 HD
HETATM   39  N9  UNL     1       6.098   2.058   3.742  1.00  0.00    -0.066 NA
HETATM   40  N10 UNL     1       4.821   3.630   2.347  1.00  0.00    -0.066 NA
ENDBRANCH  24  30
ENDBRANCH   1  24
TORSDOF 11
