REMARK  12 active torsions:
REMARK  status: ('A' for Active; 'I' for Inactive)
REMARK    1  A    between atoms: C1_2  and  C2_4 
REMARK    2  A    between atoms: C2_4  and  C3_5 
REMARK    3  A    between atoms: C8_10  and  N1_11 
REMARK    4  A    between atoms: N1_11  and  C9_13 
REMARK    5  A    between atoms: C9_13  and  C10_14 
REMARK    6  A    between atoms: C10_14  and  N2_15 
REMARK    7  A    between atoms: N2_15  and  C11_16 
REMARK    8  A    between atoms: N2_15  and  C13_22 
REMARK    9  A    between atoms: C11_16  and  C12_17 
REMARK   10  A    between atoms: N3_18  and  O3_20 
REMARK   11  A    between atoms: C13_22  and  C14_23 
REMARK   12  A    between atoms: C14_23  and  C15_24 
ROOT
HETATM    1  N1  UNL     1      -1.283   0.418   0.743  1.00  0.00    -0.373 N 
ATOM      2  H1  UNL     1      -1.215   0.043   1.689  1.00  0.00     0.161 HD
ENDROOT
BRANCH   1   3
HETATM    3  C8  UNL     1      -2.360   0.161   0.124  1.00  0.00     0.128 A 
HETATM    4  C7  UNL     1      -3.373  -0.590   0.740  1.00  0.00     0.038 A 
HETATM    5  C6  UNL     1      -3.527  -1.192   1.954  1.00  0.00     0.017 A 
HETATM    6  C21 UNL     1      -4.433  -0.712  -0.156  1.00  0.00     0.069 A 
HETATM    7  C5  UNL     1      -4.657  -1.895   2.315  1.00  0.00     0.002 A 
HETATM    8  C4  UNL     1      -5.694  -1.991   1.380  1.00  0.00     0.010 A 
HETATM    9  C3  UNL     1      -5.584  -1.391   0.122  1.00  0.00    -0.019 A 
HETATM   10  N5  UNL     1      -4.035  -0.046  -1.261  1.00  0.00    -0.298 N 
HETATM   11  N4  UNL     1      -2.819   0.468  -1.097  1.00  0.00    -0.284 N 
ATOM     12  H5  UNL     1      -4.593   0.050  -2.109  1.00  0.00     0.187 HD
ATOM     13  H4  UNL     1      -2.313   1.013  -1.795  1.00  0.00     0.188 HD
BRANCH   9  14
HETATM   14  C2  UNL     1      -6.734  -1.484  -0.815  1.00  0.00     0.154 C 
BRANCH  14  15
HETATM   15  C1  UNL     1      -7.559  -0.220  -0.698  1.00  0.00     0.177 C 
HETATM   16  O1  UNL     1      -8.146  -0.024   0.407  1.00  0.00    -0.648 OA
HETATM   17  O2  UNL     1      -7.615   0.614  -1.786  1.00  0.00    -0.648 OA
ENDBRANCH  14  15
ENDBRANCH   9  14
ENDBRANCH   1   3
BRANCH   1  18
HETATM   18  C9  UNL     1      -0.153   1.164   0.289  1.00  0.00     0.141 C 
BRANCH  18  19
HETATM   19  C10 UNL     1       1.115   0.363   0.464  1.00  0.00     0.141 C 
BRANCH  19  20
HETATM   20  N2  UNL     1       2.264   1.096   0.016  1.00  0.00    -0.387 N 
BRANCH  20  21
HETATM   21  C11 UNL     1       2.384   1.393  -1.341  1.00  0.00     0.104 C 
BRANCH  21  22
HETATM   22  C12 UNL     1       2.655   0.213  -2.178  1.00  0.00     0.130 C 
HETATM   23  N3  UNL     1       1.892  -0.813  -2.246  1.00  0.00    -0.279 N 
ATOM     24  H3  UNL     1       1.043  -0.794  -1.680  1.00  0.00     0.193 HD
BRANCH  23  25
HETATM   25  O3  UNL     1       2.103  -1.928  -3.000  1.00  0.00    -0.290 OA
ATOM     26  H3  UNL     1       1.537  -2.689  -3.050  1.00  0.00     0.244 HD
ENDBRANCH  23  25
ENDBRANCH  21  22
ENDBRANCH  20  21
BRANCH  20  27
HETATM   27  C13 UNL     1       2.830   1.964   0.981  1.00  0.00     0.127 C 
BRANCH  27  28
HETATM   28  C14 UNL     1       3.582   1.194   2.034  1.00  0.00     0.058 C 
BRANCH  28  29
HETATM   29  C15 UNL     1       4.777   0.522   1.421  1.00  0.00    -0.057 A 
HETATM   30  C16 UNL     1       5.988   1.235   1.422  1.00  0.00     0.007 A 
HETATM   31  C17 UNL     1       7.121   0.699   0.862  1.00  0.00     0.001 A 
HETATM   32  C18 UNL     1       7.062  -0.542   0.301  1.00  0.00     0.000 A 
HETATM   33  C19 UNL     1       5.905  -1.267   0.280  1.00  0.00     0.001 A 
HETATM   34  C20 UNL     1       4.762  -0.716   0.849  1.00  0.00     0.007 A 
ENDBRANCH  28  29
ENDBRANCH  27  28
ENDBRANCH  20  27
ENDBRANCH  19  20
ENDBRANCH  18  19
ENDBRANCH   1  18
TORSDOF 12
