REMARK  2 active torsions:
REMARK  status: ('A' for Active; 'I' for Inactive)
REMARK       I    between atoms: N1_1  and  C1_5 
REMARK       I    between atoms: C1_5  and  N2_6 
REMARK       I    between atoms: C1_5  and  N3_10 
REMARK    1  A    between atoms: N3_10  and  C2_12 
REMARK    2  A    between atoms: C4_21  and  N7_22 
ROOT
HETATM    1  C2  UNL     1      -0.550   0.192  -0.049  1.00  0.00     0.160 A 
HETATM    2  N4  UNL     1      -0.839  -1.121  -0.014  1.00  0.00    -0.290 N 
ATOM      3  H4  UNL     1      -0.126  -1.792   0.273  1.00  0.00     0.172 HD
HETATM    4  C3  UNL     1      -2.068  -1.552  -0.357  1.00  0.00     0.340 A 
HETATM    5  O1  UNL     1      -2.272  -2.791  -0.302  1.00  0.00    -0.245 OA
HETATM    6  N5  UNL     1      -3.061  -0.735  -0.746  1.00  0.00    -0.249 N 
ATOM      7  H5  UNL     1      -3.980  -1.098  -0.999  1.00  0.00     0.192 HD
HETATM    8  N6  UNL     1      -2.795   0.559  -0.786  1.00  0.00    -0.274 N 
ATOM      9  H6  UNL     1      -3.527   1.208  -1.076  1.00  0.00     0.189 HD
HETATM   10  C4  UNL     1      -1.585   1.042  -0.454  1.00  0.00     0.232 A 
ENDROOT
BRANCH   1  11
HETATM   11  N3  UNL     1       0.595   0.687   0.261  1.00  0.00    -0.324 N 
HETATM   12  C1  UNL     1       1.687  -0.161   0.683  1.00  0.00     0.481 C 
HETATM   13  N1  UNL     1       2.236  -0.899  -0.448  1.00  0.00    -0.033 N 
HETATM   14  N2  UNL     1       2.702   0.651   1.325  1.00  0.00    -0.033 N 
ATOM     15  H13 UNL     1       2.694  -0.277  -1.114  1.00  0.00     0.278 HD
ATOM     16  H12 UNL     1       3.044  -1.458  -0.174  1.00  0.00     0.278 HD
ATOM     17  H11 UNL     1       1.522  -1.470  -0.900  1.00  0.00     0.278 HD
ATOM     18  H23 UNL     1       3.510   0.092   1.599  1.00  0.00     0.278 HD
ATOM     19  H22 UNL     1       3.160   1.273   0.659  1.00  0.00     0.278 HD
ATOM     20  H21 UNL     1       2.318   1.167   2.116  1.00  0.00     0.278 HD
ATOM     21  H3  UNL     1       0.736   1.696   0.208  1.00  0.00     0.165 HD
ENDBRANCH   1  11
BRANCH  10  22
HETATM   22  N7  UNL     1      -1.285   2.438  -0.495  1.00  0.00    -0.092 N 
HETATM   23  O2  UNL     1      -0.464   2.900   0.320  1.00  0.00    -0.530 OA
HETATM   24  O3  UNL     1      -1.855   3.308  -1.389  1.00  0.00    -0.530 OA
ENDBRANCH  10  22
TORSDOF 2
