REMARK  3 active torsions:
REMARK  status: ('A' for Active; 'I' for Inactive)
REMARK       I    between atoms: N1_2  and  C3_4 
REMARK       I    between atoms: C3_4  and  N2_6 
REMARK    1  A    between atoms: N2_6  and  N3_8 
REMARK       I    between atoms: N3_8  and  C4_10 
REMARK    2  A    between atoms: N5_12  and  N6_14 
REMARK    3  A    between atoms: C5_16  and  C6_17 
ROOT
HETATM    1  N3  UNL     1       1.653  -2.499  -0.253  1.00  0.00    -0.268 N 
ATOM      2  H3  UNL     1       1.773  -3.439  -0.629  1.00  0.00     0.190 HD
HETATM    3  C4  UNL     1       0.351  -1.933   0.006  1.00  0.00     0.222 C 
HETATM    4  N4  UNL     1       0.068  -1.484   1.303  1.00  0.00    -0.061 NA
HETATM    5  N5  UNL     1      -0.439  -1.896  -1.000  1.00  0.00    -0.273 N 
ATOM      6  H5  UNL     1      -0.145  -2.249  -1.911  1.00  0.00     0.189 HD
ENDROOT
BRANCH   1   7
HETATM    7  N2  UNL     1       2.736  -1.674   0.046  1.00  0.00    -0.249 N 
HETATM    8  C3  UNL     1       2.829  -0.425  -0.621  1.00  0.00     0.336 C 
HETATM    9  N1  UNL     1       3.932   0.417  -0.319  1.00  0.00    -0.342 N 
HETATM   10  O1  UNL     1       1.944  -0.092  -1.455  1.00  0.00    -0.245 OA
HETATM   11  C1  UNL     1       4.087   1.699  -0.959  1.00  0.00     0.154 C 
HETATM   12  C2  UNL     1       4.906  -0.033   0.648  1.00  0.00     0.154 C 
ATOM     13  H2  UNL     1       3.442  -1.960   0.725  1.00  0.00     0.192 HD
ENDBRANCH   1   7
BRANCH   5  14
HETATM   14  N6  UNL     1      -1.712  -1.361  -0.817  1.00  0.00    -0.309 N 
HETATM   15  C5  UNL     1      -1.824  -0.159  -0.394  1.00  0.00     0.118 C 
ATOM     16  H6  UNL     1      -2.542  -1.919  -1.017  1.00  0.00     0.186 HD
BRANCH  15  17
HETATM   17  C6  UNL     1      -3.136   0.417  -0.196  1.00  0.00    -0.019 A 
HETATM   18  C7  UNL     1      -3.262   1.728   0.266  1.00  0.00     0.013 A 
HETATM   19  C8  UNL     1      -4.520   2.258   0.448  1.00  0.00     0.001 A 
HETATM   20  C9  UNL     1      -5.655   1.506   0.178  1.00  0.00     0.000 A 
HETATM   21  C10 UNL     1      -5.487   0.211  -0.277  1.00  0.00     0.001 A 
HETATM   22  C11 UNL     1      -4.250  -0.348  -0.469  1.00  0.00     0.013 A 
ENDBRANCH  15  17
ENDBRANCH   5  14
TORSDOF 3
