REMARK  10 active torsions:
REMARK  status: ('A' for Active; 'I' for Inactive)
REMARK    1  A    between atoms: N1_1  and  C1_4 
REMARK    2  A    between atoms: C2_10  and  C3_11 
REMARK    3  A    between atoms: C4_14  and  N5_15 
REMARK    4  A    between atoms: N5_15  and  C5_16 
REMARK    5  A    between atoms: C5_16  and  O2_17 
REMARK    6  A    between atoms: C5_16  and  C6_19 
REMARK    7  A    between atoms: C6_19  and  N6_20 
REMARK    8  A    between atoms: C9_27  and  C10_28 
REMARK    9  A    between atoms: C10_28  and  O4_29 
REMARK   10  A    between atoms: C11_31  and  N7_32 
ROOT
HETATM    1  C3  UNL     1      -0.503   1.595   0.745  1.00  0.00     0.183 A 
HETATM    2  N4  UNL     1       0.686   1.105   0.451  1.00  0.00    -0.308 N 
ATOM      3  H4  UNL     1       1.493   1.726   0.505  1.00  0.00     0.170 HD
HETATM    4  C4  UNL     1       0.893  -0.219   0.070  1.00  0.00     0.207 A 
HETATM    5  C7  UNL     1      -0.254  -1.022   0.013  1.00  0.00     0.124 A 
HETATM    6  C8  UNL     1      -1.473  -0.479   0.326  1.00  0.00     0.096 A 
HETATM    7  O3  UNL     1      -1.530   0.798   0.674  1.00  0.00    -0.293 OA
HETATM    8  C9  UNL     1      -2.700  -1.296   0.281  1.00  0.00     0.109 C 
HETATM    9  C11 UNL     1      -2.550  -2.397  -0.724  1.00  0.00     0.287 C 
HETATM   10  C12 UNL     1      -1.300  -3.156  -0.468  1.00  0.00     0.253 C 
HETATM   11  O5  UNL     1      -1.240  -4.392  -0.312  1.00  0.00    -0.271 OA
HETATM   12  N8  UNL     1      -0.087  -2.388  -0.400  1.00  0.00    -0.319 N 
ATOM     13  H8  UNL     1       0.825  -2.784  -0.628  1.00  0.00     0.169 HD
ENDROOT
BRANCH   1  14
HETATM   14  C2  UNL     1      -0.675   3.012   1.146  1.00  0.00     0.153 A 
HETATM   15  C1  UNL     1       0.257   4.006   1.282  1.00  0.00     0.154 A 
HETATM   16  N2  UNL     1      -0.388   5.119   1.667  1.00  0.00    -0.224 N 
HETATM   17  O1  UNL     1      -1.645   4.818   1.759  1.00  0.00    -0.155 OA
ATOM     18  H2  UNL     1       0.032   6.030   1.852  1.00  0.00     0.198 HD
HETATM   19  N3  UNL     1      -1.839   3.570   1.454  1.00  0.00    -0.234 N 
ATOM     20  H3  UNL     1      -2.742   3.095   1.452  1.00  0.00     0.197 HD
BRANCH  15  21
HETATM   21  N1  UNL     1       1.524   3.839   1.064  1.00  0.00    -0.382 N 
ATOM     22  H12 UNL     1       2.218   4.579   1.165  1.00  0.00     0.157 HD
ATOM     23  H11 UNL     1       2.014   2.994   0.772  1.00  0.00     0.157 HD
ENDBRANCH  15  21
ENDBRANCH   1  14
BRANCH   4  24
HETATM   24  N5  UNL     1       1.979  -0.630  -0.187  1.00  0.00    -0.394 NA
BRANCH  24  25
HETATM   25  C5  UNL     1       3.014  -1.396  -0.532  1.00  0.00     0.325 C 
BRANCH  25  26
HETATM   26  O2  UNL     1       3.149  -1.706  -1.910  1.00  0.00    -0.364 OA
ATOM     27  H2  UNL     1       3.887  -2.252  -2.156  1.00  0.00     0.213 HD
ENDBRANCH  25  26
BRANCH  25  28
HETATM   28  C6  UNL     1       4.406  -0.822  -0.181  1.00  0.00     0.297 C 
BRANCH  28  29
HETATM   29  N6  UNL     1       4.665   0.339  -0.990  1.00  0.00    -0.074 N 
ATOM     30  H63 UNL     1       4.569   0.143  -1.986  1.00  0.00     0.274 HD
ATOM     31  H62 UNL     1       3.928   1.039  -0.907  1.00  0.00     0.274 HD
ATOM     32  H61 UNL     1       5.583   0.718  -0.758  1.00  0.00     0.274 HD
ENDBRANCH  28  29
ENDBRANCH  25  28
ENDBRANCH  24  25
ENDBRANCH   4  24
BRANCH   8  33
HETATM   33  C10 UNL     1      -3.912  -0.449   0.011  1.00  0.00     0.178 C 
BRANCH  33  34
HETATM   34  O4  UNL     1      -3.999   0.484   1.057  1.00  0.00    -0.400 OA
ATOM     35  H4  UNL     1      -4.765   1.019   0.886  1.00  0.00     0.209 HD
ENDBRANCH  33  34
ENDBRANCH   8  33
BRANCH   9  36
HETATM   36  N7  UNL     1      -2.566  -1.798  -2.049  1.00  0.00    -0.066 N 
ATOM     37  H73 UNL     1      -3.393  -1.223  -2.213  1.00  0.00     0.275 HD
ATOM     38  H72 UNL     1      -1.866  -1.064  -2.159  1.00  0.00     0.275 HD
ATOM     39  H71 UNL     1      -2.464  -2.548  -2.733  1.00  0.00     0.275 HD
ENDBRANCH   9  36
TORSDOF 10
