REMARK  8 active torsions:
REMARK  status: ('A' for Active; 'I' for Inactive)
REMARK    1  A    between atoms: N1_1  and  C1_4 
REMARK    2  A    between atoms: C2_7  and  N3_8 
REMARK    3  A    between atoms: C5_16  and  C6_17 
REMARK    4  A    between atoms: C6_17  and  C7_19 
REMARK    5  A    between atoms: C7_19  and  O2_20 
REMARK    6  A    between atoms: C7_19  and  O3_22 
REMARK    7  A    between atoms: C9_25  and  C10_26 
REMARK    8  A    between atoms: C10_26  and  O4_27 
ROOT
HETATM    1  N3  UNL     1       0.944  -0.534   0.621  1.00  0.00    -0.203 N 
HETATM    2  C3  UNL     1       1.023  -1.801   1.308  1.00  0.00     0.164 C 
HETATM    3  C4  UNL     1      -0.103  -2.717   1.172  1.00  0.00     0.171 C 
HETATM    4  N4  UNL     1      -1.248  -2.105   0.516  1.00  0.00    -0.276 N 
HETATM    5  N5  UNL     1      -2.364  -2.768   0.155  1.00  0.00    -0.240 N 
ATOM      6  H5  UNL     1      -2.540  -3.764   0.287  1.00  0.00     0.208 HD
HETATM    7  N6  UNL     1      -3.178  -1.910  -0.393  1.00  0.00    -0.281 N 
ATOM      8  H6  UNL     1      -4.103  -2.135  -0.761  1.00  0.00     0.188 HD
HETATM    9  C5  UNL     1      -2.624  -0.691  -0.403  1.00  0.00     0.127 A 
HETATM   10  C8  UNL     1      -1.387  -0.839   0.185  1.00  0.00     0.087 A 
HETATM   11  C9  UNL     1      -0.331   0.163   0.445  1.00  0.00     0.179 C 
ENDROOT
BRANCH   1  12
HETATM   12  C2  UNL     1       2.159   0.018   0.129  1.00  0.00     0.710 A 
HETATM   13  N2  UNL     1       3.087   0.478   0.984  1.00  0.00    -0.021 N 
HETATM   14  C1  UNL     1       4.241   1.024   0.585  1.00  0.00     0.705 A 
ATOM     15  H2  UNL     1       2.903   0.408   1.985  1.00  0.00     0.203 HD
HETATM   16  N9  UNL     1       4.523   1.135  -0.710  1.00  0.00    -0.022 N 
HETATM   17  C11 UNL     1       3.599   0.677  -1.607  1.00  0.00     0.705 A 
ATOM     18  H9  UNL     1       5.401   1.549  -1.024  1.00  0.00     0.203 HD
HETATM   19  N7  UNL     1       2.437   0.128  -1.175  1.00  0.00    -0.021 N 
HETATM   20  N8  UNL     1       3.878   0.802  -2.858  1.00  0.00    -0.234 N 
ATOM     21  H7  UNL     1       1.760  -0.209  -1.859  1.00  0.00     0.203 HD
ATOM     22  H82 UNL     1       3.188   0.460  -3.527  1.00  0.00     0.174 HD
ATOM     23  H81 UNL     1       4.752   1.215  -3.183  1.00  0.00     0.174 HD
BRANCH  14  24
HETATM   24  N1  UNL     1       5.124   1.457   1.456  1.00  0.00    -0.234 N 
ATOM     25  H12 UNL     1       4.908   1.372   2.449  1.00  0.00     0.174 HD
ATOM     26  H11 UNL     1       6.004   1.873   1.152  1.00  0.00     0.174 HD
ENDBRANCH  14  24
ENDBRANCH   1  12
BRANCH  11  27
HETATM   27  C10 UNL     1      -0.537   1.031   1.629  1.00  0.00     0.196 C 
BRANCH  27  28
HETATM   28  O4  UNL     1       0.523   1.968   1.718  1.00  0.00    -0.398 OA
ATOM     29  H4  UNL     1       0.391   2.524   2.477  1.00  0.00     0.209 HD
ENDBRANCH  27  28
ENDBRANCH  11  27
BRANCH   9  30
HETATM   30  C6  UNL     1      -3.278   0.479  -0.932  1.00  0.00     0.233 C 
HETATM   31  O1  UNL     1      -2.679   1.583  -0.903  1.00  0.00    -0.285 OA
BRANCH  30  32
HETATM   32  C7  UNL     1      -4.643   0.454  -1.517  1.00  0.00     0.332 C 
BRANCH  32  33
HETATM   33  O2  UNL     1      -5.063   1.738  -1.824  1.00  0.00    -0.365 OA
ATOM     34  H2  UNL     1      -5.936   1.722  -2.198  1.00  0.00     0.213 HD
ENDBRANCH  32  33
BRANCH  32  35
HETATM   35  O3  UNL     1      -5.553  -0.075  -0.610  1.00  0.00    -0.365 OA
ATOM     36  H3  UNL     1      -6.426  -0.091  -0.984  1.00  0.00     0.213 HD
ENDBRANCH  32  35
ENDBRANCH  30  32
ENDBRANCH   9  30
TORSDOF 8
