REMARK  4 active torsions:
REMARK  status: ('A' for Active; 'I' for Inactive)
REMARK    1  A    between atoms: O1_2  and  C2_3 
REMARK    2  A    between atoms: C2_3  and  C3_5 
REMARK    3  A    between atoms: C5_10  and  N2_11 
REMARK    4  A    between atoms: C6_16  and  N4_17 
REMARK       I    between atoms: N4_17  and  C7_19 
ROOT
HETATM    1  C3  UNL     1       1.801   0.117   0.131  1.00  0.00     0.116 A 
HETATM    2  N1  UNL     1       1.468   1.415  -0.140  1.00  0.00    -0.344 N 
ATOM      3  H1  UNL     1       2.142   2.167  -0.283  1.00  0.00     0.167 HD
HETATM    4  C4  UNL     1       0.151   1.564  -0.192  1.00  0.00     0.092 A 
HETATM    5  S1  UNL     1      -0.916   2.884  -0.479  1.00  0.00    -0.036 SA
HETATM    6  C5  UNL     1      -2.551   2.420  -0.411  1.00  0.00     0.145 A 
HETATM    7  N3  UNL     1      -2.741   1.118  -0.148  1.00  0.00    -0.322 N 
ATOM      8  H3  UNL     1      -3.710   0.803  -0.100  1.00  0.00     0.169 HD
HETATM    9  C6  UNL     1      -1.807   0.190   0.057  1.00  0.00     0.124 A 
HETATM   10  C8  UNL     1      -0.450   0.350   0.047  1.00  0.00     0.050 A 
HETATM   11  C9  UNL     1       0.621  -0.543   0.247  1.00  0.00    -0.012 A 
HETATM   12  C10 UNL     1       0.442  -1.978   0.537  1.00  0.00     0.052 C 
ENDROOT
BRANCH   9  13
HETATM   13  N4  UNL     1      -2.223  -1.031   0.300  1.00  0.00    -0.296 N 
HETATM   14  C7  UNL     1      -3.598  -1.351   0.342  1.00  0.00     0.334 C 
HETATM   15  N5  UNL     1      -4.169  -1.962  -0.806  1.00  0.00    -0.040 NA
HETATM   16  O3  UNL     1      -4.331  -1.125   1.336  1.00  0.00    -0.251 OA
ATOM     17  H4  UNL     1      -1.536  -1.767   0.463  1.00  0.00     0.171 HD
ENDBRANCH   9  13
BRANCH   6  18
HETATM   18  N2  UNL     1      -3.529   3.247  -0.596  1.00  0.00    -0.380 N 
ATOM     19  H22 UNL     1      -3.385   4.237  -0.796  1.00  0.00     0.158 HD
ATOM     20  H21 UNL     1      -4.509   2.969  -0.555  1.00  0.00     0.158 HD
ENDBRANCH   6  18
BRANCH   1  21
HETATM   21  C2  UNL     1       3.184  -0.300   0.238  1.00  0.00     0.310 C 
HETATM   22  O2  UNL     1       3.454  -1.491   0.486  1.00  0.00    -0.258 OA
BRANCH  21  23
HETATM   23  O1  UNL     1       4.253   0.554   0.081  1.00  0.00    -0.321 OA
HETATM   24  C1  UNL     1       5.605   0.158   0.184  1.00  0.00     0.213 C 
ENDBRANCH  21  23
ENDBRANCH   1  21
TORSDOF 4
