REMARK  1 active torsions:
REMARK  status: ('A' for Active; 'I' for Inactive)
REMARK    1  A    between atoms: N1_1  and  C1_5 
ROOT
HETATM    1  C1  UNL     1       0.286  -2.062   0.601  1.00  0.00     0.267 C 
HETATM    2  C2  UNL     1      -1.082  -1.528   0.242  1.00  0.00    -0.015 A 
HETATM    3  C3  UNL     1      -1.985  -2.323  -0.396  1.00  0.00     0.011 A 
HETATM    4  C4  UNL     1      -3.241  -1.830  -0.754  1.00  0.00     0.013 A 
HETATM    5  C5  UNL     1      -3.566  -0.523  -0.457  1.00  0.00    -0.025 A 
HETATM    6  C6  UNL     1      -4.815  -0.020  -0.810  1.00  0.00     0.012 A 
HETATM    7  C7  UNL     1      -5.134   1.283  -0.511  1.00  0.00     0.001 A 
HETATM    8  C8  UNL     1      -4.256   2.118   0.130  1.00  0.00     0.001 A 
HETATM    9  C9  UNL     1      -3.016   1.628   0.483  1.00  0.00     0.013 A 
HETATM   10  C10 UNL     1      -2.682   0.306   0.185  1.00  0.00    -0.019 A 
HETATM   11  C11 UNL     1      -1.431  -0.214   0.533  1.00  0.00    -0.034 A 
HETATM   12  C12 UNL     1      -0.420   0.567   1.242  1.00  0.00     0.080 C 
HETATM   13  C13 UNL     1       0.909   0.356   0.612  1.00  0.00    -0.028 A 
HETATM   14  C14 UNL     1       1.784   1.404   0.340  1.00  0.00     0.023 A 
HETATM   15  C15 UNL     1       3.010   1.124  -0.223  1.00  0.00    -0.009 A 
HETATM   16  C16 UNL     1       3.922   2.139  -0.515  1.00  0.00     0.014 A 
HETATM   17  C17 UNL     1       5.147   1.848  -1.078  1.00  0.00     0.001 A 
HETATM   18  C18 UNL     1       5.468   0.535  -1.355  1.00  0.00     0.002 A 
HETATM   19  C19 UNL     1       4.551  -0.452  -1.058  1.00  0.00     0.030 A 
HETATM   20  C20 UNL     1       3.318  -0.191  -0.494  1.00  0.00     0.042 A 
HETATM   21  N2  UNL     1       2.441  -1.207  -0.218  1.00  0.00    -0.356 N 
ATOM     22  H2  UNL     1       2.699  -2.171  -0.430  1.00  0.00     0.166 HD
HETATM   23  C21 UNL     1       1.261  -0.945   0.323  1.00  0.00     0.051 A 
ENDROOT
BRANCH   1  24
HETATM   24  N1  UNL     1       0.358  -2.537   1.949  1.00  0.00    -0.066 N 
ATOM     25  H13 UNL     1       0.063  -1.816   2.607  1.00  0.00     0.275 HD
ATOM     26  H12 UNL     1      -0.365  -3.233   2.131  1.00  0.00     0.275 HD
ATOM     27  H11 UNL     1       1.281  -2.897   2.191  1.00  0.00     0.275 HD
ENDBRANCH   1  24
TORSDOF 1
