REMARK  10 active torsions:
REMARK  status: ('A' for Active; 'I' for Inactive)
REMARK    1  A    between atoms: C2_2  and  C3_3 
REMARK    2  A    between atoms: C3_3  and  N1_4 
REMARK    3  A    between atoms: C8_13  and  N4_14 
REMARK    4  A    between atoms: N4_14  and  C9_16 
REMARK    5  A    between atoms: C11_21  and  N7_22 
REMARK    6  A    between atoms: N7_22  and  C12_24 
REMARK    7  A    between atoms: C12_24  and  C13_25 
REMARK    8  A    between atoms: N8_31  and  C18_32 
REMARK    9  A    between atoms: C18_32  and  C19_33 
REMARK   10  A    between atoms: C19_33  and  C20_34 
ROOT
HETATM    1  C9  UNL     1      -1.292   0.393   0.078  1.00  0.00     0.690 A 
HETATM    2  N5  UNL     1      -0.840  -0.616   0.835  1.00  0.00    -0.176 N 
ATOM      3  H5  UNL     1      -1.517  -1.282   1.207  1.00  0.00     0.185 HD
HETATM    4  C10 UNL     1       0.464  -0.797   1.131  1.00  0.00     0.163 A 
HETATM    5  N6  UNL     1       0.886  -1.885   1.938  1.00  0.00    -0.080 NA
HETATM    6  C11 UNL     1       1.346   0.124   0.608  1.00  0.00     0.139 A 
HETATM    7  C17 UNL     1       0.863   1.174  -0.182  1.00  0.00     0.291 A 
HETATM    8  O1  UNL     1       1.766   1.952  -0.609  1.00  0.00    -0.265 OA
HETATM    9  N8  UNL     1      -0.444   1.325  -0.455  1.00  0.00    -0.145 N 
ENDROOT
BRANCH   1  10
HETATM   10  N4  UNL     1      -2.562   0.473  -0.123  1.00  0.00    -0.174 N 
ATOM     11  H4  UNL     1      -2.885   1.246  -0.705  1.00  0.00     0.186 HD
BRANCH  10  12
HETATM   12  C8  UNL     1      -3.544  -0.391   0.374  1.00  0.00     0.150 A 
HETATM   13  N3  UNL     1      -3.811  -0.450   1.719  1.00  0.00    -0.350 N 
HETATM   14  C7  UNL     1      -4.755  -1.266   2.211  1.00  0.00     0.092 A 
ATOM     15  H3  UNL     1      -3.279   0.140   2.359  1.00  0.00     0.166 HD
HETATM   16  C6  UNL     1      -5.500  -2.082   1.391  1.00  0.00     0.049 A 
HETATM   17  C5  UNL     1      -5.252  -2.038   0.061  1.00  0.00     0.065 A 
HETATM   18  N2  UNL     1      -5.796  -2.686  -0.982  1.00  0.00    -0.350 N 
HETATM   19  C22 UNL     1      -4.270  -1.193  -0.478  1.00  0.00     0.111 A 
HETATM   20  C4  UNL     1      -5.212  -2.290  -2.097  1.00  0.00     0.188 A 
ATOM     21  H2  UNL     1      -6.544  -3.377  -0.922  1.00  0.00     0.166 HD
HETATM   22  N1  UNL     1      -4.259  -1.362  -1.812  1.00  0.00    -0.313 N 
BRANCH  22  23
HETATM   23  C3  UNL     1      -3.444  -0.747  -2.781  1.00  0.00     0.097 C 
BRANCH  23  24
HETATM   24  C2  UNL     1      -2.188  -1.517  -3.104  1.00  0.00     0.007 C 
HETATM   25  C1  UNL     1      -1.901  -2.663  -2.519  1.00  0.00     0.013 C 
ENDBRANCH  23  24
ENDBRANCH  22  23
ENDBRANCH  10  12
ENDBRANCH   1  10
BRANCH   9  26
HETATM   26  C18 UNL     1      -0.879   2.376  -1.298  1.00  0.00     0.151 C 
BRANCH  26  27
HETATM   27  C19 UNL     1      -1.423   3.619  -0.750  1.00  0.00     0.020 C 
BRANCH  27  28
HETATM   28  C20 UNL     1      -0.653   4.485   0.152  1.00  0.00    -0.003 C 
HETATM   29  C21 UNL     1      -0.322   3.866   1.460  1.00  0.00     0.005 C 
ENDBRANCH  27  28
ENDBRANCH  26  27
ENDBRANCH   9  26
BRANCH   6  30
HETATM   30  N7  UNL     1       2.744  -0.017   0.888  1.00  0.00    -0.382 N 
ATOM     31  H7  UNL     1       3.128   0.441   1.715  1.00  0.00     0.160 HD
BRANCH  30  32
HETATM   32  C12 UNL     1       3.628  -0.781   0.045  1.00  0.00     0.128 C 
BRANCH  32  33
HETATM   33  C13 UNL     1       5.016  -0.717   0.630  1.00  0.00    -0.035 C 
HETATM   34  C14 UNL     1       5.061  -1.287   2.031  1.00  0.00     0.016 C 
HETATM   35  C15 UNL     1       5.466   0.728   0.660  1.00  0.00     0.016 C 
HETATM   36  C16 UNL     1       6.016  -1.489  -0.202  1.00  0.00     0.016 C 
ENDBRANCH  32  33
ENDBRANCH  30  32
ENDBRANCH   6  30
TORSDOF 10
