REMARK  9 active torsions:
REMARK  status: ('A' for Active; 'I' for Inactive)
REMARK    1  A    between atoms: C2_2  and  C3_4 
REMARK    2  A    between atoms: C3_4  and  C4_5 
REMARK    3  A    between atoms: C4_5  and  C5_6 
REMARK    4  A    between atoms: C7_11  and  C8_12 
REMARK    5  A    between atoms: C8_12  and  C9_13 
REMARK    6  A    between atoms: C13_25  and  C14_26 
REMARK    7  A    between atoms: C18_33  and  C19_34 
REMARK    8  A    between atoms: C22_39  and  O5_40 
REMARK    9  A    between atoms: C23_42  and  C24_43 
ROOT
HETATM    1  C5  UNL     1       2.199   0.068  -0.129  1.00  0.00     0.026 C 
HETATM    2  N1  UNL     1       1.331   0.342   0.956  1.00  0.00    -0.328 N 
ATOM      3  H1  UNL     1       1.527  -0.205   1.794  1.00  0.00     0.168 HD
HETATM    4  C6  UNL     1       0.244   1.233   1.090  1.00  0.00     0.245 C 
HETATM    5  O2  UNL     1      -0.424   1.229   2.197  1.00  0.00    -0.271 OA
HETATM    6  C7  UNL     1      -0.308   2.227   0.161  1.00  0.00     0.182 C 
HETATM    7  N4  UNL     1      -1.737   2.218  -0.008  1.00  0.00    -0.346 N 
ATOM      8  H4  UNL     1      -2.094   2.988  -0.573  1.00  0.00     0.163 HD
HETATM    9  C12 UNL     1      -2.723   1.349   0.460  1.00  0.00     0.241 C 
HETATM   10  O3  UNL     1      -3.469   1.790   1.412  1.00  0.00    -0.271 OA
HETATM   11  C13 UNL     1      -3.071  -0.026   0.038  1.00  0.00     0.180 C 
HETATM   12  N5  UNL     1      -2.788  -1.001   1.072  1.00  0.00    -0.346 N 
ATOM     13  H5  UNL     1      -3.155  -0.779   1.997  1.00  0.00     0.163 HD
HETATM   14  C17 UNL     1      -2.084  -2.201   0.978  1.00  0.00     0.241 C 
HETATM   15  O4  UNL     1      -2.638  -3.193   1.592  1.00  0.00    -0.271 OA
HETATM   16  C18 UNL     1      -0.812  -2.511   0.290  1.00  0.00     0.179 C 
HETATM   17  N6  UNL     1      -0.615  -1.912  -0.984  1.00  0.00    -0.357 N 
ATOM     18  H6  UNL     1      -1.320  -2.185  -1.669  1.00  0.00     0.162 HD
HETATM   19  C22 UNL     1       0.336  -1.031  -1.498  1.00  0.00     0.145 C 
HETATM   20  C23 UNL     1       1.751  -0.817  -1.240  1.00  0.00     0.019 C 
ENDROOT
BRANCH   6  21
HETATM   21  C8  UNL     1       0.235   3.575   0.632  1.00  0.00     0.095 C 
BRANCH  21  22
HETATM   22  C9  UNL     1      -0.189   4.738  -0.113  1.00  0.00     0.046 A 
HETATM   23  N2  UNL     1       0.443   5.274  -1.203  1.00  0.00    -0.353 N 
HETATM   24  C10 UNL     1      -0.236   6.314  -1.674  1.00  0.00     0.181 A 
ATOM     25  H2  UNL     1       1.315   4.923  -1.599  1.00  0.00     0.166 HD
HETATM   26  N3  UNL     1      -1.308   6.470  -0.908  1.00  0.00    -0.345 N 
HETATM   27  C11 UNL     1      -1.301   5.514   0.059  1.00  0.00     0.103 A 
ATOM     28  H3  UNL     1      -2.021   7.190  -1.025  1.00  0.00     0.167 HD
HETATM   29 BR1  UNL     1      -2.651   5.442   1.402  1.00  0.00    -0.029 Br
ENDBRANCH  21  22
ENDBRANCH   6  21
BRANCH   1  30
HETATM   30  C4  UNL     1       3.229   1.101  -0.500  1.00  0.00     0.088 C 
BRANCH  30  31
HETATM   31  C3  UNL     1       4.326   1.413   0.402  1.00  0.00     0.029 C 
BRANCH  31  32
HETATM   32  C2  UNL     1       4.210   1.927   1.736  1.00  0.00     0.142 C 
HETATM   33  C1  UNL     1       5.526   2.173   2.475  1.00  0.00     0.095 C 
HETATM   34  O1  UNL     1       3.231   2.186   2.345  1.00  0.00    -0.294 OA
ENDBRANCH  31  32
ENDBRANCH  30  31
ENDBRANCH   1  30
BRANCH  11  35
HETATM   35  C14 UNL     1      -4.587  -0.046  -0.265  1.00  0.00     0.009 C 
HETATM   36  C15 UNL     1      -4.951  -1.447  -0.710  1.00  0.00     0.012 C 
HETATM   37  C16 UNL     1      -5.446   0.289   0.893  1.00  0.00     0.012 C 
ENDBRANCH  11  35
BRANCH  20  38
HETATM   38  C24 UNL     1       2.636  -2.024  -1.488  1.00  0.00     0.017 C 
HETATM   39  C25 UNL     1       2.856  -2.948  -0.370  1.00  0.00     0.015 C 
HETATM   40  C26 UNL     1       3.948  -1.723  -2.163  1.00  0.00     0.015 C 
ENDBRANCH  20  38
BRANCH  19  41
HETATM   41  O5  UNL     1      -0.218  -0.252  -2.410  1.00  0.00    -0.346 OA
ATOM     42  H5  UNL     1       0.430   0.348  -2.760  1.00  0.00     0.219 HD
ENDBRANCH  19  41
BRANCH  16  43
HETATM   43  C19 UNL     1      -0.804  -4.041  -0.018  1.00  0.00     0.009 C 
HETATM   44  C20 UNL     1      -1.976  -4.416  -0.898  1.00  0.00     0.012 C 
HETATM   45  C21 UNL     1      -0.700  -4.846   1.233  1.00  0.00     0.012 C 
ENDBRANCH  16  43
TORSDOF 9
