REMARK  11 active torsions:
REMARK  status: ('A' for Active; 'I' for Inactive)
REMARK    1  A    between atoms: C2_2  and  N1_3 
REMARK    2  A    between atoms: N1_3  and  C4_5 
REMARK    3  A    between atoms: N1_3  and  C14_29 
REMARK    4  A    between atoms: C4_5  and  C5_6 
REMARK    5  A    between atoms: C5_6  and  C6_7 
REMARK    6  A    between atoms: C6_7  and  N2_8 
REMARK       I    between atoms: N2_8  and  C7_10 
REMARK       I    between atoms: C7_10  and  N4_14 
REMARK    7  A    between atoms: N4_14  and  C8_16 
REMARK    8  A    between atoms: C9_19  and  C10_20 
REMARK    9  A    between atoms: C10_20  and  C11_21 
REMARK   10  A    between atoms: C11_21  and  N6_22 
REMARK   11  A    between atoms: C14_29  and  C15_30 
ROOT
HETATM    1  N2  UNL     1       1.146  -1.675  -0.429  1.00  0.00    -0.226 N 
ATOM      2  H2  UNL     1       0.946  -2.606  -0.064  1.00  0.00     0.177 HD
HETATM    3  C7  UNL     1       2.074  -0.846   0.236  1.00  0.00     0.673 C 
HETATM    4  N3  UNL     1       1.767   0.311   0.646  1.00  0.00    -0.235 N 
ATOM      5  H31 UNL     1       2.438   0.910   1.127  1.00  0.00     0.174 HD
ATOM      6  H32 UNL     1       0.830   0.687   0.500  1.00  0.00     0.174 HD
HETATM    7  N4  UNL     1       3.366  -1.365   0.438  1.00  0.00    -0.171 N 
ATOM      8  H4  UNL     1       3.464  -2.282   0.874  1.00  0.00     0.186 HD
ENDROOT
BRANCH   1   9
HETATM    9  C6  UNL     1       0.480  -1.215  -1.618  1.00  0.00     0.139 C 
BRANCH   9  10
HETATM   10  C5  UNL     1      -0.534  -0.132  -1.349  1.00  0.00     0.048 C 
BRANCH  10  11
HETATM   11  C4  UNL     1      -1.558  -0.698  -0.405  1.00  0.00     0.238 C 
BRANCH  11  12
HETATM   12  N1  UNL     1      -2.630   0.215  -0.057  1.00  0.00    -0.071 N 
HETATM   13  C3  UNL     1      -2.739   1.324  -0.984  1.00  0.00     0.272 C 
BRANCH  12  14
HETATM   14  C2  UNL     1      -2.322   0.754   1.253  1.00  0.00     0.232 C 
HETATM   15  C1  UNL     1      -2.330  -0.266   2.345  1.00  0.00     0.035 C 
ENDBRANCH  12  14
BRANCH  12  16
HETATM   16  C14 UNL     1      -3.839  -0.537  -0.110  1.00  0.00     0.241 C 
BRANCH  16  17
HETATM   17  C15 UNL     1      -5.016  -0.041   0.623  1.00  0.00     0.012 C 
HETATM   18  C16 UNL     1      -5.546   1.297   0.245  1.00  0.00     0.006 C 
HETATM   19  C17 UNL     1      -7.062   1.294   0.497  1.00  0.00     0.000 C 
HETATM   20  C18 UNL     1      -7.707   0.583  -0.672  1.00  0.00     0.000 C 
HETATM   21  C19 UNL     1      -6.842  -0.644  -0.959  1.00  0.00     0.000 C 
HETATM   22  C20 UNL     1      -6.146  -1.050   0.344  1.00  0.00     0.006 C 
ENDBRANCH  16  17
ENDBRANCH  12  16
ENDBRANCH  11  12
ENDBRANCH  10  11
ENDBRANCH   9  10
ENDBRANCH   1   9
BRANCH   7  23
HETATM   23  C8  UNL     1       4.453  -0.712   0.086  1.00  0.00     0.164 A 
HETATM   24  N5  UNL     1       5.714  -1.120   0.235  1.00  0.00    -0.339 N 
HETATM   25  C9  UNL     1       6.673  -0.343  -0.172  1.00  0.00     0.025 A 
ATOM     26  H5  UNL     1       5.922  -2.024   0.660  1.00  0.00     0.168 HD
HETATM   27  C12 UNL     1       6.331   0.857  -0.735  1.00  0.00     0.005 A 
HETATM   28  C13 UNL     1       7.250   1.925  -1.282  1.00  0.00     0.058 C 
HETATM   29  S1  UNL     1       4.625   0.814  -0.652  1.00  0.00    -0.056 SA
BRANCH  25  30
HETATM   30  C10 UNL     1       8.147  -0.706  -0.052  1.00  0.00     0.085 C 
BRANCH  30  31
HETATM   31  C11 UNL     1       8.752   0.074   1.103  1.00  0.00     0.235 C 
BRANCH  31  32
HETATM   32  N6  UNL     1      10.162  -0.283   1.208  1.00  0.00    -0.079 N 
ATOM     33  H63 UNL     1      10.307  -1.289   1.295  1.00  0.00     0.274 HD
ATOM     34  H62 UNL     1      10.668  -0.145   0.333  1.00  0.00     0.274 HD
ATOM     35  H61 UNL     1      10.568   0.241   1.983  1.00  0.00     0.274 HD
ENDBRANCH  31  32
ENDBRANCH  30  31
ENDBRANCH  25  30
ENDBRANCH   7  23
TORSDOF 11
