REMARK  13 active torsions:
REMARK  status: ('A' for Active; 'I' for Inactive)
REMARK    1  A    between atoms: C2_2  and  C3_3 
REMARK    2  A    between atoms: C2_2  and  C24_37 
REMARK    3  A    between atoms: C3_3  and  C4_4 
REMARK    4  A    between atoms: C4_4  and  C5_5 
REMARK       I    between atoms: C5_5  and  N1_7 
REMARK    5  A    between atoms: C6_9  and  C7_10 
REMARK    6  A    between atoms: C6_9  and  C12_16 
REMARK    7  A    between atoms: C7_10  and  C8_11 
REMARK    8  A    between atoms: C12_16  and  O3_18 
REMARK    9  A    between atoms: O3_18  and  C13_19 
REMARK   10  A    between atoms: C13_19  and  C14_20 
REMARK   11  A    between atoms: C14_20  and  C15_21 
REMARK   12  A    between atoms: C18_27  and  C19_28 
REMARK   13  A    between atoms: C19_28  and  N2_29 
ROOT
HETATM    1  C5  UNL     1      -2.318   0.449   0.586  1.00  0.00     0.231 C 
HETATM    2  O1  UNL     1      -2.885   1.264   1.348  1.00  0.00    -0.272 OA
HETATM    3  N1  UNL     1      -0.933   0.557   0.382  1.00  0.00    -0.325 N 
ATOM      4  H1  UNL     1      -0.382  -0.261   0.640  1.00  0.00     0.169 HD
HETATM    5  C6  UNL     1      -0.274   1.545  -0.084  1.00  0.00     0.092 C 
ENDROOT
BRANCH   5   6
HETATM    6  C7  UNL     1      -0.938   2.766  -0.489  1.00  0.00     0.109 C 
BRANCH   6   7
HETATM    7  C8  UNL     1      -0.573   3.994   0.236  1.00  0.00    -0.012 A 
HETATM    8  C9  UNL     1      -0.998   4.550   1.402  1.00  0.00     0.015 A 
HETATM    9  C10 UNL     1      -0.445   5.722   1.775  1.00  0.00     0.008 A 
HETATM   10  C11 UNL     1       0.504   6.257   0.942  1.00  0.00     0.050 A 
HETATM   11  S1  UNL     1       0.583   5.105  -0.319  1.00  0.00    -0.106 SA
ENDBRANCH   6   7
ENDBRANCH   5   6
BRANCH   5  12
HETATM   12  C12 UNL     1       1.169   1.405  -0.187  1.00  0.00     0.306 C 
HETATM   13  O2  UNL     1       1.914   2.317  -0.637  1.00  0.00    -0.258 OA
BRANCH  12  14
HETATM   14  O3  UNL     1       1.832   0.243   0.208  1.00  0.00    -0.316 OA
BRANCH  14  15
HETATM   15  C13 UNL     1       3.245   0.147   0.091  1.00  0.00     0.184 C 
BRANCH  15  16
HETATM   16  C14 UNL     1       3.718  -1.178   0.574  1.00  0.00     0.074 C 
BRANCH  16  17
HETATM   17  C15 UNL     1       5.215  -1.295   0.454  1.00  0.00    -0.003 A 
HETATM   18  S2  UNL     1       6.361  -1.046   1.706  1.00  0.00    -0.083 SA
HETATM   19  C16 UNL     1       7.788  -1.321   0.828  1.00  0.00     0.091 A 
HETATM   20 BR1  UNL     1       9.624  -1.260   1.426  1.00  0.00    -0.040 Br
HETATM   21  C17 UNL     1       7.329  -1.603  -0.433  1.00  0.00     0.149 A 
HETATM   22  F1  UNL     1       8.246  -1.886  -1.442  1.00  0.00    -0.203 F 
HETATM   23  C18 UNL     1       6.003  -1.589  -0.625  1.00  0.00     0.021 A 
BRANCH  23  24
HETATM   24  C19 UNL     1       5.352  -1.903  -1.961  1.00  0.00     0.272 C 
BRANCH  24  25
HETATM   25  N2  UNL     1       6.310  -2.198  -2.975  1.00  0.00    -0.075 N 
ATOM     26  H23 UNL     1       6.993  -1.446  -3.066  1.00  0.00     0.274 HD
ATOM     27  H22 UNL     1       6.934  -2.950  -2.684  1.00  0.00     0.274 HD
ATOM     28  H21 UNL     1       5.873  -2.409  -3.872  1.00  0.00     0.274 HD
ENDBRANCH  24  25
ENDBRANCH  23  24
ENDBRANCH  16  17
ENDBRANCH  15  16
ENDBRANCH  14  15
ENDBRANCH  12  14
ENDBRANCH   5  12
BRANCH   1  29
HETATM   29  C4  UNL     1      -3.156  -0.608  -0.077  1.00  0.00     0.042 C 
HETATM   30  C20 UNL     1      -3.218  -0.266  -1.598  1.00  0.00     0.019 C 
HETATM   31  C21 UNL     1      -2.076  -0.948  -2.248  1.00  0.00     0.001 C 
HETATM   32  C22 UNL     1      -1.696  -2.083  -1.364  1.00  0.00     0.001 C 
HETATM   33  C23 UNL     1      -2.421  -1.892  -0.045  1.00  0.00     0.019 C 
BRANCH  29  34
HETATM   34  C3  UNL     1      -4.569  -0.604   0.350  1.00  0.00     0.034 C 
BRANCH  34  35
HETATM   35  C2  UNL     1      -4.932  -0.793   1.769  1.00  0.00     0.084 C 
HETATM   36  C1  UNL     1      -6.493  -0.723   1.790  1.00  0.00     0.021 C 
BRANCH  35  37
HETATM   37  C24 UNL     1      -4.617  -2.121   2.325  1.00  0.00     0.176 C 
HETATM   38  O4  UNL     1      -5.520  -3.027   2.285  1.00  0.00    -0.648 OA
HETATM   39  O5  UNL     1      -3.394  -2.465   2.897  1.00  0.00    -0.648 OA
ENDBRANCH  35  37
ENDBRANCH  34  35
ENDBRANCH  29  34
ENDBRANCH   1  29
TORSDOF 13
