REMARK  8 active torsions:
REMARK  status: ('A' for Active; 'I' for Inactive)
REMARK    1  A    between atoms: C2_2  and  C3_3 
REMARK    2  A    between atoms: C3_3  and  O1_4 
REMARK    3  A    between atoms: O1_4  and  C4_5 
REMARK    4  A    between atoms: C5_7  and  O3_8 
REMARK    5  A    between atoms: O3_8  and  C6_9 
REMARK    6  A    between atoms: C6_9  and  C7_11 
REMARK    7  A    between atoms: C7_11  and  C8_12 
REMARK    8  A    between atoms: C17_23  and  O7_24 
ROOT
HETATM    1  C4  UNL     1      -1.107  -0.134  -0.156  1.00  0.00     0.238 C 
HETATM    2  O2  UNL     1       0.262   0.010  -0.307  1.00  0.00    -0.286 OA
HETATM    3  C5  UNL     1       1.318   0.440   0.472  1.00  0.00     0.188 C 
HETATM    4  C10 UNL     1       1.451   0.186   1.745  1.00  0.00     0.049 C 
HETATM    5  C11 UNL     1       0.603  -0.576   2.707  1.00  0.00     0.082 C 
HETATM    6  C12 UNL     1       0.818  -2.066   2.573  1.00  0.00     0.022 C 
HETATM    7  C13 UNL     1      -0.787  -0.287   2.316  1.00  0.00     0.174 C 
HETATM    8  O5  UNL     1      -1.393   0.436   3.078  1.00  0.00    -0.294 OA
HETATM    9  C14 UNL     1      -1.523  -0.751   1.148  1.00  0.00     0.186 C 
HETATM   10  O6  UNL     1      -1.099  -1.984   0.604  1.00  0.00    -0.355 OA
HETATM   11  C15 UNL     1      -1.559  -1.491  -0.641  1.00  0.00     0.192 C 
HETATM   12  C16 UNL     1      -3.038  -1.692  -0.797  1.00  0.00     0.070 C 
HETATM   13  C17 UNL     1      -3.581  -1.948   0.606  1.00  0.00     0.128 C 
HETATM   14  C18 UNL     1      -2.979  -0.812   1.438  1.00  0.00     0.058 C 
HETATM   15  C19 UNL     1      -3.734   0.451   1.231  1.00  0.00     0.016 C 
ENDROOT
BRANCH   3  16
HETATM   16  O3  UNL     1       2.296   1.193  -0.161  1.00  0.00    -0.255 OA
BRANCH  16  17
HETATM   17  C6  UNL     1       3.417   0.641  -0.764  1.00  0.00     0.265 C 
HETATM   18  O4  UNL     1       3.522  -0.614  -0.716  1.00  0.00    -0.265 OA
BRANCH  17  19
HETATM   19  C7  UNL     1       4.451   1.481  -1.437  1.00  0.00     0.111 C 
BRANCH  19  20
HETATM   20  C8  UNL     1       5.522   0.563  -1.979  1.00  0.00     0.005 C 
HETATM   21  C9  UNL     1       6.130  -0.205  -0.823  1.00  0.00     0.005 C 
ENDBRANCH  19  20
ENDBRANCH  17  19
ENDBRANCH  16  17
ENDBRANCH   3  16
BRANCH   1  22
HETATM   22  O1  UNL     1      -1.855   0.952  -0.550  1.00  0.00    -0.346 OA
BRANCH  22  23
HETATM   23  C3  UNL     1      -1.686   1.280  -1.872  1.00  0.00     0.198 C 
BRANCH  23  24
HETATM   24  C2  UNL     1      -2.562   2.465  -2.148  1.00  0.00    -0.011 C 
HETATM   25  C1  UNL     1      -2.026   3.596  -2.569  1.00  0.00     0.009 C 
ENDBRANCH  23  24
ENDBRANCH  22  23
ENDBRANCH   1  22
BRANCH  13  26
HETATM   26  O7  UNL     1      -4.947  -1.962   0.653  1.00  0.00    -0.395 OA
ATOM     27  H7  UNL     1      -5.285  -2.121   1.526  1.00  0.00     0.210 HD
ENDBRANCH  13  26
TORSDOF 8
