REMARK  10 active torsions:
REMARK  status: ('A' for Active; 'I' for Inactive)
REMARK    1  A    between atoms: C2_2  and  O1_3 
REMARK    2  A    between atoms: O1_3  and  C3_4 
REMARK    3  A    between atoms: C3_4  and  C4_6 
REMARK    4  A    between atoms: C5_7  and  C6_8 
REMARK    5  A    between atoms: C6_8  and  O3_9 
REMARK    6  A    between atoms: O3_9  and  C7_10 
REMARK    7  A    between atoms: C7_10  and  O4_12 
REMARK    8  A    between atoms: O4_12  and  C8_13 
REMARK    9  A    between atoms: C8_13  and  C9_14 
REMARK   10  A    between atoms: C18_25  and  O6_26 
ROOT
HETATM    1  C4  UNL     1       4.001  -0.566   0.332  1.00  0.00     0.147 C 
HETATM    2  C5  UNL     1       2.756  -0.834   0.680  1.00  0.00     0.106 C 
HETATM    3  O5  UNL     1       2.392  -1.989  -0.030  1.00  0.00    -0.322 OA
HETATM    4  C17 UNL     1       3.570  -2.673  -0.423  1.00  0.00     0.275 C 
HETATM    5  C18 UNL     1       3.757  -2.865  -1.909  1.00  0.00     0.260 C 
HETATM    6  C19 UNL     1       5.114  -2.277  -1.592  1.00  0.00     0.260 C 
HETATM    7  O7  UNL     1       6.297  -2.379  -1.997  1.00  0.00    -0.270 OA
HETATM    8  N1  UNL     1       4.463  -1.528  -0.602  1.00  0.00    -0.277 N 
ENDROOT
BRANCH   2   9
HETATM    9  C6  UNL     1       1.808  -0.175   1.595  1.00  0.00     0.246 C 
BRANCH   9  10
HETATM   10  O3  UNL     1       0.632   0.256   0.929  1.00  0.00    -0.315 OA
BRANCH  10  11
HETATM   11  C7  UNL     1      -0.232  -0.571   0.261  1.00  0.00     0.254 C 
HETATM   12  S1  UNL     1      -0.619  -2.007   0.894  1.00  0.00    -0.025 SA
BRANCH  11  13
HETATM   13  O4  UNL     1      -0.773  -0.191  -0.939  1.00  0.00    -0.321 OA
BRANCH  13  14
HETATM   14  C8  UNL     1      -1.601   0.936  -1.122  1.00  0.00     0.183 C 
BRANCH  14  15
HETATM   15  C9  UNL     1      -2.857   0.879  -0.302  1.00  0.00     0.012 C 
HETATM   16  C10 UNL     1      -3.636   2.164  -0.614  1.00  0.00     0.027 C 
HETATM   17  C11 UNL     1      -4.981   2.156   0.049  1.00  0.00     0.083 C 
HETATM   18 CL1  UNL     1      -6.306   2.472  -1.113  1.00  0.00    -0.125 Cl
HETATM   19  C12 UNL     1      -5.248   0.951   0.887  1.00  0.00     0.029 C 
HETATM   20  C13 UNL     1      -4.910  -0.357   0.256  1.00  0.00    -0.046 C 
HETATM   21  C14 UNL     1      -4.507  -1.404   1.292  1.00  0.00     0.015 C 
HETATM   22  C15 UNL     1      -6.113  -0.952  -0.474  1.00  0.00     0.015 C 
HETATM   23  C16 UNL     1      -3.770  -0.255  -0.719  1.00  0.00     0.015 C 
ENDBRANCH  14  15
ENDBRANCH  13  14
ENDBRANCH  11  13
ENDBRANCH  10  11
ENDBRANCH   9  10
ENDBRANCH   2   9
BRANCH   1  24
HETATM   24  C3  UNL     1       4.806   0.548   0.817  1.00  0.00     0.312 C 
HETATM   25  O2  UNL     1       4.449   1.415   1.631  1.00  0.00    -0.258 OA
BRANCH  24  26
HETATM   26  O1  UNL     1       6.127   0.707   0.352  1.00  0.00    -0.317 OA
BRANCH  26  27
HETATM   27  C2  UNL     1       6.924   1.781   0.811  1.00  0.00     0.175 C 
HETATM   28  C1  UNL     1       6.186   3.065   0.418  1.00  0.00     0.034 C 
ENDBRANCH  26  27
ENDBRANCH  24  26
ENDBRANCH   1  24
BRANCH   5  29
HETATM   29  O6  UNL     1       3.820  -4.186  -2.324  1.00  0.00    -0.382 OA
ATOM     30  H6  UNL     1       3.938  -4.307  -3.259  1.00  0.00     0.210 HD
ENDBRANCH   5  29
TORSDOF 10
