REMARK  17 active torsions:
REMARK  status: ('A' for Active; 'I' for Inactive)
REMARK    1  A    between atoms: C2_2  and  O2_4 
REMARK    2  A    between atoms: O2_4  and  C3_5 
REMARK    3  A    between atoms: C7_10  and  C8_11 
REMARK       I    between atoms: C8_11  and  N1_13 
REMARK    4  A    between atoms: C9_15  and  C10_16 
REMARK    5  A    between atoms: C9_15  and  C11_19 
REMARK    6  A    between atoms: C11_19  and  O7_20 
REMARK    7  A    between atoms: C11_19  and  O8_22 
REMARK    8  A    between atoms: C11_19  and  N2_24 
REMARK    9  A    between atoms: N2_24  and  N3_26 
REMARK   10  A    between atoms: C12_28  and  C13_29 
REMARK   11  A    between atoms: C12_28  and  C16_38 
REMARK   12  A    between atoms: C15_32  and  N4_33 
REMARK   13  A    between atoms: C16_38  and  C17_40 
REMARK   14  A    between atoms: C21_46  and  C22_47 
REMARK   15  A    between atoms: C22_47  and  O11_49 
REMARK   16  A    between atoms: O11_49  and  C23_50 
REMARK   17  A    between atoms: C23_50  and  C24_51 
ROOT
HETATM    1  N3  UNL     1      -1.896  -0.702   0.675  1.00  0.00    -0.296 N 
ATOM      2  H3  UNL     1      -2.598  -1.305   0.245  1.00  0.00     0.187 HD
HETATM    3  C12 UNL     1      -2.406   0.291   1.168  1.00  0.00     0.097 C 
ENDROOT
BRANCH   1   4
HETATM    4  N2  UNL     1      -0.662  -1.218   0.544  1.00  0.00    -0.272 N 
ATOM      5  H2  UNL     1      -0.102  -0.812  -0.206  1.00  0.00     0.186 HD
BRANCH   4   6
HETATM    6  C11 UNL     1      -0.009  -2.253   1.297  1.00  0.00     0.311 C 
BRANCH   6   7
HETATM    7  C9  UNL     1       1.385  -2.444   0.788  1.00  0.00     0.176 C 
HETATM    8  N1  UNL     1       1.947  -1.613   0.009  1.00  0.00    -0.316 N 
HETATM    9  C8  UNL     1       3.215  -1.632  -0.556  1.00  0.00     0.251 C 
ATOM     10  H1  UNL     1       1.377  -0.805  -0.241  1.00  0.00     0.169 HD
HETATM   11  O4  UNL     1       3.382  -2.336  -1.610  1.00  0.00    -0.270 OA
BRANCH   9  12
HETATM   12  C7  UNL     1       4.407  -0.883  -0.020  1.00  0.00     0.223 C 
HETATM   13  C6  UNL     1       4.081   0.514   0.366  1.00  0.00     0.120 C 
HETATM   14  C5  UNL     1       4.289   1.471  -0.745  1.00  0.00     0.134 C 
HETATM   15  C4  UNL     1       4.754   0.874  -2.053  1.00  0.00     0.139 C 
HETATM   16  O3  UNL     1       4.099   2.663  -0.614  1.00  0.00    -0.298 OA
HETATM   17  C3  UNL     1       5.863  -0.088  -1.667  1.00  0.00     0.277 C 
HETATM   18  O12 UNL     1       5.495  -1.080  -0.814  1.00  0.00    -0.345 OA
BRANCH  17  19
HETATM   19  O2  UNL     1       6.938   0.707  -1.174  1.00  0.00    -0.290 OA
BRANCH  19  20
HETATM   20  C2  UNL     1       8.147   0.792  -1.850  1.00  0.00     0.257 C 
HETATM   21  C1  UNL     1       9.268   1.622  -1.337  1.00  0.00     0.126 C 
HETATM   22  O1  UNL     1       8.256   0.146  -2.903  1.00  0.00    -0.266 OA
ENDBRANCH  19  20
ENDBRANCH  17  19
ENDBRANCH   9  12
BRANCH   7  23
HETATM   23  C10 UNL     1       2.107  -3.632   1.209  1.00  0.00     0.230 C 
HETATM   24  O5  UNL     1       1.524  -4.451   2.001  1.00  0.00    -0.643 OA
HETATM   25  O6  UNL     1       3.382  -3.978   0.835  1.00  0.00    -0.643 OA
ENDBRANCH   7  23
ENDBRANCH   6   7
BRANCH   6  26
HETATM   26  O7  UNL     1       0.025  -2.002   2.654  1.00  0.00    -0.343 OA
ATOM     27  H7  UNL     1      -0.860  -1.881   2.977  1.00  0.00     0.215 HD
ENDBRANCH   6  26
BRANCH   6  28
HETATM   28  O8  UNL     1      -0.735  -3.438   1.131  1.00  0.00    -0.343 OA
ATOM     29  H8  UNL     1      -1.620  -3.317   1.454  1.00  0.00     0.215 HD
ENDBRANCH   6  28
ENDBRANCH   4   6
ENDBRANCH   1   4
BRANCH   3  30
HETATM   30  C13 UNL     1      -1.680   1.364   1.870  1.00  0.00     0.070 A 
HETATM   31  C14 UNL     1      -2.393   2.330   2.562  1.00  0.00     0.085 A 
HETATM   32  S1  UNL     1      -1.164   3.361   3.141  1.00  0.00    -0.064 SA
HETATM   33  C15 UNL     1       0.175   2.539   2.494  1.00  0.00     0.142 A 
HETATM   34  N5  UNL     1      -0.380   1.504   1.858  1.00  0.00    -0.335 N 
ATOM     35  H5  UNL     1       0.205   0.828   1.367  1.00  0.00     0.168 HD
BRANCH  33  36
HETATM   36  N4  UNL     1       1.457   2.850   2.593  1.00  0.00    -0.380 N 
ATOM     37  H42 UNL     1       1.881   3.640   3.079  1.00  0.00     0.158 HD
ATOM     38  H41 UNL     1       2.261   2.357   2.205  1.00  0.00     0.158 HD
ENDBRANCH  33  36
ENDBRANCH   3  30
BRANCH   3  39
HETATM   39  C16 UNL     1      -3.929   0.519   0.962  1.00  0.00     0.080 C 
HETATM   40  S2  UNL     1      -4.170   2.072   0.213  1.00  0.00    -0.076 SA
BRANCH  39  41
HETATM   41  C17 UNL     1      -4.521  -0.644   0.310  1.00  0.00     0.048 A 
HETATM   42  S3  UNL     1      -4.098  -2.206   0.973  1.00  0.00    -0.099 SA
HETATM   43  C18 UNL     1      -4.824  -3.518   0.189  1.00  0.00     0.054 A 
HETATM   44  C19 UNL     1      -5.645  -3.172  -0.859  1.00  0.00     0.063 A 
HETATM   45  C20 UNL     1      -5.893  -1.907  -1.278  1.00  0.00     0.190 A 
HETATM   46  O9  UNL     1      -6.693  -1.811  -2.278  1.00  0.00    -0.287 OA
HETATM   47  C21 UNL     1      -5.375  -0.714  -0.739  1.00  0.00     0.108 A 
BRANCH  47  48
HETATM   48  C22 UNL     1      -5.889   0.492  -1.438  1.00  0.00     0.299 C 
HETATM   49  O10 UNL     1      -5.219   0.923  -2.392  1.00  0.00    -0.259 OA
BRANCH  48  50
HETATM   50  O11 UNL     1      -7.039   1.125  -1.104  1.00  0.00    -0.312 OA
BRANCH  50  51
HETATM   51  C23 UNL     1      -7.688   2.205  -1.655  1.00  0.00     0.223 C 
BRANCH  51  52
HETATM   52  C24 UNL     1      -7.033   3.499  -1.736  1.00  0.00     0.079 C 
HETATM   53  N6  UNL     1      -7.430   4.495  -1.045  1.00  0.00    -0.409 N 
ATOM     54  H62 UNL     1      -8.229   4.363  -0.425  1.00  0.00     0.155 HD
ATOM     55  H61 UNL     1      -6.970   5.404  -1.102  1.00  0.00     0.155 HD
ENDBRANCH  51  52
ENDBRANCH  50  51
ENDBRANCH  48  50
ENDBRANCH  47  48
ENDBRANCH  39  41
ENDBRANCH   3  39
TORSDOF 17
