REMARK  8 active torsions:
REMARK  status: ('A' for Active; 'I' for Inactive)
REMARK    1  A    between atoms: C2_2  and  C3_3 
REMARK    2  A    between atoms: C3_3  and  C4_4 
REMARK    3  A    between atoms: C4_4  and  C5_5 
REMARK    4  A    between atoms: C5_5  and  N1_6 
REMARK    5  A    between atoms: C7_8  and  C8_9 
REMARK    6  A    between atoms: C8_9  and  N2_10 
REMARK    7  A    between atoms: N2_10  and  N3_11 
REMARK    8  A    between atoms: C9_16  and  N5_17 
ROOT
HETATM    1  N1  UNL     1       0.185  -1.112   0.140  1.00  0.00    -0.287 N 
HETATM    2  C6  UNL     1       0.997  -0.234   0.717  1.00  0.00     0.137 A 
HETATM    3  C7  UNL     1       2.037   0.338   0.017  1.00  0.00     0.059 A 
HETATM    4  N4  UNL     1       2.238   0.009  -1.255  1.00  0.00    -0.192 N 
ATOM      5  H4  UNL     1       3.005   0.424  -1.783  1.00  0.00     0.184 HD
HETATM    6  C9  UNL     1       1.409  -0.884  -1.835  1.00  0.00     0.690 A 
HETATM    7  N6  UNL     1       0.395  -1.430  -1.124  1.00  0.00    -0.131 N 
ATOM      8  H6  UNL     1      -0.223  -2.104  -1.576  1.00  0.00     0.206 HD
ENDROOT
BRANCH   1   9
HETATM    9  C5  UNL     1      -0.924  -1.754   0.806  1.00  0.00     0.148 C 
BRANCH   9  10
HETATM   10  C4  UNL     1      -2.215  -1.029   0.712  1.00  0.00     0.022 C 
BRANCH  10  11
HETATM   11  C3  UNL     1      -2.703  -0.828  -0.694  1.00  0.00     0.001 C 
BRANCH  11  12
HETATM   12  C2  UNL     1      -4.021  -0.085  -0.708  1.00  0.00    -0.004 C 
HETATM   13  C1  UNL     1      -3.949   1.267  -0.085  1.00  0.00     0.005 C 
ENDBRANCH  11  12
ENDBRANCH  10  11
ENDBRANCH   9  10
ENDBRANCH   1   9
BRANCH   3  14
HETATM   14  C8  UNL     1       2.927   1.315   0.686  1.00  0.00     0.193 C 
BRANCH  14  15
HETATM   15  N2  UNL     1       4.022   0.537   1.277  1.00  0.00    -0.142 NA
BRANCH  15  16
HETATM   16  N3  UNL     1       4.856   1.476   1.907  1.00  0.00    -0.348 N 
ATOM     17  H32 UNL     1       4.716   2.486   1.938  1.00  0.00     0.172 HD
ATOM     18  H31 UNL     1       5.617   0.935   2.318  1.00  0.00     0.172 HD
ENDBRANCH  15  16
ENDBRANCH  14  15
ENDBRANCH   3  14
BRANCH   6  19
HETATM   19  N5  UNL     1       1.602  -1.204  -3.068  1.00  0.00    -0.233 N 
ATOM     20  H52 UNL     1       2.366  -0.793  -3.604  1.00  0.00     0.174 HD
ATOM     21  H51 UNL     1       0.975  -1.879  -3.506  1.00  0.00     0.174 HD
ENDBRANCH   6  19
TORSDOF 8
