REMARK  5 active torsions:
REMARK  status: ('A' for Active; 'I' for Inactive)
REMARK    1  A    between atoms: C3_3  and  C4_4 
REMARK    2  A    between atoms: C5_5  and  C6_6 
REMARK    3  A    between atoms: C6_6  and  N1_7 
REMARK       I    between atoms: N1_7  and  C7_9 
REMARK       I    between atoms: C7_9  and  N3_13 
REMARK       I    between atoms: C8_15  and  N5_17 
REMARK    4  A    between atoms: N6_21  and  C13_23 
REMARK    5  A    between atoms: C13_23  and  N7_24 
REMARK       I    between atoms: N7_24  and  C14_26 
ROOT
HETATM    1  C1  UNL     1       8.477   2.806   0.464  1.00  0.00     0.113 C 
HETATM    2  C2  UNL     1       7.417   1.803   0.292  1.00  0.00    -0.097 C 
HETATM    3  C3  UNL     1       6.550   0.958   0.156  1.00  0.00    -0.015 C 
ENDROOT
BRANCH   3   4
HETATM    4  C4  UNL     1       5.538  -0.018  -0.022  1.00  0.00    -0.013 C 
HETATM    5  C5  UNL     1       4.671  -0.838  -0.187  1.00  0.00    -0.072 C 
BRANCH   5   6
HETATM    6  C6  UNL     1       3.616  -1.846  -0.417  1.00  0.00     0.233 C 
BRANCH   6   7
HETATM    7  N1  UNL     1       2.774  -1.917   0.754  1.00  0.00    -0.216 N 
HETATM    8  C7  UNL     1       1.943  -0.808   1.074  1.00  0.00     0.674 C 
HETATM    9  N2  UNL     1       1.423  -0.672   2.257  1.00  0.00    -0.235 N 
HETATM   10  N3  UNL     1       1.688   0.152   0.080  1.00  0.00    -0.164 N 
ATOM     11  H22 UNL     1       1.608  -1.369   2.979  1.00  0.00     0.174 HD
ATOM     12  H21 UNL     1       0.827   0.123   2.486  1.00  0.00     0.174 HD
HETATM   13  C8  UNL     1       0.613   0.315  -0.584  1.00  0.00     0.206 C 
ATOM     14  H3  UNL     1       2.452   0.793  -0.135  1.00  0.00     0.187 HD
HETATM   15  N4  UNL     1       0.546   1.343  -1.549  1.00  0.00    -0.063 NA
HETATM   16  N5  UNL     1      -0.517  -0.509  -0.379  1.00  0.00    -0.331 N 
HETATM   17  C9  UNL     1      -0.468  -1.955  -0.508  1.00  0.00     0.129 C 
HETATM   18  C15 UNL     1      -1.768   0.137  -0.024  1.00  0.00     0.365 C 
HETATM   19  C10 UNL     1      -1.675  -2.534  -1.178  1.00  0.00     0.048 C 
HETATM   20  C11 UNL     1      -2.797  -1.565  -1.362  1.00  0.00     0.242 C 
HETATM   21  N6  UNL     1      -2.930  -0.670  -0.210  1.00  0.00    -0.039 N 
HETATM   22  C12 UNL     1      -3.119  -1.534   0.958  1.00  0.00     0.276 C 
ATOM     23  H1  UNL     1       2.775  -2.750   1.343  1.00  0.00     0.178 HD
BRANCH  21  24
HETATM   24  C13 UNL     1      -4.093   0.132  -0.460  1.00  0.00     0.364 C 
BRANCH  24  25
HETATM   25  N7  UNL     1      -4.037   1.458   0.105  1.00  0.00    -0.321 N 
HETATM   26  C14 UNL     1      -5.130   2.323  -0.090  1.00  0.00     0.330 C 
HETATM   27  N8  UNL     1      -5.105   3.631   0.452  1.00  0.00    -0.040 NA
HETATM   28  O1  UNL     1      -6.129   1.941  -0.743  1.00  0.00    -0.251 OA
ATOM     29  H7  UNL     1      -3.221   1.763   0.636  1.00  0.00     0.165 HD
ENDBRANCH  24  25
ENDBRANCH  21  24
ENDBRANCH   6   7
ENDBRANCH   5   6
ENDBRANCH   3   4
TORSDOF 5
