REMARK  11 active torsions:
REMARK  status: ('A' for Active; 'I' for Inactive)
REMARK    1  A    between atoms: N1_1  and  C1_4 
REMARK    2  A    between atoms: C2_7  and  O1_8 
REMARK    3  A    between atoms: O1_8  and  C3_9 
REMARK    4  A    between atoms: C3_9  and  C4_10 
REMARK    5  A    between atoms: C4_10  and  C5_11 
REMARK    6  A    between atoms: C5_11  and  N3_12 
REMARK    7  A    between atoms: C7_17  and  N4_18 
REMARK    8  A    between atoms: N4_18  and  C8_20 
REMARK    9  A    between atoms: C8_20  and  C9_21 
REMARK   10  A    between atoms: C9_21  and  N5_22 
REMARK   11  A    between atoms: C12_25  and  C13_26 
ROOT
HETATM    1  C1  UNL     1      -1.073   2.437  -0.098  1.00  0.00     0.679 A 
HETATM    2  N2  UNL     1      -2.264   2.129  -0.467  1.00  0.00    -0.171 N 
ATOM      3  H2  UNL     1      -2.819   2.816  -0.977  1.00  0.00     0.186 HD
HETATM    4  C2  UNL     1      -2.836   0.838  -0.180  1.00  0.00     0.161 A 
HETATM    5  C6  UNL     1      -1.973  -0.016   0.474  1.00  0.00     0.105 A 
HETATM    6  C7  UNL     1      -0.701   0.409   0.806  1.00  0.00     0.121 A 
HETATM    7  N8  UNL     1      -0.230   1.634   0.546  1.00  0.00    -0.177 N 
ATOM      8  H8  UNL     1       0.706   1.930   0.821  1.00  0.00     0.185 HD
ENDROOT
BRANCH   6   9
HETATM    9  N4  UNL     1       0.128  -0.568   1.037  1.00  0.00    -0.375 N 
ATOM     10  H4  UNL     1      -0.259  -1.507   0.942  1.00  0.00     0.161 HD
BRANCH   9  11
HETATM   11  C8  UNL     1       1.494  -0.502   1.402  1.00  0.00     0.137 C 
BRANCH  11  12
HETATM   12  C9  UNL     1       2.387  -1.066   0.340  1.00  0.00     0.129 C 
BRANCH  12  13
HETATM   13  N5  UNL     1       2.906  -0.315  -0.742  1.00  0.00    -0.232 NA
HETATM   14  C10 UNL     1       3.811   0.741  -0.295  1.00  0.00     0.111 C 
HETATM   15  C11 UNL     1       4.727   0.014   0.632  1.00  0.00     0.047 C 
HETATM   16  C12 UNL     1       4.989  -1.177  -0.224  1.00  0.00     0.183 C 
HETATM   17  N7  UNL     1       3.960  -1.272  -1.232  1.00  0.00    -0.151 NA
BRANCH  16  18
HETATM   18  C13 UNL     1       6.358  -1.403  -0.635  1.00  0.00     0.251 C 
HETATM   19  N6  UNL     1       7.293  -0.295  -0.601  1.00  0.00    -0.061 NA
HETATM   20  O2  UNL     1       6.788  -2.505  -1.056  1.00  0.00    -0.275 OA
ENDBRANCH  16  18
ENDBRANCH  12  13
ENDBRANCH  11  12
ENDBRANCH   9  11
ENDBRANCH   6   9
BRANCH   4  21
HETATM   21  O1  UNL     1      -4.097   0.792  -0.543  1.00  0.00    -0.335 OA
BRANCH  21  22
HETATM   22  C3  UNL     1      -5.295   0.712  -0.875  1.00  0.00     0.179 C 
BRANCH  22  23
HETATM   23  C4  UNL     1      -6.422   0.286  -0.027  1.00  0.00     0.054 C 
BRANCH  23  24
HETATM   24  C5  UNL     1      -6.645  -1.215  -0.194  1.00  0.00     0.231 C 
BRANCH  24  25
HETATM   25  N3  UNL     1      -5.703  -2.036   0.424  1.00  0.00    -0.079 N 
ATOM     26  H33 UNL     1      -4.765  -1.786   0.112  1.00  0.00     0.274 HD
ATOM     27  H32 UNL     1      -5.633  -1.802   1.414  1.00  0.00     0.274 HD
ATOM     28  H31 UNL     1      -5.852  -3.039   0.312  1.00  0.00     0.274 HD
ENDBRANCH  24  25
ENDBRANCH  23  24
ENDBRANCH  22  23
ENDBRANCH  21  22
ENDBRANCH   4  21
BRANCH   1  29
HETATM   29  N1  UNL     1      -0.522   3.588  -0.582  1.00  0.00    -0.234 N 
ATOM     30  H12 UNL     1      -1.168   4.204  -1.076  1.00  0.00     0.174 HD
ATOM     31  H11 UNL     1       0.424   3.833  -0.289  1.00  0.00     0.174 HD
ENDBRANCH   1  29
TORSDOF 11
