REMARK  6 active torsions:
REMARK  status: ('A' for Active; 'I' for Inactive)
REMARK       I    between atoms: C2_2  and  N1_4 
REMARK    1  A    between atoms: N1_4  and  C3_6 
REMARK    2  A    between atoms: C4_7  and  N2_8 
REMARK    3  A    between atoms: N2_8  and  C5_10 
REMARK    4  A    between atoms: C8_19  and  N5_20 
REMARK    5  A    between atoms: C11_25  and  N7_26 
REMARK    6  A    between atoms: N8_29  and  N9_30 
ROOT
HETATM    1  C3  UNL     1       2.031   0.255  -0.583  1.00  0.00     0.150 A 
HETATM    2  C4  UNL     1       0.894  -0.250   0.015  1.00  0.00     0.151 A 
HETATM    3  N6  UNL     1       0.884  -1.581   0.196  1.00  0.00    -0.173 N 
ATOM      4  H6  UNL     1       0.069  -2.010   0.633  1.00  0.00     0.186 HD
HETATM    5  C11 UNL     1       1.918  -2.378  -0.181  1.00  0.00     0.701 A 
HETATM    6  N8  UNL     1       3.035  -1.882  -0.768  1.00  0.00    -0.052 N 
HETATM    7  C12 UNL     1       3.079  -0.556  -0.965  1.00  0.00     0.312 A 
HETATM    8  O4  UNL     1       4.112  -0.085  -1.509  1.00  0.00    -0.263 OA
ENDROOT
BRANCH   2   9
HETATM    9  N2  UNL     1      -0.193   0.570   0.406  1.00  0.00    -0.350 N 
ATOM     10  H2  UNL     1      -0.082   1.565   0.208  1.00  0.00     0.163 HD
BRANCH   9  11
HETATM   11  C5  UNL     1      -1.402   0.211   1.027  1.00  0.00     0.219 C 
HETATM   12  N3  UNL     1      -1.143  -0.560   2.258  1.00  0.00    -0.319 N 
HETATM   13  C6  UNL     1      -2.190  -1.110   3.014  1.00  0.00     0.324 C 
ATOM     14  H3  UNL     1      -0.181  -0.697   2.567  1.00  0.00     0.166 HD
HETATM   15  O2  UNL     1      -1.944  -1.636   4.123  1.00  0.00    -0.247 OA
HETATM   16  N4  UNL     1      -3.497  -1.029   2.449  1.00  0.00    -0.277 N 
HETATM   17  C7  UNL     1      -3.692  -0.420   1.194  1.00  0.00     0.252 C 
ATOM     18  H4  UNL     1      -4.294  -1.414   2.956  1.00  0.00     0.173 HD
HETATM   19  O3  UNL     1      -4.801   0.067   0.910  1.00  0.00    -0.271 OA
HETATM   20  C8  UNL     1      -2.493  -0.420   0.286  1.00  0.00     0.214 C 
BRANCH  20  21
HETATM   21  N5  UNL     1      -2.821   0.001  -1.016  1.00  0.00    -0.406 N 
HETATM   22  C9  UNL     1      -1.843  -0.185  -2.039  1.00  0.00     0.143 C 
HETATM   23  C10 UNL     1      -3.424   1.279  -1.157  1.00  0.00     0.143 C 
ENDBRANCH  20  21
ENDBRANCH   9  11
ENDBRANCH   2   9
BRANCH   1  24
HETATM   24  N1  UNL     1       2.157   1.641  -0.826  1.00  0.00    -0.320 N 
HETATM   25  C2  UNL     1       2.733   2.468   0.154  1.00  0.00     0.218 C 
HETATM   26  C1  UNL     1       2.879   3.921  -0.070  1.00  0.00     0.117 C 
HETATM   27  O1  UNL     1       3.143   2.000   1.253  1.00  0.00    -0.274 OA
ATOM     28  H1  UNL     1       1.832   2.039  -1.707  1.00  0.00     0.169 HD
ENDBRANCH   1  24
BRANCH   5  29
HETATM   29  N7  UNL     1       1.885  -3.654   0.004  1.00  0.00    -0.233 N 
ATOM     30  H72 UNL     1       1.045  -4.027   0.446  1.00  0.00     0.174 HD
ATOM     31  H71 UNL     1       2.661  -4.252  -0.279  1.00  0.00     0.174 HD
ENDBRANCH   5  29
BRANCH   6  32
HETATM   32  N9  UNL     1       4.088  -2.733  -1.147  1.00  0.00    -0.321 N 
ATOM     33  H92 UNL     1       4.055  -3.741  -0.997  1.00  0.00     0.178 HD
ATOM     34  H91 UNL     1       4.928  -2.360  -1.589  1.00  0.00     0.178 HD
ENDBRANCH   6  32
TORSDOF 6
