REMARK  6 active torsions:
REMARK  status: ('A' for Active; 'I' for Inactive)
REMARK    1  A    between atoms: N2_3  and  S1_5 
REMARK    2  A    between atoms: S1_5  and  N3_8 
REMARK    3  A    between atoms: N3_8  and  N4_10 
REMARK    4  A    between atoms: N4_10  and  C2_12 
REMARK    5  A    between atoms: C2_12  and  N5_14 
REMARK       I    between atoms: N5_14  and  C3_16 
REMARK    6  A    between atoms: C3_16  and  C4_18 
ROOT
HETATM    1  N1  UNL     1       6.020  -1.427  -2.049  1.00  0.00    -0.171 NA
HETATM    2  C1  UNL     1       5.537  -1.297  -0.992  1.00  0.00     0.193 C 
HETATM    3  N2  UNL     1       4.965  -1.118   0.271  1.00  0.00    -0.202 N 
ATOM      4  H2  UNL     1       5.064  -1.846   0.979  1.00  0.00     0.193 HD
ENDROOT
BRANCH   3   5
HETATM    5  S1  UNL     1       4.104   0.305   0.638  1.00  0.00     0.345 S 
HETATM    6  O1  UNL     1       4.702   1.432  -0.180  1.00  0.00    -0.180 OA
HETATM    7  O2  UNL     1       4.201   0.661   2.092  1.00  0.00    -0.180 OA
BRANCH   5   8
HETATM    8  N3  UNL     1       2.452   0.112   0.248  1.00  0.00    -0.207 N 
ATOM      9  H3  UNL     1       1.731  -0.241   0.877  1.00  0.00     0.201 HD
BRANCH   8  10
HETATM   10  N4  UNL     1       2.253   0.513  -1.060  1.00  0.00    -0.265 N 
ATOM     11  H4  UNL     1       3.040   0.706  -1.680  1.00  0.00     0.190 HD
BRANCH  10  12
HETATM   12  C2  UNL     1       0.895   0.648  -1.513  1.00  0.00     0.194 C 
HETATM   13  S2  UNL     1       0.561   1.113  -3.031  1.00  0.00    -0.039 SA
BRANCH  12  14
HETATM   14  N5  UNL     1      -0.173   0.368  -0.619  1.00  0.00    -0.298 N 
HETATM   15  C3  UNL     1      -1.504   0.494  -1.043  1.00  0.00     0.257 C 
HETATM   16  O3  UNL     1      -1.766   0.852  -2.207  1.00  0.00    -0.267 OA
ATOM     17  H5  UNL     1       0.029   0.074   0.336  1.00  0.00     0.171 HD
BRANCH  15  18
HETATM   18  C4  UNL     1      -2.587   0.204  -0.118  1.00  0.00     0.032 A 
HETATM   19  C5  UNL     1      -2.395  -0.389   1.112  1.00  0.00     0.017 A 
HETATM   20  C6  UNL     1      -3.505  -0.614   1.917  1.00  0.00     0.001 A 
HETATM   21  C7  UNL     1      -4.779  -0.269   1.531  1.00  0.00     0.000 A 
HETATM   22  C8  UNL     1      -4.970   0.321   0.305  1.00  0.00     0.001 A 
HETATM   23  C9  UNL     1      -3.882   0.550  -0.501  1.00  0.00     0.017 A 
ENDBRANCH  15  18
ENDBRANCH  12  14
ENDBRANCH  10  12
ENDBRANCH   8  10
ENDBRANCH   5   8
ENDBRANCH   3   5
TORSDOF 6
