REMARK  7 active torsions:
REMARK  status: ('A' for Active; 'I' for Inactive)
REMARK    1  A    between atoms: O1_1  and  C1_3 
REMARK    2  A    between atoms: C3_5  and  N1_6 
REMARK    3  A    between atoms: N2_9  and  C6_10 
REMARK    4  A    between atoms: C6_10  and  C7_11 
REMARK    5  A    between atoms: C16_21  and  C17_22 
REMARK    6  A    between atoms: N3_23  and  N4_25 
REMARK    7  A    between atoms: C21_31  and  O4_32 
ROOT
HETATM    1  C1  UNL     1       1.501   1.724   1.993  1.00  0.00     0.101 A 
HETATM    2  C2  UNL     1       0.271   1.106   1.865  1.00  0.00     0.068 A 
HETATM    3  C3  UNL     1       0.122  -0.012   1.091  1.00  0.00     0.034 A 
HETATM    4  C15 UNL     1       1.249  -0.507   0.437  1.00  0.00     0.045 A 
HETATM    5  C16 UNL     1       2.459   0.093   0.557  1.00  0.00     0.019 A 
HETATM    6  C21 UNL     1       2.600   1.224   1.342  1.00  0.00     0.110 A 
ENDROOT
BRANCH   3   7
HETATM    7  N1  UNL     1      -1.098  -0.699   0.916  1.00  0.00    -0.378 N 
HETATM    8  C4  UNL     1      -2.287  -0.371   1.642  1.00  0.00     0.142 C 
HETATM    9  C5  UNL     1      -3.353  -0.066   0.583  1.00  0.00     0.137 C 
HETATM   10  N2  UNL     1      -3.575  -1.172  -0.268  1.00  0.00    -0.405 N 
HETATM   11  C13 UNL     1      -2.643  -2.232  -0.198  1.00  0.00     0.137 C 
HETATM   12  C14 UNL     1      -1.209  -1.796  -0.037  1.00  0.00     0.142 C 
BRANCH  10  13
HETATM   13  C6  UNL     1      -4.102  -0.867  -1.558  1.00  0.00     0.155 C 
BRANCH  13  14
HETATM   14  C7  UNL     1      -5.415  -0.197  -1.392  1.00  0.00    -0.041 A 
HETATM   15  C8  UNL     1      -5.566   1.171  -1.361  1.00  0.00     0.012 A 
HETATM   16  C9  UNL     1      -6.814   1.763  -1.202  1.00  0.00     0.043 A 
HETATM   17  C10 UNL     1      -7.937   0.984  -1.071  1.00  0.00     0.116 A 
HETATM   18  F1  UNL     1      -9.164   1.583  -0.915  1.00  0.00    -0.206 F 
HETATM   19  C11 UNL     1      -7.808  -0.378  -1.099  1.00  0.00     0.043 A 
HETATM   20  C12 UNL     1      -6.576  -0.952  -1.256  1.00  0.00     0.012 A 
ENDBRANCH  13  14
ENDBRANCH  10  13
ENDBRANCH   3   7
BRANCH   1  21
HETATM   21  O1  UNL     1       1.539   2.847   2.799  1.00  0.00    -0.358 OA
ATOM     22  H1  UNL     1       2.384   3.272   2.887  1.00  0.00     0.217 HD
ENDBRANCH   1  21
BRANCH   5  23
HETATM   23  C17 UNL     1       3.632  -0.463  -0.153  1.00  0.00     0.123 C 
HETATM   24  N3  UNL     1       4.746   0.123  -0.019  1.00  0.00    -0.289 N 
ATOM     25  H3  UNL     1       4.763   0.951   0.577  1.00  0.00     0.188 HD
BRANCH  24  26
HETATM   26  N4  UNL     1       5.940  -0.251  -0.602  1.00  0.00    -0.195 N 
HETATM   27  C18 UNL     1       6.513   0.539  -1.653  1.00  0.00     0.203 C 
HETATM   28  C19 UNL     1       7.913   0.945  -1.176  1.00  0.00     0.194 C 
HETATM   29  O2  UNL     1       8.052   0.400   0.104  1.00  0.00    -0.363 OA
HETATM   30  C20 UNL     1       7.892  -0.987   0.105  1.00  0.00     0.371 C 
HETATM   31  O3  UNL     1       6.568  -1.356  -0.188  1.00  0.00    -0.237 OA
ENDBRANCH  24  26
ENDBRANCH   5  23
BRANCH   6  32
HETATM   32  O4  UNL     1       3.832   1.825   1.458  1.00  0.00    -0.357 OA
ATOM     33  H4  UNL     1       4.593   1.479   1.007  1.00  0.00     0.217 HD
ENDBRANCH   6  32
TORSDOF 7
