REMARK  4 active torsions:
REMARK  status: ('A' for Active; 'I' for Inactive)
REMARK    1  A    between atoms: C2_2  and  C3_3 
REMARK    2  A    between atoms: C7_10  and  C8_11 
REMARK    3  A    between atoms: C8_11  and  O3_12 
REMARK    4  A    between atoms: C9_14  and  O4_15 
ROOT
HETATM    1  C3  UNL     1       3.171  -0.543  -0.275  1.00  0.00     0.163 C 
HETATM    2  C4  UNL     1       2.718  -1.712  -1.007  1.00  0.00     0.062 C 
HETATM    3  N1  UNL     1       2.351  -2.651  -1.582  1.00  0.00    -0.197 NA
ENDROOT
BRANCH   1   4
HETATM    4  C2  UNL     1       1.989   0.303   0.161  1.00  0.00     0.091 C 
HETATM    5  C1  UNL     1       2.462   1.511   0.919  1.00  0.00     0.049 C 
HETATM    6  C5  UNL     1       1.282   0.786  -1.095  1.00  0.00     0.209 C 
HETATM    7  O1  UNL     1       0.174   1.531  -0.831  1.00  0.00    -0.356 OA
HETATM    8  C6  UNL     1      -0.525   1.207   0.299  1.00  0.00     0.291 C 
HETATM    9  O2  UNL     1      -1.878   1.128  -0.062  1.00  0.00    -0.348 OA
HETATM   10  C10 UNL     1      -0.155  -0.063   0.959  1.00  0.00     0.209 C 
HETATM   11  C7  UNL     1      -2.374  -0.055   0.420  1.00  0.00     0.179 C 
HETATM   12  C9  UNL     1      -1.178  -1.002   0.299  1.00  0.00     0.183 C 
HETATM   13  O5  UNL     1       1.117  -0.484   0.855  1.00  0.00    -0.364 OA
BRANCH  11  14
HETATM   14  C8  UNL     1      -3.554  -0.570  -0.354  1.00  0.00     0.198 C 
BRANCH  14  15
HETATM   15  O3  UNL     1      -4.556   0.396  -0.278  1.00  0.00    -0.398 OA
ATOM     16  H3  UNL     1      -5.302   0.070  -0.767  1.00  0.00     0.209 HD
ENDBRANCH  14  15
ENDBRANCH  11  14
BRANCH  12  17
HETATM   17  O4  UNL     1      -1.323  -2.131   1.065  1.00  0.00    -0.390 OA
ATOM     18  H4  UNL     1      -0.581  -2.719   0.990  1.00  0.00     0.210 HD
ENDBRANCH  12  17
ENDBRANCH   1   4
TORSDOF 4
