REMARK  3 active torsions:
REMARK  status: ('A' for Active; 'I' for Inactive)
REMARK    1  A    between atoms: C5_6  and  C6_7 
REMARK    2  A    between atoms: N1_8  and  O2_10 
REMARK    3  A    between atoms: C7_12  and  O3_13 
ROOT
HETATM    1  C1  UNL     1      -1.666  -1.011   1.837  1.00  0.00     0.051 C 
HETATM    2  C2  UNL     1      -0.820  -1.082   0.555  1.00  0.00     0.114 C 
HETATM    3  C3  UNL     1      -1.628  -1.992  -0.383  1.00  0.00     0.051 C 
HETATM    4  O1  UNL     1       0.331  -1.740   0.907  1.00  0.00    -0.375 OA
HETATM    5  C4  UNL     1       1.267  -1.673  -0.118  1.00  0.00     0.181 C 
HETATM    6  C5  UNL     1       1.838  -0.270  -0.080  1.00  0.00     0.083 C 
HETATM    7  C7  UNL     1       0.776   0.766  -0.072  1.00  0.00     0.195 C 
HETATM    8  C8  UNL     1      -0.622   0.267  -0.040  1.00  0.00     0.283 C 
HETATM    9  N2  UNL     1      -1.429   1.212   0.710  1.00  0.00    -0.035 N 
ATOM     10  H21 UNL     1      -0.910   1.658   1.467  1.00  0.00     0.281 HD
ATOM     11  H22 UNL     1      -2.140   0.755   1.281  1.00  0.00     0.281 HD
HETATM   12  C9  UNL     1      -1.979   2.149  -0.201  1.00  0.00     0.262 C 
HETATM   13  C10 UNL     1      -1.625   1.580  -1.549  1.00  0.00     0.199 C 
HETATM   14  O4  UNL     1      -1.123   0.320  -1.360  1.00  0.00    -0.348 OA
ENDROOT
BRANCH   7  15
HETATM   15  O3  UNL     1       1.010   1.638   1.017  1.00  0.00    -0.390 OA
ATOM     16  H3  UNL     1       0.330   2.301   1.022  1.00  0.00     0.210 HD
ENDBRANCH   7  15
BRANCH   6  17
HETATM   17  C6  UNL     1       2.774  -0.142  -1.225  1.00  0.00     0.096 C 
HETATM   18  N1  UNL     1       4.045   0.008  -1.097  1.00  0.00    -0.284 N 
ATOM     19  H1  UNL     1       4.639   0.091  -1.922  1.00  0.00     0.192 HD
BRANCH  18  20
HETATM   20  O2  UNL     1       4.598   0.056   0.166  1.00  0.00    -0.291 OA
ATOM     21  H2  UNL     1       5.537   0.167   0.261  1.00  0.00     0.244 HD
ENDBRANCH  18  20
ENDBRANCH   6  17
TORSDOF 3
