REMARK  3 active torsions:
REMARK  status: ('A' for Active; 'I' for Inactive)
REMARK       I    between atoms: N1_2  and  C3_4 
REMARK    1  A    between atoms: C3_4  and  C4_6 
REMARK    2  A    between atoms: C4_6  and  C5_7 
REMARK       I    between atoms: N2_11  and  C7_12 
REMARK       I    between atoms: C7_12  and  N4_19 
REMARK    3  A    between atoms: N3_13  and  C8_15 
ROOT
HETATM    1  C5  UNL     1       1.126  -1.025   1.980  1.00  0.00     0.139 C 
HETATM    2  C6  UNL     1       1.011  -2.508   1.765  1.00  0.00     0.160 C 
HETATM    3  S1  UNL     1      -0.611  -2.333   2.414  1.00  0.00     0.133 S 
HETATM    4  O2  UNL     1      -1.698  -3.285   1.570  1.00  0.00    -0.235 OA
HETATM    5  N2  UNL     1      -0.217  -0.840   1.579  1.00  0.00    -0.123 N 
HETATM    6  C7  UNL     1      -1.138   0.001   0.883  1.00  0.00     0.698 C 
HETATM    7  N3  UNL     1      -1.933  -0.500   0.036  1.00  0.00    -0.217 N 
ATOM      8  H3  UNL     1      -1.853  -1.509  -0.091  1.00  0.00     0.178 HD
HETATM    9  N4  UNL     1      -1.151   1.389   1.166  1.00  0.00    -0.125 N 
ATOM     10  H4  UNL     1      -1.817   1.713   1.867  1.00  0.00     0.197 HD
HETATM   11  C12 UNL     1      -0.338   2.349   0.575  1.00  0.00     0.196 C 
HETATM   12  N5  UNL     1       0.343   3.128   0.074  1.00  0.00    -0.171 NA
ENDROOT
BRANCH   7  13
HETATM   13  C8  UNL     1      -2.922   0.135  -0.766  1.00  0.00     0.036 C 
HETATM   14  C9  UNL     1      -3.854  -0.889  -1.427  1.00  0.00     0.038 C 
HETATM   15  C10 UNL     1      -3.833   1.052   0.031  1.00  0.00     0.038 C 
HETATM   16  C11 UNL     1      -2.324   0.965  -1.875  1.00  0.00     0.038 C 
ENDBRANCH   7  13
BRANCH   1  17
HETATM   17  C4  UNL     1       2.241  -0.325   1.303  1.00  0.00     0.130 C 
BRANCH  17  18
HETATM   18  C3  UNL     1       2.291  -0.393  -0.158  1.00  0.00     0.221 C 
HETATM   19  N1  UNL     1       3.328   0.247  -0.921  1.00  0.00    -0.361 N 
HETATM   20  C1  UNL     1       4.386   1.000  -0.251  1.00  0.00     0.152 C 
HETATM   21  C2  UNL     1       3.346   0.159  -2.365  1.00  0.00     0.152 C 
HETATM   22  O1  UNL     1       1.421  -1.018  -0.793  1.00  0.00    -0.273 OA
ENDBRANCH  17  18
ENDBRANCH   1  17
TORSDOF 3
