REMARK  2 active torsions:
REMARK  status: ('A' for Active; 'I' for Inactive)
REMARK    1  A    between atoms: C11_12  and  N2_13 
REMARK       I    between atoms: N2_13  and  C12_15 
REMARK    2  A    between atoms: C12_15  and  C13_17 
ROOT
HETATM    1  C1  UNL     1      -3.275   2.335  -1.837  1.00  0.00     0.309 C 
HETATM    2  N1  UNL     1      -2.964   1.469  -0.702  1.00  0.00     0.085 N 
HETATM    3  C2  UNL     1      -1.613   1.010  -0.798  1.00  0.00     0.278 C 
HETATM    4  C3  UNL     1      -1.054   0.831   0.571  1.00  0.00     0.037 C 
HETATM    5  C4  UNL     1      -2.141   0.923   1.588  1.00  0.00     0.013 C 
HETATM    6  C5  UNL     1      -3.094  -0.192   1.645  1.00  0.00    -0.004 C 
HETATM    7  C6  UNL     1      -2.557  -1.547   1.342  1.00  0.00    -0.008 C 
HETATM    8  C7  UNL     1      -3.783  -1.786   0.476  1.00  0.00     0.011 C 
HETATM    9  C8  UNL     1      -4.117  -0.292   0.595  1.00  0.00     0.019 C 
HETATM   10  C9  UNL     1      -3.942   0.425  -0.658  1.00  0.00     0.277 C 
HETATM   11  C10 UNL     1      -1.307  -1.612   0.563  1.00  0.00     0.030 C 
HETATM   12  C11 UNL     1      -0.353  -0.488   0.767  1.00  0.00     0.090 C 
ENDROOT
BRANCH  12  13
HETATM   13  N2  UNL     1       0.761  -0.618  -0.148  1.00  0.00    -0.355 N 
HETATM   14  C12 UNL     1       2.102  -0.762   0.280  1.00  0.00     0.238 C 
HETATM   15  O1  UNL     1       2.319  -0.776   1.510  1.00  0.00    -0.272 OA
ATOM     16  H2  UNL     1       0.570  -0.605  -1.150  1.00  0.00     0.162 HD
BRANCH  14  17
HETATM   17  C13 UNL     1       3.164  -0.887  -0.688  1.00  0.00     0.180 C 
HETATM   18  C14 UNL     1       3.693   0.372  -1.333  1.00  0.00     0.138 C 
HETATM   19  N3  UNL     1       4.908  -0.453  -1.429  1.00  0.00    -0.251 NA
HETATM   20  C15 UNL     1       6.131   0.251  -1.465  1.00  0.00     0.130 C 
HETATM   21  N4  UNL     1       4.516  -1.018  -0.214  1.00  0.00    -0.239 NA
HETATM   22  C16 UNL     1       4.895  -0.328   0.965  1.00  0.00     0.131 C 
ENDBRANCH  14  17
ENDBRANCH  12  13
TORSDOF 2
