REMARK  12 active torsions:
REMARK  status: ('A' for Active; 'I' for Inactive)
REMARK    1  A    between atoms: N1_1  and  C1_4 
REMARK    2  A    between atoms: C2_7  and  N3_8 
REMARK    3  A    between atoms: N3_8  and  C3_10 
REMARK    4  A    between atoms: C3_10  and  C4_11 
REMARK    5  A    between atoms: C4_11  and  C5_12 
REMARK    6  A    between atoms: C5_12  and  C6_13 
REMARK    7  A    between atoms: C6_13  and  C7_14 
REMARK    8  A    between atoms: C7_14  and  N4_15 
REMARK    9  A    between atoms: N7_24  and  C13_25 
REMARK   10  A    between atoms: C13_25  and  C14_26 
REMARK   11  A    between atoms: C14_26  and  C15_27 
REMARK   12  A    between atoms: C15_27  and  O1_28 
ROOT
HETATM    1  C1  UNL     1       2.737  -1.014   1.356  1.00  0.00     0.679 A 
HETATM    2  N2  UNL     1       1.618  -0.380   1.017  1.00  0.00    -0.175 N 
ATOM      3  H2  UNL     1       0.816  -0.473   1.640  1.00  0.00     0.186 HD
HETATM    4  C2  UNL     1       1.462   0.382  -0.096  1.00  0.00     0.148 A 
HETATM    5  C12 UNL     1       2.581   0.473  -0.903  1.00  0.00     0.136 A 
HETATM    6  N5  UNL     1       2.824   1.110  -2.057  1.00  0.00    -0.277 N 
ATOM      7  H5  UNL     1       2.159   1.686  -2.574  1.00  0.00     0.184 HD
HETATM    8  N6  UNL     1       4.094   0.860  -2.416  1.00  0.00    -0.018 NA
HETATM    9  N7  UNL     1       4.650   0.071  -1.495  1.00  0.00    -0.258 N 
HETATM   10  C16 UNL     1       3.737  -0.185  -0.548  1.00  0.00     0.168 A 
HETATM   11  N8  UNL     1       3.824  -0.929   0.576  1.00  0.00    -0.173 N 
ATOM     12  H8  UNL     1       4.689  -1.410   0.823  1.00  0.00     0.186 HD
ENDROOT
BRANCH   4  13
HETATM   13  N3  UNL     1       0.369   0.989  -0.406  1.00  0.00    -0.374 N 
ATOM     14  H3  UNL     1       0.299   1.551  -1.254  1.00  0.00     0.161 HD
BRANCH  13  15
HETATM   15  C3  UNL     1      -0.761   0.844   0.496  1.00  0.00     0.121 C 
BRANCH  15  16
HETATM   16  C4  UNL     1      -1.908   1.720   0.127  1.00  0.00     0.020 C 
BRANCH  16  17
HETATM   17  C5  UNL     1      -3.023   1.519   1.111  1.00  0.00     0.003 C 
BRANCH  17  18
HETATM   18  C6  UNL     1      -3.481   0.108   1.123  1.00  0.00     0.030 C 
BRANCH  18  19
HETATM   19  C7  UNL     1      -3.980  -0.366  -0.214  1.00  0.00     0.272 C 
BRANCH  19  20
HETATM   20  N4  UNL     1      -5.079   0.466  -0.645  1.00  0.00     0.088 N 
HETATM   21  C8  UNL     1      -5.518   0.035  -1.975  1.00  0.00     0.272 C 
HETATM   22  C9  UNL     1      -6.305  -1.220  -1.661  1.00  0.00     0.032 C 
HETATM   23  C10 UNL     1      -6.747  -1.034  -0.219  1.00  0.00     0.032 C 
HETATM   24  C11 UNL     1      -6.263   0.359   0.156  1.00  0.00     0.272 C 
ENDBRANCH  19  20
ENDBRANCH  18  19
ENDBRANCH  17  18
ENDBRANCH  16  17
ENDBRANCH  15  16
ENDBRANCH  13  15
ENDBRANCH   4  13
BRANCH   1  25
HETATM   25  N1  UNL     1       2.778  -1.725   2.456  1.00  0.00    -0.234 N 
ATOM     26  H12 UNL     1       1.951  -1.790   3.049  1.00  0.00     0.174 HD
ATOM     27  H11 UNL     1       3.636  -2.211   2.716  1.00  0.00     0.174 HD
ENDBRANCH   1  25
BRANCH   9  28
HETATM   28  C13 UNL     1       6.020  -0.435  -1.506  1.00  0.00     0.150 C 
BRANCH  28  29
HETATM   29  C14 UNL     1       6.898   0.565  -0.779  1.00  0.00     0.047 C 
BRANCH  29  30
HETATM   30  C15 UNL     1       8.335   0.039  -0.789  1.00  0.00     0.165 C 
BRANCH  30  31
HETATM   31  O1  UNL     1       8.420  -1.195  -0.151  1.00  0.00    -0.401 OA
ATOM     32  H1  UNL     1       9.312  -1.522  -0.157  1.00  0.00     0.209 HD
ENDBRANCH  30  31
ENDBRANCH  29  30
ENDBRANCH  28  29
ENDBRANCH   9  28
TORSDOF 12
