REMARK  17 active torsions:
REMARK  status: ('A' for Active; 'I' for Inactive)
REMARK    1  A    between atoms: C2_2  and  C3_3 
REMARK    2  A    between atoms: C3_3  and  N1_4 
REMARK    3  A    between atoms: N1_4  and  C4_5 
REMARK    4  A    between atoms: N1_4  and  C8_9 
REMARK    5  A    between atoms: C4_5  and  C5_6 
REMARK    6  A    between atoms: C5_6  and  C6_7 
REMARK    7  A    between atoms: C8_9  and  C9_10 
REMARK    8  A    between atoms: C8_9  and  C11_12 
REMARK    9  A    between atoms: C11_12  and  C12_13 
REMARK   10  A    between atoms: C12_13  and  S1_14 
REMARK   11  A    between atoms: S1_14  and  S2_15 
REMARK   12  A    between atoms: S2_15  and  C13_16 
REMARK   13  A    between atoms: C14_18  and  C15_19 
REMARK   14  A    between atoms: C15_19  and  O2_20 
REMARK   15  A    between atoms: C16_22  and  O3_23 
REMARK   16  A    between atoms: C17_25  and  O4_26 
REMARK   17  A    between atoms: C18_28  and  O5_29 
ROOT
HETATM    1  C13 UNL     1       3.175   0.639  -0.051  1.00  0.00     0.225 C 
HETATM    2  O1  UNL     1       4.177   0.926   0.832  1.00  0.00    -0.362 OA
HETATM    3  C14 UNL     1       5.386   1.260   0.277  1.00  0.00     0.178 C 
HETATM    4  C16 UNL     1       5.781   0.168  -0.725  1.00  0.00     0.180 C 
HETATM    5  C17 UNL     1       4.726  -0.017  -1.793  1.00  0.00     0.181 C 
HETATM    6  C18 UNL     1       3.598   0.971  -1.453  1.00  0.00     0.189 C 
ENDROOT
BRANCH   1   7
HETATM    7  S2  UNL     1       1.593   1.368   0.444  1.00  0.00    -0.063 SA
BRANCH   7   8
HETATM    8  S1  UNL     1       0.958   0.314   2.204  1.00  0.00    -0.095 SA
BRANCH   8   9
HETATM    9  C12 UNL     1      -0.075  -1.126   1.653  1.00  0.00     0.088 C 
BRANCH   9  10
HETATM   10  C11 UNL     1      -1.371  -0.630   1.140  1.00  0.00     0.047 C 
BRANCH  10  11
HETATM   11  C8  UNL     1      -2.351  -1.582   0.566  1.00  0.00     0.223 C 
BRANCH  11  12
HETATM   12  N1  UNL     1      -3.631  -0.813   0.260  1.00  0.00     0.096 N 
BRANCH  12  13
HETATM   13  C3  UNL     1      -4.365  -0.819   1.481  1.00  0.00     0.299 C 
BRANCH  13  14
HETATM   14  C2  UNL     1      -5.019  -2.097   1.785  1.00  0.00    -0.007 C 
HETATM   15  C1  UNL     1      -5.040  -3.150   1.014  1.00  0.00     0.008 C 
ENDBRANCH  13  14
ENDBRANCH  12  13
BRANCH  12  16
HETATM   16  C4  UNL     1      -3.250   0.520  -0.133  1.00  0.00     0.273 C 
BRANCH  16  17
HETATM   17  C5  UNL     1      -4.490   1.296  -0.551  1.00  0.00     0.030 C 
BRANCH  17  18
HETATM   18  C6  UNL     1      -4.063   2.705  -0.972  1.00  0.00    -0.003 C 
HETATM   19  C7  UNL     1      -5.282   3.485  -1.372  1.00  0.00     0.005 C 
ENDBRANCH  17  18
ENDBRANCH  16  17
ENDBRANCH  12  16
ENDBRANCH  11  12
BRANCH  11  20
HETATM   20  C9  UNL     1      -1.920  -2.114  -0.787  1.00  0.00     0.031 C 
HETATM   21  C10 UNL     1      -0.712  -2.971  -0.834  1.00  0.00     0.007 C 
ENDBRANCH  11  20
ENDBRANCH  10  11
ENDBRANCH   9  10
ENDBRANCH   8   9
ENDBRANCH   7   8
ENDBRANCH   1   7
BRANCH   6  22
HETATM   22  O5  UNL     1       2.540   0.793  -2.366  1.00  0.00    -0.389 OA
ATOM     23  H5  UNL     1       2.808   1.003  -3.253  1.00  0.00     0.210 HD
ENDBRANCH   6  22
BRANCH   3  24
HETATM   24  C15 UNL     1       6.434   1.198   1.395  1.00  0.00     0.198 C 
BRANCH  24  25
HETATM   25  O2  UNL     1       7.700   1.518   0.931  1.00  0.00    -0.398 OA
ATOM     26  H2  UNL     1       8.349   1.480   1.624  1.00  0.00     0.209 HD
ENDBRANCH  24  25
ENDBRANCH   3  24
BRANCH   5  27
HETATM   27  O4  UNL     1       5.212   0.144  -3.065  1.00  0.00    -0.390 OA
ATOM     28  H4  UNL     1       4.549   0.028  -3.736  1.00  0.00     0.210 HD
ENDBRANCH   5  27
BRANCH   4  29
HETATM   29  O3  UNL     1       6.998   0.402  -1.316  1.00  0.00    -0.390 OA
ATOM     30  H3  UNL     1       7.243  -0.274  -1.937  1.00  0.00     0.210 HD
ENDBRANCH   4  29
TORSDOF 17
