REMARK  12 active torsions:
REMARK  status: ('A' for Active; 'I' for Inactive)
REMARK    1  A    between atoms: C2_2  and  C3_3 
REMARK    2  A    between atoms: C2_2  and  C4_8 
REMARK    3  A    between atoms: C2_2  and  C5_11 
REMARK    4  A    between atoms: C3_3  and  N1_4 
REMARK    5  A    between atoms: C4_8  and  O1_9 
REMARK    6  A    between atoms: C5_11  and  N2_12 
REMARK    7  A    between atoms: C10_23  and  N4_24 
REMARK    8  A    between atoms: N4_24  and  N5_26 
REMARK    9  A    between atoms: N5_26  and  C11_28 
REMARK   10  A    between atoms: C16_33  and  O4_34 
REMARK   11  A    between atoms: C18_39  and  S2_40 
REMARK   12  A    between atoms: S2_40  and  C19_41 
ROOT
HETATM    1  N2  UNL     1      -2.393  -0.174   0.131  1.00  0.00    -0.386 N 
ATOM      2  H2  UNL     1      -1.696  -0.686   0.672  1.00  0.00     0.159 HD
HETATM    3  C6  UNL     1      -2.301   1.099   0.052  1.00  0.00     0.109 C 
HETATM    4  C7  UNL     1      -3.236   1.969  -0.694  1.00  0.00     0.272 C 
HETATM    5  O2  UNL     1      -4.085   1.566  -1.552  1.00  0.00    -0.266 OA
HETATM    6  N3  UNL     1      -2.999   3.308  -0.271  1.00  0.00    -0.290 N 
ATOM      7  H3  UNL     1      -3.493   4.133  -0.611  1.00  0.00     0.172 HD
HETATM    8  C8  UNL     1      -1.962   3.310   0.703  1.00  0.00     0.256 C 
HETATM    9  O3  UNL     1      -1.651   4.267   1.490  1.00  0.00    -0.270 OA
HETATM   10  C9  UNL     1      -1.321   2.005   0.630  1.00  0.00     0.186 C 
HETATM   11  S1  UNL     1      -0.665   1.438   2.241  1.00  0.00    -0.059 SA
HETATM   12  C10 UNL     1       0.769   0.618   1.538  1.00  0.00     0.161 C 
HETATM   13  N6  UNL     1       0.895   1.076   0.360  1.00  0.00    -0.337 N 
ATOM     14  H6  UNL     1       1.652   0.752  -0.241  1.00  0.00     0.168 HD
HETATM   15  C17 UNL     1      -0.008   2.021  -0.099  1.00  0.00     0.053 C 
HETATM   16  C18 UNL     1       0.211   2.895  -1.095  1.00  0.00     0.081 C 
ENDROOT
BRANCH   1  17
HETATM   17  C5  UNL     1      -3.451  -0.913  -0.521  1.00  0.00     0.132 C 
BRANCH  17  18
HETATM   18  C2  UNL     1      -3.318  -2.381  -0.260  1.00  0.00     0.017 C 
HETATM   19  C1  UNL     1      -4.421  -3.165  -0.939  1.00  0.00     0.021 C 
BRANCH  18  20
HETATM   20  C3  UNL     1      -3.487  -2.605   1.228  1.00  0.00     0.242 C 
BRANCH  20  21
HETATM   21  N1  UNL     1      -2.514  -1.928   2.030  1.00  0.00    -0.079 N 
ATOM     22  H13 UNL     1      -1.570  -2.177   1.735  1.00  0.00     0.274 HD
ATOM     23  H12 UNL     1      -2.504  -0.931   1.816  1.00  0.00     0.274 HD
ATOM     24  H11 UNL     1      -2.628  -2.079   3.032  1.00  0.00     0.274 HD
ENDBRANCH  20  21
ENDBRANCH  18  20
BRANCH  18  25
HETATM   25  C4  UNL     1      -1.953  -2.911  -0.660  1.00  0.00     0.176 C 
BRANCH  25  26
HETATM   26  O1  UNL     1      -1.815  -2.791  -2.046  1.00  0.00    -0.400 OA
ATOM     27  H1  UNL     1      -0.961  -3.123  -2.296  1.00  0.00     0.209 HD
ENDBRANCH  25  26
ENDBRANCH  18  25
ENDBRANCH  17  18
ENDBRANCH   1  17
BRANCH  12  28
HETATM   28  N4  UNL     1       1.604  -0.349   2.163  1.00  0.00    -0.279 N 
ATOM     29  H4  UNL     1       1.941  -0.177   3.110  1.00  0.00     0.189 HD
BRANCH  28  30
HETATM   30  N5  UNL     1       1.977  -1.535   1.510  1.00  0.00    -0.296 N 
ATOM     31  H5  UNL     1       1.271  -2.254   1.348  1.00  0.00     0.187 HD
BRANCH  30  32
HETATM   32  C11 UNL     1       3.309  -1.764   1.068  1.00  0.00     0.081 A 
HETATM   33  C12 UNL     1       3.640  -2.941   0.432  1.00  0.00     0.034 A 
HETATM   34  C13 UNL     1       4.931  -3.166   0.002  1.00  0.00     0.002 A 
HETATM   35  C14 UNL     1       5.913  -2.215   0.202  1.00  0.00     0.003 A 
HETATM   36  C15 UNL     1       5.594  -1.034   0.837  1.00  0.00     0.039 A 
HETATM   37  C16 UNL     1       4.305  -0.824   1.259  1.00  0.00     0.093 A 
BRANCH  37  38
HETATM   38  O4  UNL     1       4.018   0.367   1.891  1.00  0.00    -0.358 OA
ATOM     39  H4  UNL     1       4.702   1.013   2.022  1.00  0.00     0.217 HD
ENDBRANCH  37  38
ENDBRANCH  30  32
ENDBRANCH  28  30
ENDBRANCH  12  28
BRANCH  16  40
HETATM   40  S2  UNL     1       1.747   2.961  -1.996  1.00  0.00    -0.061 SA
BRANCH  40  41
HETATM   41  C19 UNL     1       2.222   4.676  -2.311  1.00  0.00     0.177 A 
HETATM   42  N7  UNL     1       1.892   5.429  -3.367  1.00  0.00    -0.261 N 
HETATM   43  N8  UNL     1       2.437   6.631  -3.226  1.00  0.00    -0.005 NA
ATOM     44  H7  UNL     1       1.315   5.128  -4.153  1.00  0.00     0.186 HD
HETATM   45  N9  UNL     1       3.105   6.632  -2.086  1.00  0.00    -0.224 N 
HETATM   46  N10 UNL     1       2.982   5.448  -1.519  1.00  0.00    -0.266 N 
ATOM     47  H9  UNL     1       3.630   7.420  -1.707  1.00  0.00     0.205 HD
ATOM     48  H10 UNL     1       3.394   5.167  -0.630  1.00  0.00     0.190 HD
ENDBRANCH  40  41
ENDBRANCH  16  40
TORSDOF 12
