REMARK  8 active torsions:
REMARK  status: ('A' for Active; 'I' for Inactive)
REMARK    1  A    between atoms: N1_2  and  N2_3 
REMARK    2  A    between atoms: N2_3  and  C2_5 
REMARK    3  A    between atoms: C2_5  and  O1_6 
REMARK    4  A    between atoms: C2_5  and  N3_8 
REMARK    5  A    between atoms: N4_11  and  C5_12 
REMARK    6  A    between atoms: N4_11  and  C7_16 
REMARK    7  A    between atoms: C5_12  and  C6_13 
REMARK    8  A    between atoms: C7_16  and  C8_17 
ROOT
HETATM    1  N3  UNL     1       1.020   0.505  -0.609  1.00  0.00    -0.334 N 
HETATM    2  C3  UNL     1       1.839   1.749  -0.608  1.00  0.00     0.155 C 
HETATM    3  C4  UNL     1       2.970   1.531   0.338  1.00  0.00     0.258 C 
HETATM    4  N4  UNL     1       3.926   0.550  -0.157  1.00  0.00    -0.049 N 
HETATM    5  C11 UNL     1       3.262  -0.538  -0.779  1.00  0.00     0.269 C 
HETATM    6  C12 UNL     1       1.770  -0.690  -0.603  1.00  0.00     0.060 C 
HETATM    7  C13 UNL     1       1.387  -1.775   0.379  1.00  0.00     0.033 C 
HETATM    8  C14 UNL     1       1.361  -2.782  -0.739  1.00  0.00     0.005 C 
HETATM    9  C15 UNL     1       1.307  -1.645  -1.724  1.00  0.00     0.033 C 
ENDROOT
BRANCH   1  10
HETATM   10  C2  UNL     1      -0.351   0.649  -0.618  1.00  0.00     0.240 C 
BRANCH  10  11
HETATM   11  N2  UNL     1      -1.413  -0.266  -0.614  1.00  0.00    -0.180 N 
ATOM     12  H2  UNL     1      -1.218  -1.267  -0.602  1.00  0.00     0.197 HD
BRANCH  11  13
HETATM   13  N1  UNL     1      -2.757   0.190  -0.627  1.00  0.00     0.014 N 
HETATM   14  C1  UNL     1      -2.871   1.047  -1.806  1.00  0.00     0.302 C 
HETATM   15  C16 UNL     1      -3.641  -0.923  -0.730  1.00  0.00     0.292 C 
HETATM   16  C17 UNL     1      -5.077  -0.577  -0.517  1.00  0.00     0.267 C 
HETATM   17  N7  UNL     1      -5.331   0.016   0.781  1.00  0.00    -0.064 N 
HETATM   18  C18 UNL     1      -6.076  -0.956   1.562  1.00  0.00     0.237 C 
HETATM   19  C21 UNL     1      -6.146   1.184   0.648  1.00  0.00     0.237 C 
HETATM   20  C22 UNL     1      -4.079   0.231   1.439  1.00  0.00     0.267 C 
HETATM   21  C19 UNL     1      -7.530  -0.544   1.447  1.00  0.00     0.029 C 
HETATM   22  C20 UNL     1      -7.396   0.964   1.472  1.00  0.00     0.029 C 
HETATM   23  C23 UNL     1      -3.030   0.887   0.592  1.00  0.00     0.292 C 
ENDBRANCH  11  13
ENDBRANCH  10  11
BRANCH  10  24
HETATM   24  O1  UNL     1      -0.747   1.901  -0.632  1.00  0.00    -0.331 OA
ATOM     25  H1  UNL     1      -0.027   2.521  -0.635  1.00  0.00     0.221 HD
ENDBRANCH  10  24
ENDBRANCH   1  10
BRANCH   4  26
HETATM   26  C5  UNL     1       4.729   1.223  -1.152  1.00  0.00     0.350 C 
BRANCH  26  27
HETATM   27  C6  UNL     1       5.639   2.255  -0.685  1.00  0.00     0.199 C 
HETATM   28  O2  UNL     1       6.363   2.831  -1.584  1.00  0.00    -0.647 OA
HETATM   29  O3  UNL     1       5.852   2.718   0.582  1.00  0.00    -0.647 OA
ENDBRANCH  26  27
ENDBRANCH   4  26
BRANCH   4  30
HETATM   30  C7  UNL     1       4.648   0.091   0.982  1.00  0.00     0.296 C 
BRANCH  30  31
HETATM   31  C8  UNL     1       5.933  -0.555   0.781  1.00  0.00     0.051 A 
HETATM   32  C9  UNL     1       6.439  -1.345  -0.216  1.00  0.00     0.115 A 
HETATM   33  N5  UNL     1       7.711  -1.690   0.093  1.00  0.00    -0.360 N 
HETATM   34  C10 UNL     1       7.997  -1.131   1.257  1.00  0.00     0.180 A 
ATOM     35  H5  UNL     1       8.333  -2.273  -0.467  1.00  0.00     0.166 HD
HETATM   36  N6  UNL     1       6.953  -0.450   1.686  1.00  0.00    -0.353 N 
ATOM     37  H6  UNL     1       6.912   0.075   2.560  1.00  0.00     0.166 HD
ENDBRANCH  30  31
ENDBRANCH   4  30
TORSDOF 8
