REMARK  2 active torsions:
REMARK  status: ('A' for Active; 'I' for Inactive)
REMARK    1  A    between atoms: N1_5  and  O2_7 
REMARK    2  A    between atoms: C6_11  and  C7_12 
ROOT
HETATM    1  O1  UNL     1       0.554  -2.423  -1.208  1.00  0.00    -0.297 OA
HETATM    2  C1  UNL     1       0.894  -1.345  -0.706  1.00  0.00     0.136 C 
HETATM    3  C2  UNL     1       2.061  -0.667  -1.323  1.00  0.00     0.133 C 
HETATM    4  C3  UNL     1       2.818  -0.011  -0.202  1.00  0.00     0.017 C 
HETATM    5  N1  UNL     1       4.076  -0.188  -0.128  1.00  0.00    -0.277 N 
ATOM      6  H1  UNL     1       4.529  -0.770  -0.832  1.00  0.00     0.193 HD
HETATM    7  C4  UNL     1       2.018   0.801   0.737  1.00  0.00     0.056 C 
HETATM    8  C5  UNL     1       0.948  -0.037   1.414  1.00  0.00     0.018 C 
HETATM    9  C6  UNL     1       0.131  -0.829   0.438  1.00  0.00     0.060 C 
ENDROOT
BRANCH   9  10
HETATM   10  C7  UNL     1      -0.989   0.052  -0.063  1.00  0.00    -0.003 C 
HETATM   11  C8  UNL     1      -1.798   0.604   1.072  1.00  0.00     0.005 C 
HETATM   12  C9  UNL     1      -3.249   0.543   0.671  1.00  0.00     0.000 C 
HETATM   13  C10 UNL     1      -3.182   0.287  -0.839  1.00  0.00     0.000 C 
HETATM   14  C11 UNL     1      -1.993  -0.682  -0.887  1.00  0.00     0.005 C 
ENDBRANCH   9  10
BRANCH   5  15
HETATM   15  O2  UNL     1       4.843   0.366   0.850  1.00  0.00    -0.290 OA
ATOM     16  H2  UNL     1       5.782   0.234   0.905  1.00  0.00     0.244 HD
ENDBRANCH   5  15
TORSDOF 2
