REMARK  2 active torsions:
REMARK  status: ('A' for Active; 'I' for Inactive)
REMARK    1  A    between atoms: C5_12  and  N4_13 
REMARK    2  A    between atoms: N5_15  and  N6_17 
REMARK       I    between atoms: N6_17  and  C6_19 
ROOT
HETATM    1  C1  UNL     1      -2.251   1.523   1.302  1.00  0.00     0.163 C 
HETATM    2  N1  UNL     1      -1.940   0.472   0.373  1.00  0.00    -0.287 N 
HETATM    3  C2  UNL     1      -2.854   0.126  -0.555  1.00  0.00     0.330 A 
HETATM    4  O1  UNL     1      -3.964   0.716  -0.606  1.00  0.00    -0.246 OA
HETATM    5  N2  UNL     1      -2.603  -0.848  -1.439  1.00  0.00    -0.273 N 
ATOM      6  H2  UNL     1      -3.292  -1.113  -2.143  1.00  0.00     0.173 HD
HETATM    7  C3  UNL     1      -1.414  -1.462  -1.365  1.00  0.00     0.280 A 
HETATM    8  O2  UNL     1      -1.171  -2.374  -2.188  1.00  0.00    -0.265 OA
HETATM    9  C4  UNL     1      -0.448  -1.147  -0.438  1.00  0.00     0.162 A 
HETATM   10  N3  UNL     1       0.791  -1.576  -0.136  1.00  0.00    -0.181 N 
ATOM     11  H3  UNL     1       1.284  -2.321  -0.628  1.00  0.00     0.184 HD
HETATM   12  C5  UNL     1       1.290  -0.882   0.909  1.00  0.00     0.700 A 
HETATM   13  N7  UNL     1       0.339  -0.000   1.266  1.00  0.00    -0.172 N 
ATOM     14  H7  UNL     1       0.421   0.671   2.030  1.00  0.00     0.186 HD
HETATM   15  C7  UNL     1      -0.741  -0.133   0.463  1.00  0.00     0.160 A 
ENDROOT
BRANCH  12  16
HETATM   16  N4  UNL     1       2.556  -1.008   1.550  1.00  0.00    -0.117 N 
HETATM   17  N5  UNL     1       3.659  -0.812   1.003  1.00  0.00    -0.225 N 
ATOM     18  H5  UNL     1       4.495  -0.936   1.575  1.00  0.00     0.209 HD
ATOM     19  H4  UNL     1       2.560  -1.280   2.533  1.00  0.00     0.207 HD
BRANCH  17  20
HETATM   20  N6  UNL     1       3.843  -0.436  -0.332  1.00  0.00    -0.241 N 
HETATM   21  C6  UNL     1       3.615   0.901  -0.732  1.00  0.00     0.334 C 
HETATM   22  O3  UNL     1       3.247   1.732   0.137  1.00  0.00    -0.252 OA
HETATM   23 CL1  UNL     1       3.854   1.339  -2.408  1.00  0.00    -0.018 Cl
ATOM     24  H6  UNL     1       4.142  -1.128  -1.019  1.00  0.00     0.192 HD
ENDBRANCH  17  20
ENDBRANCH  12  16
TORSDOF 2
