REMARK  6 active torsions:
REMARK  status: ('A' for Active; 'I' for Inactive)
REMARK    1  A    between atoms: C3_4  and  N1_5 
REMARK    2  A    between atoms: N1_5  and  C4_7 
REMARK    3  A    between atoms: C6_11  and  C7_12 
REMARK    4  A    between atoms: C10_17  and  O1_18 
REMARK    5  A    between atoms: O1_18  and  C11_19 
REMARK    6  A    between atoms: C19_32  and  C20_33 
ROOT
HETATM    1  C4  UNL     1       1.262   0.118   0.267  1.00  0.00     0.158 A 
HETATM    2  N2  UNL     1       2.362   0.873   0.095  1.00  0.00    -0.347 N 
ATOM      3  H2  UNL     1       3.290   0.456   0.168  1.00  0.00     0.167 HD
HETATM    4  C5  UNL     1       2.227   2.171  -0.171  1.00  0.00     0.115 A 
HETATM    5  C6  UNL     1       0.971   2.730  -0.268  1.00  0.00     0.031 A 
HETATM    6  N3  UNL     1      -0.114   1.949  -0.091  1.00  0.00    -0.336 N 
ATOM      7  H3  UNL     1      -1.040   2.370  -0.164  1.00  0.00     0.168 HD
HETATM    8  C10 UNL     1      -0.017   0.631   0.179  1.00  0.00     0.188 A 
ENDROOT
BRANCH   1   9
HETATM    9  N1  UNL     1       1.427  -1.119   0.520  1.00  0.00    -0.338 N 
ATOM     10  H1  UNL     1       0.592  -1.690   0.650  1.00  0.00     0.167 HD
BRANCH   9  11
HETATM   11  C3  UNL     1       2.677  -1.758   0.634  1.00  0.00     0.052 A 
HETATM   12  C2  UNL     1       3.143  -2.463  -0.447  1.00  0.00     0.075 A 
HETATM   13  C1  UNL     1       4.365  -3.092  -0.348  1.00  0.00     0.146 A 
HETATM   14  F1  UNL     1       4.837  -3.792  -1.410  1.00  0.00    -0.204 F 
HETATM   15  C19 UNL     1       5.085  -3.000   0.820  1.00  0.00     0.113 A 
HETATM   16  N5  UNL     1       4.593  -2.300   1.855  1.00  0.00    -0.360 N 
HETATM   17  C18 UNL     1       3.409  -1.680   1.785  1.00  0.00     0.117 A 
ATOM     18  H5  UNL     1       5.136  -2.239   2.717  1.00  0.00     0.165 HD
BRANCH  15  19
HETATM   19  C20 UNL     1       6.419  -3.685   0.932  1.00  0.00     0.406 C 
HETATM   20  F4  UNL     1       7.216  -3.253  -0.088  1.00  0.00    -0.207 F 
HETATM   21  F5  UNL     1       6.183  -5.051   0.782  1.00  0.00    -0.207 F 
ENDBRANCH  15  19
ENDBRANCH   9  11
ENDBRANCH   1   9
BRANCH   8  22
HETATM   22  O1  UNL     1      -1.065  -0.214   0.369  1.00  0.00    -0.326 OA
BRANCH  22  23
HETATM   23  C11 UNL     1      -2.413   0.033   0.337  1.00  0.00     0.164 C 
HETATM   24  C12 UNL     1      -3.017  -0.850  -0.765  1.00  0.00     0.305 C 
HETATM   25  N4  UNL     1      -4.194  -1.435  -0.218  1.00  0.00     0.101 N 
HETATM   26  C13 UNL     1      -5.274  -1.775  -1.079  1.00  0.00     0.275 C 
HETATM   27  C15 UNL     1      -5.003  -0.273   0.210  1.00  0.00     0.296 C 
HETATM   28  C14 UNL     1      -6.196  -1.107  -0.041  1.00  0.00     0.072 C 
HETATM   29  C16 UNL     1      -4.573   0.003   1.605  1.00  0.00     0.276 C 
HETATM   30  F2  UNL     1      -4.882   1.317   1.964  1.00  0.00    -0.204 F 
HETATM   31  F3  UNL     1      -5.229  -0.813   2.501  1.00  0.00    -0.204 F 
HETATM   32  C17 UNL     1      -3.075  -0.230   1.674  1.00  0.00     0.115 C 
ENDBRANCH  22  23
ENDBRANCH   8  22
BRANCH   5  33
HETATM   33  C7  UNL     1       0.871   4.184  -0.567  1.00  0.00     0.037 A 
HETATM   34  C8  UNL     1       1.898   4.815  -1.434  1.00  0.00     0.011 A 
HETATM   35  C9  UNL     1       1.854   5.077   0.052  1.00  0.00     0.011 A 
ENDBRANCH   5  33
TORSDOF 6
