REMARK  0 active torsions:
REMARK  status: ('A' for Active; 'I' for Inactive)
ROOT
HETATM    1  C1  UNL     1      -0.325   1.102  -0.019  1.00  0.00     0.003 A 
HETATM    2  C2  UNL     1       1.020   0.807  -0.051  1.00  0.00     0.017 A 
HETATM    3  C3  UNL     1       1.381  -0.523  -0.027  1.00  0.00     0.087 A 
HETATM    4  N1  UNL     1       0.439  -1.482   0.025  1.00  0.00    -0.375 N 
ATOM      5  H1  UNL     1       0.746  -2.455   0.040  1.00  0.00     0.164 HD
HETATM    6  C4  UNL     1      -0.882  -1.237   0.058  1.00  0.00     0.087 A 
HETATM    7  C5  UNL     1      -1.261   0.089   0.035  1.00  0.00     0.017 A 
ENDROOT
TORSDOF 0
