REMARK  5 active torsions:
REMARK  status: ('A' for Active; 'I' for Inactive)
REMARK    1  A    between atoms: C1_1  and  C13_15 
REMARK    2  A    between atoms: C2_2  and  C3_3 
REMARK    3  A    between atoms: C6_8  and  C7_9 
REMARK    4  A    between atoms: C15_17  and  C16_18 
REMARK    5  A    between atoms: C16_18  and  C17_19 
ROOT
HETATM    1  C13 UNL     1      -0.315  -0.133  -0.840  1.00  0.00     0.033 A 
HETATM    2  C14 UNL     1      -1.612  -0.377  -1.181  1.00  0.00     0.037 A 
HETATM    3  C15 UNL     1      -2.591   0.629  -1.168  1.00  0.00    -0.039 A 
HETATM    4  C23 UNL     1      -2.191   1.880  -0.800  1.00  0.00    -0.003 A 
HETATM    5  C24 UNL     1      -3.043   2.958  -0.773  1.00  0.00     0.014 A 
HETATM    6  C25 UNL     1      -2.661   4.250  -0.421  1.00  0.00     0.001 A 
HETATM    7  C26 UNL     1      -1.342   4.438  -0.082  1.00  0.00     0.002 A 
HETATM    8  C27 UNL     1      -0.435   3.406  -0.089  1.00  0.00     0.030 A 
HETATM    9  C28 UNL     1      -0.861   2.147  -0.446  1.00  0.00     0.043 A 
HETATM   10  N2  UNL     1       0.009   1.114  -0.486  1.00  0.00    -0.356 N 
ATOM     11  H2  UNL     1       0.979   1.299  -0.229  1.00  0.00     0.166 HD
ENDROOT
BRANCH   1  12
HETATM   12  C1  UNL     1       0.666  -1.222  -0.870  1.00  0.00     0.030 C 
HETATM   13  C2  UNL     1       1.919  -1.064  -0.558  1.00  0.00     0.016 C 
BRANCH  13  14
HETATM   14  C3  UNL     1       2.845  -2.175  -0.605  1.00  0.00    -0.008 A 
HETATM   15  C4  UNL     1       2.584  -3.499  -0.968  1.00  0.00     0.100 A 
HETATM   16  N1  UNL     1       3.677  -4.244  -0.896  1.00  0.00    -0.374 N 
HETATM   17  C5  UNL     1       4.675  -3.454  -0.492  1.00  0.00     0.100 A 
ATOM     18  H1  UNL     1       3.744  -5.239  -1.110  1.00  0.00     0.164 HD
HETATM   19  C6  UNL     1       4.202  -2.162  -0.300  1.00  0.00     0.001 A 
BRANCH  19  20
HETATM   20  C7  UNL     1       5.009  -1.034   0.146  1.00  0.00    -0.024 A 
HETATM   21  C8  UNL     1       6.243  -0.781  -0.442  1.00  0.00     0.012 A 
HETATM   22  C9  UNL     1       7.033   0.274  -0.041  1.00  0.00     0.001 A 
HETATM   23  C10 UNL     1       6.622   1.119   0.964  1.00  0.00     0.000 A 
HETATM   24  C11 UNL     1       5.419   0.896   1.558  1.00  0.00     0.001 A 
HETATM   25  C12 UNL     1       4.628  -0.171   1.148  1.00  0.00     0.012 A 
ENDBRANCH  19  20
ENDBRANCH  13  14
ENDBRANCH   1  12
BRANCH   3  26
HETATM   26  C16 UNL     1      -3.998   0.310  -1.460  1.00  0.00     0.078 C 
BRANCH  26  27
HETATM   27  C17 UNL     1      -4.817  -0.046  -0.295  1.00  0.00    -0.054 A 
HETATM   28  C18 UNL     1      -5.726   0.743   0.331  1.00  0.00     0.007 A 
HETATM   29  C19 UNL     1      -6.458   0.339   1.434  1.00  0.00     0.001 A 
HETATM   30  C20 UNL     1      -6.289  -0.919   1.957  1.00  0.00     0.000 A 
HETATM   31  C21 UNL     1      -5.376  -1.755   1.354  1.00  0.00     0.001 A 
HETATM   32  C22 UNL     1      -4.661  -1.329   0.259  1.00  0.00     0.007 A 
ENDBRANCH  26  27
ENDBRANCH   3  26
TORSDOF 5
