REMARK  5 active torsions:
REMARK  status: ('A' for Active; 'I' for Inactive)
REMARK    1  A    between atoms: C1_1  and  C24_28 
REMARK    2  A    between atoms: C2_2  and  C3_3 
REMARK    3  A    between atoms: C5_5  and  C6_6 
REMARK    4  A    between atoms: C7_7  and  C8_8 
REMARK    5  A    between atoms: C17_19  and  C18_20 
ROOT
HETATM    1  C3  UNL     1       1.526   0.007  -0.414  1.00  0.00     0.033 A 
HETATM    2  C4  UNL     1       0.218  -0.502  -0.398  1.00  0.00     0.041 A 
HETATM    3  C5  UNL     1      -0.835   0.239   0.037  1.00  0.00    -0.032 A 
HETATM    4  C16 UNL     1      -0.550   1.546   0.473  1.00  0.00     0.042 A 
HETATM    5  C17 UNL     1       0.716   2.064   0.467  1.00  0.00     0.043 A 
HETATM    6  N2  UNL     1       1.720   1.254   0.014  1.00  0.00    -0.356 N 
ATOM      7  H2  UNL     1       2.670   1.625   0.003  1.00  0.00     0.166 HD
ENDROOT
BRANCH   3   8
HETATM    8  C6  UNL     1      -2.246  -0.215   0.089  1.00  0.00     0.012 C 
HETATM    9  C7  UNL     1      -2.535  -1.418  -0.308  1.00  0.00     0.014 C 
BRANCH   9  10
HETATM   10  C8  UNL     1      -3.805  -2.088  -0.357  1.00  0.00    -0.008 A 
HETATM   11  C9  UNL     1      -3.976  -3.410  -0.817  1.00  0.00     0.100 A 
HETATM   12  N1  UNL     1      -5.259  -3.737  -0.738  1.00  0.00    -0.364 N 
HETATM   13  C10 UNL     1      -5.932  -2.697  -0.251  1.00  0.00     0.043 A 
ATOM     14  H1  UNL     1      -5.662  -4.635  -1.006  1.00  0.00     0.165 HD
HETATM   15  C11 UNL     1      -7.278  -2.576   0.002  1.00  0.00     0.030 A 
HETATM   16  C15 UNL     1      -5.058  -1.643   0.001  1.00  0.00     0.002 A 
HETATM   17  C12 UNL     1      -7.744  -1.395   0.509  1.00  0.00     0.002 A 
HETATM   18  C13 UNL     1      -6.920  -0.330   0.772  1.00  0.00     0.001 A 
HETATM   19  C14 UNL     1      -5.557  -0.460   0.513  1.00  0.00     0.014 A 
ENDBRANCH   9  10
ENDBRANCH   3   8
BRANCH   1  20
HETATM   20  C2  UNL     1       2.629  -0.840  -0.896  1.00  0.00     0.030 C 
HETATM   21  C1  UNL     1       3.863  -0.402  -0.926  1.00  0.00     0.013 C 
BRANCH  21  22
HETATM   22  C24 UNL     1       4.965  -1.216  -1.396  1.00  0.00    -0.036 A 
HETATM   23  C25 UNL     1       4.794  -2.503  -1.842  1.00  0.00     0.011 A 
HETATM   24  C26 UNL     1       5.901  -3.213  -2.274  1.00  0.00     0.001 A 
HETATM   25  C27 UNL     1       7.169  -2.678  -2.274  1.00  0.00     0.000 A 
HETATM   26  C28 UNL     1       7.335  -1.387  -1.825  1.00  0.00     0.001 A 
HETATM   27  C29 UNL     1       6.247  -0.694  -1.402  1.00  0.00     0.011 A 
ENDBRANCH  21  22
ENDBRANCH   1  20
BRANCH   5  28
HETATM   28  C18 UNL     1       1.013   3.409   0.915  1.00  0.00    -0.009 A 
HETATM   29  C19 UNL     1       0.037   4.247   1.374  1.00  0.00     0.013 A 
HETATM   30  C20 UNL     1       0.367   5.536   1.796  1.00  0.00     0.001 A 
HETATM   31  C21 UNL     1       1.668   5.973   1.755  1.00  0.00     0.000 A 
HETATM   32  C22 UNL     1       2.666   5.121   1.287  1.00  0.00     0.001 A 
HETATM   33  C23 UNL     1       2.347   3.856   0.872  1.00  0.00     0.013 A 
ENDBRANCH   5  28
TORSDOF 5
