REMARK  2 active torsions:
REMARK  status: ('A' for Active; 'I' for Inactive)
REMARK       I    between atoms: N1_6  and  C5_7 
REMARK    1  A    between atoms: C5_7  and  C6_9 
REMARK    2  A    between atoms: C16_22  and  O2_23 
ROOT
HETATM    1  C6  UNL     1      -0.854   0.249  -0.321  1.00  0.00     0.069 C 
HETATM    2  C7  UNL     1      -2.192   0.531  -1.039  1.00  0.00     0.034 C 
HETATM    3  C8  UNL     1      -3.327   0.338  -0.082  1.00  0.00    -0.005 C 
HETATM    4  C9  UNL     1      -4.615   0.592  -0.832  1.00  0.00     0.018 C 
HETATM    5  C10 UNL     1      -3.370  -1.062   0.510  1.00  0.00     0.019 C 
HETATM    6  C11 UNL     1      -2.027  -1.330   1.160  1.00  0.00     0.018 C 
HETATM    7  C12 UNL     1      -1.835  -0.395   2.305  1.00  0.00     0.031 C 
HETATM    8  C13 UNL     1      -1.956   1.007   1.812  1.00  0.00     0.056 C 
HETATM    9 BR1  UNL     1      -1.667   2.245   3.275  1.00  0.00    -0.082 Br
HETATM   10  C14 UNL     1      -0.839   1.239   0.802  1.00  0.00     0.046 C 
HETATM   11  C15 UNL     1      -3.250   1.290   1.105  1.00  0.00     0.138 C 
HETATM   12 CL2  UNL     1      -4.650   1.067   2.146  1.00  0.00    -0.099 Cl
HETATM   13 CL3  UNL     1      -3.209   2.936   0.470  1.00  0.00    -0.099 Cl
HETATM   14  C16 UNL     1      -0.984  -1.191   0.083  1.00  0.00     0.140 C 
ENDROOT
BRANCH   1  15
HETATM   15  C5  UNL     1       0.276   0.529  -1.208  1.00  0.00     0.231 C 
HETATM   16  N1  UNL     1       1.633   0.436  -0.909  1.00  0.00    -0.351 N 
HETATM   17  C4  UNL     1       2.276   0.057   0.308  1.00  0.00     0.127 C 
HETATM   18  C17 UNL     1       2.618   0.765  -1.965  1.00  0.00     0.127 C 
HETATM   19  C3  UNL     1       3.400  -0.910  -0.098  1.00  0.00     0.045 C 
HETATM   20  C2  UNL     1       4.538  -0.059  -0.578  1.00  0.00     0.036 C 
HETATM   21  C1  UNL     1       5.270   0.457   0.656  1.00  0.00     0.033 C 
HETATM   22 CL1  UNL     1       5.677  -0.970  -1.569  1.00  0.00    -0.119 Cl
HETATM   23  C18 UNL     1       3.953   1.110  -1.335  1.00  0.00     0.045 C 
HETATM   24  O1  UNL     1      -0.044   0.902  -2.393  1.00  0.00    -0.272 OA
ENDBRANCH   1  15
BRANCH  14  25
HETATM   25  O2  UNL     1      -1.529  -1.856  -1.049  1.00  0.00    -0.394 OA
ATOM     26  H2  UNL     1      -1.611  -2.767  -0.793  1.00  0.00     0.210 HD
ENDBRANCH  14  25
TORSDOF 2
