REMARK  4 active torsions:
REMARK  status: ('A' for Active; 'I' for Inactive)
REMARK    1  A    between atoms: N1_6  and  C6_7 
REMARK    2  A    between atoms: C6_7  and  O1_8 
REMARK    3  A    between atoms: C6_7  and  C7_10 
REMARK       I    between atoms: N2_17  and  C12_18 
REMARK       I    between atoms: C12_18  and  N3_20 
REMARK    4  A    between atoms: N3_20  and  C13_22 
ROOT
HETATM    1  C7  UNL     1      -2.171  -0.525  -1.424  1.00  0.00     0.163 C 
HETATM    2  C8  UNL     1      -3.451  -1.029  -2.065  1.00  0.00     0.040 C 
HETATM    3  C9  UNL     1      -3.219  -1.963  -3.211  1.00  0.00     0.083 C 
HETATM    4  C10 UNL     1      -2.136  -2.963  -3.034  1.00  0.00     0.259 C 
HETATM    5  F1  UNL     1      -2.599  -4.274  -3.217  1.00  0.00    -0.205 F 
HETATM    6  F2  UNL     1      -1.157  -2.749  -3.984  1.00  0.00    -0.205 F 
HETATM    7  C11 UNL     1      -1.602  -2.910  -1.635  1.00  0.00     0.207 C 
HETATM    8  N2  UNL     1      -1.159  -1.514  -1.434  1.00  0.00    -0.316 N 
HETATM    9  C12 UNL     1       0.208  -1.280  -1.303  1.00  0.00     0.319 C 
HETATM   10  O2  UNL     1       1.007  -2.254  -1.320  1.00  0.00    -0.247 OA
HETATM   11  N3  UNL     1       0.805  -0.001  -1.148  1.00  0.00    -0.338 N 
ATOM     12  H3  UNL     1       0.185   0.809  -1.130  1.00  0.00     0.164 HD
ENDROOT
BRANCH   1  13
HETATM   13  C6  UNL     1      -2.545   0.141  -0.194  1.00  0.00     0.137 C 
BRANCH  13  14
HETATM   14  N1  UNL     1      -2.214  -0.043   1.139  1.00  0.00    -0.363 N 
HETATM   15  C5  UNL     1      -2.821   0.914   2.102  1.00  0.00     0.124 C 
HETATM   16  C4  UNL     1      -1.794   1.170   3.202  1.00  0.00     0.020 C 
HETATM   17  C3  UNL     1      -1.670  -0.094   4.041  1.00  0.00     0.007 C 
HETATM   18  C2  UNL     1      -1.748  -1.327   3.214  1.00  0.00    -0.001 C 
HETATM   19  C1  UNL     1      -3.006  -2.120   3.348  1.00  0.00     0.011 C 
HETATM   20  C22 UNL     1      -1.385  -1.009   1.769  1.00  0.00     0.128 C 
ENDBRANCH  13  14
BRANCH  13  21
HETATM   21  O1  UNL     1      -3.382   1.131  -0.419  1.00  0.00    -0.348 OA
ATOM     22  H1  UNL     1      -3.609   1.257  -1.333  1.00  0.00     0.219 HD
ENDBRANCH  13  21
ENDBRANCH   1  13
BRANCH  11  23
HETATM   23  C13 UNL     1       2.205   0.239  -1.016  1.00  0.00     0.097 C 
HETATM   24  C14 UNL     1       2.582   0.878   0.296  1.00  0.00     0.015 C 
HETATM   25  C15 UNL     1       3.328  -0.107   1.170  1.00  0.00     0.013 C 
HETATM   26  C16 UNL     1       3.398   2.104   0.013  1.00  0.00    -0.007 C 
HETATM   27  C17 UNL     1       4.886   1.820  -0.077  1.00  0.00     0.018 C 
HETATM   28  C18 UNL     1       3.186   3.196   1.031  1.00  0.00     0.018 C 
HETATM   29  C19 UNL     1       2.890   2.521  -1.364  1.00  0.00     0.125 C 
HETATM   30 CL1  UNL     1       1.346   3.382  -1.279  1.00  0.00    -0.100 Cl
HETATM   31 CL2  UNL     1       4.060   3.571  -2.195  1.00  0.00    -0.100 Cl
HETATM   32  C20 UNL     1       2.750   1.182  -2.067  1.00  0.00     0.044 C 
HETATM   33  C21 UNL     1       1.937   1.275  -3.305  1.00  0.00     0.015 C 
ENDBRANCH  11  23
TORSDOF 4
