REMARK  9 active torsions:
REMARK  status: ('A' for Active; 'I' for Inactive)
REMARK    1  A    between atoms: C2_2  and  N1_3 
REMARK       I    between atoms: N1_3  and  C3_5 
REMARK       I    between atoms: C3_5  and  N2_6 
REMARK       I    between atoms: C3_5  and  N8_28 
REMARK    2  A    between atoms: N2_6  and  C4_8 
REMARK    3  A    between atoms: C4_8  and  C5_9 
REMARK    4  A    between atoms: C5_9  and  C6_10 
REMARK    5  A    between atoms: C6_10  and  N3_11 
REMARK    6  A    between atoms: N3_11  and  C7_13 
REMARK    7  A    between atoms: C10_22  and  S1_23 
REMARK       I    between atoms: N8_28  and  C13_30 
REMARK    8  A    between atoms: C13_30  and  C14_32 
REMARK    9  A    between atoms: C14_32  and  C15_33 
ROOT
HETATM    1  C5  UNL     1       0.869  -0.471   1.056  1.00  0.00     0.040 C 
ENDROOT
BRANCH   1   2
HETATM    2  C4  UNL     1      -0.440   0.259   1.354  1.00  0.00     0.139 C 
BRANCH   2   3
HETATM    3  N2  UNL     1      -1.516  -0.616   1.686  1.00  0.00    -0.226 N 
HETATM    4  C3  UNL     1      -2.112  -1.509   0.731  1.00  0.00     0.676 C 
HETATM    5  N1  UNL     1      -1.494  -2.618   0.519  1.00  0.00    -0.227 N 
HETATM    6  N8  UNL     1      -3.319  -1.182   0.058  1.00  0.00    -0.160 N 
ATOM      7  H1  UNL     1      -0.628  -2.837   1.011  1.00  0.00     0.177 HD
HETATM    8  C13 UNL     1      -4.011   0.036   0.282  1.00  0.00     0.236 C 
ATOM      9  H8  UNL     1      -3.703  -1.848  -0.612  1.00  0.00     0.187 HD
HETATM   10  O1  UNL     1      -3.538   0.857   1.107  1.00  0.00    -0.273 OA
ATOM     11  H2  UNL     1      -1.877  -0.608   2.640  1.00  0.00     0.177 HD
BRANCH   5  12
HETATM   12  C2  UNL     1      -2.057  -3.539  -0.429  1.00  0.00     0.133 C 
HETATM   13  C1  UNL     1      -1.131  -4.732  -0.516  1.00  0.00     0.027 C 
ENDBRANCH   5  12
BRANCH   8  14
HETATM   14  C14 UNL     1      -5.254   0.342  -0.430  1.00  0.00     0.112 C 
BRANCH  14  15
HETATM   15  C15 UNL     1      -5.805   1.710  -0.024  1.00  0.00    -0.043 C 
HETATM   16  C16 UNL     1      -4.791   2.794  -0.348  1.00  0.00     0.015 C 
HETATM   17  C17 UNL     1      -7.041   1.966  -0.828  1.00  0.00     0.015 C 
HETATM   18  C18 UNL     1      -6.155   1.718   1.447  1.00  0.00     0.015 C 
ENDBRANCH  14  15
ENDBRANCH   8  14
ENDBRANCH   2   3
ENDBRANCH   1   2
BRANCH   1  19
HETATM   19  C6  UNL     1       1.905   0.574   0.723  1.00  0.00     0.123 C 
BRANCH  19  20
HETATM   20  N3  UNL     1       3.189   0.014   0.425  1.00  0.00    -0.374 N 
ATOM     21  H3  UNL     1       3.327  -0.996   0.378  1.00  0.00     0.161 HD
BRANCH  20  22
HETATM   22  C7  UNL     1       4.169   0.834   0.217  1.00  0.00     0.133 A 
HETATM   23  N4  UNL     1       4.029   2.166   0.269  1.00  0.00    -0.337 N 
HETATM   24  C8  UNL     1       5.079   2.993   0.050  1.00  0.00     0.183 A 
ATOM     25  H4  UNL     1       3.114   2.565   0.478  1.00  0.00     0.168 HD
HETATM   26  N5  UNL     1       6.271   2.435  -0.223  1.00  0.00    -0.337 N 
HETATM   27  C9  UNL     1       6.484   1.109  -0.291  1.00  0.00     0.139 A 
ATOM     28  H5  UNL     1       7.063   3.056  -0.389  1.00  0.00     0.168 HD
HETATM   29  N6  UNL     1       7.532   0.314  -0.536  1.00  0.00    -0.321 N 
HETATM   30  C12 UNL     1       5.404   0.265  -0.066  1.00  0.00     0.123 A 
HETATM   31  C10 UNL     1       7.175  -0.981  -0.478  1.00  0.00     0.146 A 
ATOM     32  H6  UNL     1       8.475   0.646  -0.739  1.00  0.00     0.169 HD
HETATM   33  N7  UNL     1       5.865  -0.994  -0.188  1.00  0.00    -0.331 N 
ATOM     34  H7  UNL     1       5.300  -1.836  -0.076  1.00  0.00     0.168 HD
BRANCH  31  35
HETATM   35  S1  UNL     1       8.267  -2.397  -0.739  1.00  0.00    -0.098 SA
HETATM   36  C11 UNL     1       9.960  -1.794  -1.096  1.00  0.00     0.099 C 
ENDBRANCH  31  35
ENDBRANCH  20  22
ENDBRANCH  19  20
ENDBRANCH   1  19
TORSDOF 9
