REMARK  10 active torsions:
REMARK  status: ('A' for Active; 'I' for Inactive)
REMARK    1  A    between atoms: O1_1  and  C1_3 
REMARK    2  A    between atoms: C1_3  and  C2_4 
REMARK    3  A    between atoms: C2_4  and  N1_5 
REMARK    4  A    between atoms: C5_8  and  C6_9 
REMARK    5  A    between atoms: C7_12  and  C8_13 
REMARK    6  A    between atoms: C8_13  and  O2_14 
REMARK    7  A    between atoms: C8_13  and  C9_16 
REMARK    8  A    between atoms: C9_16  and  C10_17 
REMARK    9  A    between atoms: C10_17  and  C11_18 
REMARK   10  A    between atoms: C20_32  and  O3_33 
ROOT
HETATM    1  C6  UNL     1       0.523  -0.937  -0.456  1.00  0.00     0.111 A 
HETATM    2  N2  UNL     1       1.431  -0.164  -1.079  1.00  0.00    -0.342 N 
ATOM      3  H2  UNL     1       1.201   0.559  -1.761  1.00  0.00     0.167 HD
HETATM    4  C7  UNL     1       2.686  -0.468  -0.686  1.00  0.00     0.055 A 
HETATM    5  C15 UNL     1       2.569  -1.477   0.226  1.00  0.00     0.117 A 
HETATM    6  N4  UNL     1       1.258  -1.743   0.349  1.00  0.00    -0.350 N 
ATOM      7  H4  UNL     1       0.868  -2.456   0.965  1.00  0.00     0.166 HD
ENDROOT
BRANCH   1   8
HETATM    8  C5  UNL     1      -0.922  -0.929  -0.600  1.00  0.00    -0.014 C 
HETATM    9  C4  UNL     1      -1.542  -0.103  -1.426  1.00  0.00     0.014 C 
HETATM   10  C3  UNL     1      -3.042  -0.258  -1.425  1.00  0.00     0.301 C 
HETATM   11  N1  UNL     1      -3.524  -0.090  -0.073  1.00  0.00     0.104 N 
HETATM   12  C17 UNL     1      -2.825  -0.929   0.837  1.00  0.00     0.278 C 
HETATM   13  C16 UNL     1      -1.792  -1.844   0.174  1.00  0.00     0.072 C 
BRANCH  11  14
HETATM   14  C2  UNL     1      -4.952  -0.288   0.037  1.00  0.00     0.181 C 
HETATM   15  C18 UNL     1      -5.721   0.608  -0.911  1.00  0.00     0.046 C 
HETATM   16  C19 UNL     1      -6.948   1.228  -0.237  1.00  0.00     0.034 C 
HETATM   17  C20 UNL     1      -6.528   2.172   0.869  1.00  0.00     0.118 C 
HETATM   18  C21 UNL     1      -5.249   1.631   1.511  1.00  0.00     0.034 C 
HETATM   19  C22 UNL     1      -5.370   0.101   1.433  1.00  0.00     0.046 C 
BRANCH  14  20
HETATM   20  C1  UNL     1      -5.360  -1.701  -0.315  1.00  0.00     0.205 C 
BRANCH  20  21
HETATM   21  O1  UNL     1      -6.754  -1.771  -0.173  1.00  0.00    -0.398 OA
ATOM     22  H1  UNL     1      -7.010  -2.659  -0.394  1.00  0.00     0.209 HD
ENDBRANCH  20  21
ENDBRANCH  14  20
BRANCH  17  23
HETATM   23  O3  UNL     1      -7.523   2.252   1.816  1.00  0.00    -0.396 OA
ATOM     24  H3  UNL     1      -7.259   2.845   2.510  1.00  0.00     0.210 HD
ENDBRANCH  17  23
ENDBRANCH  11  14
ENDBRANCH   1   8
BRANCH   4  25
HETATM   25  C8  UNL     1       3.985   0.125  -1.104  1.00  0.00     0.169 C 
BRANCH  25  26
HETATM   26  O2  UNL     1       3.950   0.262  -2.490  1.00  0.00    -0.389 OA
ATOM     27  H2  UNL     1       4.779   0.641  -2.757  1.00  0.00     0.210 HD
ENDBRANCH  25  26
BRANCH  25  28
HETATM   28  C9  UNL     1       5.102  -0.859  -0.812  1.00  0.00     0.038 C 
BRANCH  28  29
HETATM   29  C10 UNL     1       6.435  -0.309  -1.212  1.00  0.00     0.009 C 
BRANCH  29  30
HETATM   30  C11 UNL     1       6.745   0.968  -0.458  1.00  0.00     0.013 C 
HETATM   31  C12 UNL     1       6.764   0.691   1.022  1.00  0.00     0.034 C 
HETATM   32  C13 UNL     1       8.059   1.326   1.464  1.00  0.00     0.232 C 
HETATM   33  N3  UNL     1       8.960   0.945   0.374  1.00  0.00    -0.075 N 
HETATM   34  C14 UNL     1       8.177   1.375  -0.777  1.00  0.00     0.237 C 
ATOM     35  H32 UNL     1       9.906   1.321   0.431  1.00  0.00     0.277 HD
ATOM     36  H31 UNL     1       9.257  -0.031   0.367  1.00  0.00     0.277 HD
ENDBRANCH  29  30
ENDBRANCH  28  29
ENDBRANCH  25  28
ENDBRANCH   4  25
TORSDOF 10
