REMARK  7 active torsions:
REMARK  status: ('A' for Active; 'I' for Inactive)
REMARK    1  A    between atoms: C2_2  and  N1_3 
REMARK    2  A    between atoms: C2_2  and  C3_7 
REMARK    3  A    between atoms: C3_7  and  N2_8 
REMARK    4  A    between atoms: C3_7  and  C5_15 
REMARK       I    between atoms: N2_8  and  C4_10 
REMARK       I    between atoms: C5_15  and  N5_17 
REMARK    5  A    between atoms: N5_17  and  C6_19 
REMARK    6  A    between atoms: C6_19  and  O2_20 
REMARK    7  A    between atoms: C6_19  and  N6_22 
ROOT
HETATM    1  C3  UNL     1      -1.952   0.647   0.429  1.00  0.00     0.206 C 
ENDROOT
BRANCH   1   2
HETATM    2  C2  UNL     1      -2.918  -0.401   0.766  1.00  0.00     0.211 C 
HETATM    3  C1  UNL     1      -2.752  -1.217   1.985  1.00  0.00     0.042 C 
BRANCH   2   4
HETATM    4  N1  UNL     1      -3.142  -1.257  -0.420  1.00  0.00    -0.073 N 
ATOM      5  H13 UNL     1      -2.401  -1.949  -0.529  1.00  0.00     0.274 HD
ATOM      6  H12 UNL     1      -3.929  -1.892  -0.282  1.00  0.00     0.274 HD
ATOM      7  H11 UNL     1      -3.257  -0.693  -1.262  1.00  0.00     0.274 HD
ENDBRANCH   2   4
ENDBRANCH   1   2
BRANCH   1   8
HETATM    8  N2  UNL     1      -2.466   1.310  -0.801  1.00  0.00    -0.349 N 
HETATM    9  C4  UNL     1      -3.708   1.959  -0.852  1.00  0.00     0.182 C 
HETATM   10  N3  UNL     1      -4.585   1.538  -1.721  1.00  0.00    -0.374 N 
HETATM   11  N4  UNL     1      -4.073   3.048  -0.014  1.00  0.00    -0.064 NA
ATOM     12  H32 UNL     1      -4.323   0.757  -2.322  1.00  0.00     0.158 HD
ATOM     13  H31 UNL     1      -5.488   2.010  -1.758  1.00  0.00     0.158 HD
ATOM     14  H2  UNL     1      -1.890   1.291  -1.643  1.00  0.00     0.163 HD
ENDBRANCH   1   8
BRANCH   1  15
HETATM   15  C5  UNL     1      -0.540   0.356   0.186  1.00  0.00     0.249 C 
HETATM   16  O1  UNL     1       0.018   1.233  -0.583  1.00  0.00    -0.271 OA
HETATM   17  N5  UNL     1       0.216  -0.690   0.659  1.00  0.00    -0.291 N 
ATOM     18  H5  UNL     1      -0.331  -1.310   1.256  1.00  0.00     0.172 HD
BRANCH  17  19
HETATM   19  C6  UNL     1       1.540  -1.127   0.536  1.00  0.00     0.222 C 
BRANCH  19  20
HETATM   20  O2  UNL     1       1.789  -2.284   1.203  1.00  0.00    -0.332 OA
ATOM     21  H2  UNL     1       2.688  -2.581   1.120  1.00  0.00     0.220 HD
ENDBRANCH  19  20
BRANCH  19  22
HETATM   22  N6  UNL     1       2.689  -0.698  -0.089  1.00  0.00    -0.343 N 
HETATM   23  C7  UNL     1       2.865   0.484  -0.874  1.00  0.00     0.152 C 
HETATM   24  C8  UNL     1       4.369   0.563  -1.320  1.00  0.00     0.187 C 
HETATM   25  O3  UNL     1       5.056   0.583  -0.107  1.00  0.00    -0.388 OA
HETATM   26  C9  UNL     1       5.135  -0.750   0.300  1.00  0.00     0.187 C 
HETATM   27  C10 UNL     1       3.903  -1.548   0.042  1.00  0.00     0.152 C 
ENDBRANCH  19  22
ENDBRANCH  17  19
ENDBRANCH   1  15
TORSDOF 7
