REMARK  10 active torsions:
REMARK  status: ('A' for Active; 'I' for Inactive)
REMARK    1  A    between atoms: C7_12  and  N4_13 
REMARK    2  A    between atoms: N4_13  and  N5_15 
REMARK    3  A    between atoms: N5_15  and  C8_17 
REMARK    4  A    between atoms: C8_17  and  C9_18 
REMARK    5  A    between atoms: C9_18  and  C10_19 
REMARK    6  A    between atoms: C10_19  and  N6_20 
REMARK    7  A    between atoms: N6_20  and  C11_22 
REMARK    8  A    between atoms: C12_25  and  O1_26 
REMARK    9  A    between atoms: O1_26  and  C13_27 
REMARK   10  A    between atoms: N9_34  and  N10_35 
ROOT
HETATM    1  N6  UNL     1       1.201   2.296   0.361  1.00  0.00    -0.225 N 
ATOM      2  H6  UNL     1       0.731   3.180   0.555  1.00  0.00     0.177 HD
ENDROOT
BRANCH   1   3
HETATM    3  C10 UNL     1       0.458   1.118  -0.026  1.00  0.00     0.140 C 
BRANCH   3   4
HETATM    4  C9  UNL     1      -0.578   0.873   1.054  1.00  0.00     0.041 C 
BRANCH   4   5
HETATM    5  C8  UNL     1      -1.371  -0.373   0.655  1.00  0.00     0.141 C 
BRANCH   5   6
HETATM    6  N5  UNL     1      -1.982  -0.061  -0.630  1.00  0.00    -0.335 N 
ATOM      7  H5  UNL     1      -1.761  -0.634  -1.444  1.00  0.00     0.180 HD
BRANCH   6   8
HETATM    8  N4  UNL     1      -2.847   0.988  -0.761  1.00  0.00    -0.289 N 
ATOM      9  H4  UNL     1      -2.406   1.898  -0.898  1.00  0.00     0.188 HD
BRANCH   8  10
HETATM   10  C7  UNL     1      -4.117   1.003  -0.738  1.00  0.00     0.130 A 
HETATM   11  C4  UNL     1      -4.910  -0.106  -0.566  1.00  0.00     0.033 A 
HETATM   12  C3  UNL     1      -4.608  -1.525  -0.376  1.00  0.00     0.066 C 
HETATM   13  C5  UNL     1      -6.307   0.006  -0.547  1.00  0.00     0.114 A 
HETATM   14  C2  UNL     1      -5.873  -2.220  -0.826  1.00  0.00     0.129 C 
HETATM   15  N1  UNL     1      -6.882  -1.294  -0.355  1.00  0.00    -0.371 N 
HETATM   16  C1  UNL     1      -8.174  -1.577   0.187  1.00  0.00     0.151 C 
HETATM   17  N2  UNL     1      -6.852   1.218  -0.700  1.00  0.00    -0.338 N 
HETATM   18  C6  UNL     1      -6.069   2.303  -0.869  1.00  0.00     0.183 A 
ATOM     19  H2  UNL     1      -7.867   1.322  -0.689  1.00  0.00     0.168 HD
HETATM   20  N3  UNL     1      -4.726   2.191  -0.887  1.00  0.00    -0.337 N 
ATOM     21  H3  UNL     1      -4.158   3.028  -1.017  1.00  0.00     0.168 HD
ENDBRANCH   8  10
ENDBRANCH   6   8
ENDBRANCH   5   6
ENDBRANCH   4   5
ENDBRANCH   3   4
ENDBRANCH   1   3
BRANCH   1  22
HETATM   22  C11 UNL     1       2.501   2.182   0.452  1.00  0.00     0.697 A 
HETATM   23  N7  UNL     1       3.229   1.078   0.223  1.00  0.00    -0.151 N 
HETATM   24  C12 UNL     1       4.529   1.354   0.420  1.00  0.00     0.276 A 
ATOM     25  H7  UNL     1       2.854   0.172  -0.057  1.00  0.00     0.188 HD
HETATM   26  N9  UNL     1       4.575   2.669   0.778  1.00  0.00    -0.147 N 
HETATM   27  N11 UNL     1       3.348   3.154   0.793  1.00  0.00    -0.108 N 
ATOM     28  H11 UNL     1       3.090   4.113   1.027  1.00  0.00     0.208 HD
BRANCH  24  29
HETATM   29  O1  UNL     1       5.617   0.501   0.292  1.00  0.00    -0.312 OA
BRANCH  29  30
HETATM   30  C13 UNL     1       5.372  -0.836  -0.090  1.00  0.00     0.159 C 
HETATM   31  C14 UNL     1       6.105  -1.068  -1.415  1.00  0.00     0.061 C 
HETATM   32  C15 UNL     1       6.680  -2.442  -1.223  1.00  0.00     0.235 C 
HETATM   33  N8  UNL     1       7.019  -2.524   0.198  1.00  0.00    -0.073 N 
HETATM   34  C16 UNL     1       5.976  -1.816   0.892  1.00  0.00     0.264 C 
ATOM     35  H82 UNL     1       7.155  -3.479   0.531  1.00  0.00     0.277 HD
ATOM     36  H81 UNL     1       7.956  -2.184   0.414  1.00  0.00     0.277 HD
ENDBRANCH  29  30
ENDBRANCH  24  29
BRANCH  26  37
HETATM   37  N10 UNL     1       5.740   3.358   1.073  1.00  0.00    -0.320 N 
ATOM     38 2H10 UNL     1       6.689   2.983   1.061  1.00  0.00     0.179 HD
ATOM     39 1H10 UNL     1       5.774   4.342   1.341  1.00  0.00     0.179 HD
ENDBRANCH  26  37
ENDBRANCH   1  22
TORSDOF 10
