REMARK  3 active torsions:
REMARK  status: ('A' for Active; 'I' for Inactive)
REMARK    1  A    between atoms: N1_1  and  C1_4 
REMARK    2  A    between atoms: C2_7  and  N3_8 
REMARK    3  A    between atoms: C7_16  and  N5_17 
ROOT
HETATM    1  C1  UNL     1      -0.425   2.757  -0.248  1.00  0.00     0.705 A 
HETATM    2  N2  UNL     1      -1.476   1.946  -0.046  1.00  0.00    -0.022 N 
ATOM      3  H2  UNL     1      -2.427   2.316  -0.057  1.00  0.00     0.203 HD
HETATM    4  C2  UNL     1      -1.253   0.638   0.171  1.00  0.00     0.709 A 
HETATM    5  N4  UNL     1       0.012   0.182   0.180  1.00  0.00    -0.021 N 
ATOM      6  H4  UNL     1       0.176  -0.811   0.345  1.00  0.00     0.203 HD
HETATM    7  C7  UNL     1       1.065   0.988  -0.021  1.00  0.00     0.710 A 
HETATM    8  N8  UNL     1       0.849   2.293  -0.239  1.00  0.00    -0.021 N 
ATOM      9  H8  UNL     1       1.632   2.928  -0.396  1.00  0.00     0.203 HD
ENDROOT
BRANCH   7  10
HETATM   10  N5  UNL     1       2.388   0.510  -0.012  1.00  0.00    -0.200 N 
HETATM   11  C8  UNL     1       2.664  -0.894   0.219  1.00  0.00     0.163 C 
HETATM   12  C9  UNL     1       4.138  -1.173   0.257  1.00  0.00     0.155 C 
HETATM   13  N6  UNL     1       4.887  -0.522  -0.770  1.00  0.00    -0.337 N 
HETATM   14  N7  UNL     1       4.398   0.697  -1.183  1.00  0.00    -0.126 NA
ATOM     15  H6  UNL     1       5.730  -0.933  -1.172  1.00  0.00     0.175 HD
HETATM   16  C10 UNL     1       3.547   1.352  -0.226  1.00  0.00     0.276 C 
ENDBRANCH   7  10
BRANCH   4  17
HETATM   17  N3  UNL     1      -2.373  -0.210   0.384  1.00  0.00    -0.213 N 
HETATM   18  C3  UNL     1      -3.722   0.292   0.372  1.00  0.00     0.167 C 
HETATM   19  C4  UNL     1      -4.607  -0.534  -0.528  1.00  0.00     0.188 C 
HETATM   20  O1  UNL     1      -4.169  -1.832  -0.664  1.00  0.00    -0.388 OA
HETATM   21  C5  UNL     1      -3.503  -2.309   0.450  1.00  0.00     0.188 C 
HETATM   22  C6  UNL     1      -2.151  -1.619   0.619  1.00  0.00     0.167 C 
ENDBRANCH   4  17
BRANCH   1  23
HETATM   23  N1  UNL     1      -0.572   4.018  -0.461  1.00  0.00    -0.234 N 
ATOM     24  H12 UNL     1      -1.530   4.367  -0.468  1.00  0.00     0.174 HD
ATOM     25  H11 UNL     1       0.226   4.634  -0.614  1.00  0.00     0.174 HD
ENDBRANCH   1  23
TORSDOF 3
