REMARK  3 active torsions:
REMARK  status: ('A' for Active; 'I' for Inactive)
REMARK    1  A    between atoms: C2_2  and  C3_3 
REMARK    2  A    between atoms: C6_12  and  N2_13 
REMARK    3  A    between atoms: N2_13  and  N3_15 
ROOT
HETATM    1  C1  UNL     1      -1.997   0.676   1.735  1.00  0.00     0.091 C 
HETATM    2  C2  UNL     1      -1.743  -0.103   0.491  1.00  0.00     0.370 C 
HETATM    3  N1  UNL     1      -1.671   0.727  -0.696  1.00  0.00    -0.029 N 
ATOM      4  H11 UNL     1      -2.566   1.174  -0.893  1.00  0.00     0.280 HD
ATOM      5  H12 UNL     1      -1.586   0.162  -1.541  1.00  0.00     0.280 HD
HETATM    6  C4  UNL     1      -0.625   1.681  -0.603  1.00  0.00     0.255 C 
HETATM    7  C5  UNL     1       0.459   1.382   0.356  1.00  0.00     0.131 C 
HETATM    8  S1  UNL     1       2.112   1.785  -0.289  1.00  0.00    -0.082 SA
HETATM    9  C6  UNL     1       2.572   0.077  -0.555  1.00  0.00     0.161 C 
HETATM   10  N4  UNL     1       1.721  -0.621   0.024  1.00  0.00    -0.341 N 
ATOM     11  H4  UNL     1       1.804  -1.637  -0.007  1.00  0.00     0.163 HD
HETATM   12  C7  UNL     1       0.656  -0.045   0.715  1.00  0.00     0.305 C 
HETATM   13  N5  UNL     1      -0.521  -0.871   0.531  1.00  0.00    -0.008 N 
ATOM     14  H51 UNL     1      -0.430  -1.456  -0.299  1.00  0.00     0.283 HD
ATOM     15  H52 UNL     1      -0.571  -1.600   1.243  1.00  0.00     0.283 HD
ENDROOT
BRANCH   9  16
HETATM   16  N2  UNL     1       3.735  -0.278  -1.315  1.00  0.00    -0.220 N 
ATOM     17  H2  UNL     1       4.538   0.351  -1.302  1.00  0.00     0.195 HD
BRANCH  16  18
HETATM   18  N3  UNL     1       3.814  -1.440  -2.067  1.00  0.00    -0.037 N 
HETATM   19  O3  UNL     1       3.704  -1.374  -3.296  1.00  0.00    -0.516 OA
HETATM   20  O4  UNL     1       4.012  -2.628  -1.429  1.00  0.00    -0.516 OA
ENDBRANCH  16  18
ENDBRANCH   9  16
BRANCH   2  21
HETATM   21  C3  UNL     1      -2.855  -1.064   0.279  1.00  0.00     0.240 C 
HETATM   22  O1  UNL     1      -3.541  -1.085  -0.747  1.00  0.00    -0.645 OA
HETATM   23  O2  UNL     1      -3.109  -1.964   1.296  1.00  0.00    -0.645 OA
ENDBRANCH   2  21
TORSDOF 3
