REMARK  7 active torsions:
REMARK  status: ('A' for Active; 'I' for Inactive)
REMARK       I    between atoms: C1_2  and  N1_3 
REMARK    1  A    between atoms: C1_2  and  C14_18 
REMARK    2  A    between atoms: N1_3  and  C2_5 
REMARK    3  A    between atoms: N2_9  and  C6_10 
REMARK    4  A    between atoms: C6_10  and  C7_11 
REMARK    5  A    between atoms: C7_11  and  C8_12 
REMARK    6  A    between atoms: C17_25  and  N5_26 
REMARK    7  A    between atoms: N5_26  and  C18_27 
ROOT
HETATM    1  O1  UNL     1       2.467   2.005   0.772  1.00  0.00    -0.267 OA
HETATM    2  C1  UNL     1       2.388   0.870   1.341  1.00  0.00     0.258 C 
HETATM    3  N1  UNL     1       1.561  -0.095   0.767  1.00  0.00    -0.348 N 
ATOM      4  H1  UNL     1       1.498  -1.004   1.225  1.00  0.00     0.163 HD
ENDROOT
BRANCH   2   5
HETATM    5  C14 UNL     1       3.158   0.667   2.550  1.00  0.00     0.105 A 
HETATM    6  C15 UNL     1       2.687   1.112   3.749  1.00  0.00     0.111 A 
HETATM    7  N3  UNL     1       3.379   0.881   4.871  1.00  0.00    -0.361 N 
HETATM    8  C16 UNL     1       4.530   0.209   4.790  1.00  0.00     0.182 A 
ATOM      9  H3  UNL     1       3.033   1.212   5.772  1.00  0.00     0.166 HD
HETATM   10  N4  UNL     1       5.048  -0.252   3.663  1.00  0.00    -0.326 N 
HETATM   11  C17 UNL     1       4.395  -0.050   2.473  1.00  0.00     0.197 A 
ATOM     12  H4  UNL     1       5.934  -0.758   3.679  1.00  0.00     0.169 HD
BRANCH  11  13
HETATM   13  N5  UNL     1       4.779  -0.376   1.417  1.00  0.00    -0.386 NA
BRANCH  13  14
HETATM   14  C18 UNL     1       5.146  -0.706   0.218  1.00  0.00     0.109 A 
HETATM   15  C19 UNL     1       6.074   0.074  -0.552  1.00  0.00     0.048 A 
HETATM   16  C20 UNL     1       6.458  -0.265  -1.802  1.00  0.00     0.045 A 
HETATM   17  C21 UNL     1       5.965  -1.390  -2.398  1.00  0.00     0.116 A 
HETATM   18  F1  UNL     1       6.330  -1.765  -3.657  1.00  0.00    -0.206 F 
HETATM   19  C22 UNL     1       5.074  -2.181  -1.719  1.00  0.00     0.045 A 
HETATM   20  C23 UNL     1       4.679  -1.851  -0.457  1.00  0.00     0.048 A 
ENDBRANCH  13  14
ENDBRANCH  11  13
ENDBRANCH   2   5
BRANCH   3  21
HETATM   21  C2  UNL     1       0.785   0.113  -0.441  1.00  0.00     0.123 C 
HETATM   22  C3  UNL     1       0.799  -1.009  -1.401  1.00  0.00     0.036 C 
HETATM   23  C4  UNL     1       0.209  -0.425  -2.702  1.00  0.00     0.047 C 
HETATM   24  C5  UNL     1      -1.244  -0.203  -2.398  1.00  0.00     0.063 C 
HETATM   25  N2  UNL     1      -1.444   0.572  -1.262  1.00  0.00    -0.372 N 
HETATM   26  C13 UNL     1      -0.623   0.536  -0.140  1.00  0.00     0.088 C 
BRANCH  25  27
HETATM   27  C6  UNL     1      -2.842   0.816  -0.940  1.00  0.00     0.127 C 
BRANCH  27  28
HETATM   28  C7  UNL     1      -3.544  -0.415  -0.495  1.00  0.00     0.024 C 
BRANCH  28  29
HETATM   29  C8  UNL     1      -4.975  -0.248  -0.147  1.00  0.00    -0.013 C 
HETATM   30  C9  UNL     1      -5.806   0.252  -1.300  1.00  0.00     0.005 C 
HETATM   31  C10 UNL     1      -7.103   0.602  -0.609  1.00  0.00     0.000 C 
HETATM   32  C11 UNL     1      -6.750   0.937   0.801  1.00  0.00     0.000 C 
HETATM   33  C12 UNL     1      -5.226   0.810   0.900  1.00  0.00     0.005 C 
ENDBRANCH  28  29
ENDBRANCH  27  28
ENDBRANCH  25  27
ENDBRANCH   3  21
TORSDOF 7
