REMARK  13 active torsions:
REMARK  status: ('A' for Active; 'I' for Inactive)
REMARK    1  A    between atoms: N1_3  and  C3_4 
REMARK    2  A    between atoms: C3_4  and  C4_5 
REMARK    3  A    between atoms: C4_5  and  C5_6 
REMARK    4  A    between atoms: C5_6  and  C6_7 
REMARK    5  A    between atoms: C6_7  and  N2_8 
REMARK    6  A    between atoms: C21_23  and  C22_24 
REMARK    7  A    between atoms: C22_24  and  N3_25 
REMARK       I    between atoms: N3_25  and  C23_26 
REMARK    8  A    between atoms: C23_26  and  C24_28 
REMARK    9  A    between atoms: C24_28  and  N4_29 
REMARK   10  A    between atoms: C26_37  and  C27_38 
REMARK   11  A    between atoms: C27_38  and  C28_39 
REMARK   12  A    between atoms: C28_39  and  C29_40 
REMARK   13  A    between atoms: C29_40  and  N6_41 
ROOT
HETATM    1  C1  UNL     1       0.250   1.274  -4.220  1.00  0.00     0.044 C 
HETATM    2  C2  UNL     1      -0.096   1.079  -3.084  1.00  0.00     0.109 C 
HETATM    3  N1  UNL     1      -0.535   0.837  -1.748  1.00  0.00     0.033 N 
HETATM    4  C17 UNL     1      -1.742   1.567  -1.584  1.00  0.00     0.307 C 
HETATM    5  C18 UNL     1      -1.949   2.983  -1.481  1.00  0.00     0.056 C 
HETATM    6  C19 UNL     1      -3.115   3.256  -0.521  1.00  0.00     0.005 C 
HETATM    7  C20 UNL     1      -4.362   2.496  -0.696  1.00  0.00     0.020 C 
HETATM    8  C21 UNL     1      -4.566   1.240   0.091  1.00  0.00     0.130 C 
HETATM    9  C25 UNL     1      -4.643   0.008  -0.809  1.00  0.00     0.228 C 
HETATM   10  O2  UNL     1      -5.795  -0.429  -1.158  1.00  0.00    -0.273 OA
HETATM   11  N5  UNL     1      -3.547  -0.689  -1.290  1.00  0.00    -0.353 N 
ATOM     12  H5  UNL     1      -3.741  -1.184  -2.161  1.00  0.00     0.163 HD
HETATM   13  C26 UNL     1      -2.187  -0.870  -0.829  1.00  0.00     0.126 C 
HETATM   14  C31 UNL     1      -1.128  -0.519  -1.807  1.00  0.00     0.321 C 
HETATM   15  C32 UNL     1      -1.940  -0.217  -3.068  1.00  0.00     0.254 C 
HETATM   16  O3  UNL     1      -2.081  -0.956  -4.041  1.00  0.00    -0.271 OA
HETATM   17  N9  UNL     1      -2.422   1.085  -2.747  1.00  0.00    -0.330 N 
ATOM     18  H9  UNL     1      -3.139   1.593  -3.265  1.00  0.00     0.164 HD
ENDROOT
BRANCH   3  19
HETATM   19  C3  UNL     1       0.481   0.977  -0.781  1.00  0.00     0.258 C 
BRANCH  19  20
HETATM   20  C4  UNL     1       1.759   0.405  -1.339  1.00  0.00     0.031 C 
BRANCH  20  21
HETATM   21  C5  UNL     1       2.939   0.529  -0.364  1.00  0.00     0.030 C 
BRANCH  21  22
HETATM   22  C6  UNL     1       4.095  -0.077  -1.073  1.00  0.00     0.237 C 
BRANCH  22  23
HETATM   23  N2  UNL     1       5.372  -0.069  -0.370  1.00  0.00    -0.067 N 
HETATM   24  C7  UNL     1       5.868   1.255  -0.516  1.00  0.00     0.237 C 
HETATM   25  C8  UNL     1       7.314   1.537  -0.512  1.00  0.00     0.028 C 
HETATM   26  C9  UNL     1       7.930   1.742   0.865  1.00  0.00     0.002 C 
HETATM   27  C10 UNL     1       8.688   0.623   1.418  1.00  0.00     0.000 C 
HETATM   28  C11 UNL     1       8.526  -0.732   0.836  1.00  0.00     0.005 C 
HETATM   29  C12 UNL     1       7.319  -1.510   1.161  1.00  0.00    -0.011 C 
HETATM   30  C13 UNL     1       6.216  -0.815   1.848  1.00  0.00     0.032 C 
HETATM   31  C15 UNL     1       6.729  -2.123  -0.113  1.00  0.00     0.032 C 
HETATM   32  C14 UNL     1       5.050  -0.430   0.993  1.00  0.00     0.238 C 
HETATM   33  C16 UNL     1       6.158  -1.095  -1.032  1.00  0.00     0.238 C 
ENDBRANCH  22  23
ENDBRANCH  21  22
ENDBRANCH  20  21
ENDBRANCH  19  20
ENDBRANCH   3  19
BRANCH  13  34
HETATM   34  C27 UNL     1      -2.117  -2.425  -0.730  1.00  0.00     0.029 C 
BRANCH  34  35
HETATM   35  C28 UNL     1      -3.171  -2.846   0.268  1.00  0.00     0.022 C 
BRANCH  35  36
HETATM   36  C29 UNL     1      -3.262  -4.346   0.436  1.00  0.00     0.122 C 
BRANCH  36  37
HETATM   37  N6  UNL     1      -4.288  -4.596   1.416  1.00  0.00    -0.367 N 
HETATM   38  C30 UNL     1      -5.359  -5.184   1.147  1.00  0.00     0.196 C 
HETATM   39  N7  UNL     1      -5.638  -5.653  -0.180  1.00  0.00    -0.067 NA
HETATM   40  N8  UNL     1      -6.336  -5.407   2.141  1.00  0.00    -0.067 NA
ATOM     41  H6  UNL     1      -4.134  -4.279   2.373  1.00  0.00     0.161 HD
ENDBRANCH  36  37
ENDBRANCH  35  36
ENDBRANCH  34  35
ENDBRANCH  13  34
BRANCH   8  42
HETATM   42  C22 UNL     1      -5.890   1.183   0.837  1.00  0.00     0.173 C 
BRANCH  42  43
HETATM   43  N3  UNL     1      -6.210   2.117   1.776  1.00  0.00    -0.385 NA
HETATM   44  C23 UNL     1      -6.525   3.056   2.727  1.00  0.00     0.316 C 
HETATM   45  O1  UNL     1      -5.858   3.337   3.764  1.00  0.00    -0.255 OA
BRANCH  44  46
HETATM   46  C24 UNL     1      -7.783   3.908   2.628  1.00  0.00     0.348 C 
BRANCH  46  47
HETATM   47  N4  UNL     1      -8.468   3.518   1.437  1.00  0.00    -0.070 N 
ATOM     48  H43 UNL     1      -7.882   3.573   0.604  1.00  0.00     0.274 HD
ATOM     49  H42 UNL     1      -8.660   2.517   1.397  1.00  0.00     0.274 HD
ATOM     50  H41 UNL     1      -9.311   4.089   1.371  1.00  0.00     0.274 HD
ENDBRANCH  46  47
ENDBRANCH  44  46
ENDBRANCH  42  43
ENDBRANCH   8  42
TORSDOF 13
