REMARK  9 active torsions:
REMARK  status: ('A' for Active; 'I' for Inactive)
REMARK    1  A    between atoms: C2_2  and  C3_3 
REMARK    2  A    between atoms: C3_3  and  S1_4 
REMARK    3  A    between atoms: C3_3  and  C17_18 
REMARK    4  A    between atoms: S1_4  and  C4_5 
REMARK    5  A    between atoms: C10_11  and  C11_12 
REMARK    6  A    between atoms: C11_12  and  C14_15 
REMARK       I    between atoms: C17_18  and  N1_20 
REMARK    7  A    between atoms: N1_20  and  C18_21 
REMARK    8  A    between atoms: C20_25  and  C21_26 
REMARK    9  A    between atoms: C23_30  and  O5_31 
ROOT
HETATM    1  C17 UNL     1       0.438   0.110  -0.927  1.00  0.00     0.301 C 
HETATM    2  O1  UNL     1      -0.469   0.583  -1.645  1.00  0.00    -0.256 OA
HETATM    3  N1  UNL     1       1.791   0.424  -1.009  1.00  0.00    -0.396 NA
ENDROOT
BRANCH   1   4
HETATM    4  C3  UNL     1      -0.071  -0.882   0.097  1.00  0.00     0.154 C 
BRANCH   4   5
HETATM    5  C2  UNL     1       0.503  -2.232  -0.264  1.00  0.00     0.021 C 
HETATM    6  C1  UNL     1       0.132  -3.259   0.807  1.00  0.00     0.007 C 
ENDBRANCH   4   5
BRANCH   4   7
HETATM    7  S1  UNL     1      -1.821  -1.017   0.194  1.00  0.00    -0.148 SA
BRANCH   7   8
HETATM    8  C4  UNL     1      -2.700   0.546   0.446  1.00  0.00     0.056 C 
HETATM    9  C5  UNL     1      -2.219   1.038   1.823  1.00  0.00    -0.004 C 
HETATM   10  C6  UNL     1      -2.585   0.098   2.916  1.00  0.00     0.011 C 
HETATM   11  C7  UNL     1      -2.753   2.424   1.943  1.00  0.00     0.005 C 
HETATM   12  C8  UNL     1      -4.231   2.373   2.013  1.00  0.00     0.001 C 
HETATM   13  C9  UNL     1      -4.903   1.140   1.491  1.00  0.00     0.006 C 
HETATM   14  C10 UNL     1      -4.221   0.359   0.457  1.00  0.00     0.008 C 
BRANCH  14  15
HETATM   15  C11 UNL     1      -4.714   0.398  -0.938  1.00  0.00    -0.040 C 
HETATM   16  C12 UNL     1      -4.002  -0.757  -1.687  1.00  0.00     0.015 C 
HETATM   17  C13 UNL     1      -4.224   1.652  -1.691  1.00  0.00     0.015 C 
BRANCH  15  18
HETATM   18  C14 UNL     1      -6.142   0.260  -1.247  1.00  0.00    -0.015 C 
HETATM   19  C15 UNL     1      -6.833  -0.990  -0.798  1.00  0.00     0.010 C 
HETATM   20  C16 UNL     1      -7.036   1.456  -1.112  1.00  0.00     0.010 C 
ENDBRANCH  15  18
ENDBRANCH  14  15
ENDBRANCH   7   8
ENDBRANCH   4   7
ENDBRANCH   1   4
BRANCH   3  21
HETATM   21  C18 UNL     1       3.088   0.743  -1.107  1.00  0.00     0.291 C 
HETATM   22  C19 UNL     1       3.902  -0.149  -2.021  1.00  0.00     0.261 C 
HETATM   23  O2  UNL     1       3.593  -0.765  -3.051  1.00  0.00    -0.270 OA
HETATM   24  N2  UNL     1       5.040   0.045  -1.226  1.00  0.00    -0.314 N 
HETATM   25  C20 UNL     1       6.437   0.044  -0.892  1.00  0.00     0.221 C 
HETATM   26  C26 UNL     1       4.147   0.448  -0.120  1.00  0.00     0.196 C 
HETATM   27  C22 UNL     1       6.751  -0.982   0.137  1.00  0.00    -0.016 C 
HETATM   28  C23 UNL     1       8.007  -1.386   0.177  1.00  0.00     0.140 C 
HETATM   29  C25 UNL     1       5.798  -1.596   1.085  1.00  0.00     0.115 C 
HETATM   30  S2  UNL     1       4.083  -1.050   0.893  1.00  0.00    -0.135 SA
BRANCH  25  31
HETATM   31  C21 UNL     1       6.913   1.384  -0.623  1.00  0.00     0.201 C 
HETATM   32  O3  UNL     1       6.153   2.374  -0.934  1.00  0.00    -0.646 OA
HETATM   33  O4  UNL     1       8.127   1.734  -0.054  1.00  0.00    -0.646 OA
ENDBRANCH  25  31
BRANCH  28  34
HETATM   34  O5  UNL     1       8.994  -0.924  -0.651  1.00  0.00    -0.368 OA
HETATM   35  C24 UNL     1      10.268  -1.475  -0.778  1.00  0.00     0.208 C 
ENDBRANCH  28  34
ENDBRANCH   3  21
TORSDOF 9
