REMARK  6 active torsions:
REMARK  status: ('A' for Active; 'I' for Inactive)
REMARK    1  A    between atoms: O1_1  and  C1_3 
REMARK    2  A    between atoms: C1_3  and  C2_4 
REMARK    3  A    between atoms: C1_3  and  S2_10 
REMARK    4  A    between atoms: C2_4  and  C3_5 
REMARK    5  A    between atoms: C3_5  and  N1_6 
REMARK    6  A    between atoms: S2_10  and  C5_11 
ROOT
HETATM    1  N1  UNL     1       3.364   0.648  -0.298  1.00  0.00    -0.367 N 
ATOM      2  H1  UNL     1       2.629   0.699  -1.003  1.00  0.00     0.165 HD
HETATM    3  C4  UNL     1       3.776   1.728   0.189  1.00  0.00     0.169 C 
HETATM    4  S1  UNL     1       4.130   3.193   0.737  1.00  0.00    -0.074 SA
ENDROOT
BRANCH   1   5
HETATM    5  C3  UNL     1       3.842  -0.639   0.057  1.00  0.00     0.087 C 
BRANCH   5   6
HETATM    6  C2  UNL     1       3.090  -1.622   0.492  1.00  0.00     0.032 C 
BRANCH   6   7
HETATM    7  C1  UNL     1       1.643  -1.425   0.640  1.00  0.00     0.204 C 
BRANCH   7   8
HETATM    8  O1  UNL     1       0.957  -2.661   0.734  1.00  0.00    -0.381 OA
ATOM      9  H1  UNL     1       0.020  -2.533   0.830  1.00  0.00     0.211 HD
ENDBRANCH   7   8
BRANCH   7  10
HETATM   10  S2  UNL     1       1.032  -0.502  -0.765  1.00  0.00    -0.123 SA
BRANCH  10  11
HETATM   11  C5  UNL     1      -0.641   0.054  -0.657  1.00  0.00     0.020 C 
HETATM   12  C6  UNL     1      -1.739  -0.991  -0.661  1.00  0.00     0.054 C 
HETATM   13  C7  UNL     1      -2.841  -0.269   0.075  1.00  0.00     0.188 C 
HETATM   14  C8  UNL     1      -2.021   0.283   1.256  1.00  0.00     0.041 C 
HETATM   15  N2  UNL     1      -3.143   0.952  -0.620  1.00  0.00    -0.066 N 
HETATM   16  C9  UNL     1      -1.000   1.027   0.425  1.00  0.00     0.037 C 
HETATM   17  C10 UNL     1      -1.896   1.710  -0.585  1.00  0.00     0.193 C 
HETATM   18  C11 UNL     1      -0.970   1.132  -1.664  1.00  0.00     0.054 C 
ATOM     19  H22 UNL     1      -3.521   0.815  -1.557  1.00  0.00     0.278 HD
ATOM     20  H21 UNL     1      -3.947   1.456  -0.246  1.00  0.00     0.278 HD
ENDBRANCH  10  11
ENDBRANCH   7  10
ENDBRANCH   6   7
ENDBRANCH   5   6
ENDBRANCH   1   5
TORSDOF 6
