REMARK  16 active torsions:
REMARK  status: ('A' for Active; 'I' for Inactive)
REMARK    1  A    between atoms: C2_2  and  O2_4 
REMARK    2  A    between atoms: O2_4  and  C3_5 
REMARK    3  A    between atoms: C7_9  and  C8_10 
REMARK    4  A    between atoms: C8_10  and  O3_11 
REMARK    5  A    between atoms: O3_11  and  C9_12 
REMARK    6  A    between atoms: C9_12  and  C10_14 
REMARK    7  A    between atoms: C10_14  and  C11_15 
REMARK    8  A    between atoms: C11_15  and  C13_17 
REMARK    9  A    between atoms: C13_17  and  C14_18 
REMARK   10  A    between atoms: C14_18  and  C15_19 
REMARK   11  A    between atoms: C16_20  and  C17_21 
REMARK   12  A    between atoms: C17_21  and  O5_24 
REMARK   13  A    between atoms: C23_29  and  C24_30 
REMARK   14  A    between atoms: C25_31  and  C26_32 
REMARK   15  A    between atoms: C26_32  and  O6_35 
REMARK   16  A    between atoms: C32_41  and  O8_42 
ROOT
HETATM    1  C3  UNL     1      -3.527  -0.029   0.684  1.00  0.00     0.171 C 
HETATM    2  C4  UNL     1      -2.094  -0.281   0.920  1.00  0.00     0.053 C 
HETATM    3  C5  UNL     1      -1.538  -1.607   0.586  1.00  0.00     0.018 C 
HETATM    4  C6  UNL     1      -1.152  -2.336   1.871  1.00  0.00     0.023 C 
HETATM    5  C7  UNL     1      -0.283  -1.361  -0.156  1.00  0.00    -0.048 C 
HETATM    6  C20 UNL     1      -0.525  -1.447  -1.458  1.00  0.00    -0.013 C 
HETATM    7  C21 UNL     1      -1.958  -1.752  -1.683  1.00  0.00     0.050 C 
HETATM    8  C22 UNL     1      -2.809  -0.508  -1.706  1.00  0.00     0.056 C 
HETATM    9  C23 UNL     1      -3.921  -0.488  -0.700  1.00  0.00     0.107 C 
HETATM   10  O7  UNL     1      -4.557  -1.685  -0.503  1.00  0.00    -0.360 OA
HETATM   11  C29 UNL     1      -3.677  -2.753  -0.335  1.00  0.00     0.088 C 
HETATM   12  C30 UNL     1      -3.947  -3.551  -1.648  1.00  0.00     0.049 C 
HETATM   13  C31 UNL     1      -4.204  -3.647   0.755  1.00  0.00     0.049 C 
HETATM   14  C32 UNL     1      -2.264  -2.464  -0.361  1.00  0.00     0.106 C 
ENDROOT
BRANCH   5  15
HETATM   15  C8  UNL     1       1.052  -1.032   0.391  1.00  0.00     0.213 C 
BRANCH  15  16
HETATM   16  O3  UNL     1       1.965  -0.844  -0.653  1.00  0.00    -0.314 OA
BRANCH  16  17
HETATM   17  C9  UNL     1       3.289  -0.409  -0.492  1.00  0.00     0.283 C 
HETATM   18  O4  UNL     1       3.617  -0.177   0.695  1.00  0.00    -0.260 OA
BRANCH  17  19
HETATM   19  C10 UNL     1       4.134  -0.257  -1.640  1.00  0.00     0.089 C 
BRANCH  19  20
HETATM   20  C11 UNL     1       5.335   0.169  -1.749  1.00  0.00    -0.049 C 
HETATM   21  C12 UNL     1       5.880   0.165  -3.180  1.00  0.00     0.049 C 
BRANCH  20  22
HETATM   22  C13 UNL     1       6.173   0.685  -0.721  1.00  0.00     0.062 C 
BRANCH  22  23
HETATM   23  C14 UNL     1       7.351   1.132  -0.733  1.00  0.00    -0.128 C 
BRANCH  23  24
HETATM   24  C15 UNL     1       8.653   1.624  -0.763  1.00  0.00     0.054 C 
HETATM   25  C16 UNL     1       9.303   2.082   0.296  1.00  0.00     0.018 C 
BRANCH  25  26
HETATM   26  C17 UNL     1       8.722   2.126   1.639  1.00  0.00     0.069 C 
HETATM   27  C18 UNL     1       7.538   3.063   1.686  1.00  0.00     0.050 C 
HETATM   28  C19 UNL     1       8.370   0.742   2.109  1.00  0.00     0.050 C 
BRANCH  26  29
HETATM   29  O5  UNL     1       9.675   2.674   2.553  1.00  0.00    -0.387 OA
ATOM     30  H5  UNL     1       9.298   2.703   3.425  1.00  0.00     0.211 HD
ENDBRANCH  26  29
ENDBRANCH  25  26
ENDBRANCH  23  24
ENDBRANCH  22  23
ENDBRANCH  20  22
ENDBRANCH  19  20
ENDBRANCH  17  19
ENDBRANCH  16  17
ENDBRANCH  15  16
ENDBRANCH   5  15
BRANCH  14  31
HETATM   31  O8  UNL     1      -1.547  -3.682  -0.449  1.00  0.00    -0.385 OA
ATOM     32  H8  UNL     1      -2.016  -4.236  -1.061  1.00  0.00     0.210 HD
ENDBRANCH  14  31
BRANCH   1  33
HETATM   33  O2  UNL     1      -4.265  -0.705   1.703  1.00  0.00    -0.313 OA
BRANCH  33  34
HETATM   34  C2  UNL     1      -5.027  -0.076   2.641  1.00  0.00     0.255 C 
HETATM   35  C1  UNL     1      -5.752  -0.929   3.635  1.00  0.00     0.126 C 
HETATM   36  O1  UNL     1      -5.083   1.172   2.620  1.00  0.00    -0.266 OA
ENDBRANCH  33  34
ENDBRANCH   1  33
BRANCH   9  37
HETATM   37  C24 UNL     1      -4.879   0.540  -1.219  1.00  0.00     0.012 C 
HETATM   38  C25 UNL     1      -4.630   1.842  -1.199  1.00  0.00     0.009 C 
BRANCH  38  39
HETATM   39  C26 UNL     1      -5.530   2.895  -1.691  1.00  0.00     0.068 C 
HETATM   40  C27 UNL     1      -4.899   3.719  -2.801  1.00  0.00     0.050 C 
HETATM   41  C28 UNL     1      -6.883   2.415  -2.133  1.00  0.00     0.050 C 
BRANCH  39  42
HETATM   42  O6  UNL     1      -5.748   3.801  -0.630  1.00  0.00    -0.387 OA
ATOM     43  H6  UNL     1      -6.330   4.482  -0.948  1.00  0.00     0.211 HD
ENDBRANCH  39  42
ENDBRANCH  38  39
ENDBRANCH   9  37
TORSDOF 16
