REMARK  10 active torsions:
REMARK  status: ('A' for Active; 'I' for Inactive)
REMARK    1  A    between atoms: C10_10  and  O1_11 
REMARK    2  A    between atoms: O1_11  and  C11_12 
REMARK    3  A    between atoms: C22_26  and  C23_27 
REMARK       I    between atoms: C23_27  and  N1_29 
REMARK    4  A    between atoms: N1_29  and  C24_31 
REMARK    5  A    between atoms: C24_31  and  C25_32 
REMARK    6  A    between atoms: C25_32  and  C26_33 
REMARK    7  A    between atoms: C26_33  and  N2_34 
REMARK    8  A    between atoms: C29_37  and  C30_38 
REMARK    9  A    between atoms: C30_38  and  O6_39 
REMARK   10  A    between atoms: N3_41  and  O7_43 
ROOT
HETATM    1  C1  UNL     1      -0.088  -1.905  -2.963  1.00  0.00     0.015 C 
HETATM    2  C2  UNL     1      -0.120  -2.270  -1.491  1.00  0.00     0.020 C 
HETATM    3  C3  UNL     1       0.799  -1.475  -0.656  1.00  0.00     0.015 C 
HETATM    4  C4  UNL     1       0.508   0.020  -0.834  1.00  0.00     0.004 C 
HETATM    5  C5  UNL     1       1.651   0.763  -0.277  1.00  0.00    -0.003 C 
HETATM    6  C6  UNL     1       2.319   1.745  -1.218  1.00  0.00     0.006 C 
HETATM    7  C7  UNL     1       2.820   2.974  -0.534  1.00  0.00     0.008 C 
HETATM    8  C8  UNL     1       3.423   2.784   0.809  1.00  0.00     0.025 C 
HETATM    9  C9  UNL     1       4.846   2.366   0.841  1.00  0.00     0.068 C 
HETATM   10  C10 UNL     1       4.820   0.954   1.364  1.00  0.00     0.266 C 
HETATM   11  O4  UNL     1       3.533   0.611   1.644  1.00  0.00    -0.350 OA
HETATM   12  C15 UNL     1       2.738   1.735   1.664  1.00  0.00     0.068 C 
HETATM   13  C16 UNL     1       2.576   2.185   3.087  1.00  0.00     0.047 C 
HETATM   14  C17 UNL     1       1.395   1.514   1.003  1.00  0.00     0.025 C 
HETATM   15  C18 UNL     1       0.424   0.716   1.798  1.00  0.00     0.009 C 
HETATM   16  C19 UNL     1      -0.900   0.786   1.067  1.00  0.00     0.015 C 
HETATM   17  C20 UNL     1      -0.860   0.362  -0.372  1.00  0.00    -0.007 C 
HETATM   18  C21 UNL     1      -1.380   1.444  -1.324  1.00  0.00     0.021 C 
HETATM   19  C22 UNL     1      -1.827  -0.793  -0.522  1.00  0.00     0.029 C 
HETATM   20  C29 UNL     1      -1.549  -1.970  -0.994  1.00  0.00     0.011 C 
ENDROOT
BRANCH  19  21
HETATM   21  C23 UNL     1      -3.253  -0.444  -0.312  1.00  0.00     0.249 C 
HETATM   22  O5  UNL     1      -4.125  -1.308  -0.661  1.00  0.00    -0.268 OA
HETATM   23  N1  UNL     1      -3.764   0.741   0.233  1.00  0.00    -0.357 N 
ATOM     24  H1  UNL     1      -3.141   1.494   0.525  1.00  0.00     0.162 HD
BRANCH  23  25
HETATM   25  C24 UNL     1      -5.246   0.874   0.375  1.00  0.00     0.124 C 
BRANCH  25  26
HETATM   26  C25 UNL     1      -5.834  -0.100   1.313  1.00  0.00     0.050 C 
BRANCH  26  27
HETATM   27  C26 UNL     1      -7.307   0.052   1.475  1.00  0.00     0.273 C 
BRANCH  27  28
HETATM   28  N2  UNL     1      -8.153  -0.117   0.349  1.00  0.00     0.080 N 
HETATM   29  C27 UNL     1      -9.545  -0.170   0.917  1.00  0.00     0.309 C 
HETATM   30  C28 UNL     1      -8.235   1.017  -0.556  1.00  0.00     0.309 C 
ENDBRANCH  27  28
ENDBRANCH  26  27
ENDBRANCH  25  26
ENDBRANCH  23  25
ENDBRANCH  19  21
BRANCH  20  31
HETATM   31  C30 UNL     1      -2.384  -3.157  -0.954  1.00  0.00     0.167 C 
HETATM   32  N3  UNL     1      -1.847  -4.230  -1.562  1.00  0.00    -0.247 N 
ATOM     33  H3  UNL     1      -0.927  -4.139  -1.993  1.00  0.00     0.196 HD
BRANCH  31  34
HETATM   34  O6  UNL     1      -3.601  -3.412  -0.431  1.00  0.00    -0.344 OA
ATOM     35  H6  UNL     1      -4.147  -4.189  -0.405  1.00  0.00     0.219 HD
ENDBRANCH  31  34
BRANCH  32  36
HETATM   36  O7  UNL     1      -2.478  -5.423  -1.625  1.00  0.00    -0.288 OA
ATOM     37  H7  UNL     1      -2.099  -6.181  -2.054  1.00  0.00     0.244 HD
ENDBRANCH  32  36
ENDBRANCH  20  31
BRANCH  10  38
HETATM   38  O1  UNL     1       5.358   0.118   0.371  1.00  0.00    -0.308 OA
BRANCH  38  39
HETATM   39  C11 UNL     1       6.474  -0.563   0.815  1.00  0.00     0.415 C 
HETATM   40  O2  UNL     1       7.562  -0.056   0.104  1.00  0.00    -0.339 OA
HETATM   41  C12 UNL     1       8.656  -0.921   0.122  1.00  0.00     0.175 C 
HETATM   42  C13 UNL     1       8.306  -2.242  -0.515  1.00  0.00     0.053 C 
HETATM   43  C14 UNL     1       6.811  -2.438  -0.481  1.00  0.00     0.175 C 
HETATM   44  O3  UNL     1       6.294  -1.919   0.681  1.00  0.00    -0.339 OA
ENDBRANCH  38  39
ENDBRANCH  10  38
TORSDOF 10
