REMARK  2 active torsions:
REMARK  status: ('A' for Active; 'I' for Inactive)
REMARK    1  A    between atoms: N1_2  and  C2_4 
REMARK    2  A    between atoms: C2_4  and  C3_5 
ROOT
HETATM    1  C3  UNL     1      -0.552   0.038   0.176  1.00  0.00     0.274 A 
HETATM    2  C4  UNL     1       0.631   0.375   0.932  1.00  0.00     0.258 A 
HETATM    3  C5  UNL     1       1.834  -0.541   0.943  1.00  0.00     0.040 C 
HETATM    4  C6  UNL     1       2.636   0.086  -0.204  1.00  0.00     0.032 C 
HETATM    5  C7  UNL     1       1.501   0.245  -1.222  1.00  0.00     0.273 C 
HETATM    6  N2  UNL     1       0.471   0.841  -0.426  1.00  0.00     0.103 N 
ENDROOT
BRANCH   1   7
HETATM    7  C2  UNL     1      -1.847   0.732   0.564  1.00  0.00     0.156 C 
BRANCH   7   8
HETATM    8  N1  UNL     1      -2.866   0.252  -0.304  1.00  0.00    -0.406 N 
HETATM    9  C1  UNL     1      -3.594  -0.739   0.048  1.00  0.00     0.112 C 
ATOM     10  H1  UNL     1      -3.017   0.699  -1.209  1.00  0.00     0.158 HD
ENDBRANCH   7   8
ENDBRANCH   1   7
TORSDOF 2
