REMARK  2 active torsions:
REMARK  status: ('A' for Active; 'I' for Inactive)
REMARK    1  A    between atoms: N1_2  and  C2_5 
REMARK    2  A    between atoms: C2_5  and  C3_6 
ROOT
HETATM    1  C3  UNL     1       0.459   0.191   0.143  1.00  0.00    -0.013 C 
HETATM    2  C4  UNL     1       0.043   0.708  -1.182  1.00  0.00     0.017 C 
HETATM    3  C5  UNL     1      -1.439   0.429  -1.355  1.00  0.00     0.008 C 
HETATM    4  C6  UNL     1      -2.265   1.147  -0.312  1.00  0.00     0.049 C 
HETATM    5  C7  UNL     1      -1.826   0.666   1.050  1.00  0.00     0.105 C 
HETATM    6  F1  UNL     1      -2.476   1.334   2.059  1.00  0.00    -0.243 F 
HETATM    7  C8  UNL     1      -2.137  -0.814   1.122  1.00  0.00     0.049 C 
HETATM    8  C9  UNL     1      -1.342  -1.547   0.092  1.00  0.00     0.008 C 
HETATM    9  C10 UNL     1       0.129  -1.276   0.341  1.00  0.00     0.017 C 
HETATM   10  C11 UNL     1      -1.659  -1.052  -1.295  1.00  0.00     0.090 C 
HETATM   11 CL1  UNL     1      -3.291  -1.511  -1.783  1.00  0.00    -0.124 Cl
HETATM   12  C12 UNL     1      -0.351   0.952   1.192  1.00  0.00     0.054 C 
ENDROOT
BRANCH   1  13
HETATM   13  C2  UNL     1       1.905   0.393   0.479  1.00  0.00     0.241 C 
BRANCH  13  14
HETATM   14  N1  UNL     1       2.821  -0.233  -0.431  1.00  0.00    -0.078 N 
HETATM   15  C1  UNL     1       4.182   0.007  -0.040  1.00  0.00     0.267 C 
ATOM     16  H12 UNL     1       2.650   0.056  -1.394  1.00  0.00     0.276 HD
ATOM     17  H11 UNL     1       2.629  -1.230  -0.531  1.00  0.00     0.276 HD
ENDBRANCH  13  14
ENDBRANCH   1  13
TORSDOF 2
