REMARK  7 active torsions:
REMARK  status: ('A' for Active; 'I' for Inactive)
REMARK    1  A    between atoms: N1_1  and  C1_4 
REMARK    2  A    between atoms: C2_9  and  C3_10 
REMARK    3  A    between atoms: C3_10  and  N4_11 
REMARK    4  A    between atoms: N4_11  and  C4_14 
REMARK    5  A    between atoms: C4_14  and  C5_15 
REMARK    6  A    between atoms: C4_14  and  C6_20 
REMARK    7  A    between atoms: C5_15  and  N5_16 
ROOT
HETATM    1  N4  UNL     1      -0.117   0.216  -0.082  1.00  0.00    -0.056 N 
ATOM      2  H41 UNL     1       0.074   1.217  -0.040  1.00  0.00     0.278 HD
ATOM      3  H42 UNL     1      -0.171   0.015   0.917  1.00  0.00     0.278 HD
ENDROOT
BRANCH   1   4
HETATM    4  C3  UNL     1       0.978  -0.493  -0.692  1.00  0.00     0.311 C 
BRANCH   4   5
HETATM    5  C2  UNL     1       2.269  -0.228  -0.024  1.00  0.00     0.138 A 
HETATM    6  N3  UNL     1       2.834  -0.929   0.976  1.00  0.00    -0.273 N 
HETATM    7  N2  UNL     1       3.991  -0.424   1.344  1.00  0.00    -0.131 N 
ATOM      8  H3  UNL     1       2.414  -1.756   1.399  1.00  0.00     0.189 HD
HETATM    9  C1  UNL     1       4.191   0.660   0.545  1.00  0.00     0.691 A 
ATOM     10  H2  UNL     1       4.610  -0.772   2.076  1.00  0.00     0.205 HD
HETATM   11  N10 UNL     1       3.134   0.770  -0.285  1.00  0.00    -0.177 N 
ATOM     12  H10 UNL     1       3.010   1.492  -0.995  1.00  0.00     0.185 HD
BRANCH   9  13
HETATM   13  N1  UNL     1       5.208   1.442   0.577  1.00  0.00    -0.233 N 
ATOM     14  H12 UNL     1       6.008   1.359   1.205  1.00  0.00     0.174 HD
ATOM     15  H11 UNL     1       5.358   2.254  -0.022  1.00  0.00     0.174 HD
ENDBRANCH   9  13
ENDBRANCH   4   5
ENDBRANCH   1   4
BRANCH   1  16
HETATM   16  C4  UNL     1      -1.370  -0.040  -0.725  1.00  0.00     0.281 C 
BRANCH  16  17
HETATM   17  C5  UNL     1      -1.826  -1.457  -0.669  1.00  0.00     0.270 C 
BRANCH  17  18
HETATM   18  N5  UNL     1      -2.001  -1.941   0.690  1.00  0.00    -0.077 N 
ATOM     19  H53 UNL     1      -1.150  -1.810   1.236  1.00  0.00     0.274 HD
ATOM     20  H52 UNL     1      -2.631  -1.334   1.215  1.00  0.00     0.274 HD
ATOM     21  H51 UNL     1      -2.313  -2.911   0.728  1.00  0.00     0.274 HD
ENDBRANCH  17  18
ENDBRANCH  16  17
BRANCH  16  22
HETATM   22  C6  UNL     1      -2.440   0.882  -0.270  1.00  0.00     0.146 A 
HETATM   23  N6  UNL     1      -2.377   2.218  -0.105  1.00  0.00    -0.270 N 
HETATM   24  N7  UNL     1      -3.572   2.592   0.313  1.00  0.00    -0.227 N 
ATOM     25  H6  UNL     1      -1.569   2.819  -0.270  1.00  0.00     0.190 HD
HETATM   26  N8  UNL     1      -4.378   1.553   0.416  1.00  0.00    -0.227 N 
ATOM     27  H7  UNL     1      -3.836   3.554   0.527  1.00  0.00     0.210 HD
HETATM   28  N9  UNL     1      -3.675   0.499   0.055  1.00  0.00    -0.270 N 
ATOM     29  H8  UNL     1      -5.353   1.564   0.716  1.00  0.00     0.210 HD
ATOM     30  H9  UNL     1      -4.021  -0.460   0.028  1.00  0.00     0.190 HD
ENDBRANCH  16  22
ENDBRANCH   1  16
TORSDOF 7
