REMARK  8 active torsions:
REMARK  status: ('A' for Active; 'I' for Inactive)
REMARK    1  A    between atoms: C2_10  and  C3_11 
REMARK    2  A    between atoms: C4_14  and  C5_15 
REMARK    3  A    between atoms: C6_18  and  N5_19 
REMARK       I    between atoms: N5_19  and  C7_21 
REMARK    4  A    between atoms: C7_21  and  C8_23 
REMARK    5  A    between atoms: C9_26  and  C10_27 
REMARK    6  A    between atoms: C11_35  and  C12_36 
REMARK    7  A    between atoms: C12_36  and  O5_37 
REMARK    8  A    between atoms: C12_36  and  O6_39 
ROOT
HETATM    1  N5  UNL     1       0.816  -1.015   0.244  1.00  0.00    -0.325 N 
ATOM      2  H5  UNL     1       0.847   0.003   0.293  1.00  0.00     0.165 HD
HETATM    3  C7  UNL     1      -0.449  -1.595   0.045  1.00  0.00     0.295 C 
HETATM    4  O4  UNL     1      -0.614  -2.839  -0.034  1.00  0.00    -0.264 OA
ENDROOT
BRANCH   1   5
HETATM    5  C6  UNL     1       2.046  -1.689   0.383  1.00  0.00     0.265 C 
HETATM    6  C4  UNL     1       2.813  -1.424   1.640  1.00  0.00     0.234 C 
HETATM    7  N4  UNL     1       3.539  -0.233   1.248  1.00  0.00    -0.351 N 
HETATM    8  C3  UNL     1       3.648  -0.218  -0.035  1.00  0.00     0.174 C 
ATOM      9  H4  UNL     1       3.904   0.477   1.884  1.00  0.00     0.162 HD
HETATM   10  O8  UNL     1       3.027  -1.354  -0.579  1.00  0.00    -0.305 OA
BRANCH   6  11
HETATM   11  C5  UNL     1       3.750  -2.490   1.985  1.00  0.00     0.201 C 
HETATM   12  O2  UNL     1       4.982  -2.294   1.917  1.00  0.00    -0.646 OA
HETATM   13  O3  UNL     1       3.300  -3.731   2.393  1.00  0.00    -0.646 OA
ENDBRANCH   6  11
BRANCH   8  14
HETATM   14  C2  UNL     1       4.330   0.851  -0.765  1.00  0.00     0.152 A 
HETATM   15  C1  UNL     1       4.500   0.960  -2.126  1.00  0.00     0.154 A 
HETATM   16  N1  UNL     1       4.110   0.167  -3.055  1.00  0.00    -0.382 N 
HETATM   17  N2  UNL     1       5.196   2.129  -2.289  1.00  0.00    -0.224 N 
ATOM     18  H12 UNL     1       4.236   0.248  -4.064  1.00  0.00     0.157 HD
ATOM     19  H11 UNL     1       3.592  -0.703  -2.934  1.00  0.00     0.157 HD
HETATM   20  O1  UNL     1       5.431   2.683  -1.162  1.00  0.00    -0.155 OA
ATOM     21  H2  UNL     1       5.488   2.507  -3.190  1.00  0.00     0.198 HD
HETATM   22  N3  UNL     1       4.921   1.936  -0.231  1.00  0.00    -0.234 N 
ATOM     23  H3  UNL     1       4.962   2.143   0.767  1.00  0.00     0.197 HD
ENDBRANCH   8  14
ENDBRANCH   1   5
BRANCH   3  24
HETATM   24  C8  UNL     1      -1.651  -0.778  -0.084  1.00  0.00     0.218 A 
HETATM   25  N6  UNL     1      -2.923  -1.164  -0.276  1.00  0.00    -0.327 N 
HETATM   26  C9  UNL     1      -3.736  -0.079  -0.340  1.00  0.00     0.116 A 
ATOM     27  H6  UNL     1      -3.233  -2.132  -0.361  1.00  0.00     0.168 HD
HETATM   28  C11 UNL     1      -2.903   0.996  -0.176  1.00  0.00     0.140 A 
HETATM   29  O7  UNL     1      -1.682   0.512  -0.030  1.00  0.00    -0.286 OA
BRANCH  26  30
HETATM   30  C10 UNL     1      -5.179  -0.165  -0.554  1.00  0.00     0.164 A 
HETATM   31  N7  UNL     1      -5.875  -1.330  -0.712  1.00  0.00    -0.270 N 
HETATM   32  N8  UNL     1      -7.128  -1.062  -0.892  1.00  0.00    -0.225 N 
ATOM     33  H7  UNL     1      -5.470  -2.266  -0.691  1.00  0.00     0.190 HD
HETATM   34  N9  UNL     1      -7.306   0.248  -0.862  1.00  0.00    -0.005 NA
ATOM     35  H8  UNL     1      -7.864  -1.754  -1.035  1.00  0.00     0.205 HD
HETATM   36  N10 UNL     1      -6.115   0.784  -0.656  1.00  0.00    -0.265 N 
ATOM     37  H10 UNL     1      -5.935   1.785  -0.585  1.00  0.00     0.186 HD
ENDBRANCH  26  30
BRANCH  28  38
HETATM   38  C12 UNL     1      -3.291   2.422  -0.162  1.00  0.00     0.315 C 
BRANCH  38  39
HETATM   39  O5  UNL     1      -4.384   2.723   0.630  1.00  0.00    -0.365 OA
ATOM     40  H5  UNL     1      -4.633   3.640   0.639  1.00  0.00     0.213 HD
ENDBRANCH  38  39
BRANCH  38  41
HETATM   41  O6  UNL     1      -2.244   3.242   0.241  1.00  0.00    -0.365 OA
ATOM     42  H6  UNL     1      -2.493   4.159   0.250  1.00  0.00     0.213 HD
ENDBRANCH  38  41
ENDBRANCH  28  38
ENDBRANCH   3  24
TORSDOF 8
