REMARK  7 active torsions:
REMARK  status: ('A' for Active; 'I' for Inactive)
REMARK    1  A    between atoms: O1_2  and  C2_3 
REMARK    2  A    between atoms: C2_3  and  C3_4 
REMARK    3  A    between atoms: C3_4  and  N1_5 
REMARK    4  A    between atoms: C3_4  and  C4_9 
REMARK    5  A    between atoms: C4_9  and  C5_10 
REMARK    6  A    between atoms: C5_10  and  N2_11 
REMARK    7  A    between atoms: N2_11  and  C6_13 
ROOT
HETATM    1  C5  UNL     1      -0.834   0.260  -1.094  1.00  0.00     0.123 C 
ENDROOT
BRANCH   1   2
HETATM    2  C4  UNL     1       0.613   0.607  -1.036  1.00  0.00     0.054 C 
BRANCH   2   3
HETATM    3  C3  UNL     1       1.431  -0.663  -0.900  1.00  0.00     0.208 C 
BRANCH   3   4
HETATM    4  C2  UNL     1       2.895  -0.202  -0.852  1.00  0.00     0.199 C 
BRANCH   4   5
HETATM    5  O1  UNL     1       2.984   0.715   0.172  1.00  0.00    -0.394 OA
HETATM    6  C1  UNL     1       4.248   1.234   0.353  1.00  0.00     0.201 C 
ENDBRANCH   4   5
ENDBRANCH   3   4
BRANCH   3   7
HETATM    7  N1  UNL     1       1.100  -1.264   0.384  1.00  0.00    -0.073 N 
ATOM      8  H13 UNL     1       1.740  -2.015   0.643  1.00  0.00     0.274 HD
ATOM      9  H12 UNL     1       1.291  -0.642   1.170  1.00  0.00     0.274 HD
ATOM     10  H11 UNL     1       0.128  -1.570   0.352  1.00  0.00     0.274 HD
ENDBRANCH   3   7
ENDBRANCH   2   3
ENDBRANCH   1   2
BRANCH   1  11
HETATM   11  N2  UNL     1      -1.322  -0.435   0.076  1.00  0.00    -0.375 N 
ATOM     12  H2  UNL     1      -0.671  -1.010   0.611  1.00  0.00     0.161 HD
BRANCH  11  13
HETATM   13  C6  UNL     1      -2.540  -0.357   0.468  1.00  0.00     0.117 A 
HETATM   14  C7  UNL     1      -3.581   0.354  -0.096  1.00  0.00     0.068 A 
HETATM   15  C8  UNL     1      -4.723   0.154   0.651  1.00  0.00     0.111 A 
HETATM   16  N3  UNL     1      -4.351  -0.666   1.644  1.00  0.00    -0.310 N 
HETATM   17  N4  UNL     1      -3.063  -0.967   1.533  1.00  0.00    -0.286 N 
ATOM     18  H3  UNL     1      -4.969  -1.009   2.379  1.00  0.00     0.186 HD
ATOM     19  H4  UNL     1      -2.548  -1.576   2.169  1.00  0.00     0.188 HD
ENDBRANCH  11  13
ENDBRANCH   1  11
TORSDOF 7
