REMARK  7 active torsions:
REMARK  status: ('A' for Active; 'I' for Inactive)
REMARK    1  A    between atoms: C3_3  and  C4_4 
REMARK    2  A    between atoms: C4_4  and  O1_5 
REMARK    3  A    between atoms: O1_5  and  C5_6 
REMARK    4  A    between atoms: C7_11  and  C8_12 
REMARK    5  A    between atoms: C8_12  and  N2_13 
REMARK    6  A    between atoms: C8_12  and  C9_17 
REMARK    7  A    between atoms: C9_17  and  N3_18 
ROOT
HETATM    1  C1  UNL     1       5.391   0.758  -1.799  1.00  0.00     0.112 C 
HETATM    2  C2  UNL     1       4.150   0.176  -1.264  1.00  0.00    -0.109 C 
HETATM    3  C3  UNL     1       3.132  -0.311  -0.839  1.00  0.00    -0.081 C 
ENDROOT
BRANCH   3   4
HETATM    4  C4  UNL     1       1.872  -0.904  -0.335  1.00  0.00     0.261 C 
BRANCH   4   5
HETATM    5  O1  UNL     1       1.192   0.138   0.299  1.00  0.00    -0.370 OA
BRANCH   5   6
HETATM    6  C5  UNL     1      -0.006  -0.389   0.788  1.00  0.00     0.181 C 
HETATM    7  C6  UNL     1      -0.212   0.067   2.213  1.00  0.00     0.266 C 
HETATM    8  N1  UNL     1      -0.717   1.326   1.676  1.00  0.00    -0.064 N 
HETATM    9  C7  UNL     1      -1.135   0.561   0.492  1.00  0.00     0.248 C 
ATOM     10  H12 UNL     1      -1.379   1.899   2.199  1.00  0.00     0.277 HD
ATOM     11  H11 UNL     1      -0.117   2.147   1.593  1.00  0.00     0.277 HD
BRANCH   9  12
HETATM   12  C8  UNL     1      -2.519   0.017   0.726  1.00  0.00     0.241 C 
BRANCH  12  13
HETATM   13  N2  UNL     1      -3.464   1.066   0.389  1.00  0.00    -0.071 N 
ATOM     14  H23 UNL     1      -3.288   1.936   0.892  1.00  0.00     0.274 HD
ATOM     15  H22 UNL     1      -3.334   1.429  -0.555  1.00  0.00     0.274 HD
ATOM     16  H21 UNL     1      -4.402   0.697   0.548  1.00  0.00     0.274 HD
ENDBRANCH  12  13
BRANCH  12  17
HETATM   17  C9  UNL     1      -2.817  -1.201  -0.121  1.00  0.00     0.264 C 
BRANCH  17  18
HETATM   18  N3  UNL     1      -2.710  -0.867  -1.524  1.00  0.00    -0.077 N 
ATOM     19  H33 UNL     1      -3.301  -0.074  -1.774  1.00  0.00     0.274 HD
ATOM     20  H32 UNL     1      -1.804  -0.456  -1.751  1.00  0.00     0.274 HD
ATOM     21  H31 UNL     1      -2.911  -1.688  -2.095  1.00  0.00     0.274 HD
ENDBRANCH  17  18
ENDBRANCH  12  17
ENDBRANCH   9  12
ENDBRANCH   5   6
ENDBRANCH   4   5
ENDBRANCH   3   4
TORSDOF 7
