REMARK  6 active torsions:
REMARK  status: ('A' for Active; 'I' for Inactive)
REMARK       I    between atoms: C2_2  and  N1_4 
REMARK    1  A    between atoms: N2_7  and  C5_8 
REMARK    2  A    between atoms: C5_8  and  C6_9 
REMARK    3  A    between atoms: C6_9  and  C7_10 
REMARK    4  A    between atoms: C7_10  and  C8_11 
REMARK    5  A    between atoms: C8_11  and  N3_12 
REMARK       I    between atoms: N3_12  and  C9_14 
REMARK       I    between atoms: C9_14  and  N4_16 
REMARK    6  A    between atoms: N4_16  and  C10_18 
ROOT
HETATM    1  N3  UNL     1      -0.123  -1.194   2.309  1.00  0.00    -0.343 N 
ATOM      2  H3  UNL     1      -0.282  -0.466   3.005  1.00  0.00     0.164 HD
HETATM    3  C9  UNL     1      -1.151  -1.434   1.369  1.00  0.00     0.316 C 
HETATM    4  O2  UNL     1      -0.961  -2.333   0.519  1.00  0.00    -0.247 OA
HETATM    5  N4  UNL     1      -2.330  -0.649   1.443  1.00  0.00    -0.334 N 
ATOM      6  H4  UNL     1      -2.397   0.063   2.170  1.00  0.00     0.165 HD
ENDROOT
BRANCH   1   7
HETATM    7  C8  UNL     1       1.135  -1.900   2.360  1.00  0.00     0.124 C 
BRANCH   7   8
HETATM    8  C7  UNL     1       1.942  -1.726   1.107  1.00  0.00     0.021 C 
BRANCH   8   9
HETATM    9  C6  UNL     1       2.223  -0.236   0.910  1.00  0.00     0.032 C 
BRANCH   9  10
HETATM   10  C5  UNL     1       3.026  -0.006  -0.324  1.00  0.00     0.272 C 
BRANCH  10  11
HETATM   11  N2  UNL     1       4.329  -0.655  -0.320  1.00  0.00     0.091 N 
HETATM   12  C4  UNL     1       4.994  -0.387  -1.580  1.00  0.00     0.292 C 
HETATM   13  C3  UNL     1       6.017   0.728  -1.488  1.00  0.00     0.156 C 
HETATM   14  N1  UNL     1       6.945   0.439  -0.424  1.00  0.00    -0.349 N 
HETATM   15  C2  UNL     1       8.174   1.113  -0.303  1.00  0.00     0.215 C 
HETATM   16  C23 UNL     1       6.579  -0.575   0.532  1.00  0.00     0.156 C 
HETATM   17  C1  UNL     1       8.595   2.178  -1.278  1.00  0.00     0.117 C 
HETATM   18  O1  UNL     1       9.005   0.881   0.618  1.00  0.00    -0.274 OA
HETATM   19  C22 UNL     1       5.098  -0.327   0.839  1.00  0.00     0.292 C 
ENDBRANCH  10  11
ENDBRANCH   9  10
ENDBRANCH   8   9
ENDBRANCH   7   8
ENDBRANCH   1   7
BRANCH   5  20
HETATM   20  C10 UNL     1      -3.455  -0.816   0.522  1.00  0.00     0.035 C 
HETATM   21  C11 UNL     1      -3.928  -2.240   0.748  1.00  0.00     0.039 C 
HETATM   22  C12 UNL     1      -3.029  -0.643  -0.909  1.00  0.00     0.036 C 
HETATM   23  C13 UNL     1      -3.719   0.456  -1.646  1.00  0.00    -0.007 C 
HETATM   24  C14 UNL     1      -5.100  -0.005  -2.060  1.00  0.00     0.014 C 
HETATM   25  C18 UNL     1      -3.859   1.738  -0.890  1.00  0.00    -0.009 C 
HETATM   26  C15 UNL     1      -5.960   0.763  -1.079  1.00  0.00    -0.043 C 
HETATM   27  C16 UNL     1      -7.391   0.851  -1.491  1.00  0.00     0.015 C 
HETATM   28  C17 UNL     1      -5.301   2.123  -1.166  1.00  0.00     0.014 C 
HETATM   29  C21 UNL     1      -5.802   0.118   0.265  1.00  0.00     0.016 C 
HETATM   30  C20 UNL     1      -4.477   0.224   0.884  1.00  0.00     0.014 C 
HETATM   31  C19 UNL     1      -3.813   1.566   0.605  1.00  0.00     0.012 C 
ENDBRANCH   5  20
TORSDOF 6
