REMARK  3 active torsions:
REMARK  status: ('A' for Active; 'I' for Inactive)
REMARK    1  A    between atoms: C1_2  and  C2_4 
REMARK    2  A    between atoms: C4_8  and  N3_9 
REMARK    3  A    between atoms: N3_9  and  N4_11 
ROOT
HETATM    1  C2  UNL     1      -1.152   0.037   0.166  1.00  0.00     0.088 A 
HETATM    2  C3  UNL     1      -0.222   0.294   1.143  1.00  0.00     0.114 A 
HETATM    3  N2  UNL     1       1.036   0.186   0.831  1.00  0.00    -0.344 N 
ATOM      4  H2  UNL     1       1.760   0.367   1.526  1.00  0.00     0.167 HD
HETATM    5  C4  UNL     1       1.364  -0.166  -0.415  1.00  0.00     0.168 A 
HETATM    6  S1  UNL     1      -0.161  -0.352  -1.170  1.00  0.00    -0.046 SA
ENDROOT
BRANCH   5   7
HETATM    7  N3  UNL     1       2.566  -0.328  -0.924  1.00  0.00    -0.219 N 
ATOM      8  H3  UNL     1       2.701  -0.602  -1.897  1.00  0.00     0.195 HD
BRANCH   7   9
HETATM    9  N4  UNL     1       3.635  -0.111  -0.082  1.00  0.00    -0.037 N 
HETATM   10  O2  UNL     1       4.363   0.867  -0.249  1.00  0.00    -0.516 OA
HETATM   11  O3  UNL     1       3.873  -0.987   0.928  1.00  0.00    -0.516 OA
ENDBRANCH   7   9
ENDBRANCH   5   7
BRANCH   1  12
HETATM   12  C1  UNL     1      -2.608   0.090   0.269  1.00  0.00     0.273 C 
HETATM   13  N1  UNL     1      -3.390  -0.211  -0.856  1.00  0.00    -0.057 NA
HETATM   14  O1  UNL     1      -3.123   0.402   1.361  1.00  0.00    -0.270 OA
ENDBRANCH   1  12
TORSDOF 3
