REMARK  2 active torsions:
REMARK  status: ('A' for Active; 'I' for Inactive)
REMARK    1  A    between atoms: N1_1  and  C1_4 
REMARK    2  A    between atoms: C3_6  and  N2_7 
ROOT
HETATM    1  C1  UNL     1       3.219   0.629  -0.056  1.00  0.00     0.118 A 
HETATM    2  C2  UNL     1       1.843   0.752  -0.035  1.00  0.00     0.099 A 
HETATM    3  C3  UNL     1       1.018  -0.341  -0.221  1.00  0.00     0.123 A 
HETATM    4  N4  UNL     1       1.636  -1.522  -0.422  1.00  0.00    -0.271 N 
ATOM      5  H4  UNL     1       1.071  -2.359  -0.564  1.00  0.00     0.190 HD
HETATM    6  N5  UNL     1       2.957  -1.627  -0.440  1.00  0.00    -0.240 N 
ATOM      7  H5  UNL     1       3.373  -2.545  -0.596  1.00  0.00     0.208 HD
HETATM    8  N6  UNL     1       3.759  -0.587  -0.263  1.00  0.00    -0.271 N 
ATOM      9  H6  UNL     1       4.772  -0.706  -0.283  1.00  0.00     0.190 HD
ENDROOT
BRANCH   3  10
HETATM   10  N2  UNL     1      -0.408  -0.231  -0.202  1.00  0.00    -0.360 N 
HETATM   11  C4  UNL     1      -1.205  -1.401  -0.401  1.00  0.00     0.168 C 
HETATM   12  C5  UNL     1      -2.557  -1.368   0.214  1.00  0.00     0.075 C 
HETATM   13  N3  UNL     1      -2.983  -0.137   0.752  1.00  0.00    -0.399 N 
HETATM   14  C6  UNL     1      -2.473   1.041   0.131  1.00  0.00     0.138 C 
ATOM     15  H3  UNL     1      -3.623  -0.091   1.545  1.00  0.00     0.158 HD
HETATM   16  C7  UNL     1      -0.974   1.080   0.021  1.00  0.00     0.144 C 
ENDBRANCH   3  10
BRANCH   1  17
HETATM   17  N1  UNL     1       4.012   1.638   0.116  1.00  0.00    -0.384 N 
ATOM     18  H12 UNL     1       3.603   2.559   0.273  1.00  0.00     0.157 HD
ATOM     19  H11 UNL     1       5.028   1.547   0.100  1.00  0.00     0.157 HD
ENDBRANCH   1  17
TORSDOF 2
