REMARK  2 active torsions:
REMARK  status: ('A' for Active; 'I' for Inactive)
REMARK    1  A    between atoms: C2_3  and  C3_4 
REMARK    2  A    between atoms: C6_15  and  N5_16 
ROOT
HETATM    1  N1  UNL     1      -3.102  -0.583   2.040  1.00  0.00    -0.197 NA
HETATM    2  C1  UNL     1      -2.724  -0.488   0.950  1.00  0.00     0.065 C 
HETATM    3  C2  UNL     1      -2.221  -0.367  -0.440  1.00  0.00     0.185 C 
ENDROOT
BRANCH   3   4
HETATM    4  C3  UNL     1      -0.737  -0.323  -0.409  1.00  0.00     0.070 C 
HETATM    5  N2  UNL     1      -0.031  -1.408  -0.762  1.00  0.00    -0.318 N 
HETATM    6  C4  UNL     1       1.303  -1.657  -0.610  1.00  0.00     0.315 C 
ATOM      7  H2  UNL     1      -0.567  -2.153  -1.207  1.00  0.00     0.169 HD
HETATM    8  O1  UNL     1       1.705  -2.827  -0.807  1.00  0.00    -0.262 OA
HETATM    9  C5  UNL     1       2.249  -0.732  -0.259  1.00  0.00     0.328 C 
HETATM   10  O2  UNL     1       3.421  -1.022  -0.615  1.00  0.00    -0.261 OA
HETATM   11  N3  UNL     1       2.138   0.446   0.407  1.00  0.00    -0.260 N 
HETATM   12  N4  UNL     1       1.039   1.173   0.467  1.00  0.00    -0.281 N 
ATOM     13  H3  UNL     1       2.963   0.793   0.896  1.00  0.00     0.190 HD
HETATM   14  C6  UNL     1      -0.209   0.889  -0.002  1.00  0.00     0.137 C 
ATOM     15  H4  UNL     1       1.137   2.076   0.930  1.00  0.00     0.188 HD
BRANCH  14  16
HETATM   16  N5  UNL     1      -1.039   1.870  -0.089  1.00  0.00    -0.383 N 
ATOM     17  H52 UNL     1      -1.973   1.657  -0.440  1.00  0.00     0.157 HD
ATOM     18  H51 UNL     1      -0.650   2.764   0.211  1.00  0.00     0.157 HD
ENDBRANCH  14  16
ENDBRANCH   3   4
TORSDOF 2
