REMARK  16 active torsions:
REMARK  status: ('A' for Active; 'I' for Inactive)
REMARK    1  A    between atoms: C2_2  and  C3_3 
REMARK    2  A    between atoms: C3_3  and  N1_4 
REMARK       I    between atoms: N1_4  and  C4_6 
REMARK    3  A    between atoms: C4_6  and  C5_8 
REMARK       I    between atoms: N2_13  and  C9_14 
REMARK    4  A    between atoms: C9_14  and  C10_16 
REMARK    5  A    between atoms: C10_16  and  C11_17 
REMARK    6  A    between atoms: C10_16  and  N3_19 
REMARK    7  A    between atoms: N3_19  and  S1_21 
REMARK    8  A    between atoms: S1_21  and  N4_24 
REMARK    9  A    between atoms: N4_24  and  C13_25 
REMARK   10  A    between atoms: N4_24  and  C17_29 
REMARK   11  A    between atoms: C13_25  and  C14_26 
REMARK   12  A    between atoms: C17_29  and  C18_30 
REMARK   13  A    between atoms: C17_29  and  C22_40 
REMARK   14  A    between atoms: C18_30  and  C19_31 
REMARK   15  A    between atoms: C19_31  and  C20_32 
REMARK   16  A    between atoms: C20_32  and  N5_33 
REMARK       I    between atoms: N5_33  and  C21_35 
ROOT
HETATM    1  S1  UNL     1      -0.910   0.399  -0.395  1.00  0.00     0.322 S 
HETATM    2  O3  UNL     1      -0.369   1.876  -0.467  1.00  0.00    -0.182 OA
HETATM    3  O4  UNL     1      -1.222   0.278   1.094  1.00  0.00    -0.182 OA
ENDROOT
BRANCH   1   4
HETATM    4  N3  UNL     1       0.418  -0.630  -0.691  1.00  0.00    -0.289 N 
ATOM      5  H3  UNL     1       0.380  -1.647  -0.621  1.00  0.00     0.174 HD
BRANCH   4   6
HETATM    6  C10 UNL     1       1.609   0.118  -1.055  1.00  0.00     0.186 C 
BRANCH   6   7
HETATM    7  C9  UNL     1       2.886  -0.331  -0.518  1.00  0.00     0.247 C 
HETATM    8  N2  UNL     1       3.347  -0.191   0.778  1.00  0.00    -0.312 N 
HETATM    9  C5  UNL     1       4.569  -0.352   1.469  1.00  0.00     0.085 C 
HETATM   10  C8  UNL     1       2.447  -0.099   1.953  1.00  0.00     0.169 C 
HETATM   11  C6  UNL     1       4.297  -1.695   2.140  1.00  0.00     0.102 C 
HETATM   12  C7  UNL     1       2.840  -1.453   2.596  1.00  0.00     0.194 C 
HETATM   13  F1  UNL     1       2.714  -1.434   3.948  1.00  0.00    -0.247 F 
HETATM   14  O2  UNL     1       3.717  -0.932  -1.291  1.00  0.00    -0.271 OA
BRANCH   9  15
HETATM   15  C4  UNL     1       5.874  -0.057   1.015  1.00  0.00     0.264 C 
HETATM   16  N1  UNL     1       6.238   1.212   0.543  1.00  0.00    -0.353 N 
ATOM     17  H1  UNL     1       5.509   1.924   0.491  1.00  0.00     0.163 HD
HETATM   18  O1  UNL     1       6.799  -0.941   1.034  1.00  0.00    -0.266 OA
BRANCH  16  19
HETATM   19  C3  UNL     1       7.564   1.584   0.127  1.00  0.00     0.149 C 
BRANCH  19  20
HETATM   20  C2  UNL     1       8.546   1.421   1.219  1.00  0.00    -0.018 C 
HETATM   21  C1  UNL     1       9.677   0.698   1.127  1.00  0.00     0.008 C 
ENDBRANCH  19  20
ENDBRANCH  16  19
ENDBRANCH   9  15
ENDBRANCH   6   7
BRANCH   6  22
HETATM   22  C11 UNL     1       1.683  -0.238  -2.622  1.00  0.00     0.031 C 
HETATM   23  C12 UNL     1       1.817  -1.719  -2.757  1.00  0.00     0.007 C 
ENDBRANCH   6  22
ENDBRANCH   4   6
ENDBRANCH   1   4
BRANCH   1  24
HETATM   24  N4  UNL     1      -2.284   0.316  -1.333  1.00  0.00    -0.258 N 
BRANCH  24  25
HETATM   25  C13 UNL     1      -2.285   1.049  -2.528  1.00  0.00     0.082 C 
BRANCH  25  26
HETATM   26  C14 UNL     1      -2.651   0.496  -3.856  1.00  0.00     0.017 C 
HETATM   27  C15 UNL     1      -4.064   0.034  -4.076  1.00  0.00     0.015 C 
HETATM   28  C16 UNL     1      -1.736  -0.670  -4.290  1.00  0.00     0.015 C 
ENDBRANCH  25  26
ENDBRANCH  24  25
BRANCH  24  29
HETATM   29  C17 UNL     1      -3.515  -0.133  -0.870  1.00  0.00     0.203 C 
BRANCH  29  30
HETATM   30  C18 UNL     1      -4.115   0.602   0.346  1.00  0.00     0.039 C 
BRANCH  30  31
HETATM   31  C19 UNL     1      -5.469   0.045   0.656  1.00  0.00     0.022 C 
BRANCH  31  32
HETATM   32  C20 UNL     1      -6.158   0.703   1.798  1.00  0.00     0.122 C 
BRANCH  32  33
HETATM   33  N5  UNL     1      -5.468   0.562   3.053  1.00  0.00    -0.365 N 
HETATM   34  C21 UNL     1      -6.213   0.930   4.238  1.00  0.00     0.181 C 
HETATM   35  N6  UNL     1      -7.368   0.396   4.311  1.00  0.00    -0.374 N 
HETATM   36  N7  UNL     1      -5.679   1.826   5.171  1.00  0.00    -0.064 NA
ATOM     37  H62 UNL     1      -7.757  -0.257   3.631  1.00  0.00     0.158 HD
ATOM     38  H61 UNL     1      -7.893   0.655   5.146  1.00  0.00     0.158 HD
ATOM     39  H5  UNL     1      -4.508   0.222   3.104  1.00  0.00     0.162 HD
ENDBRANCH  32  33
ENDBRANCH  31  32
ENDBRANCH  30  31
ENDBRANCH  29  30
BRANCH  29  40
HETATM   40  C22 UNL     1      -3.480  -1.612  -0.533  1.00  0.00     0.198 C 
HETATM   41  O5  UNL     1      -4.449  -2.367  -0.712  1.00  0.00    -0.646 OA
HETATM   42  O6  UNL     1      -2.316  -2.122  -0.002  1.00  0.00    -0.646 OA
ENDBRANCH  29  40
ENDBRANCH  24  29
ENDBRANCH   1  24
TORSDOF 16
