REMARK  16 active torsions:
REMARK  status: ('A' for Active; 'I' for Inactive)
REMARK    1  A    between atoms: C2_2  and  C3_3 
REMARK    2  A    between atoms: C2_2  and  C17_28 
REMARK    3  A    between atoms: C3_3  and  C16_25 
REMARK       I    between atoms: N1_4  and  C4_6 
REMARK    4  A    between atoms: C4_6  and  C5_8 
REMARK    5  A    between atoms: C5_8  and  C6_9 
REMARK    6  A    between atoms: C5_8  and  N4_17 
REMARK    7  A    between atoms: C6_9  and  C7_10 
REMARK       I    between atoms: N4_17  and  C11_18 
REMARK    8  A    between atoms: C11_18  and  O3_20 
REMARK    9  A    between atoms: O3_20  and  C12_21 
REMARK   10  A    between atoms: C17_28  and  O5_29 
REMARK   11  A    between atoms: C17_28  and  C18_31 
REMARK       I    between atoms: C18_31  and  N6_33 
REMARK   12  A    between atoms: N7_36  and  C21_37 
REMARK   13  A    between atoms: C21_37  and  O7_38 
REMARK   14  A    between atoms: C21_37  and  N8_40 
REMARK   15  A    between atoms: C26_46  and  C27_47 
REMARK   16  A    between atoms: C28_48  and  C29_49 
ROOT
HETATM    1  C1  UNL     1       0.409  -1.924  -0.728  1.00  0.00     0.020 C 
HETATM    2  C2  UNL     1       0.234  -1.141   0.569  1.00  0.00     0.075 C 
ENDROOT
BRANCH   2   3
HETATM    3  C3  UNL     1       1.603  -1.065   1.194  1.00  0.00     0.084 C 
HETATM    4  N1  UNL     1       2.567  -1.295   0.440  1.00  0.00    -0.323 N 
HETATM    5  C4  UNL     1       3.922  -1.360   0.464  1.00  0.00     0.258 C 
ATOM      6  H1  UNL     1       2.228  -1.501  -0.500  1.00  0.00     0.169 HD
HETATM    7  O1  UNL     1       4.575  -2.294   1.048  1.00  0.00    -0.270 OA
BRANCH   5   8
HETATM    8  C5  UNL     1       4.729  -0.271  -0.246  1.00  0.00     0.266 C 
BRANCH   8   9
HETATM    9  C6  UNL     1       5.006   0.768   0.831  1.00  0.00     0.108 C 
BRANCH   9  10
HETATM   10  C7  UNL     1       5.795   1.914   0.348  1.00  0.00     0.029 A 
HETATM   11  C8  UNL     1       6.143   2.969   1.135  1.00  0.00     0.116 A 
HETATM   12  N2  UNL     1       6.853   3.878   0.443  1.00  0.00    -0.355 N 
HETATM   13  C9  UNL     1       7.408   5.136   0.923  1.00  0.00     0.156 C 
HETATM   14  C10 UNL     1       6.933   3.341  -0.812  1.00  0.00     0.182 A 
HETATM   15  N3  UNL     1       6.300   2.163  -0.872  1.00  0.00    -0.354 N 
ATOM     16  H3  UNL     1       6.216   1.564  -1.693  1.00  0.00     0.166 HD
ENDBRANCH   9  10
ENDBRANCH   8   9
BRANCH   8  17
HETATM   17  N4  UNL     1       5.908  -0.825  -0.776  1.00  0.00    -0.375 NA
HETATM   18  C11 UNL     1       7.011  -1.345  -1.276  1.00  0.00     0.436 C 
HETATM   19  O2  UNL     1       7.252  -1.762  -2.478  1.00  0.00    -0.221 OA
BRANCH  18  20
HETATM   20  O3  UNL     1       8.194  -1.542  -0.476  1.00  0.00    -0.283 OA
BRANCH  20  21
HETATM   21  C12 UNL     1       9.353  -2.105  -0.973  1.00  0.00     0.062 C 
HETATM   22  C13 UNL     1      10.050  -1.387  -2.079  1.00  0.00     0.046 C 
HETATM   23  C14 UNL     1      10.331  -2.235   0.207  1.00  0.00     0.046 C 
HETATM   24  C15 UNL     1       9.030  -3.521  -1.452  1.00  0.00     0.046 C 
ENDBRANCH  20  21
ENDBRANCH  18  20
ENDBRANCH   8  17
ENDBRANCH   5   8
BRANCH   3  25
HETATM   25  C16 UNL     1       1.696  -0.715   2.600  1.00  0.00     0.277 C 
HETATM   26  N5  UNL     1       0.522  -0.494   3.361  1.00  0.00    -0.056 NA
HETATM   27  O4  UNL     1       2.782  -0.588   3.230  1.00  0.00    -0.270 OA
ENDBRANCH   3  25
ENDBRANCH   2   3
BRANCH   2  28
HETATM   28  C17 UNL     1      -0.195   0.266   0.130  1.00  0.00     0.219 C 
BRANCH  28  29
HETATM   29  O5  UNL     1      -0.380   1.115   1.182  1.00  0.00    -0.385 OA
ATOM     30  H5  UNL     1      -0.645   1.986   0.910  1.00  0.00     0.210 HD
ENDBRANCH  28  29
BRANCH  28  31
HETATM   31  C18 UNL     1      -1.455   0.134  -0.633  1.00  0.00     0.251 C 
HETATM   32  O6  UNL     1      -1.516  -0.570  -1.706  1.00  0.00    -0.270 OA
HETATM   33  N6  UNL     1      -2.641   0.789  -0.192  1.00  0.00    -0.323 N 
HETATM   34  C19 UNL     1      -2.809   1.637   0.931  1.00  0.00     0.148 C 
HETATM   35  C26 UNL     1      -3.912   0.626  -0.881  1.00  0.00     0.216 C 
HETATM   36  C20 UNL     1      -4.302   2.056   0.880  1.00  0.00     0.149 C 
HETATM   37  N7  UNL     1      -4.653   1.826  -0.460  1.00  0.00    -0.321 N 
BRANCH  37  38
HETATM   38  C21 UNL     1      -5.520   2.472  -1.353  1.00  0.00     0.219 C 
BRANCH  38  39
HETATM   39  O7  UNL     1      -5.588   1.907  -2.569  1.00  0.00    -0.332 OA
ATOM     40  H7  UNL     1      -6.175   2.345  -3.174  1.00  0.00     0.220 HD
ENDBRANCH  38  39
BRANCH  38  41
HETATM   41  N8  UNL     1      -6.345   3.581  -1.267  1.00  0.00    -0.344 N 
HETATM   42  C22 UNL     1      -6.479   4.499  -0.171  1.00  0.00     0.152 C 
HETATM   43  C23 UNL     1      -7.931   4.521   0.318  1.00  0.00     0.187 C 
HETATM   44  O8  UNL     1      -8.730   3.846  -0.615  1.00  0.00    -0.388 OA
HETATM   45  C24 UNL     1      -8.551   4.294  -1.910  1.00  0.00     0.187 C 
HETATM   46  C25 UNL     1      -7.241   3.823  -2.453  1.00  0.00     0.152 C 
ENDBRANCH  38  41
ENDBRANCH  37  38
BRANCH  35  47
HETATM   47  C27 UNL     1      -4.508  -0.622  -0.348  1.00  0.00     0.016 C 
HETATM   48  C28 UNL     1      -4.572  -1.729  -1.082  1.00  0.00    -0.022 C 
BRANCH  48  49
HETATM   49  C29 UNL     1      -5.162  -2.988  -0.571  1.00  0.00     0.008 C 
HETATM   50  C30 UNL     1      -6.291  -3.393  -1.483  1.00  0.00     0.008 C 
HETATM   51  C31 UNL     1      -7.074  -4.555  -0.902  1.00  0.00     0.001 C 
HETATM   52  C32 UNL     1      -6.419  -5.129   0.321  1.00  0.00     0.000 C 
HETATM   53  C33 UNL     1      -6.313  -4.051   1.374  1.00  0.00     0.001 C 
HETATM   54  C34 UNL     1      -5.647  -2.797   0.849  1.00  0.00     0.008 C 
ENDBRANCH  48  49
ENDBRANCH  35  47
ENDBRANCH  28  31
ENDBRANCH   2  28
TORSDOF 16
