REMARK  3 active torsions:
REMARK  status: ('A' for Active; 'I' for Inactive)
REMARK    1  A    between atoms: C8_8  and  O1_9 
REMARK    2  A    between atoms: C8_8  and  C9_11 
REMARK    3  A    between atoms: C9_11  and  O2_12 
ROOT
HETATM    1  C1  UNL     1      -1.585   2.160   0.295  1.00  0.00     0.015 C 
HETATM    2  C2  UNL     1      -1.265   1.083  -0.734  1.00  0.00    -0.043 C 
HETATM    3  C3  UNL     1      -1.780   1.696  -2.054  1.00  0.00     0.015 C 
HETATM    4  C4  UNL     1       0.217   1.030  -0.884  1.00  0.00     0.022 C 
HETATM    5  C5  UNL     1       0.929   0.113   0.041  1.00  0.00    -0.006 C 
HETATM    6  C6  UNL     1       1.491   0.764   1.304  1.00  0.00     0.016 C 
HETATM    7  C7  UNL     1       2.741   1.142   0.550  1.00  0.00     0.042 C 
HETATM    8  C8  UNL     1       2.381   0.027  -0.426  1.00  0.00     0.086 C 
HETATM    9  C10 UNL     1       0.267  -1.182   0.299  1.00  0.00     0.022 C 
HETATM   10  C11 UNL     1      -1.176  -1.280   0.151  1.00  0.00    -0.039 C 
HETATM   11  C12 UNL     1      -1.597  -2.680  -0.317  1.00  0.00     0.015 C 
HETATM   12  C13 UNL     1      -1.950  -0.976   1.443  1.00  0.00     0.010 C 
HETATM   13  C14 UNL     1      -2.970  -0.164   0.636  1.00  0.00     0.007 C 
HETATM   14  C15 UNL     1      -1.936  -0.201  -0.498  1.00  0.00     0.001 C 
ENDROOT
BRANCH   8  15
HETATM   15  O1  UNL     1       2.615   0.445  -1.712  1.00  0.00    -0.387 OA
ATOM     16  H1  UNL     1       3.518   0.392  -2.002  1.00  0.00     0.210 HD
ENDBRANCH   8  15
BRANCH   8  17
HETATM   17  C9  UNL     1       3.055  -1.282  -0.149  1.00  0.00     0.202 C 
BRANCH  17  18
HETATM   18  O2  UNL     1       4.437  -1.077  -0.347  1.00  0.00    -0.398 OA
ATOM     19  H2  UNL     1       4.864  -1.907  -0.171  1.00  0.00     0.209 HD
ENDBRANCH  17  18
ENDBRANCH   8  17
TORSDOF 3
