REMARK  3 active torsions:
REMARK  status: ('A' for Active; 'I' for Inactive)
REMARK    1  A    between atoms: C2_2  and  C4_4 
REMARK    2  A    between atoms: C11_11  and  O1_13 
REMARK    3  A    between atoms: C13_15  and  O2_16 
ROOT
HETATM    1  C4  UNL     1      -1.455   0.155  -0.407  1.00  0.00    -0.064 C 
HETATM    2  C5  UNL     1      -1.714   1.668  -0.483  1.00  0.00     0.036 C 
HETATM    3  C6  UNL     1      -0.783   2.507   0.304  1.00  0.00     0.009 C 
HETATM    4  C7  UNL     1       0.413   1.789   0.849  1.00  0.00    -0.013 C 
HETATM    5  C8  UNL     1       1.493   2.836   1.094  1.00  0.00     0.010 C 
HETATM    6  C9  UNL     1       0.956   0.817  -0.143  1.00  0.00     0.007 C 
HETATM    7  C10 UNL     1       2.002  -0.028   0.537  1.00  0.00     0.046 C 
HETATM    8  C11 UNL     1       1.468  -1.442   0.565  1.00  0.00     0.081 C 
HETATM    9  C12 UNL     1       2.569  -2.466   0.405  1.00  0.00     0.049 C 
HETATM   10  C13 UNL     1       0.590  -1.395  -0.689  1.00  0.00     0.165 C 
HETATM   11  C14 UNL     1      -0.079  -0.105  -0.760  1.00  0.00     0.013 C 
HETATM   12  C15 UNL     1      -0.006   0.301  -2.276  1.00  0.00     0.023 C 
ENDROOT
BRANCH   1  13
HETATM   13  C2  UNL     1      -2.207  -0.500   0.648  1.00  0.00    -0.068 C 
HETATM   14  C1  UNL     1      -2.673   0.164   1.679  1.00  0.00     0.018 C 
HETATM   15  C3  UNL     1      -2.580  -1.965   0.648  1.00  0.00     0.047 C 
ENDBRANCH   1  13
BRANCH  10  16
HETATM   16  O2  UNL     1      -0.040  -2.548  -0.993  1.00  0.00    -0.391 OA
ATOM     17  H2  UNL     1      -0.585  -2.519  -1.771  1.00  0.00     0.210 HD
ENDBRANCH  10  16
BRANCH   8  18
HETATM   18  O1  UNL     1       0.831  -1.640   1.734  1.00  0.00    -0.388 OA
ATOM     19  H1  UNL     1       0.495  -2.529   1.752  1.00  0.00     0.210 HD
ENDBRANCH   8  18
TORSDOF 3
