REMARK  15 active torsions:
REMARK  status: ('A' for Active; 'I' for Inactive)
REMARK    1  A    between atoms: N1_1  and  C1_5 
REMARK    2  A    between atoms: C1_5  and  C2_6 
REMARK    3  A    between atoms: C2_6  and  N2_7 
REMARK       I    between atoms: C3_9  and  N4_11 
REMARK    4  A    between atoms: N4_11  and  C4_13 
REMARK    5  A    between atoms: C4_13  and  C5_14 
REMARK    6  A    between atoms: C5_14  and  C6_15 
REMARK    7  A    between atoms: N5_20  and  C10_21 
REMARK    8  A    between atoms: C11_22  and  C12_23 
REMARK    9  A    between atoms: C12_23  and  C13_24 
REMARK   10  A    between atoms: C13_24  and  O2_25 
REMARK   11  A    between atoms: O2_25  and  C14_26 
REMARK   12  A    between atoms: C14_26  and  C15_27 
REMARK   13  A    between atoms: C15_27  and  N6_28 
REMARK   14  A    between atoms: N6_28  and  C16_31 
REMARK   15  A    between atoms: C16_31  and  C17_32 
ROOT
HETATM    1  C6  UNL     1      -1.933  -0.334   0.363  1.00  0.00     0.094 C 
HETATM    2  C7  UNL     1      -1.715  -0.375  -1.118  1.00  0.00     0.035 C 
HETATM    3  C8  UNL     1      -1.246  -1.822  -1.293  1.00  0.00     0.105 C 
HETATM    4  C9  UNL     1      -0.525  -2.069  -0.028  1.00  0.00     0.224 C 
HETATM    5  O1  UNL     1       0.174  -3.094   0.190  1.00  0.00    -0.273 OA
HETATM    6  N5  UNL     1      -0.742  -0.971   0.904  1.00  0.00    -0.324 N 
ENDROOT
BRANCH   6   7
HETATM    7  C10 UNL     1      -0.009  -0.755   2.102  1.00  0.00     0.090 C 
HETATM    8  C11 UNL     1       1.279  -0.117   2.199  1.00  0.00    -0.007 C 
BRANCH   8   9
HETATM    9  C12 UNL     1       1.627   1.232   1.767  1.00  0.00     0.054 C 
BRANCH   9  10
HETATM   10  C13 UNL     1       1.577   1.459   0.308  1.00  0.00     0.171 C 
BRANCH  10  11
HETATM   11  O2  UNL     1       2.436   0.585  -0.374  1.00  0.00    -0.389 OA
BRANCH  11  12
HETATM   12  C14 UNL     1       3.756   0.705  -0.026  1.00  0.00     0.195 C 
BRANCH  12  13
HETATM   13  C15 UNL     1       4.538  -0.291  -0.869  1.00  0.00     0.258 C 
BRANCH  13  14
HETATM   14  N6  UNL     1       5.931  -0.152  -0.488  1.00  0.00    -0.068 N 
ATOM     15  H62 UNL     1       6.238   0.816  -0.582  1.00  0.00     0.277 HD
ATOM     16  H61 UNL     1       6.045  -0.267   0.519  1.00  0.00     0.277 HD
BRANCH  14  17
HETATM   17  C16 UNL     1       6.804  -1.036  -1.205  1.00  0.00     0.290 C 
BRANCH  17  18
HETATM   18  C17 UNL     1       8.187  -0.795  -0.726  1.00  0.00     0.051 A 
HETATM   19  C18 UNL     1       9.100   0.099  -1.224  1.00  0.00     0.115 A 
HETATM   20  N7  UNL     1      10.216  -0.009  -0.504  1.00  0.00    -0.360 N 
HETATM   21  C19 UNL     1      10.002  -0.951   0.425  1.00  0.00     0.180 A 
ATOM     22  H7  UNL     1      11.074   0.526  -0.636  1.00  0.00     0.166 HD
HETATM   23  N8  UNL     1       8.771  -1.434   0.296  1.00  0.00    -0.353 N 
ATOM     24  H8  UNL     1       8.347  -2.161   0.872  1.00  0.00     0.166 HD
ENDBRANCH  17  18
ENDBRANCH  14  17
ENDBRANCH  13  14
ENDBRANCH  12  13
ENDBRANCH  11  12
ENDBRANCH  10  11
ENDBRANCH   9  10
ENDBRANCH   8   9
ENDBRANCH   6   7
BRANCH   1  25
HETATM   25  C5  UNL     1      -2.280   0.982   0.943  1.00  0.00     0.045 C 
BRANCH  25  26
HETATM   26  C4  UNL     1      -3.567   1.467   0.314  1.00  0.00     0.124 C 
BRANCH  26  27
HETATM   27  N4  UNL     1      -4.654   0.553   0.572  1.00  0.00    -0.365 N 
HETATM   28  C3  UNL     1      -5.929   0.869   0.030  1.00  0.00     0.184 C 
HETATM   29  N2  UNL     1      -6.452   0.178  -0.917  1.00  0.00    -0.363 N 
HETATM   30  N3  UNL     1      -6.644   1.973   0.546  1.00  0.00    -0.064 NA
ATOM     31  H2  UNL     1      -5.938  -0.620  -1.291  1.00  0.00     0.162 HD
ATOM     32  H4  UNL     1      -4.512  -0.292   1.125  1.00  0.00     0.162 HD
BRANCH  29  33
HETATM   33  C2  UNL     1      -7.741   0.497  -1.464  1.00  0.00     0.149 C 
BRANCH  33  34
HETATM   34  C1  UNL     1      -8.658  -0.702  -1.555  1.00  0.00     0.249 C 
BRANCH  34  35
HETATM   35  N1  UNL     1      -8.910  -1.301  -0.271  1.00  0.00    -0.078 N 
ATOM     36  H13 UNL     1      -8.038  -1.541   0.200  1.00  0.00     0.274 HD
ATOM     37  H12 UNL     1      -9.270  -0.613   0.391  1.00  0.00     0.274 HD
ATOM     38  H11 UNL     1      -9.529  -2.110  -0.332  1.00  0.00     0.274 HD
ENDBRANCH  34  35
ENDBRANCH  33  34
ENDBRANCH  29  33
ENDBRANCH  26  27
ENDBRANCH  25  26
ENDBRANCH   1  25
TORSDOF 15
