REMARK  10 active torsions:
REMARK  status: ('A' for Active; 'I' for Inactive)
REMARK    1  A    between atoms: N1_2  and  C2_4 
REMARK    2  A    between atoms: C3_5  and  O1_6 
REMARK    3  A    between atoms: C4_8  and  C5_9 
REMARK    4  A    between atoms: C5_9  and  C7_11 
REMARK    5  A    between atoms: C7_11  and  O2_12 
REMARK    6  A    between atoms: C7_11  and  C8_14 
REMARK    7  A    between atoms: C8_14  and  O3_15 
REMARK    8  A    between atoms: C8_14  and  C9_17 
REMARK    9  A    between atoms: C9_17  and  C10_19 
REMARK   10  A    between atoms: C10_19  and  O4_22 
ROOT
HETATM    1  C7  UNL     1       0.036   0.309  -0.277  1.00  0.00     0.154 C 
ENDROOT
BRANCH   1   2
HETATM    2  C5  UNL     1      -0.988   1.442  -0.241  1.00  0.00     0.021 C 
HETATM    3  C6  UNL     1      -1.301   2.022  -1.558  1.00  0.00     0.013 C 
BRANCH   2   4
HETATM    4  C4  UNL     1      -2.092   0.986   0.633  1.00  0.00     0.047 A 
HETATM    5  C2  UNL     1      -3.044  -0.090   0.202  1.00  0.00     0.112 A 
HETATM    6  C3  UNL     1      -3.527   1.281   0.509  1.00  0.00     0.147 A 
BRANCH   5   7
HETATM    7  N1  UNL     1      -3.234  -1.179   1.090  1.00  0.00    -0.418 N 
HETATM    8  C1  UNL     1      -4.574  -1.544   1.363  1.00  0.00     0.140 C 
ATOM      9  H1  UNL     1      -2.447  -1.673   1.510  1.00  0.00     0.153 HD
ENDBRANCH   5   7
BRANCH   6  10
HETATM   10  O1  UNL     1      -4.048   2.056  -0.506  1.00  0.00    -0.393 OA
ATOM     11  H1  UNL     1      -4.357   2.933  -0.310  1.00  0.00     0.210 HD
ENDBRANCH   6  10
ENDBRANCH   2   4
ENDBRANCH   1   2
BRANCH   1  12
HETATM   12  O2  UNL     1      -0.619  -0.816  -0.789  1.00  0.00    -0.393 OA
ATOM     13  H2  UNL     1       0.018  -1.521  -0.811  1.00  0.00     0.210 HD
ENDBRANCH   1  12
BRANCH   1  14
HETATM   14  C8  UNL     1       1.238   0.563  -1.073  1.00  0.00     0.185 C 
BRANCH  14  15
HETATM   15  O3  UNL     1       0.809   0.740  -2.426  1.00  0.00    -0.390 OA
ATOM     16  H3  UNL     1       1.589   0.905  -2.943  1.00  0.00     0.210 HD
ENDBRANCH  14  15
BRANCH  14  17
HETATM   17  C9  UNL     1       2.311  -0.457  -1.127  1.00  0.00     0.246 C 
HETATM   18  F1  UNL     1       1.791  -1.664  -1.628  1.00  0.00    -0.242 F 
BRANCH  17  19
HETATM   19  C10 UNL     1       3.136  -0.700   0.093  1.00  0.00     0.147 C 
HETATM   20  C11 UNL     1       4.187  -1.781  -0.312  1.00  0.00     0.062 C 
HETATM   21  S1  UNL     1       2.180  -1.477   1.386  1.00  0.00    -0.053 SA
BRANCH  19  22
HETATM   22  O4  UNL     1       3.847   0.395   0.453  1.00  0.00    -0.371 OA
HETATM   23  C12 UNL     1       4.641   0.316   1.540  1.00  0.00     0.204 C 
ENDBRANCH  19  22
ENDBRANCH  17  19
ENDBRANCH  14  17
ENDBRANCH   1  14
TORSDOF 10
