REMARK  4 active torsions:
REMARK  status: ('A' for Active; 'I' for Inactive)
REMARK    1  A    between atoms: N2_3  and  C2_5 
REMARK    2  A    between atoms: C3_10  and  N5_11 
REMARK    3  A    between atoms: N6_14  and  O1_15 
REMARK    4  A    between atoms: C4_17  and  C5_18 
ROOT
HETATM    1  N1  UNL     1      -0.031   4.458   0.529  1.00  0.00    -0.172 NA
HETATM    2  C1  UNL     1       0.286   3.337   0.657  1.00  0.00     0.183 C 
HETATM    3  N2  UNL     1       0.673   2.014   0.789  1.00  0.00    -0.276 N 
ATOM      4  H2  UNL     1       1.472   1.796   1.384  1.00  0.00     0.179 HD
ENDROOT
BRANCH   3   5
HETATM    5  C2  UNL     1       0.065   1.046   0.191  1.00  0.00     0.165 A 
HETATM    6  N3  UNL     1      -0.990   1.335  -0.595  1.00  0.00    -0.269 N 
HETATM    7  N4  UNL     1      -1.626   0.342  -1.219  1.00  0.00    -0.129 N 
ATOM      8  H3  UNL     1      -1.299   2.300  -0.712  1.00  0.00     0.189 HD
HETATM    9  C3  UNL     1      -1.225  -0.930  -1.068  1.00  0.00     0.717 A 
ATOM     10  H4  UNL     1      -2.425   0.552  -1.817  1.00  0.00     0.205 HD
HETATM   11  N6  UNL     1      -0.169  -1.230  -0.283  1.00  0.00    -0.043 N 
HETATM   12  C4  UNL     1       0.498  -0.251   0.362  1.00  0.00     0.191 A 
BRANCH   9  13
HETATM   13  N5  UNL     1      -1.825  -1.918  -1.663  1.00  0.00    -0.231 N 
ATOM     14  H52 UNL     1      -2.623  -1.691  -2.256  1.00  0.00     0.174 HD
ATOM     15  H51 UNL     1      -1.520  -2.885  -1.548  1.00  0.00     0.174 HD
ENDBRANCH   9  13
BRANCH  11  16
HETATM   16  O1  UNL     1       0.277  -2.511  -0.100  1.00  0.00    -0.269 OA
ATOM     17  H1  UNL     1       1.020  -2.722   0.453  1.00  0.00     0.245 HD
ENDBRANCH  11  16
BRANCH  12  18
HETATM   18  C5  UNL     1       1.640  -0.551   1.214  1.00  0.00     0.288 C 
HETATM   19  N7  UNL     1       2.074  -1.889   1.382  1.00  0.00    -0.056 NA
HETATM   20  O2  UNL     1       2.235   0.381   1.798  1.00  0.00    -0.269 OA
ENDBRANCH  12  18
ENDBRANCH   3   5
TORSDOF 4
