REMARK  2 active torsions:
REMARK  status: ('A' for Active; 'I' for Inactive)
REMARK    1  A    between atoms: C11_13  and  O3_14 
REMARK    2  A    between atoms: C12_16  and  O4_17 
ROOT
HETATM    1  C1  UNL     1      -2.507  -0.165   0.827  1.00  0.00     0.046 C 
HETATM    2  C2  UNL     1      -1.895   0.622  -0.198  1.00  0.00     0.058 C 
HETATM    3  C3  UNL     1      -2.482   0.066  -1.395  1.00  0.00     0.038 C 
HETATM    4  C4  UNL     1      -1.779  -1.322  -1.441  1.00  0.00     0.006 C 
HETATM    5  C5  UNL     1      -0.550  -1.436  -0.529  1.00  0.00     0.041 C 
HETATM    6  C6  UNL     1       0.128  -0.206  -0.148  1.00  0.00     0.096 C 
HETATM    7  O1  UNL     1      -0.650   0.711  -0.775  1.00  0.00    -0.366 OA
HETATM    8  C7  UNL     1       0.217   0.396   1.173  1.00  0.00     0.157 C 
HETATM    9  C8  UNL     1      -0.651   1.609   1.483  1.00  0.00     0.038 C 
HETATM   10  C9  UNL     1      -1.761   1.911   0.440  1.00  0.00     0.040 C 
HETATM   11  O2  UNL     1       1.540   0.860   1.357  1.00  0.00    -0.374 OA
HETATM   12  C10 UNL     1       2.134   0.940   0.139  1.00  0.00     0.163 C 
HETATM   13  C11 UNL     1       3.419   0.104   0.128  1.00  0.00     0.176 C 
HETATM   14  C12 UNL     1       2.523  -1.084  -0.247  1.00  0.00     0.159 C 
HETATM   15  C13 UNL     1       1.528  -0.085  -0.758  1.00  0.00     0.086 C 
ENDROOT
BRANCH  13  16
HETATM   16  O3  UNL     1       4.303   0.423  -0.870  1.00  0.00    -0.390 OA
ATOM     17  H3  UNL     1       5.099  -0.095  -0.877  1.00  0.00     0.210 HD
ENDBRANCH  13  16
BRANCH  14  18
HETATM   18  O4  UNL     1       2.163  -1.777   0.893  1.00  0.00    -0.392 OA
ATOM     19  H4  UNL     1       1.608  -2.512   0.661  1.00  0.00     0.210 HD
ENDBRANCH  14  18
TORSDOF 2
