REMARK  3 active torsions:
REMARK  status: ('A' for Active; 'I' for Inactive)
REMARK       I    between atoms: C1_2  and  N2_4 
REMARK    1  A    between atoms: N2_4  and  C2_6 
REMARK    2  A    between atoms: C4_11  and  N5_12 
REMARK    3  A    between atoms: N5_12  and  O2_14 
ROOT
HETATM    1  C2  UNL     1       0.564  -0.425  -0.062  1.00  0.00     0.690 A 
HETATM    2  N3  UNL     1      -0.580  -1.135  -0.073  1.00  0.00    -0.176 N 
ATOM      3  H3  UNL     1      -0.518  -2.149  -0.168  1.00  0.00     0.185 HD
HETATM    4  C3  UNL     1      -1.799  -0.579   0.035  1.00  0.00     0.166 A 
HETATM    5  N4  UNL     1      -2.989  -1.353   0.021  1.00  0.00    -0.079 NA
HETATM    6  C4  UNL     1      -1.864   0.789   0.163  1.00  0.00     0.164 A 
HETATM    7  C5  UNL     1      -0.675   1.504   0.172  1.00  0.00     0.291 A 
HETATM    8  O3  UNL     1      -0.723   2.738   0.287  1.00  0.00    -0.265 OA
HETATM    9  N6  UNL     1       0.517   0.914   0.062  1.00  0.00    -0.154 N 
ATOM     10  H6  UNL     1       1.374   1.466   0.072  1.00  0.00     0.187 HD
ENDROOT
BRANCH   1  11
HETATM   11  N2  UNL     1       1.695  -1.044  -0.171  1.00  0.00    -0.143 N 
HETATM   12  C1  UNL     1       2.924  -0.349  -0.166  1.00  0.00     0.346 C 
HETATM   13  N1  UNL     1       3.777  -0.447   0.993  1.00  0.00    -0.039 NA
HETATM   14  O1  UNL     1       3.285   0.347  -1.145  1.00  0.00    -0.250 OA
ATOM     15  H2  UNL     1       1.699  -2.060  -0.263  1.00  0.00     0.188 HD
ENDBRANCH   1  11
BRANCH   6  16
HETATM   16  N5  UNL     1      -3.138   1.412   0.279  1.00  0.00    -0.261 N 
ATOM     17  H5  UNL     1      -3.977   0.834   0.231  1.00  0.00     0.194 HD
BRANCH  16  18
HETATM   18  O2  UNL     1      -3.261   2.640   0.437  1.00  0.00    -0.289 OA
ATOM     19  H2  UNL     1      -4.112   3.056   0.514  1.00  0.00     0.244 HD
ENDBRANCH  16  18
ENDBRANCH   6  16
TORSDOF 3
