REMARK  7 active torsions:
REMARK  status: ('A' for Active; 'I' for Inactive)
REMARK    1  A    between atoms: N1_1  and  C1_4 
REMARK    2  A    between atoms: N4_14  and  C5_15 
REMARK    3  A    between atoms: C5_15  and  O3_16 
REMARK    4  A    between atoms: O3_16  and  C6_17 
REMARK    5  A    between atoms: C6_17  and  C7_18 
REMARK    6  A    between atoms: C7_18  and  N5_19 
REMARK    7  A    between atoms: N5_19  and  N6_21 
REMARK       I    between atoms: N6_21  and  C8_23 
ROOT
HETATM    1  C1  UNL     1      -3.796  -1.514  -1.078  1.00  0.00     0.680 A 
HETATM    2  N2  UNL     1      -4.959  -1.052  -0.590  1.00  0.00    -0.154 N 
ATOM      3  H2  UNL     1      -5.833  -1.462  -0.919  1.00  0.00     0.187 HD
HETATM    4  C2  UNL     1      -5.002  -0.063   0.321  1.00  0.00     0.290 A 
HETATM    5  O1  UNL     1      -6.078   0.364   0.772  1.00  0.00    -0.265 OA
HETATM    6  C3  UNL     1      -3.815   0.510   0.782  1.00  0.00     0.151 A 
HETATM    7  N3  UNL     1      -3.519   1.474   1.650  1.00  0.00    -0.300 N 
ATOM      8  H3  UNL     1      -4.206   2.010   2.180  1.00  0.00     0.171 HD
HETATM    9  C4  UNL     1      -2.181   1.643   1.732  1.00  0.00     0.330 A 
HETATM   10  O2  UNL     1      -1.587   2.481   2.469  1.00  0.00    -0.246 OA
HETATM   11  N4  UNL     1      -1.660   0.749   0.882  1.00  0.00    -0.261 N 
HETATM   12  C9  UNL     1      -2.631   0.032   0.277  1.00  0.00     0.161 A 
HETATM   13  N9  UNL     1      -2.654  -0.960  -0.632  1.00  0.00    -0.174 N 
ATOM     14  H9  UNL     1      -1.768  -1.307  -0.999  1.00  0.00     0.186 HD
ENDROOT
BRANCH  11  15
HETATM   15  C5  UNL     1      -0.253   0.562   0.634  1.00  0.00     0.305 C 
BRANCH  15  16
HETATM   16  O3  UNL     1       0.108   1.401  -0.412  1.00  0.00    -0.366 OA
BRANCH  16  17
HETATM   17  C6  UNL     1       1.461   1.237  -0.668  1.00  0.00     0.216 C 
BRANCH  17  18
HETATM   18  C7  UNL     1       1.809  -0.150  -1.047  1.00  0.00     0.106 C 
BRANCH  18  19
HETATM   19  N5  UNL     1       3.044  -0.517  -1.000  1.00  0.00    -0.312 N 
ATOM     20  H5  UNL     1       3.273  -1.476  -1.263  1.00  0.00     0.185 HD
BRANCH  19  21
HETATM   21  N6  UNL     1       4.073   0.319  -0.613  1.00  0.00    -0.277 N 
HETATM   22  C8  UNL     1       5.192  -0.161  -0.176  1.00  0.00     0.215 C 
HETATM   23  N7  UNL     1       6.265   0.670   0.229  1.00  0.00    -0.065 NA
HETATM   24  N8  UNL     1       5.362  -1.564  -0.094  1.00  0.00    -0.065 NA
ATOM     25  H6  UNL     1       3.949   1.330  -0.673  1.00  0.00     0.189 HD
ENDBRANCH  19  21
ENDBRANCH  18  19
ENDBRANCH  17  18
ENDBRANCH  16  17
ENDBRANCH  15  16
ENDBRANCH  11  15
BRANCH   1  26
HETATM   26  N1  UNL     1      -3.800  -2.480  -1.964  1.00  0.00    -0.234 N 
ATOM     27  H12 UNL     1      -4.666  -2.900  -2.302  1.00  0.00     0.174 HD
ATOM     28  H11 UNL     1      -2.917  -2.831  -2.335  1.00  0.00     0.174 HD
ENDBRANCH   1  26
TORSDOF 7
