REMARK  8 active torsions:
REMARK  status: ('A' for Active; 'I' for Inactive)
REMARK    1  A    between atoms: C3_3  and  C4_4 
REMARK    2  A    between atoms: C4_4  and  N1_5 
REMARK    3  A    between atoms: N1_5  and  C5_6 
REMARK    4  A    between atoms: C5_6  and  N2_7 
REMARK       I    between atoms: N2_7  and  C6_9 
REMARK    5  A    between atoms: C6_9  and  C7_11 
REMARK    6  A    between atoms: C13_17  and  C14_18 
REMARK    7  A    between atoms: C15_19  and  C16_20 
REMARK    8  A    between atoms: C17_22  and  C18_23 
REMARK       I    between atoms: C18_23  and  N3_25 
ROOT
HETATM    1  C1  UNL     1       7.250   2.290  -2.111  1.00  0.00     0.112 C 
HETATM    2  C2  UNL     1       6.128   1.472  -1.651  1.00  0.00    -0.109 C 
HETATM    3  C3  UNL     1       5.199   0.767  -1.265  1.00  0.00    -0.079 C 
ENDROOT
BRANCH   3   4
HETATM    4  C4  UNL     1       4.104  -0.087  -0.827  1.00  0.00     0.337 C 
BRANCH   4   5
HETATM    5  N1  UNL     1       3.309   0.604   0.177  1.00  0.00    -0.023 N 
HETATM    6  C20 UNL     1       2.664  -0.393   0.963  1.00  0.00     0.246 C 
HETATM    7  C21 UNL     1       3.654  -0.748   2.075  1.00  0.00     0.030 C 
HETATM    8  C22 UNL     1       4.871   0.127   1.800  1.00  0.00     0.030 C 
HETATM    9  C23 UNL     1       4.184   1.294   1.129  1.00  0.00     0.246 C 
BRANCH   5  10
HETATM   10  C5  UNL     1       2.461   1.557  -0.482  1.00  0.00     0.297 C 
BRANCH  10  11
HETATM   11  N2  UNL     1       1.073   1.527  -0.213  1.00  0.00    -0.316 N 
HETATM   12  C6  UNL     1       0.135   0.544  -0.584  1.00  0.00     0.227 C 
HETATM   13  O1  UNL     1       0.492  -0.451  -1.247  1.00  0.00    -0.273 OA
ATOM     14  H2  UNL     1       0.705   2.317   0.317  1.00  0.00     0.169 HD
BRANCH  12  15
HETATM   15  C7  UNL     1      -1.301   0.635  -0.217  1.00  0.00     0.093 C 
HETATM   16  C8  UNL     1      -1.496   0.691   1.286  1.00  0.00     0.021 C 
HETATM   17  C9  UNL     1      -2.926   0.149   1.363  1.00  0.00     0.008 C 
HETATM   18  C10 UNL     1      -3.247  -0.408   2.722  1.00  0.00     0.006 C 
HETATM   19  C13 UNL     1      -2.841  -1.056   0.492  1.00  0.00     0.040 C 
HETATM   20  C11 UNL     1      -2.485  -1.695   2.786  1.00  0.00     0.002 C 
HETATM   21  C12 UNL     1      -2.138  -2.069   1.362  1.00  0.00     0.024 C 
HETATM   22  C17 UNL     1      -2.004  -0.616  -0.673  1.00  0.00     0.112 C 
BRANCH  19  23
HETATM   23  C14 UNL     1      -4.182  -1.506   0.120  1.00  0.00    -0.094 C 
HETATM   24  C15 UNL     1      -5.279  -1.869  -0.161  1.00  0.00    -0.095 C 
BRANCH  24  25
HETATM   25  C16 UNL     1      -6.652  -2.331  -0.486  1.00  0.00     0.178 C 
HETATM   26 BR1  UNL     1      -7.709  -0.758  -0.788  1.00  0.00    -0.083 Br
ENDBRANCH  24  25
ENDBRANCH  19  23
BRANCH  22  27
HETATM   27  C18 UNL     1      -2.810  -0.443  -1.895  1.00  0.00     0.224 C 
HETATM   28  O2  UNL     1      -2.549  -1.154  -2.926  1.00  0.00    -0.273 OA
HETATM   29  N3  UNL     1      -3.877   0.470  -2.022  1.00  0.00    -0.365 N 
HETATM   30  C19 UNL     1      -4.641   0.594  -3.258  1.00  0.00     0.149 C 
ATOM     31  H3  UNL     1      -4.121   1.060  -1.227  1.00  0.00     0.161 HD
ENDBRANCH  22  27
ENDBRANCH  12  15
ENDBRANCH  10  11
ENDBRANCH   5  10
ENDBRANCH   4   5
ENDBRANCH   3   4
TORSDOF 8
