REMARK  8 active torsions:
REMARK  status: ('A' for Active; 'I' for Inactive)
REMARK    1  A    between atoms: N1_2  and  C2_5 
REMARK    2  A    between atoms: C2_5  and  C3_6 
REMARK    3  A    between atoms: C3_6  and  C4_7 
REMARK    4  A    between atoms: C4_7  and  C5_8 
REMARK       I    between atoms: C5_8  and  N2_10 
REMARK    5  A    between atoms: N2_10  and  N3_12 
REMARK    6  A    between atoms: N4_15  and  C8_16 
REMARK    7  A    between atoms: C8_16  and  C9_17 
REMARK       I    between atoms: C9_17  and  N5_19 
REMARK    8  A    between atoms: N5_19  and  C10_21 
ROOT
HETATM    1  N3  UNL     1       1.123   0.327  -0.352  1.00  0.00     0.019 N 
HETATM    2  C6  UNL     1       1.674   0.940  -1.561  1.00  0.00     0.293 C 
HETATM    3  C7  UNL     1       3.164   0.729  -1.533  1.00  0.00     0.268 C 
HETATM    4  N4  UNL     1       3.613   0.651  -0.122  1.00  0.00    -0.054 N 
HETATM    5  C14 UNL     1       2.873   1.675   0.574  1.00  0.00     0.268 C 
HETATM    6  C15 UNL     1       1.439   1.125   0.775  1.00  0.00     0.293 C 
HETATM    7  C16 UNL     1       3.250  -0.660   0.312  1.00  0.00     0.268 C 
HETATM    8  C17 UNL     1       1.874  -0.953  -0.245  1.00  0.00     0.293 C 
ENDROOT
BRANCH   1   9
HETATM    9  N2  UNL     1      -0.212   0.029  -0.496  1.00  0.00    -0.185 N 
HETATM   10  C5  UNL     1      -1.366   0.570   0.049  1.00  0.00     0.241 C 
HETATM   11  O1  UNL     1      -1.427   1.520   0.852  1.00  0.00    -0.272 OA
ATOM     12  H2  UNL     1      -0.389  -0.748  -1.133  1.00  0.00     0.197 HD
BRANCH  10  13
HETATM   13  C4  UNL     1      -2.693  -0.049  -0.370  1.00  0.00     0.107 C 
BRANCH  13  14
HETATM   14  C3  UNL     1      -3.785   0.734   0.253  1.00  0.00     0.048 C 
BRANCH  14  15
HETATM   15  C2  UNL     1      -5.169   0.220  -0.085  1.00  0.00     0.126 C 
HETATM   16  C18 UNL     1      -5.378  -1.105   0.533  1.00  0.00     0.039 C 
HETATM   17  C19 UNL     1      -6.299  -1.097   1.743  1.00  0.00     0.002 C 
HETATM   18  C20 UNL     1      -7.747  -1.143   1.341  1.00  0.00     0.000 C 
HETATM   19  C21 UNL     1      -8.258   0.289   1.356  1.00  0.00     0.000 C 
HETATM   20  C22 UNL     1      -7.556   0.986   0.191  1.00  0.00     0.002 C 
HETATM   21  C23 UNL     1      -6.124   1.287   0.467  1.00  0.00     0.039 C 
BRANCH  15  22
HETATM   22  N1  UNL     1      -5.304   0.286  -1.522  1.00  0.00    -0.070 N 
HETATM   23  C1  UNL     1      -5.443  -1.013  -2.143  1.00  0.00     0.267 C 
ATOM     24  H12 UNL     1      -4.529   0.804  -1.935  1.00  0.00     0.277 HD
ATOM     25  H11 UNL     1      -6.076   0.898  -1.786  1.00  0.00     0.277 HD
ENDBRANCH  15  22
ENDBRANCH  14  15
ENDBRANCH  13  14
ENDBRANCH  10  13
ENDBRANCH   1   9
BRANCH   4  26
HETATM   26  C8  UNL     1       5.001   0.970  -0.123  1.00  0.00     0.340 C 
BRANCH  26  27
HETATM   27  C9  UNL     1       5.676   0.839   1.165  1.00  0.00     0.249 C 
HETATM   28  O2  UNL     1       5.099   0.461   2.206  1.00  0.00    -0.271 OA
HETATM   29  N5  UNL     1       7.058   1.147   1.290  1.00  0.00    -0.311 N 
ATOM     30  H5  UNL     1       7.332   2.016   1.749  1.00  0.00     0.170 HD
BRANCH  29  31
HETATM   31  C10 UNL     1       7.964   0.370   0.846  1.00  0.00     0.123 A 
HETATM   32  C11 UNL     1       9.337   0.648   0.953  1.00  0.00     0.068 A 
HETATM   33  C12 UNL     1       9.978  -0.412   0.366  1.00  0.00     0.113 A 
HETATM   34  N6  UNL     1       9.062  -1.265  -0.063  1.00  0.00    -0.306 N 
HETATM   35  C13 UNL     1       9.294  -2.536  -0.753  1.00  0.00     0.177 C 
HETATM   36  N7  UNL     1       7.871  -0.799   0.223  1.00  0.00    -0.284 N 
ATOM     37  H7  UNL     1       6.994  -1.269  -0.002  1.00  0.00     0.188 HD
ENDBRANCH  29  31
ENDBRANCH  26  27
ENDBRANCH   4  26
TORSDOF 8
