REMARK  2 active torsions:
REMARK  status: ('A' for Active; 'I' for Inactive)
REMARK    1  A    between atoms: C7_12  and  C8_13 
REMARK    2  A    between atoms: C14_21  and  N4_22 
ROOT
HETATM    1  C1  UNL     1       2.578  -0.290   1.911  1.00  0.00     0.158 C 
HETATM    2  N1  UNL     1       1.899  -0.478   0.681  1.00  0.00    -0.335 N 
HETATM    3  C2  UNL     1       1.984  -1.839   0.168  1.00  0.00     0.069 A 
HETATM    4  C3  UNL     1       3.072  -2.485   0.712  1.00  0.00     0.099 A 
HETATM    5  S1  UNL     1       3.034  -4.028   0.023  1.00  0.00    -0.024 SA
HETATM    6  N2  UNL     1       1.671  -3.840  -0.924  1.00  0.00    -0.326 N 
ATOM      7  H2  UNL     1       1.247  -4.534  -1.540  1.00  0.00     0.174 HD
HETATM    8  C4  UNL     1       1.258  -2.608  -0.709  1.00  0.00     0.072 A 
HETATM    9  C5  UNL     1      -0.027  -2.348  -1.560  1.00  0.00     0.201 C 
HETATM   10 CL1  UNL     1      -1.123  -3.664  -1.069  1.00  0.00    -0.106 Cl
HETATM   11  C6  UNL     1      -0.357  -1.052  -1.288  1.00  0.00    -0.146 C 
HETATM   12  C7  UNL     1      -0.989   0.205  -1.125  1.00  0.00     0.099 C 
HETATM   13  C12 UNL     1       0.137   1.047  -0.514  1.00  0.00     0.018 A 
HETATM   14  C13 UNL     1      -0.121   2.349  -0.811  1.00  0.00     0.118 A 
HETATM   15  N3  UNL     1       0.723   3.321  -0.382  1.00  0.00    -0.201 N 
ATOM     16  H3  UNL     1       0.529   4.297  -0.605  1.00  0.00     0.183 HD
HETATM   17  C14 UNL     1       1.822   3.001   0.341  1.00  0.00     0.677 A 
HETATM   18  N5  UNL     1       2.102   1.727   0.646  1.00  0.00    -0.176 N 
ATOM     19  H5  UNL     1       2.934   1.501   1.191  1.00  0.00     0.186 HD
HETATM   20  C15 UNL     1       1.280   0.750   0.230  1.00  0.00     0.132 A 
ENDROOT
BRANCH  12  21
HETATM   21  C8  UNL     1      -2.207   0.216  -0.220  1.00  0.00    -0.034 C 
HETATM   22  C9  UNL     1      -2.876   1.546  -0.060  1.00  0.00     0.016 C 
HETATM   23  C10 UNL     1      -3.220  -0.747  -0.804  1.00  0.00     0.016 C 
HETATM   24  C11 UNL     1      -1.898  -0.291   1.168  1.00  0.00     0.016 C 
ENDBRANCH  12  21
BRANCH  17  25
HETATM   25  N4  UNL     1       2.574   3.996   0.711  1.00  0.00    -0.234 N 
ATOM     26  H42 UNL     1       2.361   4.966   0.479  1.00  0.00     0.174 HD
ATOM     27  H41 UNL     1       3.402   3.755   1.256  1.00  0.00     0.174 HD
ENDBRANCH  17  25
TORSDOF 2
