REMARK  11 active torsions:
REMARK  status: ('A' for Active; 'I' for Inactive)
REMARK    1  A    between atoms: C2_2  and  C3_3 
REMARK    2  A    between atoms: C4_4  and  C5_5 
REMARK    3  A    between atoms: C12_12  and  O1_13 
REMARK    4  A    between atoms: C14_17  and  C15_18 
REMARK    5  A    between atoms: C16_19  and  C17_20 
REMARK    6  A    between atoms: C20_24  and  C21_25 
REMARK    7  A    between atoms: C21_25  and  C22_26 
REMARK    8  A    between atoms: C24_28  and  C26_30 
REMARK    9  A    between atoms: C26_30  and  C27_31 
REMARK   10  A    between atoms: C27_31  and  C28_32 
REMARK   11  A    between atoms: C32_36  and  O4_37 
ROOT
HETATM    1  C3  UNL     1       3.876   1.160  -2.005  1.00  0.00     0.030 A 
HETATM    2  C4  UNL     1       3.686   0.408  -0.837  1.00  0.00     0.079 A 
HETATM    3  O2  UNL     1       2.405   0.275  -0.709  1.00  0.00    -0.310 OA
HETATM    4  C14 UNL     1       1.734   0.840  -1.638  1.00  0.00     0.109 A 
HETATM    5  C32 UNL     1       2.629   1.435  -2.515  1.00  0.00     0.112 A 
ENDROOT
BRANCH   4   6
HETATM    6  C15 UNL     1       0.286   0.858  -1.757  1.00  0.00     0.040 C 
HETATM    7  C16 UNL     1      -0.502   0.260  -0.869  1.00  0.00     0.003 C 
BRANCH   7   8
HETATM    8  C17 UNL     1      -1.936   0.273  -0.977  1.00  0.00     0.006 C 
HETATM    9  C18 UNL     1      -2.659  -0.341  -0.057  1.00  0.00    -0.046 C 
HETATM   10  C19 UNL     1      -2.165  -1.080   1.133  1.00  0.00     0.203 C 
HETATM   11  C24 UNL     1      -4.131  -0.443   0.031  1.00  0.00     0.008 C 
HETATM   12  O3  UNL     1      -3.209  -1.810   1.616  1.00  0.00    -0.381 OA
HETATM   13  C20 UNL     1      -4.340  -1.647   0.893  1.00  0.00     0.134 C 
HETATM   14  C25 UNL     1      -4.644  -0.650  -1.383  1.00  0.00     0.023 C 
BRANCH  13  15
HETATM   15  C21 UNL     1      -4.739  -2.867   0.101  1.00  0.00     0.033 C 
BRANCH  15  16
HETATM   16  C22 UNL     1      -4.975  -4.013   1.044  1.00  0.00    -0.002 C 
HETATM   17  C23 UNL     1      -3.737  -4.363   1.808  1.00  0.00     0.005 C 
ENDBRANCH  15  16
ENDBRANCH  13  15
BRANCH  11  18
HETATM   18  C26 UNL     1      -4.692   0.835   0.624  1.00  0.00     0.020 C 
BRANCH  18  19
HETATM   19  C27 UNL     1      -6.190   0.830   0.749  1.00  0.00     0.028 C 
BRANCH  19  20
HETATM   20  C28 UNL     1      -6.560   2.168   1.340  1.00  0.00    -0.025 C 
HETATM   21  C29 UNL     1      -7.346   3.015   0.708  1.00  0.00    -0.091 C 
HETATM   22  C30 UNL     1      -7.682   4.317   1.327  1.00  0.00     0.042 C 
HETATM   23  C31 UNL     1      -7.877   2.633  -0.625  1.00  0.00     0.042 C 
ENDBRANCH  19  20
ENDBRANCH  18  19
ENDBRANCH  11  18
ENDBRANCH   7   8
ENDBRANCH   4   6
BRANCH   5  24
HETATM   24  O4  UNL     1       2.299   2.156  -3.667  1.00  0.00    -0.357 OA
ATOM     25  H4  UNL     1       1.437   2.346  -4.019  1.00  0.00     0.217 HD
ENDBRANCH   5  24
BRANCH   2  26
HETATM   26  C5  UNL     1       4.701  -0.120   0.058  1.00  0.00     0.026 C 
HETATM   27  C6  UNL     1       4.004  -1.018   1.096  1.00  0.00     0.027 C 
HETATM   28  C7  UNL     1       5.600  -1.046  -0.686  1.00  0.00    -0.014 C 
HETATM   29  C8  UNL     1       6.832  -1.269  -0.282  1.00  0.00    -0.018 C 
HETATM   30  C9  UNL     1       7.428  -0.646   0.913  1.00  0.00    -0.004 C 
HETATM   31  C10 UNL     1       7.948  -1.794   1.781  1.00  0.00     0.021 C 
HETATM   32  C11 UNL     1       8.591   0.208   0.453  1.00  0.00     0.021 C 
HETATM   33  C12 UNL     1       6.437   0.127   1.730  1.00  0.00     0.131 C 
HETATM   34  C13 UNL     1       5.458   0.896   0.864  1.00  0.00     0.052 C 
BRANCH  33  35
HETATM   35  O1  UNL     1       7.044   0.999   2.607  1.00  0.00    -0.394 OA
ATOM     36  H1  UNL     1       6.416   1.489   3.125  1.00  0.00     0.210 HD
ENDBRANCH  33  35
ENDBRANCH   2  26
BRANCH   1  37
HETATM   37  C2  UNL     1       5.128   1.570  -2.583  1.00  0.00     0.007 C 
HETATM   38  C1  UNL     1       5.323   2.298  -3.635  1.00  0.00     0.012 C 
ENDBRANCH   1  37
TORSDOF 11
