REMARK  7 active torsions:
REMARK  status: ('A' for Active; 'I' for Inactive)
REMARK    1  A    between atoms: N1_2  and  N2_4 
REMARK       I    between atoms: N2_4  and  C3_6 
REMARK    2  A    between atoms: C3_6  and  C4_8 
REMARK    3  A    between atoms: C12_16  and  C13_17 
REMARK    4  A    between atoms: C14_18  and  C15_19 
REMARK    5  A    between atoms: C15_19  and  N3_20 
REMARK    6  A    between atoms: C15_19  and  C16_24 
REMARK    7  A    between atoms: N5_26  and  O2_28 
ROOT
HETATM    1  C4  UNL     1       0.645  -0.436  -0.538  1.00  0.00     0.096 C 
HETATM    2  C5  UNL     1       1.410  -1.675  -0.944  1.00  0.00     0.000 C 
HETATM    3  C6  UNL     1       0.499  -2.680  -1.577  1.00  0.00     0.010 C 
HETATM    4  C7  UNL     1      -0.546  -3.167  -0.588  1.00  0.00    -0.013 C 
HETATM    5  C8  UNL     1       0.077  -3.796   0.600  1.00  0.00     0.009 C 
HETATM    6  C9  UNL     1       0.998  -2.760   1.209  1.00  0.00    -0.013 C 
HETATM    7  C10 UNL     1       2.081  -2.331   0.232  1.00  0.00     0.010 C 
HETATM    8  C11 UNL     1       0.203  -1.596   1.620  1.00  0.00     0.019 C 
HETATM    9  C12 UNL     1      -0.464  -0.841   0.401  1.00  0.00    -0.010 C 
HETATM   10  C17 UNL     1      -1.325  -1.876  -0.259  1.00  0.00     0.019 C 
ENDROOT
BRANCH   9  11
HETATM   11  C13 UNL     1      -1.225   0.210   1.072  1.00  0.00    -0.018 C 
HETATM   12  C14 UNL     1      -2.012   1.296   0.561  1.00  0.00     0.010 C 
BRANCH  12  13
HETATM   13  C15 UNL     1      -3.275   1.155  -0.208  1.00  0.00     0.272 C 
BRANCH  13  14
HETATM   14  N3  UNL     1      -3.313   0.514  -1.447  1.00  0.00    -0.065 N 
ATOM     15  H33 UNL     1      -2.627   0.965  -2.053  1.00  0.00     0.275 HD
ATOM     16  H32 UNL     1      -2.913  -0.417  -1.329  1.00  0.00     0.275 HD
ATOM     17  H31 UNL     1      -4.180   0.417  -1.975  1.00  0.00     0.275 HD
ENDBRANCH  13  14
BRANCH  13  18
HETATM   18  C16 UNL     1      -3.908   2.529  -0.428  1.00  0.00     0.147 C 
HETATM   19  N4  UNL     1      -3.139   3.473  -1.184  1.00  0.00    -0.083 NA
HETATM   20  N5  UNL     1      -5.050   2.822   0.036  1.00  0.00    -0.257 N 
ATOM     21  H5  UNL     1      -5.555   2.116   0.572  1.00  0.00     0.195 HD
BRANCH  20  22
HETATM   22  O2  UNL     1      -5.632   4.039  -0.150  1.00  0.00    -0.289 OA
ATOM     23  H2  UNL     1      -6.488   4.259   0.198  1.00  0.00     0.244 HD
ENDBRANCH  20  22
ENDBRANCH  13  18
ENDBRANCH  12  13
ENDBRANCH   9  11
BRANCH   1  24
HETATM   24  C3  UNL     1       1.587   0.561   0.029  1.00  0.00     0.241 C 
HETATM   25  N2  UNL     1       2.937   0.722  -0.383  1.00  0.00    -0.273 N 
ATOM     26  H2  UNL     1       3.255   0.093  -1.120  1.00  0.00     0.189 HD
HETATM   27  O1  UNL     1       1.203   1.331   0.931  1.00  0.00    -0.271 OA
BRANCH  25  28
HETATM   28  N1  UNL     1       3.854   1.602   0.077  1.00  0.00    -0.334 N 
HETATM   29  C1  UNL     1       4.552   2.426  -0.828  1.00  0.00     0.170 C 
HETATM   30  C2  UNL     1       4.003   1.845   1.448  1.00  0.00     0.170 C 
ENDBRANCH  25  28
ENDBRANCH   1  24
TORSDOF 7
