REMARK  4 active torsions:
REMARK  status: ('A' for Active; 'I' for Inactive)
REMARK       I    between atoms: C1_4  and  N3_6 
REMARK    1  A    between atoms: N3_6  and  N4_8 
REMARK    2  A    between atoms: N4_8  and  C2_9 
REMARK    3  A    between atoms: C2_9  and  C3_10 
REMARK    4  A    between atoms: C3_10  and  N5_11 
ROOT
HETATM    1  C2  UNL     1      -0.122   0.301   0.145  1.00  0.00     0.157 C 
ENDROOT
BRANCH   1   2
HETATM    2  N4  UNL     1       1.120   1.022   0.014  1.00  0.00    -0.137 NA
BRANCH   2   3
HETATM    3  N3  UNL     1       2.150   0.051   0.134  1.00  0.00    -0.278 N 
HETATM    4  C1  UNL     1       3.097  -0.128  -0.913  1.00  0.00     0.197 C 
HETATM    5  N1  UNL     1       3.193   0.789  -1.806  1.00  0.00    -0.373 N 
HETATM    6  N2  UNL     1       3.910  -1.263  -0.985  1.00  0.00    -0.063 NA
ATOM      7  H12 UNL     1       3.872   0.661  -2.556  1.00  0.00     0.158 HD
ATOM      8  H11 UNL     1       2.600   1.617  -1.753  1.00  0.00     0.158 HD
ATOM      9  H3  UNL     1       2.211  -0.522   0.976  1.00  0.00     0.185 HD
ENDBRANCH   2   3
ENDBRANCH   1   2
BRANCH   1  10
HETATM   10  C3  UNL     1      -1.337   1.176   0.043  1.00  0.00     0.167 C 
BRANCH  10  11
HETATM   11  N5  UNL     1      -2.501   0.324   0.192  1.00  0.00    -0.286 N 
HETATM   12  C4  UNL     1      -3.120   0.011   1.331  1.00  0.00     0.201 A 
HETATM   13  N6  UNL     1      -4.157  -0.802   1.052  1.00  0.00    -0.346 N 
HETATM   14  C5  UNL     1      -4.182  -0.996  -0.279  1.00  0.00     0.198 A 
ATOM     15  H6  UNL     1      -4.808  -1.200   1.729  1.00  0.00     0.167 HD
HETATM   16  N7  UNL     1      -3.151  -0.289  -0.773  1.00  0.00    -0.293 N 
ATOM     17  H7  UNL     1      -2.906  -0.235  -1.762  1.00  0.00     0.188 HD
ENDBRANCH  10  11
ENDBRANCH   1  10
TORSDOF 4
