REMARK  5 active torsions:
REMARK  status: ('A' for Active; 'I' for Inactive)
REMARK    1  A    between atoms: C2_2  and  S1_4 
REMARK    2  A    between atoms: S1_4  and  C4_5 
REMARK    3  A    between atoms: C4_5  and  N2_9 
REMARK    4  A    between atoms: N2_9  and  C5_11 
REMARK    5  A    between atoms: C5_11  and  C6_12 
ROOT
HETATM    1  N2  UNL     1      -0.858   1.153  -0.482  1.00  0.00    -0.370 N 
ATOM      2  H2  UNL     1      -0.546   1.520  -1.381  1.00  0.00     0.161 HD
ENDROOT
BRANCH   1   3
HETATM    3  C4  UNL     1      -2.259   1.098  -0.133  1.00  0.00     0.138 C 
HETATM    4  N1  UNL     1      -2.736   2.172   0.326  1.00  0.00    -0.380 N 
ATOM      5  H12 UNL     1      -3.725   2.133   0.572  1.00  0.00     0.158 HD
ATOM      6  H11 UNL     1      -2.225   3.051   0.404  1.00  0.00     0.158 HD
BRANCH   3   7
HETATM    7  S1  UNL     1      -3.127  -0.395  -0.266  1.00  0.00    -0.061 SA
BRANCH   7   8
HETATM    8  C2  UNL     1      -4.874  -0.258  -0.219  1.00  0.00    -0.027 C 
HETATM    9  C1  UNL     1      -5.590   0.809  -0.454  1.00  0.00     0.026 C 
HETATM   10  C3  UNL     1      -5.629  -1.551   0.082  1.00  0.00     0.055 C 
ENDBRANCH   7   8
ENDBRANCH   3   7
ENDBRANCH   1   3
BRANCH   1  11
HETATM   11  C5  UNL     1       0.071   0.670   0.491  1.00  0.00     0.126 C 
BRANCH  11  12
HETATM   12  C6  UNL     1       1.519   0.880   0.132  1.00  0.00     0.003 C 
HETATM   13  C7  UNL     1       1.905   0.209  -1.136  1.00  0.00     0.006 C 
HETATM   14  C8  UNL     1       2.362  -1.204  -1.022  1.00  0.00     0.000 C 
HETATM   15  C9  UNL     1       3.820  -1.365  -0.660  1.00  0.00     0.000 C 
HETATM   16  C10 UNL     1       4.113  -1.044   0.790  1.00  0.00     0.000 C 
HETATM   17  C11 UNL     1       3.784   0.427   1.018  1.00  0.00     0.000 C 
HETATM   18  C12 UNL     1       2.333   0.500   1.339  1.00  0.00     0.006 C 
ENDBRANCH  11  12
ENDBRANCH   1  11
TORSDOF 5
