REMARK  2 active torsions:
REMARK  status: ('A' for Active; 'I' for Inactive)
REMARK    1  A    between atoms: C2_2  and  N1_4 
REMARK    2  A    between atoms: N1_4  and  C4_7 
ROOT
HETATM    1  C4  UNL     1       0.965   0.046   0.564  1.00  0.00     0.191 C 
HETATM    2  C5  UNL     1       0.482   1.350   0.117  1.00  0.00     0.034 C 
HETATM    3  C6  UNL     1      -0.848   1.817   0.554  1.00  0.00     0.011 C 
HETATM    4  C7  UNL     1      -2.015   0.941   0.226  1.00  0.00    -0.043 C 
HETATM    5  C8  UNL     1      -2.415   1.176  -1.227  1.00  0.00     0.015 C 
HETATM    6  C9  UNL     1      -3.161   1.570   1.047  1.00  0.00     0.015 C 
HETATM    7  C10 UNL     1      -1.953  -0.448   0.639  1.00  0.00     0.002 C 
HETATM    8  C11 UNL     1      -1.086  -0.576   1.897  1.00  0.00     0.013 C 
HETATM    9  C12 UNL     1       0.019  -0.996   0.965  1.00  0.00     0.025 C 
HETATM   10  C13 UNL     1      -1.040  -1.399   0.005  1.00  0.00    -0.038 C 
HETATM   11  C14 UNL     1      -1.465  -2.837   0.388  1.00  0.00     0.015 C 
HETATM   12  C15 UNL     1      -0.764  -1.403  -1.433  1.00  0.00     0.015 C 
ENDROOT
BRANCH   1  13
HETATM   13  N1  UNL     1       1.789  -0.537  -0.512  1.00  0.00    -0.067 N 
ATOM     14  H12 UNL     1       1.256  -0.704  -1.366  1.00  0.00     0.278 HD
ATOM     15  H11 UNL     1       2.055  -1.503  -0.321  1.00  0.00     0.278 HD
BRANCH  13  16
HETATM   16  C2  UNL     1       2.929   0.317  -0.730  1.00  0.00     0.178 C 
HETATM   17  C1  UNL     1       3.853   0.436   0.438  1.00  0.00     0.039 C 
HETATM   18  C3  UNL     1       3.690  -0.118  -1.986  1.00  0.00     0.039 C 
ENDBRANCH  13  16
ENDBRANCH   1  13
TORSDOF 2
