REMARK  7 active torsions:
REMARK  status: ('A' for Active; 'I' for Inactive)
REMARK    1  A    between atoms: N1_1  and  C1_4 
REMARK    2  A    between atoms: C2_7  and  N3_8 
REMARK    3  A    between atoms: N3_8  and  N4_10 
REMARK    4  A    between atoms: C3_13  and  N5_14 
REMARK    5  A    between atoms: C4_16  and  S1_17 
REMARK    6  A    between atoms: S1_17  and  C5_18 
REMARK    7  A    between atoms: C5_18  and  C6_19 
ROOT
HETATM    1  C1  UNL     1      -3.189   1.838   0.249  1.00  0.00     0.680 A 
HETATM    2  N2  UNL     1      -3.335   0.504   0.271  1.00  0.00    -0.173 N 
ATOM      3  H2  UNL     1      -4.264   0.082   0.270  1.00  0.00     0.186 HD
HETATM    4  C2  UNL     1      -2.222  -0.272   0.295  1.00  0.00     0.167 A 
HETATM    5  C3  UNL     1      -0.944   0.282   0.295  1.00  0.00     0.148 A 
HETATM    6  C7  UNL     1      -0.842   1.641   0.272  1.00  0.00     0.290 A 
HETATM    7  O1  UNL     1       0.286   2.164   0.272  1.00  0.00    -0.265 OA
HETATM    8  N10 UNL     1      -1.966   2.391   0.249  1.00  0.00    -0.154 N 
ATOM      9  H10 UNL     1      -1.882   3.407   0.231  1.00  0.00     0.187 HD
ENDROOT
BRANCH   5  10
HETATM   10  N5  UNL     1       0.140  -0.614   0.319  1.00  0.00    -0.353 N 
HETATM   11  C4  UNL     1       0.632  -1.198  -0.700  1.00  0.00     0.134 C 
ATOM     12  H5  UNL     1       0.566  -0.812   1.225  1.00  0.00     0.166 HD
BRANCH  11  13
HETATM   13  S1  UNL     1       1.988  -2.319  -0.669  1.00  0.00    -0.117 SA
BRANCH  13  14
HETATM   14  C5  UNL     1       3.498  -1.640  -1.406  1.00  0.00     0.159 C 
BRANCH  14  15
HETATM   15  C6  UNL     1       4.059  -0.513  -0.628  1.00  0.00     0.122 A 
HETATM   16  N6  UNL     1       3.849   0.808  -0.700  1.00  0.00    -0.272 N 
HETATM   17  N7  UNL     1       4.589   1.400   0.215  1.00  0.00    -0.227 N 
ATOM     18  H6  UNL     1       3.222   1.277  -1.353  1.00  0.00     0.190 HD
HETATM   19  N8  UNL     1       5.281   0.500   0.887  1.00  0.00    -0.227 N 
ATOM     20  H7  UNL     1       4.622   2.406   0.380  1.00  0.00     0.210 HD
HETATM   21  N9  UNL     1       4.964  -0.667   0.381  1.00  0.00    -0.272 N 
ATOM     22  H8  UNL     1       5.934   0.677   1.650  1.00  0.00     0.210 HD
ATOM     23  H9  UNL     1       5.340  -1.561   0.696  1.00  0.00     0.190 HD
ENDBRANCH  14  15
ENDBRANCH  13  14
ENDBRANCH  11  13
ENDBRANCH   5  10
BRANCH   4  24
HETATM   24  N3  UNL     1      -2.378  -1.685   0.319  1.00  0.00    -0.290 N 
ATOM     25  H3  UNL     1      -1.552  -2.283   0.337  1.00  0.00     0.188 HD
BRANCH  24  26
HETATM   26  N4  UNL     1      -3.649  -2.265   0.318  1.00  0.00    -0.344 N 
ATOM     27  H42 UNL     1      -4.465  -1.653   0.300  1.00  0.00     0.176 HD
ATOM     28  H41 UNL     1      -3.761  -3.279   0.335  1.00  0.00     0.176 HD
ENDBRANCH  24  26
ENDBRANCH   4  24
BRANCH   1  29
HETATM   29  N1  UNL     1      -4.207   2.626   0.226  1.00  0.00    -0.234 N 
ATOM     30  H12 UNL     1      -5.136   2.206   0.226  1.00  0.00     0.174 HD
ATOM     31  H11 UNL     1      -4.096   3.640   0.209  1.00  0.00     0.174 HD
ENDBRANCH   1  29
TORSDOF 7
