REMARK  8 active torsions:
REMARK  status: ('A' for Active; 'I' for Inactive)
REMARK    1  A    between atoms: C7_16  and  S1_17 
REMARK    2  A    between atoms: S1_17  and  S2_18 
REMARK    3  A    between atoms: S2_18  and  N5_19 
REMARK    4  A    between atoms: N5_19  and  N6_20 
REMARK    5  A    between atoms: N5_19  and  C8_23 
REMARK    6  A    between atoms: C8_23  and  C10_25 
REMARK    7  A    between atoms: C10_25  and  O2_26 
REMARK    8  A    between atoms: C10_25  and  O3_28 
ROOT
HETATM    1  C1  UNL     1      -2.968  -0.933   3.121  1.00  0.00     0.038 C 
HETATM    2  C2  UNL     1      -2.041  -0.749   1.977  1.00  0.00     0.001 C 
HETATM    3  C3  UNL     1      -2.504  -0.548   0.754  1.00  0.00     0.064 C 
HETATM    4  N1  UNL     1      -3.906  -0.512   0.560  1.00  0.00    -0.191 N 
ATOM      5  H1  UNL     1      -4.454  -0.902   1.327  1.00  0.00     0.184 HD
HETATM    6  C4  UNL     1      -4.682  -0.015  -0.543  1.00  0.00     0.679 C 
HETATM    7  N2  UNL     1      -5.927  -0.268  -0.530  1.00  0.00    -0.234 N 
ATOM      8  H21 UNL     1      -6.478   0.085  -1.313  1.00  0.00     0.174 HD
ATOM      9  H22 UNL     1      -6.276  -0.805   0.263  1.00  0.00     0.174 HD
HETATM   10  N3  UNL     1      -4.195   0.734  -1.649  1.00  0.00    -0.155 N 
ATOM     11  H3  UNL     1      -4.892   1.145  -2.269  1.00  0.00     0.187 HD
HETATM   12  C5  UNL     1      -2.832   0.965  -1.974  1.00  0.00     0.285 C 
HETATM   13  O1  UNL     1      -2.612   1.888  -2.816  1.00  0.00    -0.266 OA
HETATM   14  C6  UNL     1      -1.626   0.257  -1.446  1.00  0.00     0.134 C 
HETATM   15  N4  UNL     1      -0.549   0.306  -2.365  1.00  0.00    -0.095 NA
HETATM   16  C7  UNL     1      -1.478  -0.376  -0.309  1.00  0.00     0.069 C 
ENDROOT
BRANCH  16  17
HETATM   17  S1  UNL     1       0.077  -1.122   0.029  1.00  0.00    -0.035 SA
BRANCH  17  18
HETATM   18  S2  UNL     1       1.629  -0.728  -1.295  1.00  0.00     0.017 SA
BRANCH  18  19
HETATM   19  N5  UNL     1       2.580   0.688  -0.857  1.00  0.00    -0.157 NA
BRANCH  19  20
HETATM   20  N6  UNL     1       3.556   0.930  -1.823  1.00  0.00    -0.353 NA
ATOM     21  H62 UNL     1       3.184   1.015  -2.769  1.00  0.00     0.172 HD
ATOM     22  H61 UNL     1       4.107   1.750  -1.569  1.00  0.00     0.172 HD
ENDBRANCH  19  20
BRANCH  19  23
HETATM   23  C8  UNL     1       3.101   0.569   0.469  1.00  0.00     0.143 C 
HETATM   24  C9  UNL     1       3.907   1.796   0.850  1.00  0.00     0.034 C 
BRANCH  23  25
HETATM   25  C10 UNL     1       3.929  -0.694   0.668  1.00  0.00     0.273 C 
BRANCH  25  26
HETATM   26  O2  UNL     1       3.182  -1.836   0.438  1.00  0.00    -0.370 OA
ATOM     27  H2  UNL     1       3.698  -2.624   0.562  1.00  0.00     0.212 HD
ENDBRANCH  25  26
BRANCH  25  28
HETATM   28  O3  UNL     1       5.008  -0.611  -0.223  1.00  0.00    -0.370 OA
ATOM     29  H3  UNL     1       5.524  -1.399  -0.099  1.00  0.00     0.212 HD
ENDBRANCH  25  28
ENDBRANCH  23  25
ENDBRANCH  19  23
ENDBRANCH  18  19
ENDBRANCH  17  18
ENDBRANCH  16  17
TORSDOF 8
