REMARK  2 active torsions:
REMARK  status: ('A' for Active; 'I' for Inactive)
REMARK    1  A    between atoms: C12_15  and  O3_17 
REMARK    2  A    between atoms: N1_23  and  O4_25 
ROOT
HETATM    1  C1  UNL     1      -5.305  -1.498   0.165  1.00  0.00     0.065 C 
HETATM    2  C2  UNL     1      -4.183  -1.506  -0.777  1.00  0.00     0.043 C 
HETATM    3 CL1  UNL     1      -4.536  -2.001  -2.448  1.00  0.00    -0.086 Cl
HETATM    4  C3  UNL     1      -2.962  -1.191  -0.491  1.00  0.00     0.115 C 
HETATM    5  O1  UNL     1      -1.914  -1.216  -1.451  1.00  0.00    -0.341 OA
HETATM    6  C4  UNL     1      -0.938  -0.191  -1.506  1.00  0.00     0.138 C 
HETATM    7  C5  UNL     1      -1.623   1.037  -2.112  1.00  0.00     0.041 C 
HETATM    8  C6  UNL     1      -0.287   0.117  -0.191  1.00  0.00     0.018 C 
HETATM    9  C7  UNL     1      -0.160   1.618  -0.100  1.00  0.00     0.023 C 
HETATM   10  C8  UNL     1      -1.026  -0.454   0.960  1.00  0.00    -0.019 C 
HETATM   11  C9  UNL     1      -0.382  -0.675   2.079  1.00  0.00    -0.014 C 
HETATM   12  C10 UNL     1       1.052  -0.403   2.324  1.00  0.00     0.060 C 
HETATM   13  C11 UNL     1       1.854  -0.281   1.065  1.00  0.00     0.134 C 
HETATM   14  O2  UNL     1       2.474   0.959   0.917  1.00  0.00    -0.350 OA
HETATM   15  C12 UNL     1       3.603   0.758   0.127  1.00  0.00     0.158 C 
HETATM   16  C13 UNL     1       4.175   2.051  -0.404  1.00  0.00     0.078 C 
HETATM   17  C14 UNL     1       3.348  -0.230  -0.974  1.00  0.00     0.068 C 
HETATM   18  C15 UNL     1       1.888  -0.287  -1.392  1.00  0.00     0.013 C 
HETATM   19  C16 UNL     1       1.070  -0.555  -0.174  1.00  0.00     0.030 C 
HETATM   20  C17 UNL     1      -2.468  -0.767   0.841  1.00  0.00     0.095 C 
HETATM   21  N1  UNL     1      -3.281  -0.685   1.789  1.00  0.00    -0.266 N 
ATOM     22  H1  UNL     1      -4.242  -0.928   1.548  1.00  0.00     0.194 HD
ENDROOT
BRANCH  21  23
HETATM   23  O4  UNL     1      -3.098  -0.331   3.067  1.00  0.00    -0.289 OA
ATOM     24  H4  UNL     1      -3.715  -0.269   3.787  1.00  0.00     0.244 HD
ENDBRANCH  21  23
BRANCH  15  25
HETATM   25  O3  UNL     1       4.567   0.173   0.983  1.00  0.00    -0.366 OA
ATOM     26  H3  UNL     1       5.337   0.036   0.444  1.00  0.00     0.213 HD
ENDBRANCH  15  25
TORSDOF 2
