REMARK  1 active torsions:
REMARK  status: ('A' for Active; 'I' for Inactive)
REMARK    1  A    between atoms: N1_1  and  C1_4 
ROOT
HETATM    1  C1  UNL     1       3.110   0.081  -0.166  1.00  0.00     0.681 A 
HETATM    2  N2  UNL     1       2.564   1.162  -0.720  1.00  0.00    -0.141 N 
ATOM      3  H2  UNL     1       3.172   1.875  -1.124  1.00  0.00     0.189 HD
HETATM    4  C2  UNL     1       1.243   1.336  -0.760  1.00  0.00     0.348 A 
HETATM    5  O1  UNL     1       0.714   2.366  -1.286  1.00  0.00    -0.245 OA
HETATM    6  N3  UNL     1       0.414   0.419  -0.239  1.00  0.00    -0.231 N 
HETATM    7  C3  UNL     1       0.959  -0.672   0.319  1.00  0.00     0.149 A 
HETATM    8  C4  UNL     1      -0.048  -1.484   0.791  1.00  0.00     0.147 A 
HETATM    9  N4  UNL     1      -1.197  -0.851   0.500  1.00  0.00    -0.315 N 
HETATM   10  C5  UNL     1      -2.490  -1.166   0.719  1.00  0.00     0.102 A 
HETATM   11  C6  UNL     1      -3.548  -0.375   0.340  1.00  0.00     0.072 A 
HETATM   12  C7  UNL     1      -3.239   0.813  -0.304  1.00  0.00     0.176 A 
HETATM   13  O2  UNL     1      -4.202   1.566  -0.666  1.00  0.00    -0.288 OA
HETATM   14  C8  UNL     1      -1.928   1.168  -0.544  1.00  0.00     0.104 A 
HETATM   15  C9  UNL     1      -0.929   0.320  -0.133  1.00  0.00     0.127 A 
HETATM   16  N5  UNL     1       2.296  -0.833   0.352  1.00  0.00    -0.175 N 
ATOM     17  H5  UNL     1       2.690  -1.670   0.782  1.00  0.00     0.186 HD
ENDROOT
BRANCH   1  18
HETATM   18  N1  UNL     1       4.396  -0.059  -0.144  1.00  0.00    -0.234 N 
ATOM     19  H12 UNL     1       5.021   0.642  -0.542  1.00  0.00     0.174 HD
ATOM     20  H11 UNL     1       4.814  -0.887   0.280  1.00  0.00     0.174 HD
ENDBRANCH   1  18
TORSDOF 1
