REMARK  1 active torsions:
REMARK  status: ('A' for Active; 'I' for Inactive)
REMARK    1  A    between atoms: C4_7  and  N3_8 
ROOT
HETATM    1  N1  UNL     1      -3.573  -0.857   0.072  1.00  0.00    -0.100 NA
HETATM    2  C1  UNL     1      -2.560   0.137   0.007  1.00  0.00     0.075 A 
HETATM    3  C2  UNL     1      -2.864   1.480  -0.082  1.00  0.00     0.045 A 
HETATM    4  C3  UNL     1      -1.808   2.360  -0.139  1.00  0.00     0.091 A 
HETATM    5  N2  UNL     1      -0.522   2.001  -0.114  1.00  0.00    -0.350 N 
ATOM      6  H2  UNL     1       0.217   2.703  -0.160  1.00  0.00     0.166 HD
HETATM    7  C4  UNL     1      -0.222   0.686  -0.026  1.00  0.00     0.142 A 
HETATM    8  C9  UNL     1      -1.227  -0.239   0.034  1.00  0.00     0.115 A 
HETATM    9  N5  UNL     1      -0.914  -1.638   0.127  1.00  0.00    -0.096 NA
ENDROOT
BRANCH   7  10
HETATM   10  N3  UNL     1       1.142   0.237   0.006  1.00  0.00    -0.258 N 
HETATM   11  C5  UNL     1       1.608  -0.563   0.987  1.00  0.00     0.109 A 
HETATM   12  C6  UNL     1       2.925  -0.995   1.013  1.00  0.00     0.092 A 
HETATM   13  C7  UNL     1       3.731  -0.558  -0.023  1.00  0.00     0.250 A 
HETATM   14  O1  UNL     1       4.925  -0.904  -0.067  1.00  0.00    -0.268 OA
HETATM   15  N4  UNL     1       3.249   0.241  -0.995  1.00  0.00    -0.275 N 
HETATM   16  C8  UNL     1       1.950   0.644  -0.988  1.00  0.00     0.335 A 
ATOM     17  H4  UNL     1       3.867   0.548  -1.746  1.00  0.00     0.173 HD
HETATM   18  O2  UNL     1       1.544   1.386  -1.911  1.00  0.00    -0.246 OA
ENDBRANCH   7  10
TORSDOF 1
