REMARK  3 active torsions:
REMARK  status: ('A' for Active; 'I' for Inactive)
REMARK    1  A    between atoms: C1_2  and  O2_4 
REMARK    2  A    between atoms: O2_4  and  C2_5 
REMARK       I    between atoms: C2_5  and  N2_7 
REMARK    3  A    between atoms: N2_7  and  N3_9 
ROOT
HETATM    1  N3  UNL     1      -1.102   0.127  -0.319  1.00  0.00    -0.189 N 
HETATM    2  C3  UNL     1      -1.851   0.869  -1.194  1.00  0.00     0.270 A 
HETATM    3  O4  UNL     1      -1.291   1.804  -1.841  1.00  0.00    -0.266 OA
HETATM    4  C4  UNL     1      -3.181   0.646  -1.400  1.00  0.00     0.093 A 
HETATM    5  C5  UNL     1      -3.799  -0.352  -0.715  1.00  0.00     0.096 A 
HETATM    6  N4  UNL     1      -3.049  -1.067   0.136  1.00  0.00    -0.341 N 
ATOM      7  H4  UNL     1      -3.495  -1.820   0.659  1.00  0.00     0.167 HD
HETATM    8  C6  UNL     1      -1.724  -0.838   0.336  1.00  0.00     0.200 A 
HETATM    9  S1  UNL     1      -0.986  -1.799   1.398  1.00  0.00    -0.038 SA
ENDROOT
BRANCH   1  10
HETATM   10  N2  UNL     1       0.210   0.462  -0.216  1.00  0.00    -0.233 N 
HETATM   11  C2  UNL     1       1.314   0.011   0.511  1.00  0.00     0.388 C 
HETATM   12  O3  UNL     1       1.426  -0.893   1.334  1.00  0.00    -0.236 OA
ATOM     13  H2  UNL     1       0.451   1.243  -0.826  1.00  0.00     0.193 HD
BRANCH  11  14
HETATM   14  O2  UNL     1       2.559   0.694   0.290  1.00  0.00    -0.210 OA
BRANCH  14  15
HETATM   15  C1  UNL     1       3.715   0.316   0.969  1.00  0.00     0.381 C 
HETATM   16  N1  UNL     1       4.952   0.990   0.754  1.00  0.00    -0.032 NA
HETATM   17  O1  UNL     1       3.661  -0.640   1.788  1.00  0.00    -0.242 OA
ENDBRANCH  14  15
ENDBRANCH  11  14
ENDBRANCH   1  10
TORSDOF 3
