REMARK  5 active torsions:
REMARK  status: ('A' for Active; 'I' for Inactive)
REMARK    1  A    between atoms: C2_2  and  C3_4 
REMARK    2  A    between atoms: C4_5  and  C5_6 
REMARK    3  A    between atoms: C5_6  and  C6_7 
REMARK    4  A    between atoms: C6_7  and  C7_8 
REMARK    5  A    between atoms: C13_14  and  O2_15 
ROOT
HETATM    1  C5  UNL     1      -0.354   0.105  -0.240  1.00  0.00     0.047 C 
HETATM    2  C11 UNL     1       0.541   0.093  -1.458  1.00  0.00     0.025 C 
HETATM    3  C12 UNL     1       1.611  -0.918  -1.464  1.00  0.00     0.044 C 
HETATM    4  C13 UNL     1       2.899  -0.528  -0.837  1.00  0.00     0.083 C 
HETATM    5  C14 UNL     1       3.786  -1.733  -0.597  1.00  0.00     0.043 C 
HETATM    6  C15 UNL     1       4.866  -1.136   0.289  1.00  0.00     0.008 C 
HETATM    7  C16 UNL     1       4.223   0.048   0.993  1.00  0.00     0.039 C 
HETATM    8  C17 UNL     1       2.825   0.035   0.510  1.00  0.00    -0.025 C 
HETATM    9  C18 UNL     1       1.833   0.471   1.253  1.00  0.00     0.063 C 
HETATM   10 BR1  UNL     1       2.278   1.131   3.006  1.00  0.00    -0.047 Br
HETATM   11  C19 UNL     1       0.407   0.538   0.958  1.00  0.00     0.179 C 
HETATM   12  O3  UNL     1      -0.333   1.047   1.857  1.00  0.00    -0.291 OA
ENDROOT
BRANCH   1  13
HETATM   13  C4  UNL     1      -1.438   1.077  -0.567  1.00  0.00    -0.005 C 
HETATM   14  C3  UNL     1      -1.356   2.359  -0.334  1.00  0.00     0.047 C 
BRANCH  14  15
HETATM   15  C2  UNL     1      -2.460   3.230  -0.685  1.00  0.00     0.145 C 
HETATM   16  C1  UNL     1      -2.348   4.679  -0.412  1.00  0.00     0.096 C 
HETATM   17  O1  UNL     1      -3.522   2.816  -1.216  1.00  0.00    -0.294 OA
ENDBRANCH  14  15
ENDBRANCH   1  13
BRANCH   1  18
HETATM   18  C6  UNL     1      -0.997  -1.248  -0.037  1.00  0.00     0.049 C 
BRANCH  18  19
HETATM   19  C7  UNL     1      -1.997  -1.276   1.055  1.00  0.00    -0.023 C 
HETATM   20  C8  UNL     1      -3.263  -1.622   0.902  1.00  0.00    -0.091 C 
HETATM   21  C9  UNL     1      -3.785  -2.022  -0.427  1.00  0.00     0.042 C 
HETATM   22  C10 UNL     1      -4.199  -1.621   2.054  1.00  0.00     0.042 C 
ENDBRANCH  18  19
ENDBRANCH   1  18
BRANCH   4  23
HETATM   23  O2  UNL     1       3.626   0.352  -1.664  1.00  0.00    -0.385 OA
ATOM     24  H2  UNL     1       4.450   0.602  -1.263  1.00  0.00     0.211 HD
ENDBRANCH   4  23
TORSDOF 5
