REMARK  13 active torsions:
REMARK  status: ('A' for Active; 'I' for Inactive)
REMARK    1  A    between atoms: N1_1  and  C1_4 
REMARK    2  A    between atoms: C6_15  and  N6_16 
REMARK    3  A    between atoms: N6_16  and  C7_18 
REMARK    4  A    between atoms: C7_18  and  C8_19 
REMARK    5  A    between atoms: C7_18  and  C9_24 
REMARK    6  A    between atoms: C8_19  and  O1_20 
REMARK    7  A    between atoms: C8_19  and  O2_22 
REMARK    8  A    between atoms: C9_24  and  O3_25 
REMARK    9  A    between atoms: C9_24  and  C10_27 
REMARK   10  A    between atoms: C10_27  and  N7_28 
REMARK   11  A    between atoms: C12_30  and  C13_31 
REMARK   12  A    between atoms: C13_31  and  N8_32 
REMARK   13  A    between atoms: N8_32  and  C14_34 
ROOT
HETATM    1  C7  UNL     1       0.079   0.794  -0.721  1.00  0.00     0.168 C 
ENDROOT
BRANCH   1   2
HETATM    2  N6  UNL     1      -0.753  -0.376  -0.604  1.00  0.00    -0.361 N 
ATOM      3  H6  UNL     1      -0.291  -1.279  -0.714  1.00  0.00     0.162 HD
BRANCH   2   4
HETATM    4  C6  UNL     1      -2.137  -0.403  -0.354  1.00  0.00     0.150 A 
HETATM    5  N5  UNL     1      -2.898   0.684  -0.175  1.00  0.00    -0.335 N 
HETATM    6  C5  UNL     1      -4.211   0.603   0.065  1.00  0.00     0.108 A 
ATOM      7  H5  UNL     1      -2.462   1.605  -0.223  1.00  0.00     0.168 HD
HETATM    8  C1  UNL     1      -5.009   1.716   0.253  1.00  0.00     0.130 A 
HETATM    9  C4  UNL     1      -4.851  -0.614   0.140  1.00  0.00     0.114 A 
HETATM   10  N2  UNL     1      -6.334   1.594   0.495  1.00  0.00    -0.328 N 
HETATM   11  C2  UNL     1      -6.937   0.408   0.565  1.00  0.00     0.144 A 
ATOM     12  H2  UNL     1      -6.890   2.438   0.628  1.00  0.00     0.168 HD
HETATM   13  N3  UNL     1      -8.324   0.343   0.820  1.00  0.00    -0.081 NA
HETATM   14  C3  UNL     1      -6.206  -0.747   0.387  1.00  0.00     0.118 A 
HETATM   15  N4  UNL     1      -6.819  -2.032   0.454  1.00  0.00    -0.096 NA
HETATM   16  N16 UNL     1      -4.092  -1.711  -0.039  1.00  0.00    -0.217 N 
HETATM   17  C17 UNL     1      -2.779  -1.640  -0.279  1.00  0.00     0.183 A 
HETATM   18  N15 UNL     1      -4.460  -3.005  -0.017  1.00  0.00     0.001 NA
HETATM   19  N13 UNL     1      -2.328  -2.906  -0.408  1.00  0.00    -0.267 N 
HETATM   20  N14 UNL     1      -3.364  -3.708  -0.245  1.00  0.00    -0.007 NA
ATOM     21  H13 UNL     1      -1.367  -3.190  -0.596  1.00  0.00     0.185 HD
BRANCH   8  22
HETATM   22  N1  UNL     1      -4.450   2.870   0.191  1.00  0.00    -0.384 N 
ATOM     23  H12 UNL     1      -5.039   3.691   0.330  1.00  0.00     0.157 HD
ATOM     24  H11 UNL     1      -3.451   2.962   0.008  1.00  0.00     0.157 HD
ENDBRANCH   8  22
ENDBRANCH   2   4
ENDBRANCH   1   2
BRANCH   1  25
HETATM   25  C8  UNL     1      -0.373   1.616  -1.884  1.00  0.00     0.278 C 
BRANCH  25  26
HETATM   26  O1  UNL     1      -0.280   0.852  -3.050  1.00  0.00    -0.369 OA
ATOM     27  H1  UNL     1      -0.567   1.375  -3.789  1.00  0.00     0.212 HD
ENDBRANCH  25  26
BRANCH  25  28
HETATM   28  O2  UNL     1       0.445   2.728  -2.103  1.00  0.00    -0.369 OA
ATOM     29  H2  UNL     1       0.158   3.251  -2.842  1.00  0.00     0.212 HD
ENDBRANCH  25  28
ENDBRANCH   1  25
BRANCH   1  30
HETATM   30  C9  UNL     1       0.130   1.557   0.568  1.00  0.00     0.165 C 
BRANCH  30  31
HETATM   31  O3  UNL     1       0.928   2.697   0.483  1.00  0.00    -0.392 OA
ATOM     32  H3  UNL     1       0.960   3.181   1.300  1.00  0.00     0.210 HD
ENDBRANCH  30  31
BRANCH  30  33
HETATM   33  C10 UNL     1       0.603   0.737   1.739  1.00  0.00     0.183 C 
BRANCH  33  34
HETATM   34  N7  UNL     1       1.941   0.202   1.573  1.00  0.00    -0.285 N 
HETATM   35  C11 UNL     1       2.306  -0.976   1.038  1.00  0.00     0.140 A 
HETATM   36  C12 UNL     1       3.687  -1.105   1.068  1.00  0.00     0.062 A 
HETATM   37  N11 UNL     1       4.122   0.031   1.637  1.00  0.00    -0.287 N 
HETATM   38  N12 UNL     1       3.094   0.792   1.930  1.00  0.00    -0.241 N 
ATOM     39  H11 UNL     1       5.099   0.266   1.814  1.00  0.00     0.188 HD
ATOM     40  H12 UNL     1       3.161   1.710   2.370  1.00  0.00     0.208 HD
BRANCH  36  41
HETATM   41  C13 UNL     1       4.466  -2.272   0.568  1.00  0.00     0.182 C 
BRANCH  41  42
HETATM   42  N8  UNL     1       5.871  -2.051   0.759  1.00  0.00    -0.357 N 
ATOM     43  H8  UNL     1       6.387  -2.706   1.347  1.00  0.00     0.162 HD
BRANCH  42  44
HETATM   44  C14 UNL     1       6.583  -0.967   0.172  1.00  0.00     0.171 C 
HETATM   45  N9  UNL     1       7.265  -0.093   0.820  1.00  0.00    -0.361 N 
HETATM   46  C15 UNL     1       7.859   0.870  -0.117  1.00  0.00     0.142 C 
ATOM     47  H9  UNL     1       7.377  -0.071   1.834  1.00  0.00     0.162 HD
HETATM   48  C16 UNL     1       7.763   0.150  -1.450  1.00  0.00     0.142 C 
HETATM   49  N10 UNL     1       6.620  -0.730  -1.230  1.00  0.00    -0.361 N 
ATOM     50  H10 UNL     1       5.981  -1.098  -1.935  1.00  0.00     0.162 HD
ENDBRANCH  42  44
ENDBRANCH  41  42
ENDBRANCH  36  41
ENDBRANCH  33  34
ENDBRANCH  30  33
ENDBRANCH   1  30
TORSDOF 13
