REMARK  9 active torsions:
REMARK  status: ('A' for Active; 'I' for Inactive)
REMARK       I    between atoms: C2_2  and  N1_4 
REMARK       I    between atoms: N1_4  and  C3_6 
REMARK    1  A    between atoms: C3_6  and  C4_8 
REMARK    2  A    between atoms: C4_8  and  C5_9 
REMARK    3  A    between atoms: C5_9  and  N2_10 
REMARK    4  A    between atoms: C5_9  and  C6_14 
REMARK    5  A    between atoms: C6_14  and  N3_15 
REMARK    6  A    between atoms: C6_14  and  C14_38 
REMARK    7  A    between atoms: N3_15  and  N4_17 
REMARK       I    between atoms: N4_17  and  C7_19 
REMARK    8  A    between atoms: C7_19  and  C8_21 
REMARK       I    between atoms: C8_21  and  N5_23 
REMARK    9  A    between atoms: C11_26  and  N6_27 
ROOT
HETATM    1  N3  UNL     1      -0.411  -2.029   0.408  1.00  0.00    -0.320 N 
ATOM      2  H3  UNL     1       0.157  -2.670  -0.146  1.00  0.00     0.181 HD
ENDROOT
BRANCH   1   3
HETATM    3  C6  UNL     1      -1.801  -1.997   0.212  1.00  0.00     0.188 C 
BRANCH   3   4
HETATM    4  C5  UNL     1      -2.431  -0.731  -0.265  1.00  0.00     0.222 C 
BRANCH   4   5
HETATM    5  C4  UNL     1      -2.202   0.380   0.690  1.00  0.00     0.138 C 
BRANCH   5   6
HETATM    6  C3  UNL     1      -3.044   1.590   0.383  1.00  0.00     0.226 C 
HETATM    7  N1  UNL     1      -2.962   2.731   1.226  1.00  0.00    -0.298 N 
HETATM    8  C2  UNL     1      -3.727   3.868   0.954  1.00  0.00     0.220 C 
ATOM      9  H1  UNL     1      -2.341   2.720   2.035  1.00  0.00     0.171 HD
HETATM   10  C1  UNL     1      -4.667   3.976  -0.196  1.00  0.00     0.117 C 
HETATM   11  O1  UNL     1      -3.609   4.863   1.738  1.00  0.00    -0.274 OA
HETATM   12  O2  UNL     1      -3.779   1.515  -0.615  1.00  0.00    -0.273 OA
ENDBRANCH   5   6
ENDBRANCH   4   5
BRANCH   4  13
HETATM   13  N2  UNL     1      -2.110  -0.385  -1.639  1.00  0.00    -0.072 N 
ATOM     14  H23 UNL     1      -2.616   0.452  -1.929  1.00  0.00     0.274 HD
ATOM     15  H22 UNL     1      -1.154  -0.037  -1.711  1.00  0.00     0.274 HD
ATOM     16  H21 UNL     1      -2.268  -1.149  -2.296  1.00  0.00     0.274 HD
ENDBRANCH   4  13
ENDBRANCH   3   4
BRANCH   3  17
HETATM   17  C14 UNL     1      -2.273  -3.130  -0.670  1.00  0.00     0.094 A 
HETATM   18  N10 UNL     1      -1.908  -4.397  -0.565  1.00  0.00    -0.295 N 
HETATM   19  N11 UNL     1      -2.375  -5.251  -1.369  1.00  0.00    -0.298 N 
ATOM     20  H10 UNL     1      -1.252  -4.683   0.162  1.00  0.00     0.187 HD
HETATM   21  C15 UNL     1      -3.228  -4.885  -2.316  1.00  0.00     0.064 A 
ATOM     22  H11 UNL     1      -2.094  -6.228  -1.290  1.00  0.00     0.187 HD
HETATM   23  C16 UNL     1      -3.895  -5.724  -3.366  1.00  0.00     0.078 C 
HETATM   24  S1  UNL     1      -3.339  -3.190  -1.992  1.00  0.00    -0.059 SA
ENDBRANCH   3  17
ENDBRANCH   1   3
BRANCH   1  25
HETATM   25  N4  UNL     1       0.190  -1.230   1.314  1.00  0.00    -0.265 N 
HETATM   26  C7  UNL     1       1.512  -0.714   1.040  1.00  0.00     0.329 C 
HETATM   27  O3  UNL     1       2.074  -1.033  -0.047  1.00  0.00    -0.261 OA
ATOM     28  H4  UNL     1      -0.285  -0.992   2.185  1.00  0.00     0.190 HD
BRANCH  26  29
HETATM   29  C8  UNL     1       2.145   0.147   2.010  1.00  0.00     0.335 C 
HETATM   30  O4  UNL     1       1.500   0.389   3.092  1.00  0.00    -0.260 OA
HETATM   31  N5  UNL     1       3.434   0.732   1.822  1.00  0.00    -0.225 N 
HETATM   32  C9  UNL     1       4.302   0.644   0.810  1.00  0.00     0.139 A 
HETATM   33  N9  UNL     1       4.014   1.547   2.720  1.00  0.00    -0.275 N 
HETATM   34  C10 UNL     1       5.434   1.413   1.077  1.00  0.00     0.070 A 
HETATM   35  C11 UNL     1       6.598   1.668   0.381  1.00  0.00     0.115 A 
HETATM   36  C13 UNL     1       5.198   1.970   2.313  1.00  0.00     0.137 A 
HETATM   37  N7  UNL     1       7.533   2.475   0.905  1.00  0.00    -0.338 N 
HETATM   38  C12 UNL     1       7.282   3.010   2.117  1.00  0.00     0.183 A 
ATOM     39  H7  UNL     1       8.400   2.676   0.406  1.00  0.00     0.168 HD
HETATM   40  N8  UNL     1       6.163   2.782   2.817  1.00  0.00    -0.337 N 
ATOM     41  H8  UNL     1       6.035   3.219   3.730  1.00  0.00     0.168 HD
ATOM     42  H9  UNL     1       3.590   1.808   3.610  1.00  0.00     0.189 HD
BRANCH  35  43
HETATM   43  N6  UNL     1       6.764   1.119  -0.771  1.00  0.00    -0.385 N 
ATOM     44  H62 UNL     1       6.053   0.505  -1.169  1.00  0.00     0.157 HD
ATOM     45  H61 UNL     1       7.624   1.307  -1.285  1.00  0.00     0.157 HD
ENDBRANCH  35  43
ENDBRANCH  26  29
ENDBRANCH   1  25
TORSDOF 9
