REMARK  7 active torsions:
REMARK  status: ('A' for Active; 'I' for Inactive)
REMARK    1  A    between atoms: C2_2  and  S1_3 
REMARK    2  A    between atoms: S1_3  and  N1_6 
REMARK    3  A    between atoms: N1_6  and  C3_8 
REMARK    4  A    between atoms: C4_9  and  O3_10 
REMARK    5  A    between atoms: O3_10  and  C5_11 
REMARK    6  A    between atoms: C12_22  and  O5_23 
REMARK    7  A    between atoms: C14_25  and  O6_26 
ROOT
HETATM    1  C3  UNL     1       0.499   0.108   0.371  1.00  0.00     0.153 C 
HETATM    2  C4  UNL     1       0.691   1.539  -0.093  1.00  0.00     0.157 C 
HETATM    3  C7  UNL     1      -0.615   2.244  -0.253  1.00  0.00     0.037 C 
HETATM    4  C8  UNL     1      -1.552   1.241  -0.942  1.00  0.00     0.047 C 
HETATM    5  C9  UNL     1      -2.007   0.282   0.142  1.00  0.00     0.179 C 
HETATM    6  N2  UNL     1      -3.091   0.932   0.853  1.00  0.00    -0.061 N 
ATOM      7  H21 UNL     1      -3.001   1.948   0.876  1.00  0.00     0.278 HD
ATOM      8  H22 UNL     1      -3.059   0.774   1.860  1.00  0.00     0.278 HD
HETATM    9  C10 UNL     1      -4.320   0.489   0.252  1.00  0.00     0.236 C 
HETATM   10  C11 UNL     1      -3.964  -0.369  -0.936  1.00  0.00     0.062 C 
HETATM   11  C12 UNL     1      -2.635  -0.958  -0.441  1.00  0.00     0.161 C 
HETATM   12  C14 UNL     1      -0.866  -0.099   1.018  1.00  0.00     0.182 C 
ENDROOT
BRANCH  11  13
HETATM   13  O5  UNL     1      -2.929  -1.817   0.586  1.00  0.00    -0.388 OA
HETATM   14  C13 UNL     1      -2.533  -3.115   0.425  1.00  0.00     0.202 C 
ENDBRANCH  11  13
BRANCH  12  15
HETATM   15  O6  UNL     1      -0.912   0.583   2.262  1.00  0.00    -0.391 OA
ATOM     16  H6  UNL     1      -1.763   0.454   2.665  1.00  0.00     0.210 HD
ENDBRANCH  12  15
BRANCH   1  17
HETATM   17  N1  UNL     1       1.508  -0.278   1.333  1.00  0.00    -0.310 N 
ATOM     18  H1  UNL     1       1.686   0.223   2.203  1.00  0.00     0.172 HD
BRANCH  17  19
HETATM   19  S1  UNL     1       2.378  -1.689   0.835  1.00  0.00     0.226 S 
HETATM   20  O1  UNL     1       1.391  -2.795   0.595  1.00  0.00    -0.206 OA
HETATM   21  O2  UNL     1       3.356  -2.085   1.885  1.00  0.00    -0.206 OA
BRANCH  19  22
HETATM   22  C2  UNL     1       3.241  -1.412  -0.688  1.00  0.00     0.158 C 
HETATM   23  C1  UNL     1       3.965  -2.703  -1.031  1.00  0.00     0.023 C 
ENDBRANCH  19  22
ENDBRANCH  17  19
ENDBRANCH   1  17
BRANCH   2  24
HETATM   24  O3  UNL     1       1.694   2.219   0.568  1.00  0.00    -0.314 OA
BRANCH  24  25
HETATM   25  C5  UNL     1       2.877   2.668   0.050  1.00  0.00     0.255 C 
HETATM   26  C6  UNL     1       3.929   3.387   0.765  1.00  0.00     0.126 C 
HETATM   27  O4  UNL     1       3.017   2.406  -1.169  1.00  0.00    -0.266 OA
ENDBRANCH  24  25
ENDBRANCH   2  24
TORSDOF 7
