REMARK  9 active torsions:
REMARK  status: ('A' for Active; 'I' for Inactive)
REMARK    1  A    between atoms: O1_1  and  C1_3 
REMARK    2  A    between atoms: C1_3  and  C2_4 
REMARK    3  A    between atoms: C2_4  and  N1_5 
REMARK    4  A    between atoms: N1_5  and  C3_7 
REMARK    5  A    between atoms: C4_10  and  N3_11 
REMARK    6  A    between atoms: C10_19  and  N5_20 
REMARK    7  A    between atoms: N5_20  and  C11_22 
REMARK    8  A    between atoms: C11_22  and  C12_23 
REMARK    9  A    between atoms: C12_23  and  N6_24 
ROOT
HETATM    1  C3  UNL     1      -1.372   1.967  -0.808  1.00  0.00     0.711 A 
HETATM    2  N2  UNL     1      -2.279   1.016  -0.440  1.00  0.00    -0.021 N 
ATOM      3  H2  UNL     1      -3.276   1.216  -0.517  1.00  0.00     0.203 HD
HETATM    4  C4  UNL     1      -1.881  -0.171   0.019  1.00  0.00     0.709 A 
HETATM    5  N4  UNL     1      -0.577  -0.467   0.133  1.00  0.00    -0.021 N 
ATOM      6  H4  UNL     1      -0.290  -1.380   0.486  1.00  0.00     0.203 HD
HETATM    7  C10 UNL     1       0.367   0.455  -0.224  1.00  0.00     0.707 A 
HETATM    8  N7  UNL     1      -0.030   1.622  -0.674  1.00  0.00    -0.021 N 
ATOM      9  H7  UNL     1       0.677   2.308  -0.938  1.00  0.00     0.203 HD
ENDROOT
BRANCH   7  10
HETATM   10  N5  UNL     1       1.570   0.091  -0.105  1.00  0.00    -0.223 N 
ATOM     11  H5  UNL     1       1.768  -0.847   0.243  1.00  0.00     0.177 HD
BRANCH  10  12
HETATM   12  C11 UNL     1       2.672   0.953  -0.443  1.00  0.00     0.168 C 
BRANCH  12  13
HETATM   13  C12 UNL     1       3.791   0.001  -0.897  1.00  0.00     0.292 C 
BRANCH  13  14
HETATM   14  N6  UNL     1       4.101  -0.855   0.228  1.00  0.00     0.094 N 
HETATM   15  C13 UNL     1       4.951  -1.932  -0.270  1.00  0.00     0.298 C 
HETATM   16  C14 UNL     1       6.160  -1.332  -0.892  1.00  0.00     0.198 C 
HETATM   17  O2  UNL     1       6.905  -0.681   0.041  1.00  0.00    -0.388 OA
HETATM   18  C15 UNL     1       6.311  -0.329   1.209  1.00  0.00     0.198 C 
HETATM   19  C16 UNL     1       4.843  -0.033   1.169  1.00  0.00     0.298 C 
ENDBRANCH  13  14
ENDBRANCH  12  13
ENDBRANCH  10  12
ENDBRANCH   7  10
BRANCH   4  20
HETATM   20  N3  UNL     1      -2.828  -1.143   0.393  1.00  0.00    -0.217 N 
HETATM   21  C5  UNL     1      -3.394  -2.040  -0.596  1.00  0.00     0.141 C 
HETATM   22  C6  UNL     1      -3.803  -3.364  -0.034  1.00  0.00     0.020 C 
HETATM   23  C7  UNL     1      -4.513  -3.278   1.279  1.00  0.00     0.003 C 
HETATM   24  C8  UNL     1      -4.630  -1.853   1.788  1.00  0.00     0.020 C 
HETATM   25  C9  UNL     1      -3.226  -1.248   1.776  1.00  0.00     0.141 C 
ENDBRANCH   4  20
BRANCH   1  26
HETATM   26  N1  UNL     1      -1.594   3.086  -1.248  1.00  0.00    -0.202 N 
ATOM     27  H1  UNL     1      -0.684   3.517  -1.411  1.00  0.00     0.183 HD
BRANCH  26  28
HETATM   28  C2  UNL     1      -2.533   4.014  -1.618  1.00  0.00     0.105 C 
BRANCH  28  29
HETATM   29  C1  UNL     1      -3.855   4.065  -0.877  1.00  0.00     0.209 C 
BRANCH  29  30
HETATM   30  O1  UNL     1      -3.607   4.322   0.461  1.00  0.00    -0.396 OA
ATOM     31  H1  UNL     1      -4.435   4.354   0.925  1.00  0.00     0.209 HD
ENDBRANCH  29  30
ENDBRANCH  28  29
ENDBRANCH  26  28
ENDBRANCH   1  26
TORSDOF 9
