REMARK  10 active torsions:
REMARK  status: ('A' for Active; 'I' for Inactive)
REMARK    1  A    between atoms: N1_2  and  C3_4 
REMARK    2  A    between atoms: C3_4  and  C4_5 
REMARK    3  A    between atoms: C5_6  and  C6_7 
REMARK    4  A    between atoms: C6_7  and  O1_8 
REMARK    5  A    between atoms: O1_8  and  C7_9 
REMARK    6  A    between atoms: C8_10  and  O2_11 
REMARK    7  A    between atoms: C10_14  and  C11_15 
REMARK    8  A    between atoms: C11_15  and  O3_16 
REMARK    9  A    between atoms: C12_18  and  N2_19 
REMARK   10  A    between atoms: N2_19  and  S1_21 
ROOT
HETATM    1  C7  UNL     1      -1.303  -1.273   0.735  1.00  0.00     0.175 C 
HETATM    2  C8  UNL     1      -1.548  -2.584   0.011  1.00  0.00     0.149 C 
HETATM    3  C9  UNL     1      -1.588  -2.059  -1.427  1.00  0.00     0.043 C 
HETATM    4  C10 UNL     1      -2.533  -0.888  -1.263  1.00  0.00     0.038 C 
HETATM    5  C12 UNL     1      -2.467  -0.464   0.166  1.00  0.00     0.130 C 
ENDROOT
BRANCH   1   6
HETATM    6  O1  UNL     1      -0.150  -0.643   0.338  1.00  0.00    -0.369 OA
BRANCH   6   7
HETATM    7  C6  UNL     1       0.668  -0.267   1.395  1.00  0.00     0.262 C 
BRANCH   7   8
HETATM    8  C5  UNL     1       1.870   0.395   0.888  1.00  0.00    -0.079 C 
HETATM    9  C4  UNL     1       2.870   0.923   0.466  1.00  0.00    -0.074 C 
BRANCH   9  10
HETATM   10  C3  UNL     1       4.086   1.545  -0.054  1.00  0.00     0.364 C 
BRANCH  10  11
HETATM   11  N1  UNL     1       5.134   0.587  -0.298  1.00  0.00     0.090 N 
HETATM   12  C1  UNL     1       6.286   1.271  -0.803  1.00  0.00     0.310 C 
HETATM   13  C2  UNL     1       5.471  -0.192   0.868  1.00  0.00     0.310 C 
ENDBRANCH  10  11
ENDBRANCH   9  10
ENDBRANCH   7   8
ENDBRANCH   6   7
ENDBRANCH   1   6
BRANCH   2  14
HETATM   14  O2  UNL     1      -0.579  -3.516   0.215  1.00  0.00    -0.393 OA
ATOM     15  H2  UNL     1      -0.732  -4.337  -0.238  1.00  0.00     0.210 HD
ENDBRANCH   2  14
BRANCH   5  16
HETATM   16  N2  UNL     1      -2.336   0.931   0.387  1.00  0.00    -0.312 N 
ATOM     17  H2  UNL     1      -1.576   1.481  -0.014  1.00  0.00     0.172 HD
BRANCH  16  18
HETATM   18  S1  UNL     1      -3.545   1.620   1.375  1.00  0.00     0.223 S 
HETATM   19  C13 UNL     1      -5.167   1.457   0.687  1.00  0.00     0.185 C 
HETATM   20  O4  UNL     1      -3.248   3.101   1.498  1.00  0.00    -0.206 OA
HETATM   21  O5  UNL     1      -3.531   1.020   2.745  1.00  0.00    -0.206 OA
ENDBRANCH  16  18
ENDBRANCH   5  16
BRANCH   4  22
HETATM   22  C11 UNL     1      -2.254   0.218  -2.243  1.00  0.00     0.170 C 
BRANCH  22  23
HETATM   23  O3  UNL     1      -2.401  -0.299  -3.531  1.00  0.00    -0.400 OA
ATOM     24  H3  UNL     1      -2.225   0.400  -4.150  1.00  0.00     0.209 HD
ENDBRANCH  22  23
ENDBRANCH   4  22
TORSDOF 10
