REMARK  11 active torsions:
REMARK  status: ('A' for Active; 'I' for Inactive)
REMARK    1  A    between atoms: C2_2  and  C3_3 
REMARK    2  A    between atoms: C2_2  and  O3_10 
REMARK    3  A    between atoms: C2_2  and  S2_19 
REMARK    4  A    between atoms: C3_3  and  S1_4 
REMARK    5  A    between atoms: S1_4  and  N1_5 
REMARK    6  A    between atoms: O3_10  and  C4_11 
REMARK    7  A    between atoms: C4_11  and  N3_15 
REMARK    8  A    between atoms: S2_19  and  C8_21 
REMARK    9  A    between atoms: C8_21  and  C9_22 
REMARK   10  A    between atoms: C9_22  and  C10_23 
REMARK   11  A    between atoms: C10_23  and  N4_24 
ROOT
HETATM    1  C1  UNL     1       0.887   1.891   0.496  1.00  0.00     0.063 C 
HETATM    2  C2  UNL     1       0.123   1.099  -0.522  1.00  0.00     0.158 C 
ENDROOT
BRANCH   2   3
HETATM    3  C3  UNL     1      -1.033   1.868  -1.078  1.00  0.00     0.215 C 
BRANCH   3   4
HETATM    4  S1  UNL     1      -0.613   3.366  -1.887  1.00  0.00     0.228 S 
HETATM    5  O1  UNL     1      -1.903   4.036  -2.284  1.00  0.00    -0.206 OA
HETATM    6  O2  UNL     1       0.160   3.148  -3.153  1.00  0.00    -0.206 OA
BRANCH   4   7
HETATM    7  N1  UNL     1       0.194   4.474  -0.832  1.00  0.00    -0.328 N 
ATOM      8  H12 UNL     1       0.395   4.265   0.146  1.00  0.00     0.168 HD
ATOM      9  H11 UNL     1       0.438   5.345  -1.303  1.00  0.00     0.168 HD
ENDBRANCH   4   7
ENDBRANCH   3   4
ENDBRANCH   2   3
BRANCH   2  10
HETATM   10  O3  UNL     1      -0.426  -0.097  -0.027  1.00  0.00    -0.297 OA
BRANCH  10  11
HETATM   11  C4  UNL     1      -1.321  -0.197   0.988  1.00  0.00     0.216 C 
HETATM   12  N2  UNL     1      -1.276   0.701   1.884  1.00  0.00    -0.365 N 
ATOM     13  H22 UNL     1      -0.600   1.464   1.849  1.00  0.00     0.159 HD
ATOM     14  H21 UNL     1      -1.949   0.626   2.647  1.00  0.00     0.159 HD
BRANCH  11  15
HETATM   15  N3  UNL     1      -2.256  -1.253   1.036  1.00  0.00    -0.348 N 
HETATM   16  C5  UNL     1      -3.003  -1.985   2.069  1.00  0.00     0.128 C 
HETATM   17  C6  UNL     1      -4.109  -2.144   1.046  1.00  0.00     0.040 C 
HETATM   18  C7  UNL     1      -2.930  -2.129   0.065  1.00  0.00     0.128 C 
ENDBRANCH  11  15
ENDBRANCH  10  11
ENDBRANCH   2  10
BRANCH   2  19
HETATM   19  S2  UNL     1       1.274   0.640  -1.805  1.00  0.00     0.051 S 
HETATM   20  O4  UNL     1       0.571  -0.249  -3.015  1.00  0.00    -0.255 OA
BRANCH  19  21
HETATM   21  C8  UNL     1       2.734  -0.084  -1.162  1.00  0.00     0.113 C 
BRANCH  21  22
HETATM   22  C9  UNL     1       2.417  -1.341  -0.373  1.00  0.00     0.040 C 
BRANCH  22  23
HETATM   23  C10 UNL     1       3.651  -1.983   0.189  1.00  0.00     0.230 C 
BRANCH  23  24
HETATM   24  N4  UNL     1       3.233  -3.167   0.919  1.00  0.00    -0.079 N 
ATOM     25  H43 UNL     1       2.529  -2.968   1.630  1.00  0.00     0.274 HD
ATOM     26  H42 UNL     1       2.674  -3.806   0.354  1.00  0.00     0.274 HD
ATOM     27  H41 UNL     1       4.072  -3.603   1.301  1.00  0.00     0.274 HD
ENDBRANCH  23  24
ENDBRANCH  22  23
ENDBRANCH  21  22
ENDBRANCH  19  21
ENDBRANCH   2  19
TORSDOF 11
