REMARK  5 active torsions:
REMARK  status: ('A' for Active; 'I' for Inactive)
REMARK    1  A    between atoms: C3_6  and  S1_7 
REMARK    2  A    between atoms: S1_7  and  C4_8 
REMARK    3  A    between atoms: C7_11  and  N3_12 
REMARK    4  A    between atoms: N3_12  and  C8_14 
REMARK    5  A    between atoms: C11_22  and  N6_23 
ROOT
HETATM    1  N1  UNL     1       8.519   1.017  -0.177  1.00  0.00    -0.190 NA
HETATM    2  C1  UNL     1       7.372   0.873  -0.219  1.00  0.00     0.119 C 
HETATM    3  C2  UNL     1       5.957   0.674  -0.272  1.00  0.00     0.139 A 
HETATM    4  N2  UNL     1       5.222   0.906   0.827  1.00  0.00    -0.340 N 
ATOM      5  H2  UNL     1       5.689   1.220   1.678  1.00  0.00     0.167 HD
HETATM    6  C3  UNL     1       3.882   0.736   0.840  1.00  0.00     0.075 A 
HETATM    7  C15 UNL     1       3.257   0.311  -0.314  1.00  0.00     0.039 A 
HETATM    8  C16 UNL     1       3.995   0.068  -1.451  1.00  0.00     0.032 A 
HETATM    9  C17 UNL     1       5.371   0.244  -1.459  1.00  0.00     0.084 A 
HETATM   10  N8  UNL     1       6.144  -0.000  -2.614  1.00  0.00    -0.099 NA
ENDROOT
BRANCH   6  11
HETATM   11  S1  UNL     1       2.940   1.049   2.299  1.00  0.00    -0.073 SA
BRANCH  11  12
HETATM   12  C4  UNL     1       1.215   0.735   1.994  1.00  0.00     0.007 A 
HETATM   13  C5  UNL     1       0.416   1.737   1.544  1.00  0.00     0.021 A 
HETATM   14  C6  UNL     1      -0.921   1.469   1.314  1.00  0.00     0.031 A 
HETATM   15  C7  UNL     1      -1.487   0.230   1.519  1.00  0.00     0.033 A 
HETATM   16  C13 UNL     1      -0.660  -0.789   1.980  1.00  0.00     0.031 A 
HETATM   17  C14 UNL     1       0.678  -0.512   2.208  1.00  0.00     0.021 A 
BRANCH  15  18
HETATM   18  N3  UNL     1      -2.863   0.004   1.269  1.00  0.00    -0.340 N 
ATOM     19  H3  UNL     1      -3.558   0.143   2.002  1.00  0.00     0.167 HD
BRANCH  18  20
HETATM   20  C8  UNL     1      -3.211  -0.381   0.093  1.00  0.00     0.149 A 
HETATM   21  N4  UNL     1      -2.308  -0.559  -0.850  1.00  0.00    -0.284 N 
HETATM   22  N5  UNL     1      -2.495  -0.944  -2.087  1.00  0.00    -0.309 N 
ATOM     23  H4  UNL     1      -1.341  -0.373  -0.582  1.00  0.00     0.188 HD
HETATM   24  C9  UNL     1      -3.793  -1.186  -2.419  1.00  0.00     0.128 A 
ATOM     25  H5  UNL     1      -1.728  -1.054  -2.750  1.00  0.00     0.186 HD
HETATM   26  C10 UNL     1      -4.802  -1.018  -1.471  1.00  0.00     0.056 A 
HETATM   27  S2  UNL     1      -6.516  -1.215  -1.493  1.00  0.00    -0.051 SA
HETATM   28  C12 UNL     1      -4.576  -0.615  -0.187  1.00  0.00     0.099 A 
HETATM   29  C11 UNL     1      -6.813  -0.767   0.139  1.00  0.00     0.143 A 
HETATM   30  N7  UNL     1      -5.597  -0.496   0.601  1.00  0.00    -0.333 N 
ATOM     31  H7  UNL     1      -5.469  -0.197   1.568  1.00  0.00     0.168 HD
BRANCH  29  32
HETATM   32  N6  UNL     1      -7.969  -0.718   0.739  1.00  0.00    -0.380 N 
ATOM     33  H62 UNL     1      -8.902  -0.926   0.384  1.00  0.00     0.158 HD
ATOM     34  H61 UNL     1      -8.145  -0.452   1.708  1.00  0.00     0.158 HD
ENDBRANCH  29  32
ENDBRANCH  18  20
ENDBRANCH  15  18
ENDBRANCH  11  12
ENDBRANCH   6  11
TORSDOF 5
