REMARK  5 active torsions:
REMARK  status: ('A' for Active; 'I' for Inactive)
REMARK    1  A    between atoms: C4_8  and  N4_9 
REMARK    2  A    between atoms: C5_14  and  N6_15 
REMARK    3  A    between atoms: N6_15  and  C6_17 
REMARK    4  A    between atoms: C8_19  and  C9_20 
REMARK    5  A    between atoms: C13_27  and  C14_28 
ROOT
HETATM    1  N1  UNL     1       4.405   2.517   2.398  1.00  0.00    -0.191 NA
HETATM    2  C1  UNL     1       4.090   2.010   1.391  1.00  0.00     0.107 C 
HETATM    3  C2  UNL     1       3.706   1.415   0.152  1.00  0.00     0.130 A 
HETATM    4  C3  UNL     1       4.598   1.487  -0.924  1.00  0.00     0.156 A 
HETATM    5  N2  UNL     1       5.837   2.149  -0.724  1.00  0.00    -0.080 NA
HETATM    6  N3  UNL     1       4.294   0.948  -2.110  1.00  0.00    -0.177 N 
ATOM      7  H3  UNL     1       4.948   1.004  -2.891  1.00  0.00     0.185 HD
HETATM    8  C4  UNL     1       3.105   0.329  -2.252  1.00  0.00     0.678 A 
HETATM    9  N5  UNL     1       2.218   0.246  -1.217  1.00  0.00    -0.175 N 
ATOM     10  H5  UNL     1       1.326  -0.229  -1.357  1.00  0.00     0.186 HD
HETATM   11  C5  UNL     1       2.501   0.778  -0.021  1.00  0.00     0.146 A 
ENDROOT
BRANCH  11  12
HETATM   12  N6  UNL     1       1.685   0.707   0.948  1.00  0.00    -0.327 N 
ATOM     13  H6  UNL     1       1.961   1.133   1.832  1.00  0.00     0.169 HD
BRANCH  12  14
HETATM   14  C6  UNL     1       0.415   0.076   0.888  1.00  0.00     0.107 A 
HETATM   15  C7  UNL     1       0.389  -1.306   1.051  1.00  0.00     0.062 A 
HETATM   16  C8  UNL     1      -0.821  -1.952   0.999  1.00  0.00    -0.003 A 
HETATM   17  C12 UNL     1      -1.969  -1.190   0.784  1.00  0.00     0.044 A 
HETATM   18  C13 UNL     1      -1.932   0.171   0.624  1.00  0.00     0.044 A 
HETATM   19  N8  UNL     1      -0.724   0.753   0.684  1.00  0.00    -0.342 N 
ATOM     20  H8  UNL     1      -0.670   1.765   0.568  1.00  0.00     0.167 HD
BRANCH  16  21
HETATM   21  C9  UNL     1      -0.907  -3.430   1.168  1.00  0.00     0.049 A 
HETATM   22  C10 UNL     1       0.215  -4.194   1.381  1.00  0.00     0.081 A 
HETATM   23  S1  UNL     1      -0.449  -5.762   1.498  1.00  0.00    -0.094 SA
HETATM   24  C11 UNL     1      -2.092  -5.361   1.274  1.00  0.00     0.138 A 
HETATM   25  N7  UNL     1      -2.047  -4.050   1.120  1.00  0.00    -0.359 N 
ATOM     26  H7  UNL     1      -2.907  -3.525   0.963  1.00  0.00     0.166 HD
ENDBRANCH  16  21
BRANCH  18  27
HETATM   27  C14 UNL     1      -3.128   1.002   0.396  1.00  0.00    -0.009 A 
HETATM   28  C15 UNL     1      -4.390   0.500   0.321  1.00  0.00     0.013 A 
HETATM   29  C16 UNL     1      -5.474   1.346   0.102  1.00  0.00     0.001 A 
HETATM   30  C17 UNL     1      -5.312   2.701  -0.043  1.00  0.00     0.000 A 
HETATM   31  C18 UNL     1      -4.036   3.187   0.035  1.00  0.00     0.001 A 
HETATM   32  C19 UNL     1      -2.975   2.370   0.247  1.00  0.00     0.013 A 
ENDBRANCH  18  27
ENDBRANCH  12  14
ENDBRANCH  11  12
BRANCH   8  33
HETATM   33  N4  UNL     1       2.786  -0.200  -3.384  1.00  0.00    -0.234 N 
ATOM     34  H42 UNL     1       3.449  -0.138  -4.157  1.00  0.00     0.174 HD
ATOM     35  H41 UNL     1       1.886  -0.668  -3.491  1.00  0.00     0.174 HD
ENDBRANCH   8  33
TORSDOF 5
