REMARK  1 active torsions:
REMARK  status: ('A' for Active; 'I' for Inactive)
REMARK    1  A    between atoms: N3_4  and  N4_6 
ROOT
HETATM    1  N4  UNL     1       0.423   0.086  -1.253  1.00  0.00    -0.296 N 
ATOM      2  H4  UNL     1       0.464   0.699  -2.067  1.00  0.00     0.187 HD
HETATM    3  C2  UNL     1      -0.731  -0.131  -0.684  1.00  0.00     0.111 C 
HETATM    4  C3  UNL     1      -1.987   0.462  -1.154  1.00  0.00     0.189 C 
HETATM    5  N5  UNL     1      -2.952   0.592  -0.086  1.00  0.00    -0.337 N 
ATOM      6  H5  UNL     1      -3.643   1.339  -0.152  1.00  0.00     0.164 HD
HETATM    7  C4  UNL     1      -2.994  -0.258   1.047  1.00  0.00     0.323 C 
HETATM    8  O1  UNL     1      -4.003  -0.305   1.806  1.00  0.00    -0.247 OA
HETATM    9  N6  UNL     1      -1.867  -1.098   1.358  1.00  0.00    -0.274 N 
ATOM     10  H6  UNL     1      -1.864  -1.721   2.166  1.00  0.00     0.173 HD
HETATM   11  C5  UNL     1      -0.759  -1.007   0.472  1.00  0.00     0.275 C 
HETATM   12  O2  UNL     1       0.240  -1.748   0.743  1.00  0.00    -0.266 OA
ENDROOT
BRANCH   1  13
HETATM   13  N3  UNL     1       1.586  -0.484  -0.791  1.00  0.00    -0.276 N 
HETATM   14  C1  UNL     1       2.593   0.116  -0.310  1.00  0.00     0.215 C 
HETATM   15  N1  UNL     1       2.730   1.513  -0.148  1.00  0.00    -0.065 NA
HETATM   16  N2  UNL     1       3.703  -0.699   0.111  1.00  0.00    -0.065 NA
ATOM     17  H3  UNL     1       1.644  -1.501  -0.841  1.00  0.00     0.189 HD
ENDBRANCH   1  13
TORSDOF 1
