REMARK  3 active torsions:
REMARK  status: ('A' for Active; 'I' for Inactive)
REMARK       I    between atoms: N1_1  and  C1_4 
REMARK       I    between atoms: C1_4  and  N2_6 
REMARK       I    between atoms: N2_6  and  C2_8 
REMARK       I    between atoms: C2_8  and  N3_10 
REMARK    1  A    between atoms: N3_10  and  S1_12 
REMARK    2  A    between atoms: S1_12  and  N4_15 
REMARK    3  A    between atoms: N4_15  and  C3_17 
ROOT
HETATM    1  N1  UNL     1       6.296  -1.072  -0.152  1.00  0.00    -0.352 N 
ATOM      2  H11 UNL     1       6.416  -1.720   0.626  1.00  0.00     0.160 HD
ATOM      3  H12 UNL     1       7.092  -1.007  -0.787  1.00  0.00     0.160 HD
HETATM    4  C1  UNL     1       5.286  -0.244  -0.552  1.00  0.00     0.321 C 
HETATM    5  O1  UNL     1       5.151   0.486  -1.428  1.00  0.00    -0.247 OA
HETATM    6  N2  UNL     1       3.945  -0.353   0.517  1.00  0.00    -0.260 N 
ATOM      7  H2  UNL     1       3.810  -0.891   1.373  1.00  0.00     0.175 HD
HETATM    8  C2  UNL     1       3.105   0.522  -0.154  1.00  0.00     0.338 C 
HETATM    9  O2  UNL     1       3.249   1.101  -1.247  1.00  0.00    -0.246 OA
HETATM   10  N3  UNL     1       1.825   0.804   0.554  1.00  0.00    -0.219 N 
ATOM     11  H3  UNL     1       1.630   0.401   1.470  1.00  0.00     0.185 HD
ENDROOT
BRANCH  10  12
HETATM   12  S1  UNL     1       0.710   1.812  -0.210  1.00  0.00     0.323 S 
HETATM   13  O3  UNL     1       0.919   1.801  -1.685  1.00  0.00    -0.182 OA
HETATM   14  O4  UNL     1       1.017   3.244   0.231  1.00  0.00    -0.182 OA
BRANCH  12  15
HETATM   15  N4  UNL     1      -0.921   1.524   0.255  1.00  0.00    -0.298 N 
ATOM     16  H4  UNL     1      -1.514   2.218   0.711  1.00  0.00     0.174 HD
BRANCH  15  17
HETATM   17  C3  UNL     1      -1.355   0.184  -0.075  1.00  0.00     0.094 C 
HETATM   18  C4  UNL     1      -2.418   0.234  -1.156  1.00  0.00     0.026 C 
HETATM   19  C5  UNL     1      -3.818   0.290  -0.625  1.00  0.00     0.002 C 
HETATM   20  C6  UNL     1      -4.162  -0.980   0.105  1.00  0.00     0.000 C 
HETATM   21  C7  UNL     1      -2.989  -1.474   0.897  1.00  0.00     0.002 C 
HETATM   22  C8  UNL     1      -1.966  -0.404   1.163  1.00  0.00     0.026 C 
ENDBRANCH  15  17
ENDBRANCH  12  15
ENDBRANCH  10  12
TORSDOF 3
