REMARK  12 active torsions:
REMARK  status: ('A' for Active; 'I' for Inactive)
REMARK    1  A    between atoms: C2_2  and  C3_3 
REMARK    2  A    between atoms: C3_3  and  O1_4 
REMARK    3  A    between atoms: O1_4  and  C4_5 
REMARK    4  A    between atoms: C6_7  and  N1_8 
REMARK       I    between atoms: N1_8  and  C7_10 
REMARK    5  A    between atoms: C11_17  and  N3_18 
REMARK    6  A    between atoms: N4_21  and  C14_22 
REMARK    7  A    between atoms: C14_22  and  C15_23 
REMARK    8  A    between atoms: C15_23  and  C16_24 
REMARK    9  A    between atoms: C16_24  and  N5_25 
REMARK       I    between atoms: N5_25  and  C17_27 
REMARK   10  A    between atoms: C17_27  and  C18_29 
REMARK   11  A    between atoms: C18_29  and  N6_30 
REMARK   12  A    between atoms: C20_33  and  N7_35 
ROOT
HETATM    1  N3  UNL     1      -1.864   1.046  -0.302  1.00  0.00    -0.355 N 
HETATM    2  C12 UNL     1      -0.961  -0.053  -0.373  1.00  0.00     0.169 C 
HETATM    3  C13 UNL     1       0.083   0.251  -1.431  1.00  0.00     0.083 C 
HETATM    4  N4  UNL     1       0.680   1.513  -1.349  1.00  0.00    -0.371 N 
HETATM    5  C25 UNL     1       0.137   2.441  -0.391  1.00  0.00     0.147 C 
HETATM    6  C26 UNL     1      -1.358   2.377  -0.352  1.00  0.00     0.145 C 
ENDROOT
BRANCH   4   7
HETATM    7  C14 UNL     1       2.050   1.608  -1.568  1.00  0.00     0.065 C 
BRANCH   7   8
HETATM    8  C15 UNL     1       3.045   1.116  -0.604  1.00  0.00     0.064 C 
BRANCH   8   9
HETATM    9  C16 UNL     1       3.034  -0.329  -0.238  1.00  0.00     0.128 C 
BRANCH   9  10
HETATM   10  N5  UNL     1       4.075  -0.689   0.677  1.00  0.00    -0.359 N 
HETATM   11  C17 UNL     1       5.440  -0.563   0.349  1.00  0.00     0.235 C 
HETATM   12  O3  UNL     1       5.824  -0.137  -0.765  1.00  0.00    -0.272 OA
ATOM     13  H5  UNL     1       3.820  -1.049   1.597  1.00  0.00     0.162 HD
BRANCH  11  14
HETATM   14  C18 UNL     1       6.510  -0.937   1.329  1.00  0.00     0.229 C 
BRANCH  14  15
HETATM   15  N6  UNL     1       7.823  -0.713   0.755  1.00  0.00    -0.337 N 
HETATM   16  C19 UNL     1       8.497   0.538   0.898  1.00  0.00     0.256 C 
HETATM   17  O4  UNL     1       8.054   1.578   1.491  1.00  0.00    -0.271 OA
HETATM   18  C20 UNL     1       9.806   0.428   0.237  1.00  0.00     0.201 C 
HETATM   19  C21 UNL     1       9.697   0.917  -1.186  1.00  0.00     0.056 C 
HETATM   20  C22 UNL     1      10.046  -1.058   0.193  1.00  0.00     0.073 C 
HETATM   21  C23 UNL     1       8.645  -1.607  -0.003  1.00  0.00     0.086 C 
HETATM   22  C24 UNL     1       8.609  -3.030   0.479  1.00  0.00     0.032 C 
BRANCH  18  23
HETATM   23  N7  UNL     1      10.850   1.127   0.963  1.00  0.00    -0.062 N 
ATOM     24  H73 UNL     1      10.598   2.103   1.122  1.00  0.00     0.275 HD
ATOM     25  H72 UNL     1      10.899   0.812   1.932  1.00  0.00     0.275 HD
ATOM     26  H71 UNL     1      11.758   1.051   0.505  1.00  0.00     0.275 HD
ENDBRANCH  18  23
ENDBRANCH  14  15
ENDBRANCH  11  14
ENDBRANCH   9  10
ENDBRANCH   8   9
ENDBRANCH   7   8
ENDBRANCH   4   7
BRANCH   1  27
HETATM   27  C11 UNL     1      -3.279   0.843  -0.186  1.00  0.00     0.148 A 
HETATM   28  N2  UNL     1      -4.244   1.729  -0.103  1.00  0.00    -0.335 N 
HETATM   29  C10 UNL     1      -5.485   1.347  -0.007  1.00  0.00     0.056 A 
ATOM     30  H2  UNL     1      -4.020   2.724  -0.114  1.00  0.00     0.168 HD
HETATM   31  C9  UNL     1      -6.604   2.186   0.089  1.00  0.00     0.060 A 
HETATM   32  C27 UNL     1      -5.733   0.004   0.001  1.00  0.00     0.068 A 
HETATM   33  C6  UNL     1      -7.866   1.688   0.185  1.00  0.00     0.039 A 
HETATM   34  C5  UNL     1      -8.110   0.333   0.193  1.00  0.00     0.067 A 
HETATM   35  C4  UNL     1      -7.022  -0.515   0.100  1.00  0.00     0.090 A 
HETATM   36  S1  UNL     1      -4.158  -0.640  -0.128  1.00  0.00    -0.049 SA
BRANCH  33  37
HETATM   37  N1  UNL     1      -8.936   2.640   0.298  1.00  0.00    -0.327 N 
HETATM   38  C7  UNL     1     -10.254   2.377   0.662  1.00  0.00     0.218 C 
HETATM   39  C8  UNL     1     -11.208   3.553   0.705  1.00  0.00     0.117 C 
HETATM   40  O2  UNL     1     -10.731   1.247   0.960  1.00  0.00    -0.274 OA
ATOM     41  H1  UNL     1      -8.706   3.612   0.089  1.00  0.00     0.169 HD
ENDBRANCH  33  37
BRANCH  35  42
HETATM   42  O1  UNL     1      -7.113  -1.889   0.095  1.00  0.00    -0.350 OA
BRANCH  42  43
HETATM   43  C3  UNL     1      -8.270  -2.658   0.182  1.00  0.00     0.175 C 
BRANCH  43  44
HETATM   44  C2  UNL     1      -7.876  -4.127   0.137  1.00  0.00     0.022 C 
HETATM   45  C1  UNL     1      -9.043  -5.055   0.222  1.00  0.00     0.007 C 
ENDBRANCH  43  44
ENDBRANCH  42  43
ENDBRANCH  35  42
ENDBRANCH   1  27
TORSDOF 12
