REMARK  12 active torsions:
REMARK  status: ('A' for Active; 'I' for Inactive)
REMARK    1  A    between atoms: O1_2  and  C2_3 
REMARK    2  A    between atoms: C5_6  and  C6_7 
REMARK    3  A    between atoms: C6_7  and  C7_8 
REMARK       I    between atoms: C7_8  and  N1_10 
REMARK    4  A    between atoms: N1_10  and  C8_12 
REMARK    5  A    between atoms: C9_17  and  C10_18 
REMARK    6  A    between atoms: C10_18  and  C11_19 
REMARK    7  A    between atoms: C11_19  and  C12_20 
REMARK    8  A    between atoms: C12_20  and  C13_21 
REMARK    9  A    between atoms: C13_21  and  C14_22 
REMARK       I    between atoms: N6_28  and  C16_30 
REMARK   10  A    between atoms: C16_30  and  C17_32 
REMARK   11  A    between atoms: C17_32  and  C18_33 
REMARK   12  A    between atoms: C24_43  and  O4_44 
ROOT
HETATM    1  C10 UNL     1       0.106  -0.512  -0.847  1.00  0.00     0.066 C 
ENDROOT
BRANCH   1   2
HETATM    2  C9  UNL     1      -1.200   0.198  -0.799  1.00  0.00     0.069 A 
HETATM    3  N3  UNL     1      -1.476   1.397  -1.283  1.00  0.00    -0.296 N 
HETATM    4  N2  UNL     1      -2.637   1.888  -1.198  1.00  0.00    -0.279 N 
ATOM      5  H3  UNL     1      -0.737   1.936  -1.734  1.00  0.00     0.187 HD
HETATM    6  C8  UNL     1      -3.600   1.152  -0.595  1.00  0.00     0.167 A 
ATOM      7  H2  UNL     1      -2.843   2.814  -1.573  1.00  0.00     0.189 HD
HETATM    8  S2  UNL     1      -2.737  -0.255  -0.172  1.00  0.00    -0.038 SA
BRANCH   6   9
HETATM    9  N1  UNL     1      -4.847   1.515  -0.429  1.00  0.00    -0.306 N 
HETATM   10  C7  UNL     1      -5.740   0.642   0.216  1.00  0.00     0.227 C 
HETATM   11  O2  UNL     1      -5.965   0.806   1.452  1.00  0.00    -0.273 OA
ATOM     12  H1  UNL     1      -5.168   2.423  -0.765  1.00  0.00     0.171 HD
BRANCH  10  13
HETATM   13  C6  UNL     1      -6.429  -0.466  -0.523  1.00  0.00     0.141 C 
BRANCH  13  14
HETATM   14  C5  UNL     1      -7.898  -0.243  -0.537  1.00  0.00    -0.047 A 
HETATM   15  C4  UNL     1      -8.442   0.506  -1.563  1.00  0.00     0.010 A 
HETATM   16  C3  UNL     1      -9.796   0.717  -1.585  1.00  0.00     0.040 A 
HETATM   17  C2  UNL     1     -10.643   0.218  -0.632  1.00  0.00     0.101 A 
HETATM   18  C24 UNL     1     -10.099  -0.544   0.413  1.00  0.00     0.102 A 
HETATM   19  C23 UNL     1      -8.739  -0.752   0.429  1.00  0.00     0.047 A 
BRANCH  17  20
HETATM   20  O1  UNL     1     -11.994   0.466  -0.708  1.00  0.00    -0.353 OA
HETATM   21  C1  UNL     1     -12.525   1.227  -1.749  1.00  0.00     0.210 C 
ENDBRANCH  17  20
BRANCH  18  22
HETATM   22  O4  UNL     1     -10.982  -1.024   1.343  1.00  0.00    -0.353 OA
HETATM   23  C25 UNL     1     -10.689  -1.799   2.458  1.00  0.00     0.210 C 
ENDBRANCH  18  22
ENDBRANCH  13  14
ENDBRANCH  10  13
ENDBRANCH   6   9
ENDBRANCH   1   2
BRANCH   1  24
HETATM   24  C11 UNL     1       0.921  -0.112   0.358  1.00  0.00     0.007 C 
BRANCH  24  25
HETATM   25  C12 UNL     1       2.262  -0.794   0.382  1.00  0.00     0.007 C 
BRANCH  25  26
HETATM   26  C13 UNL     1       3.007  -0.321   1.607  1.00  0.00     0.066 C 
BRANCH  26  27
HETATM   27  C14 UNL     1       4.359  -1.009   1.639  1.00  0.00     0.069 A 
HETATM   28  N4  UNL     1       4.657  -2.159   2.228  1.00  0.00    -0.296 N 
HETATM   29  N5  UNL     1       5.836  -2.621   2.159  1.00  0.00    -0.279 N 
ATOM     30  H4  UNL     1       3.937  -2.672   2.737  1.00  0.00     0.187 HD
HETATM   31  C15 UNL     1       6.763  -1.927   1.484  1.00  0.00     0.167 A 
ATOM     32  H5  UNL     1       6.075  -3.505   2.609  1.00  0.00     0.189 HD
HETATM   33  N6  UNL     1       8.022  -2.261   1.310  1.00  0.00    -0.306 N 
HETATM   34  S1  UNL     1       5.859  -0.576   0.952  1.00  0.00    -0.038 SA
HETATM   35  C16 UNL     1       8.865  -1.416   0.572  1.00  0.00     0.227 C 
ATOM     36  H6  UNL     1       8.384  -3.128   1.708  1.00  0.00     0.171 HD
HETATM   37  O3  UNL     1       9.310  -1.799  -0.535  1.00  0.00    -0.273 OA
BRANCH  35  38
HETATM   38  C17 UNL     1       9.237  -0.082   1.081  1.00  0.00     0.143 C 
BRANCH  38  39
HETATM   39  C18 UNL     1      10.191   0.562   0.116  1.00  0.00    -0.032 A 
HETATM   40  C19 UNL     1       9.855   1.353  -0.931  1.00  0.00     0.095 A 
HETATM   41  N7  UNL     1      11.011   1.727  -1.547  1.00  0.00    -0.369 N 
HETATM   42  C20 UNL     1      12.057   1.193  -0.915  1.00  0.00     0.005 A 
ATOM     43  H7  UNL     1      11.068   2.327  -2.370  1.00  0.00     0.165 HD
HETATM   44  C21 UNL     1      13.483   1.366  -1.289  1.00  0.00     0.068 C 
HETATM   45  C22 UNL     1      11.575   0.449   0.142  1.00  0.00     0.033 A 
ENDBRANCH  38  39
ENDBRANCH  35  38
ENDBRANCH  26  27
ENDBRANCH  25  26
ENDBRANCH  24  25
ENDBRANCH   1  24
TORSDOF 12
