REMARK  6 active torsions:
REMARK  status: ('A' for Active; 'I' for Inactive)
REMARK       I    between atoms: N1_1  and  C1_4 
REMARK       I    between atoms: C1_4  and  N2_5 
REMARK       I    between atoms: C1_4  and  N9_25 
REMARK    1  A    between atoms: N2_5  and  N3_7 
REMARK    2  A    between atoms: N3_7  and  C2_9 
REMARK    3  A    between atoms: C2_9  and  C3_10 
REMARK    4  A    between atoms: N6_16  and  N7_18 
REMARK    5  A    between atoms: C5_21  and  N8_22 
REMARK    6  A    between atoms: N9_25  and  N10_27 
ROOT
HETATM    1  C3  UNL     1      -0.966  -1.108  -0.120  1.00  0.00     0.102 A 
HETATM    2  N4  UNL     1      -1.544  -2.286   0.146  1.00  0.00    -0.295 N 
ATOM      3  H4  UNL     1      -1.048  -3.177   0.165  1.00  0.00     0.187 HD
HETATM    4  N5  UNL     1      -2.837  -2.150   0.381  1.00  0.00    -0.282 N 
ATOM      5  H5  UNL     1      -3.489  -2.902   0.605  1.00  0.00     0.188 HD
HETATM    6  C4  UNL     1      -3.143  -0.841   0.272  1.00  0.00     0.170 A 
HETATM    7  N6  UNL     1      -4.327  -0.392   0.447  1.00  0.00    -0.289 N 
ATOM      8  H6  UNL     1      -5.048  -1.076   0.677  1.00  0.00     0.188 HD
HETATM    9  C5  UNL     1      -1.978  -0.168  -0.044  1.00  0.00     0.178 A 
ENDROOT
BRANCH   1  10
HETATM   10  C2  UNL     1       0.439  -0.832  -0.434  1.00  0.00     0.141 C 
BRANCH  10  11
HETATM   11  N3  UNL     1       0.871   0.350  -0.676  1.00  0.00    -0.295 N 
ATOM     12  H3  UNL     1       0.228   1.142  -0.654  1.00  0.00     0.186 HD
BRANCH  11  13
HETATM   13  N2  UNL     1       2.213   0.554  -0.968  1.00  0.00    -0.131 N 
HETATM   14  C1  UNL     1       3.167   0.168   0.002  1.00  0.00     0.709 C 
HETATM   15  N1  UNL     1       3.783  -0.975  -0.032  1.00  0.00    -0.232 N 
HETATM   16  N9  UNL     1       3.451   1.079   1.055  1.00  0.00    -0.071 N 
ATOM     17  H12 UNL     1       3.579  -1.629  -0.788  1.00  0.00     0.174 HD
ATOM     18  H11 UNL     1       4.471  -1.253   0.668  1.00  0.00     0.174 HD
ATOM     19  H9  UNL     1       2.708   1.425   1.662  1.00  0.00     0.212 HD
ATOM     20  H2  UNL     1       2.502   0.969  -1.854  1.00  0.00     0.205 HD
BRANCH  16  21
HETATM   21  N10 UNL     1       4.762   1.485   1.235  1.00  0.00    -0.024 N 
HETATM   22  O3  UNL     1       5.574   0.722   1.768  1.00  0.00    -0.516 OA
HETATM   23  O4  UNL     1       5.154   2.726   0.825  1.00  0.00    -0.516 OA
ENDBRANCH  16  21
ENDBRANCH  11  13
ENDBRANCH  10  11
ENDBRANCH   1  10
BRANCH   9  24
HETATM   24  N8  UNL     1      -1.855   1.220  -0.250  1.00  0.00    -0.109 N 
HETATM   25  O1  UNL     1      -1.330   1.919   0.623  1.00  0.00    -0.532 OA
HETATM   26  O2  UNL     1      -2.321   1.771  -1.406  1.00  0.00    -0.532 OA
ENDBRANCH   9  24
BRANCH   7  27
HETATM   27  N7  UNL     1      -4.729   0.930   0.356  1.00  0.00    -0.344 N 
ATOM     28  H72 UNL     1      -3.995   1.599   0.126  1.00  0.00     0.176 HD
ATOM     29  H71 UNL     1      -5.674   1.288   0.496  1.00  0.00     0.176 HD
ENDBRANCH   7  27
TORSDOF 6
