REMARK  9 active torsions:
REMARK  status: ('A' for Active; 'I' for Inactive)
REMARK    1  A    between atoms: C1_4  and  N2_5 
REMARK    2  A    between atoms: C1_4  and  O3_26 
REMARK    3  A    between atoms: N2_5  and  C2_7 
REMARK    4  A    between atoms: C2_7  and  C3_8 
REMARK    5  A    between atoms: C2_7  and  C4_15 
REMARK       I    between atoms: C3_8  and  N3_10 
REMARK    6  A    between atoms: N3_10  and  N4_12 
REMARK    7  A    between atoms: C4_15  and  C5_17 
REMARK    8  A    between atoms: C7_20  and  N5_21 
REMARK    9  A    between atoms: O3_26  and  N7_27 
ROOT
HETATM    1  C2  UNL     1      -0.261   0.962  -0.747  1.00  0.00     0.255 C 
ENDROOT
BRANCH   1   2
HETATM    2  N2  UNL     1      -0.860  -0.231  -1.337  1.00  0.00    -0.335 N 
ATOM      3  H2  UNL     1      -0.973  -0.251  -2.350  1.00  0.00     0.164 HD
BRANCH   2   4
HETATM    4  C1  UNL     1      -1.291  -1.351  -0.613  1.00  0.00     0.237 C 
HETATM    5  N1  UNL     1      -0.475  -2.232  -0.174  1.00  0.00    -0.364 N 
ATOM      6  H12 UNL     1       0.517  -2.081  -0.356  1.00  0.00     0.159 HD
ATOM      7  H11 UNL     1      -0.789  -3.047   0.353  1.00  0.00     0.159 HD
BRANCH   4   8
HETATM    8  O3  UNL     1      -2.643  -1.557  -0.365  1.00  0.00    -0.208 OA
BRANCH   8   9
HETATM    9  N7  UNL     1      -3.117  -2.524   0.485  1.00  0.00    -0.302 N 
ATOM     10  H72 UNL     1      -2.428  -3.114   0.951  1.00  0.00     0.184 HD
ATOM     11  H71 UNL     1      -4.109  -2.675   0.667  1.00  0.00     0.184 HD
ENDBRANCH   8   9
ENDBRANCH   4   8
ENDBRANCH   2   4
ENDBRANCH   1   2
BRANCH   1  12
HETATM   12  C3  UNL     1      -1.335   1.643  -0.004  1.00  0.00     0.266 C 
HETATM   13  O1  UNL     1      -2.065   0.944   0.716  1.00  0.00    -0.269 OA
HETATM   14  N3  UNL     1      -1.609   3.019  -0.049  1.00  0.00    -0.275 N 
ATOM     15  H3  UNL     1      -1.037   3.643  -0.618  1.00  0.00     0.189 HD
BRANCH  14  16
HETATM   16  N4  UNL     1      -2.706   3.534   0.717  1.00  0.00    -0.343 N 
ATOM     17  H42 UNL     1      -3.269   2.897   1.281  1.00  0.00     0.176 HD
ATOM     18  H41 UNL     1      -2.905   4.534   0.684  1.00  0.00     0.176 HD
ENDBRANCH  14  16
ENDBRANCH   1  12
BRANCH   1  19
HETATM   19  C4  UNL     1       0.661   0.383   0.320  1.00  0.00     0.208 C 
HETATM   20  O2  UNL     1       0.245   0.235   1.470  1.00  0.00    -0.288 OA
BRANCH  19  21
HETATM   21  C5  UNL     1       2.035  -0.022  -0.072  1.00  0.00     0.089 A 
HETATM   22  C6  UNL     1       2.406  -0.039  -1.388  1.00  0.00     0.086 A 
HETATM   23  S1  UNL     1       3.946  -0.759  -1.331  1.00  0.00    -0.064 SA
HETATM   24  C7  UNL     1       4.047  -1.010   0.352  1.00  0.00     0.142 A 
HETATM   25  N6  UNL     1       2.914  -0.529   0.803  1.00  0.00    -0.334 N 
ATOM     26  H6  UNL     1       2.705  -0.540   1.801  1.00  0.00     0.168 HD
BRANCH  24  27
HETATM   27  N5  UNL     1       4.990  -1.572   1.054  1.00  0.00    -0.380 N 
ATOM     28  H52 UNL     1       5.872  -1.946   0.703  1.00  0.00     0.158 HD
ATOM     29  H51 UNL     1       5.050  -1.722   2.061  1.00  0.00     0.158 HD
ENDBRANCH  24  27
ENDBRANCH  19  21
ENDBRANCH   1  19
TORSDOF 9
