REMARK  2 active torsions:
REMARK  status: ('A' for Active; 'I' for Inactive)
REMARK    1  A    between atoms: C2_2  and  C3_3 
REMARK    2  A    between atoms: C9_12  and  O1_13 
ROOT
HETATM    1  O1  UNL     1      -1.299   1.563  -1.080  1.00  0.00    -0.275 OA
HETATM    2  C10 UNL     1      -2.047   2.692  -0.930  1.00  0.00     0.229 C 
HETATM    3  N2  UNL     1      -2.698   3.646  -0.788  1.00  0.00    -0.164 NA
ENDROOT
BRANCH   1   4
HETATM    4  C9  UNL     1      -0.443   1.180  -0.048  1.00  0.00     0.177 C 
HETATM    5  C3  UNL     1      -0.670  -0.244   0.412  1.00  0.00     0.149 C 
HETATM    6  C4  UNL     1      -0.750  -0.185   1.942  1.00  0.00     0.049 C 
HETATM    7  N1  UNL     1       0.401  -1.130   0.089  1.00  0.00    -0.060 N 
HETATM    8  C5  UNL     1       1.675  -0.727   0.611  1.00  0.00     0.183 C 
ATOM      9  H12 UNL     1       0.179  -2.081   0.384  1.00  0.00     0.278 HD
ATOM     10  H11 UNL     1       0.457  -1.270  -0.920  1.00  0.00     0.278 HD
HETATM   11  C6  UNL     1       2.753  -1.529  -0.126  1.00  0.00     0.040 C 
HETATM   12  C7  UNL     1       1.979   0.731   0.369  1.00  0.00     0.035 C 
HETATM   13  C8  UNL     1       0.981   1.352  -0.582  1.00  0.00     0.038 C 
BRANCH   5  14
HETATM   14  C2  UNL     1      -1.981  -0.816  -0.052  1.00  0.00     0.037 C 
HETATM   15  C1  UNL     1      -2.103  -0.955  -1.533  1.00  0.00     0.007 C 
ENDBRANCH   5  14
ENDBRANCH   1   4
TORSDOF 2
