REMARK  3 active torsions:
REMARK  status: ('A' for Active; 'I' for Inactive)
REMARK    1  A    between atoms: C4_6  and  N1_7 
REMARK    2  A    between atoms: N1_7  and  C5_9 
REMARK    3  A    between atoms: C6_10  and  C7_11 
ROOT
HETATM    1  C5  UNL     1       0.313   0.651   0.704  1.00  0.00     0.065 C 
HETATM    2  C6  UNL     1       1.633   0.379   0.412  1.00  0.00     0.084 C 
HETATM    3  O1  UNL     1       2.578   1.611   0.263  1.00  0.00    -0.317 OA
HETATM    4  C13 UNL     1       1.893   2.740   0.488  1.00  0.00     0.054 C 
HETATM    5  C14 UNL     1       1.893   3.804   1.208  1.00  0.00     0.006 C 
HETATM    6  C15 UNL     1       0.752   4.858   1.175  1.00  0.00     0.033 C 
HETATM    7  C16 UNL     1      -0.600   4.299   1.357  1.00  0.00     0.031 C 
HETATM    8  C17 UNL     1      -0.630   2.768   1.549  1.00  0.00    -0.017 C 
HETATM    9  C18 UNL     1       0.050   2.035   0.755  1.00  0.00    -0.027 C 
HETATM   10  C19 UNL     1       0.693   2.645  -0.567  1.00  0.00     0.105 C 
ENDROOT
BRANCH   1  11
HETATM   11  N1  UNL     1      -0.769  -0.139   0.959  1.00  0.00    -0.383 N 
ATOM     12  H1  UNL     1      -0.776  -0.592   1.873  1.00  0.00     0.160 HD
BRANCH  11  13
HETATM   13  C4  UNL     1      -1.920  -0.428   0.107  1.00  0.00     0.082 C 
HETATM   14  C3  UNL     1      -2.766   0.728  -0.267  1.00  0.00     0.031 C 
HETATM   15  C2  UNL     1      -3.774   0.227  -1.319  1.00  0.00     0.081 C 
HETATM   16  C1  UNL     1      -4.621  -0.898  -0.781  1.00  0.00     0.243 C 
HETATM   17  F1  UNL     1      -5.343  -0.458   0.305  1.00  0.00    -0.206 F 
HETATM   18  F2  UNL     1      -5.449  -1.299  -1.807  1.00  0.00    -0.206 F 
HETATM   19  C21 UNL     1      -3.673  -2.044  -0.389  1.00  0.00     0.081 C 
HETATM   20  C20 UNL     1      -2.789  -1.509   0.703  1.00  0.00     0.031 C 
ENDBRANCH  11  13
ENDBRANCH   1  11
BRANCH   2  21
HETATM   21  C7  UNL     1       2.269  -0.854   0.266  1.00  0.00     0.045 C 
HETATM   22  C8  UNL     1       2.804  -0.890  -1.205  1.00  0.00     0.011 C 
HETATM   23  C9  UNL     1       4.027  -1.757  -1.244  1.00  0.00     0.001 C 
HETATM   24  C10 UNL     1       3.779  -2.927  -0.298  1.00  0.00     0.000 C 
HETATM   25  C11 UNL     1       2.305  -3.219  -0.376  1.00  0.00     0.001 C 
HETATM   26  C12 UNL     1       1.578  -2.138   0.450  1.00  0.00     0.011 C 
ENDBRANCH   2  21
TORSDOF 3
