REMARK  3 active torsions:
REMARK  status: ('A' for Active; 'I' for Inactive)
REMARK    1  A    between atoms: C4_7  and  C5_8 
REMARK    2  A    between atoms: C5_8  and  O1_9 
REMARK    3  A    between atoms: O1_9  and  S1_10 
ROOT
HETATM    1  N1  UNL     1       0.150   3.092  -0.755  1.00  0.00    -0.064 NA
HETATM    2  C1  UNL     1      -0.269   1.809  -0.293  1.00  0.00     0.188 C 
HETATM    3  N2  UNL     1      -1.315   1.220  -0.769  1.00  0.00    -0.309 N 
ATOM      4  H2  UNL     1      -1.858   1.685  -1.496  1.00  0.00     0.167 HD
HETATM    5  C2  UNL     1      -1.739  -0.084  -0.299  1.00  0.00     0.309 C 
HETATM    6  C3  UNL     1      -0.577  -0.969   0.013  1.00  0.00     0.120 C 
HETATM    7  C4  UNL     1       0.545  -0.289   0.717  1.00  0.00     0.115 C 
HETATM    8  N3  UNL     1       0.468   1.139   0.722  1.00  0.00    -0.358 N 
ATOM      9  H3  UNL     1       0.940   1.675   1.451  1.00  0.00     0.162 HD
HETATM   10  N4  UNL     1      -2.611   0.128   0.828  1.00  0.00    -0.021 N 
ATOM     11  H41 UNL     1      -3.042   1.052   0.859  1.00  0.00     0.283 HD
ATOM     12  H42 UNL     1      -2.130   0.202   1.724  1.00  0.00     0.283 HD
HETATM   13  C6  UNL     1      -3.561  -0.977   0.744  1.00  0.00     0.264 C 
HETATM   14  C7  UNL     1      -3.645  -1.164  -0.756  1.00  0.00     0.200 C 
HETATM   15  O5  UNL     1      -2.495  -0.668  -1.308  1.00  0.00    -0.337 OA
ENDROOT
BRANCH   7  16
HETATM   16  C5  UNL     1       1.877  -0.686   0.104  1.00  0.00     0.218 C 
BRANCH  16  17
HETATM   17  O1  UNL     1       2.908  -0.139   0.881  1.00  0.00    -0.255 OA
BRANCH  17  18
HETATM   18  S1  UNL     1       4.410  -0.533   0.270  1.00  0.00     0.251 S 
HETATM   19  O2  UNL     1       4.381  -0.787  -1.200  1.00  0.00    -0.572 OA
HETATM   20  O3  UNL     1       4.965  -1.732   1.008  1.00  0.00    -0.572 OA
HETATM   21  O4  UNL     1       5.431   0.782   0.563  1.00  0.00    -0.572 OA
ENDBRANCH  17  18
ENDBRANCH  16  17
ENDBRANCH   7  16
TORSDOF 3
