REMARK  4 active torsions:
REMARK  status: ('A' for Active; 'I' for Inactive)
REMARK    1  A    between atoms: O1_2  and  C2_3 
REMARK    2  A    between atoms: C2_3  and  C3_5 
REMARK    3  A    between atoms: N3_13  and  N4_14 
REMARK    4  A    between atoms: N6_20  and  O3_22 
ROOT
HETATM    1  C3  UNL     1       0.874  -0.640   0.089  1.00  0.00     0.144 C 
HETATM    2  C4  UNL     1       0.608  -2.059   0.142  1.00  0.00     0.122 C 
HETATM    3  N1  UNL     1      -0.725  -2.317   0.219  1.00  0.00    -0.387 N 
HETATM    4  C5  UNL     1      -1.799  -2.344  -0.760  1.00  0.00     0.132 C 
HETATM    5  C6  UNL     1      -2.340  -1.215   0.151  1.00  0.00     0.063 C 
HETATM    6  C7  UNL     1      -1.798  -2.335   1.151  1.00  0.00     0.132 C 
HETATM    7  C8  UNL     1      -1.648   0.020   0.221  1.00  0.00     0.232 C 
HETATM    8  N2  UNL     1      -2.075   0.951  -0.803  1.00  0.00    -0.073 NA
HETATM    9  N3  UNL     1      -1.328   2.107  -0.494  1.00  0.00    -0.007 N 
HETATM   10  C9  UNL     1      -0.154   1.712   0.235  1.00  0.00     0.741 C 
HETATM   11  N6  UNL     1       0.742   2.375   0.829  1.00  0.00    -0.096 N 
ATOM     12  H6  UNL     1       1.500   1.872   1.290  1.00  0.00     0.213 HD
HETATM   13  N7  UNL     1      -0.209   0.249   0.167  1.00  0.00    -0.150 N 
ENDROOT
BRANCH   9  14
HETATM   14  N4  UNL     1      -1.654   3.402  -0.825  1.00  0.00    -0.216 N 
HETATM   15  N5  UNL     1      -1.137   4.043  -1.778  1.00  0.00    -0.329 N 
ATOM     16  H52 UNL     1      -0.432   3.555  -2.331  1.00  0.00     0.178 HD
ATOM     17  H51 UNL     1      -1.379   5.003  -2.023  1.00  0.00     0.178 HD
ATOM     18  H4  UNL     1      -2.361   3.874  -0.261  1.00  0.00     0.210 HD
ENDBRANCH   9  14
BRANCH  11  19
HETATM   19  O3  UNL     1       0.735   3.731   0.877  1.00  0.00    -0.276 OA
ATOM     20  H3  UNL     1       1.409   4.230   1.324  1.00  0.00     0.245 HD
ENDBRANCH  11  19
BRANCH   1  21
HETATM   21  C2  UNL     1       2.242  -0.331  -0.001  1.00  0.00     0.311 C 
HETATM   22  O2  UNL     1       2.693   0.825  -0.080  1.00  0.00    -0.258 OA
BRANCH  21  23
HETATM   23  O1  UNL     1       3.223  -1.369  -0.007  1.00  0.00    -0.321 OA
HETATM   24  C1  UNL     1       4.567  -0.963  -0.101  1.00  0.00     0.213 C 
ENDBRANCH  21  23
ENDBRANCH   1  21
TORSDOF 4
