REMARK  6 active torsions:
REMARK  status: ('A' for Active; 'I' for Inactive)
REMARK    1  A    between atoms: C4_4  and  N1_5 
REMARK    2  A    between atoms: N1_5  and  C5_6 
REMARK    3  A    between atoms: N1_5  and  S1_32 
REMARK    4  A    between atoms: C6_7  and  C7_8 
REMARK    5  A    between atoms: N2_9  and  O1_11 
REMARK    6  A    between atoms: C10_19  and  C11_20 
ROOT
HETATM    1  C1  UNL     1       4.366   0.533  -4.034  1.00  0.00     0.017 C 
HETATM    2  C2  UNL     1       4.077   1.135  -3.034  1.00  0.00    -0.088 C 
HETATM    3  C3  UNL     1       3.744   1.886  -1.842  1.00  0.00     0.082 C 
HETATM    4  C4  UNL     1       2.839   1.278  -0.904  1.00  0.00     0.118 C 
ENDROOT
BRANCH   4   5
HETATM    5  N1  UNL     1       2.995   0.141  -0.086  1.00  0.00    -0.249 N 
BRANCH   5   6
HETATM    6  C5  UNL     1       2.494  -1.156  -0.324  1.00  0.00     0.076 A 
HETATM    7  C6  UNL     1       3.203  -2.260  -0.637  1.00  0.00     0.025 A 
HETATM    8  C8  UNL     1       2.452  -3.461  -0.709  1.00  0.00     0.105 A 
HETATM    9  N3  UNL     1       1.139  -3.504  -0.490  1.00  0.00    -0.351 N 
HETATM   10  C9  UNL     1       0.416  -2.417  -0.181  1.00  0.00     0.118 A 
ATOM     11  H3  UNL     1       0.662  -4.403  -0.560  1.00  0.00     0.166 HD
HETATM   12  N4  UNL     1      -0.919  -2.175   0.032  1.00  0.00    -0.344 N 
HETATM   13  C22 UNL     1       1.094  -1.230  -0.096  1.00  0.00     0.039 A 
HETATM   14  C10 UNL     1      -1.117  -0.860   0.251  1.00  0.00     0.020 A 
ATOM     15  H4  UNL     1      -1.652  -2.885   0.025  1.00  0.00     0.167 HD
HETATM   16  C21 UNL     1       0.150  -0.286   0.168  1.00  0.00     0.043 A 
BRANCH   7  17
HETATM   17  C7  UNL     1       4.611  -2.297  -0.923  1.00  0.00     0.129 C 
HETATM   18  N2  UNL     1       5.380  -1.347  -0.951  1.00  0.00    -0.280 N 
ATOM     19  H2  UNL     1       4.905  -0.469  -0.742  1.00  0.00     0.193 HD
BRANCH  18  20
HETATM   20  O1  UNL     1       6.689  -1.162  -1.186  1.00  0.00    -0.290 OA
ATOM     21  H1  UNL     1       7.287  -0.424  -1.208  1.00  0.00     0.244 HD
ENDBRANCH  18  20
ENDBRANCH   7  17
BRANCH  14  22
HETATM   22  C11 UNL     1      -2.397  -0.108   0.468  1.00  0.00     0.003 C 
HETATM   23  C12 UNL     1      -3.519  -1.076   0.704  1.00  0.00     0.020 C 
HETATM   24  C13 UNL     1      -4.847  -0.394   0.769  1.00  0.00    -0.013 C 
HETATM   25  C14 UNL     1      -5.116   0.327  -0.549  1.00  0.00     0.009 C 
HETATM   26  C18 UNL     1      -4.807   0.634   1.876  1.00  0.00     0.009 C 
HETATM   27  C15 UNL     1      -4.015   1.322  -0.750  1.00  0.00    -0.013 C 
HETATM   28  C16 UNL     1      -3.907   2.328   0.385  1.00  0.00     0.009 C 
HETATM   29  C20 UNL     1      -2.700   0.637  -0.843  1.00  0.00     0.020 C 
HETATM   30  C17 UNL     1      -3.672   1.584   1.659  1.00  0.00    -0.013 C 
HETATM   31  C19 UNL     1      -2.330   0.852   1.614  1.00  0.00     0.020 C 
ENDBRANCH  14  22
ENDBRANCH   5   6
BRANCH   5  32
HETATM   32  S1  UNL     1       3.635   0.440   1.532  1.00  0.00     0.233 S 
HETATM   33  C23 UNL     1       2.308   0.264   2.752  1.00  0.00     0.186 C 
HETATM   34  O2  UNL     1       4.112   1.868   1.651  1.00  0.00    -0.206 OA
HETATM   35  O3  UNL     1       4.659  -0.537   1.974  1.00  0.00    -0.206 OA
ENDBRANCH   5  32
ENDBRANCH   4   5
TORSDOF 6
