REMARK  7 active torsions:
REMARK  status: ('A' for Active; 'I' for Inactive)
REMARK    1  A    between atoms: C4_10  and  C5_11 
REMARK    2  A    between atoms: C5_11  and  O1_12 
REMARK    3  A    between atoms: C5_11  and  C6_14 
REMARK    4  A    between atoms: C7_15  and  C8_16 
REMARK    5  A    between atoms: C9_20  and  N3_21 
REMARK    6  A    between atoms: N3_21  and  C10_23 
REMARK    7  A    between atoms: C16_29  and  N4_30 
ROOT
HETATM    1  C6  UNL     1      -1.287  -1.192  -0.554  1.00  0.00     0.033 A 
HETATM    2  C7  UNL     1      -1.305  -1.954  -1.741  1.00  0.00     0.095 A 
HETATM    3  S1  UNL     1       0.302  -1.882  -2.278  1.00  0.00    -0.063 SA
HETATM    4  C9  UNL     1       0.992  -0.907  -1.032  1.00  0.00     0.105 A 
HETATM    5  C16 UNL     1      -0.079  -0.664  -0.222  1.00  0.00     0.146 A 
ENDROOT
BRANCH   1   6
HETATM    6  C5  UNL     1      -2.556  -1.186   0.253  1.00  0.00     0.187 C 
BRANCH   6   7
HETATM    7  C4  UNL     1      -2.845  -0.058   1.177  1.00  0.00     0.200 C 
HETATM    8  C3  UNL     1      -3.294   1.175   0.398  1.00  0.00     0.220 C 
HETATM    9  C2  UNL     1      -4.806   1.151   0.171  1.00  0.00     0.163 C 
HETATM   10  F1  UNL     1      -2.731   1.192  -0.871  1.00  0.00    -0.245 F 
HETATM   11  N2  UNL     1      -5.466   1.291   1.477  1.00  0.00    -0.354 N 
HETATM   12  C1  UNL     1      -4.881   0.436   2.490  1.00  0.00     0.213 C 
ATOM     13  H2  UNL     1      -6.249   1.921   1.651  1.00  0.00     0.163 HD
HETATM   14  N1  UNL     1      -5.223   0.571   3.729  1.00  0.00    -0.365 N 
HETATM   15  O6  UNL     1      -3.977  -0.482   2.020  1.00  0.00    -0.311 OA
ATOM     16  H12 UNL     1      -5.895   1.254   4.079  1.00  0.00     0.159 HD
ATOM     17  H11 UNL     1      -4.811  -0.031   4.442  1.00  0.00     0.159 HD
ENDBRANCH   6   7
BRANCH   6  18
HETATM   18  O1  UNL     1      -2.303  -2.302   1.155  1.00  0.00    -0.388 OA
ATOM     19  H1  UNL     1      -2.118  -3.023   0.564  1.00  0.00     0.210 HD
ENDBRANCH   6  18
ENDBRANCH   1   6
BRANCH   2  20
HETATM   20  C8  UNL     1      -2.406  -2.657  -2.405  1.00  0.00     0.217 C 
HETATM   21  O2  UNL     1      -3.562  -2.718  -2.038  1.00  0.00    -0.643 OA
HETATM   22  O3  UNL     1      -2.087  -3.335  -3.607  1.00  0.00    -0.643 OA
ENDBRANCH   2  20
BRANCH   5  23
HETATM   23  N4  UNL     1       0.187   0.119   0.995  1.00  0.00    -0.112 N 
HETATM   24  O4  UNL     1       0.146   1.336   1.037  1.00  0.00    -0.532 OA
HETATM   25  O5  UNL     1       0.553  -0.575   2.144  1.00  0.00    -0.532 OA
ENDBRANCH   5  23
BRANCH   4  26
HETATM   26  N3  UNL     1       2.391  -0.574  -0.957  1.00  0.00    -0.378 N 
ATOM     27  H3  UNL     1       2.954  -1.024  -1.679  1.00  0.00     0.160 HD
BRANCH  26  28
HETATM   28  C10 UNL     1       3.135   0.239  -0.098  1.00  0.00     0.082 C 
HETATM   29  C11 UNL     1       3.279   1.638  -0.675  1.00  0.00     0.025 C 
HETATM   30  C12 UNL     1       4.665   2.193  -0.416  1.00  0.00     0.002 C 
HETATM   31  C13 UNL     1       5.744   1.338  -1.034  1.00  0.00     0.000 C 
HETATM   32  C14 UNL     1       5.331  -0.120  -1.125  1.00  0.00     0.002 C 
HETATM   33  C15 UNL     1       4.520  -0.408   0.092  1.00  0.00     0.025 C 
ENDBRANCH  26  28
ENDBRANCH   4  26
TORSDOF 7
