REMARK  9 active torsions:
REMARK  status: ('A' for Active; 'I' for Inactive)
REMARK    1  A    between atoms: C2_2  and  C3_3 
REMARK    2  A    between atoms: C3_3  and  C4_4 
REMARK    3  A    between atoms: C4_4  and  N1_5 
REMARK    4  A    between atoms: C6_7  and  C7_8 
REMARK    5  A    between atoms: C7_8  and  S1_9 
REMARK    6  A    between atoms: S1_9  and  C8_10 
REMARK    7  A    between atoms: C9_13  and  N3_14 
REMARK    8  A    between atoms: C10_19  and  N5_20 
REMARK    9  A    between atoms: C12_29  and  N8_30 
REMARK       I    between atoms: N8_30  and  C13_32 
REMARK       I    between atoms: C13_32  and  N9_33 
REMARK       I    between atoms: C13_32  and  N10_37 
ROOT
HETATM    1  N1  UNL     1      -1.693   0.592  -0.712  1.00  0.00    -0.193 N 
HETATM    2  C5  UNL     1      -0.405   1.067  -0.527  1.00  0.00     0.122 A 
HETATM    3  C6  UNL     1       0.619   0.590  -1.252  1.00  0.00     0.036 A 
HETATM    4  C11 UNL     1       0.331  -0.387  -2.196  1.00  0.00     0.268 A 
HETATM    5  O1  UNL     1       1.298  -0.832  -2.903  1.00  0.00    -0.267 OA
HETATM    6  N7  UNL     1      -0.924  -0.839  -2.357  1.00  0.00    -0.155 N 
ATOM      7  H7  UNL     1      -1.100  -1.560  -3.056  1.00  0.00     0.187 HD
HETATM    8  C12 UNL     1      -1.975  -0.367  -1.617  1.00  0.00     0.686 A 
ENDROOT
BRANCH   3   9
HETATM    9  C7  UNL     1       2.060   0.995  -1.145  1.00  0.00     0.128 C 
BRANCH   9  10
HETATM   10  S1  UNL     1       2.858  -0.503  -0.415  1.00  0.00    -0.088 SA
BRANCH  10  11
HETATM   11  C8  UNL     1       4.442  -0.200   0.274  1.00  0.00     0.174 A 
HETATM   12  N2  UNL     1       4.531  -0.265   1.642  1.00  0.00    -0.170 N 
HETATM   13  C9  UNL     1       5.700  -0.127   2.247  1.00  0.00     0.692 A 
ATOM     14  H2  UNL     1       3.689  -0.421   2.197  1.00  0.00     0.186 HD
HETATM   15  N4  UNL     1       6.847   0.080   1.595  1.00  0.00    -0.023 N 
HETATM   16  C10 UNL     1       6.760   0.147   0.248  1.00  0.00     0.692 A 
ATOM     17  H4  UNL     1       7.736   0.182   2.085  1.00  0.00     0.203 HD
HETATM   18  N6  UNL     1       5.576   0.005  -0.407  1.00  0.00    -0.170 N 
ATOM     19  H6  UNL     1       5.552   0.055  -1.425  1.00  0.00     0.186 HD
BRANCH  13  20
HETATM   20  N3  UNL     1       5.756  -0.232   3.524  1.00  0.00    -0.234 N 
ATOM     21  H32 UNL     1       4.880  -0.390   4.022  1.00  0.00     0.174 HD
ATOM     22  H31 UNL     1       6.657  -0.126   3.990  1.00  0.00     0.174 HD
ENDBRANCH  13  20
BRANCH  16  23
HETATM   23  N5  UNL     1       7.822   0.378  -0.436  1.00  0.00    -0.234 N 
ATOM     24  H52 UNL     1       8.710   0.484   0.055  1.00  0.00     0.174 HD
ATOM     25  H51 UNL     1       7.756   0.429  -1.453  1.00  0.00     0.174 HD
ENDBRANCH  16  23
ENDBRANCH  10  11
ENDBRANCH   9  10
ENDBRANCH   3   9
BRANCH   1  26
HETATM   26  C4  UNL     1      -2.696   1.218   0.078  1.00  0.00     0.147 C 
BRANCH  26  27
HETATM   27  C3  UNL     1      -2.847   0.737   1.478  1.00  0.00     0.020 C 
BRANCH  27  28
HETATM   28  C2  UNL     1      -3.928   1.615   2.127  1.00  0.00    -0.003 C 
HETATM   29  C1  UNL     1      -4.138   1.271   3.591  1.00  0.00     0.005 C 
ENDBRANCH  27  28
ENDBRANCH  26  27
ENDBRANCH   1  26
BRANCH   8  30
HETATM   30  N8  UNL     1      -3.141  -0.808  -1.683  1.00  0.00    -0.173 N 
HETATM   31  C13 UNL     1      -3.840  -1.755  -2.428  1.00  0.00     0.494 C 
HETATM   32  N9  UNL     1      -3.168  -2.560  -3.375  1.00  0.00    -0.032 N 
HETATM   33  N10 UNL     1      -4.313  -2.775  -1.403  1.00  0.00    -0.032 N 
ATOM     34  H93 UNL     1      -2.672  -1.947  -4.022  1.00  0.00     0.278 HD
ATOM     35  H92 UNL     1      -2.395  -3.031  -2.904  1.00  0.00     0.278 HD
ATOM     36  H91 UNL     1      -3.680  -3.253  -3.921  1.00  0.00     0.278 HD
ATOM     37 3H10 UNL     1      -3.565  -3.166  -0.830  1.00  0.00     0.278 HD
ATOM     38 2H10 UNL     1      -4.849  -2.374  -0.633  1.00  0.00     0.278 HD
ATOM     39 1H10 UNL     1      -4.825  -3.468  -1.949  1.00  0.00     0.278 HD
ATOM     40  H8  UNL     1      -3.749  -0.349  -1.005  1.00  0.00     0.181 HD
ENDBRANCH   8  30
TORSDOF 9
