REMARK  13 active torsions:
REMARK  status: ('A' for Active; 'I' for Inactive)
REMARK    1  A    between atoms: C2_2  and  C3_3 
REMARK    2  A    between atoms: C3_3  and  C4_4 
REMARK    3  A    between atoms: C4_4  and  C5_5 
REMARK    4  A    between atoms: C5_5  and  N1_6 
REMARK    5  A    between atoms: N1_6  and  C6_8 
REMARK    6  A    between atoms: C7_11  and  N3_12 
REMARK    7  A    between atoms: C9_18  and  N5_19 
REMARK    8  A    between atoms: C10_24  and  N7_25 
REMARK    9  A    between atoms: N8_28  and  C11_29 
REMARK   10  A    between atoms: C12_31  and  C13_32 
REMARK   11  A    between atoms: C13_32  and  N9_33 
REMARK   12  A    between atoms: C15_37  and  O2_38 
REMARK   13  A    between atoms: C16_40  and  O3_41 
ROOT
HETATM    1  C6  UNL     1      -1.211   1.728  -0.356  1.00  0.00     0.147 A 
HETATM    2  N2  UNL     1      -2.438   2.295  -0.422  1.00  0.00    -0.175 N 
ATOM      3  H2  UNL     1      -3.216   1.747  -0.789  1.00  0.00     0.186 HD
HETATM    4  C7  UNL     1      -2.663   3.552  -0.021  1.00  0.00     0.678 A 
HETATM    5  N4  UNL     1      -1.624   4.260   0.461  1.00  0.00    -0.186 N 
ATOM      6  H4  UNL     1      -1.770   5.220   0.773  1.00  0.00     0.184 HD
HETATM    7  C8  UNL     1      -0.376   3.707   0.537  1.00  0.00     0.124 A 
HETATM    8  C9  UNL     1       0.672   4.446   1.031  1.00  0.00     0.144 A 
HETATM    9  N6  UNL     1       1.853   3.865   1.081  1.00  0.00    -0.174 N 
ATOM     10  H6  UNL     1       2.644   4.397   1.444  1.00  0.00     0.186 HD
HETATM   11  C10 UNL     1       2.058   2.608   0.676  1.00  0.00     0.686 A 
HETATM   12  N8  UNL     1       1.072   1.784   0.165  1.00  0.00    -0.122 N 
HETATM   13  C17 UNL     1      -0.131   2.404   0.124  1.00  0.00     0.134 A 
ENDROOT
BRANCH  12  14
HETATM   14  C11 UNL     1       1.332   0.468  -0.254  1.00  0.00     0.174 C 
HETATM   15  O1  UNL     1       1.006  -0.659   0.480  1.00  0.00    -0.326 OA
HETATM   16  C12 UNL     1       1.831  -1.660   0.001  1.00  0.00     0.187 C 
HETATM   17  C15 UNL     1       2.341  -1.286  -1.346  1.00  0.00     0.186 C 
HETATM   18  C16 UNL     1       1.833   0.147  -1.608  1.00  0.00     0.225 C 
BRANCH  16  19
HETATM   19  C13 UNL     1       2.898  -2.059   0.984  1.00  0.00     0.266 C 
BRANCH  19  20
HETATM   20  N9  UNL     1       3.742  -3.109   0.455  1.00  0.00    -0.076 N 
HETATM   21  C14 UNL     1       4.743  -3.430   1.479  1.00  0.00     0.267 C 
ATOM     22  H92 UNL     1       3.214  -3.925   0.146  1.00  0.00     0.276 HD
ATOM     23  H91 UNL     1       4.157  -2.869  -0.445  1.00  0.00     0.276 HD
ENDBRANCH  19  20
ENDBRANCH  16  19
BRANCH  17  24
HETATM   24  O2  UNL     1       1.934  -2.155  -2.351  1.00  0.00    -0.390 OA
ATOM     25  H2  UNL     1       2.260  -1.916  -3.211  1.00  0.00     0.210 HD
ENDBRANCH  17  24
BRANCH  18  26
HETATM   26  O3  UNL     1       2.931   0.952  -2.010  1.00  0.00    -0.385 OA
ATOM     27  H3  UNL     1       3.253   0.746  -2.880  1.00  0.00     0.210 HD
ENDBRANCH  18  26
ENDBRANCH  12  14
BRANCH  11  28
HETATM   28  N7  UNL     1       3.254   2.209   0.797  1.00  0.00    -0.234 N 
ATOM     29  H72 UNL     1       3.981   2.817   1.174  1.00  0.00     0.174 HD
ATOM     30  H71 UNL     1       3.410   1.250   0.488  1.00  0.00     0.174 HD
ENDBRANCH  11  28
BRANCH   1  31
HETATM   31  N1  UNL     1      -1.126   0.565  -0.759  1.00  0.00    -0.374 N 
ATOM     32  H1  UNL     1      -0.188   0.169  -0.694  1.00  0.00     0.161 HD
BRANCH  31  33
HETATM   33  C5  UNL     1      -2.102  -0.328  -1.300  1.00  0.00     0.121 C 
BRANCH  33  34
HETATM   34  C4  UNL     1      -2.913  -1.013  -0.223  1.00  0.00     0.020 C 
BRANCH  34  35
HETATM   35  C3  UNL     1      -3.912  -1.929  -0.899  1.00  0.00     0.001 C 
BRANCH  35  36
HETATM   36  C2  UNL     1      -4.771  -2.661   0.099  1.00  0.00    -0.004 C 
HETATM   37  C1  UNL     1      -3.902  -3.494   0.992  1.00  0.00     0.005 C 
ENDBRANCH  35  36
ENDBRANCH  34  35
ENDBRANCH  33  34
ENDBRANCH  31  33
ENDBRANCH   1  31
BRANCH   8  38
HETATM   38  N5  UNL     1       0.506   5.668   1.433  1.00  0.00    -0.383 N 
ATOM     39  H52 UNL     1      -0.409   6.118   1.394  1.00  0.00     0.157 HD
ATOM     40  H51 UNL     1       1.284   6.217   1.800  1.00  0.00     0.157 HD
ENDBRANCH   8  38
BRANCH   4  41
HETATM   41  N3  UNL     1      -3.811   4.116  -0.071  1.00  0.00    -0.234 N 
ATOM     42  H32 UNL     1      -4.598   3.580  -0.436  1.00  0.00     0.174 HD
ATOM     43  H31 UNL     1      -3.982   5.074   0.235  1.00  0.00     0.174 HD
ENDBRANCH   4  41
TORSDOF 13
