REMARK  8 active torsions:
REMARK  status: ('A' for Active; 'I' for Inactive)
REMARK    1  A    between atoms: C2_2  and  N1_3 
REMARK    2  A    between atoms: N1_3  and  C3_5 
REMARK    3  A    between atoms: C3_5  and  C4_6 
REMARK    4  A    between atoms: C4_6  and  O1_7 
REMARK    5  A    between atoms: O1_7  and  C5_8 
REMARK    6  A    between atoms: C5_8  and  C6_9 
REMARK    7  A    between atoms: N5_20  and  N6_22 
REMARK    8  A    between atoms: C9_25  and  O3_26 
ROOT
HETATM    1  C6  UNL     1      -1.425   0.042  -0.331  1.00  0.00     0.192 C 
HETATM    2  O2  UNL     1      -1.816  -1.121  -1.045  1.00  0.00    -0.311 OA
HETATM    3  C7  UNL     1      -3.117  -1.490  -1.347  1.00  0.00     0.232 C 
HETATM    4  N2  UNL     1      -3.275  -2.417  -2.221  1.00  0.00    -0.364 N 
ATOM      5  H21 UNL     1      -4.233  -2.689  -2.443  1.00  0.00     0.159 HD
ATOM      6  H22 UNL     1      -2.401  -2.781  -2.600  1.00  0.00     0.159 HD
HETATM    7  N3  UNL     1      -4.355  -0.974  -0.811  1.00  0.00    -0.264 N 
ATOM      8  H3  UNL     1      -5.230  -1.332  -1.195  1.00  0.00     0.190 HD
HETATM    9  N4  UNL     1      -4.427  -0.003   0.214  1.00  0.00    -0.283 N 
ATOM     10  H4  UNL     1      -5.365   0.342   0.417  1.00  0.00     0.188 HD
HETATM   11  C8  UNL     1      -3.394   0.566   1.005  1.00  0.00     0.142 C 
HETATM   12  N5  UNL     1      -3.602   1.601   1.718  1.00  0.00    -0.292 N 
ATOM     13  H5  UNL     1      -2.836   1.982   2.273  1.00  0.00     0.187 HD
HETATM   14  C9  UNL     1      -1.993  -0.014   1.049  1.00  0.00     0.219 C 
ENDROOT
BRANCH   1  15
HETATM   15  C5  UNL     1       0.076   0.201  -0.367  1.00  0.00     0.203 C 
BRANCH  15  16
HETATM   16  O1  UNL     1       0.731  -0.867   0.179  1.00  0.00    -0.387 OA
BRANCH  16  17
HETATM   17  C4  UNL     1       2.085  -0.774   0.172  1.00  0.00     0.186 C 
BRANCH  17  18
HETATM   18  C3  UNL     1       2.673  -0.667  -1.197  1.00  0.00     0.140 C 
BRANCH  18  19
HETATM   19  N1  UNL     1       4.120  -0.573  -1.172  1.00  0.00    -0.419 N 
ATOM     20  H1  UNL     1       4.724  -1.316  -1.525  1.00  0.00     0.153 HD
BRANCH  19  21
HETATM   21  C2  UNL     1       4.635   0.633  -0.618  1.00  0.00     0.109 C 
HETATM   22  C1  UNL     1       6.150   0.604  -0.659  1.00  0.00     0.026 C 
ENDBRANCH  19  21
ENDBRANCH  18  19
ENDBRANCH  17  18
ENDBRANCH  16  17
ENDBRANCH  15  16
ENDBRANCH   1  15
BRANCH  14  23
HETATM   23  O3  UNL     1      -1.243   0.668   2.003  1.00  0.00    -0.385 OA
ATOM     24  H3  UNL     1      -1.604   0.632   2.881  1.00  0.00     0.210 HD
ENDBRANCH  14  23
BRANCH  12  25
HETATM   25  N6  UNL     1      -4.831   2.220   1.762  1.00  0.00    -0.344 N 
ATOM     26  H62 UNL     1      -5.586   1.826   1.201  1.00  0.00     0.176 HD
ATOM     27  H61 UNL     1      -4.998   3.049   2.333  1.00  0.00     0.176 HD
ENDBRANCH  12  25
TORSDOF 8
