REMARK  13 active torsions:
REMARK  status: ('A' for Active; 'I' for Inactive)
REMARK    1  A    between atoms: N2_4  and  N3_6 
REMARK    2  A    between atoms: N3_6  and  C1_8 
REMARK    3  A    between atoms: C1_8  and  C2_9 
REMARK    4  A    between atoms: C1_8  and  C6_17 
REMARK    5  A    between atoms: C2_9  and  C3_10 
REMARK    6  A    between atoms: C3_10  and  C4_11 
REMARK    7  A    between atoms: C4_11  and  C5_12 
REMARK    8  A    between atoms: C5_12  and  N4_13 
REMARK    9  A    between atoms: C6_17  and  O1_18 
REMARK   10  A    between atoms: O1_18  and  C7_19 
REMARK   11  A    between atoms: C8_23  and  N6_24 
REMARK   12  A    between atoms: C13_34  and  C14_35 
REMARK   13  A    between atoms: C14_35  and  O5_36 
ROOT
HETATM    1  C7  UNL     1      -0.998   0.482   0.435  1.00  0.00     0.357 C 
HETATM    2  N5  UNL     1      -2.025   0.874  -0.479  1.00  0.00    -0.001 N 
ATOM      3  H51 UNL     1      -1.713   1.056  -1.433  1.00  0.00     0.285 HD
ATOM      4  H52 UNL     1      -2.409   1.807  -0.328  1.00  0.00     0.285 HD
HETATM    5  C8  UNL     1      -2.969  -0.215  -0.334  1.00  0.00     0.442 C 
HETATM    6  O4  UNL     1      -2.866  -0.634   1.000  1.00  0.00    -0.331 OA
HETATM    7  C13 UNL     1      -1.975   0.196   1.632  1.00  0.00     0.206 C 
ENDROOT
BRANCH   1   8
HETATM    8  O1  UNL     1      -0.456  -0.707   0.017  1.00  0.00    -0.355 OA
BRANCH   8   9
HETATM    9  C6  UNL     1       0.866  -0.897   0.114  1.00  0.00     0.197 C 
BRANCH   9  10
HETATM   10  C1  UNL     1       1.826  -0.061  -0.653  1.00  0.00     0.124 C 
BRANCH  10  11
HETATM   11  N3  UNL     1       1.787  -0.137  -2.067  1.00  0.00    -0.316 N 
ATOM     12  H3  UNL     1       2.616  -0.479  -2.553  1.00  0.00     0.182 HD
BRANCH  11  13
HETATM   13  N2  UNL     1       0.700   0.223  -2.819  1.00  0.00    -0.253 N 
HETATM   14  N1  UNL     1       0.156  -0.551  -3.668  1.00  0.00    -0.331 N 
ATOM     15  H12 UNL     1       0.560  -1.480  -3.782  1.00  0.00     0.178 HD
ATOM     16  H11 UNL     1      -0.653  -0.283  -4.228  1.00  0.00     0.178 HD
ATOM     17  H2  UNL     1       0.309   1.156  -2.692  1.00  0.00     0.207 HD
ENDBRANCH  11  13
ENDBRANCH  10  11
BRANCH  10  18
HETATM   18  C2  UNL     1       3.218  -0.499  -0.154  1.00  0.00     0.029 C 
BRANCH  18  19
HETATM   19  C3  UNL     1       4.314   0.357  -0.679  1.00  0.00     0.004 C 
BRANCH  19  20
HETATM   20  C4  UNL     1       5.631  -0.145  -0.146  1.00  0.00     0.027 C 
BRANCH  20  21
HETATM   21  C5  UNL     1       5.677  -0.105   1.364  1.00  0.00     0.229 C 
BRANCH  21  22
HETATM   22  N4  UNL     1       6.968  -0.592   1.838  1.00  0.00    -0.079 N 
ATOM     23  H43 UNL     1       7.183  -1.520   1.474  1.00  0.00     0.274 HD
ATOM     24  H42 UNL     1       7.746  -0.083   1.418  1.00  0.00     0.274 HD
ATOM     25  H41 UNL     1       6.999  -0.565   2.857  1.00  0.00     0.274 HD
ENDBRANCH  21  22
ENDBRANCH  20  21
ENDBRANCH  19  20
ENDBRANCH  18  19
ENDBRANCH  10  18
ENDBRANCH   9  10
ENDBRANCH   8   9
ENDBRANCH   1   8
BRANCH   7  26
HETATM   26  C14 UNL     1      -1.260  -0.371   2.785  1.00  0.00     0.200 C 
BRANCH  26  27
HETATM   27  O5  UNL     1      -2.186  -0.748   3.746  1.00  0.00    -0.398 OA
ATOM     28  H5  UNL     1      -1.724  -1.114   4.491  1.00  0.00     0.209 HD
ENDBRANCH  26  27
ENDBRANCH   7  26
BRANCH   5  29
HETATM   29  N6  UNL     1      -4.315   0.144  -0.631  1.00  0.00    -0.259 N 
HETATM   30  C9  UNL     1      -5.205  -0.841  -0.849  1.00  0.00     0.105 A 
HETATM   31  C10 UNL     1      -6.528  -0.600  -1.143  1.00  0.00     0.092 A 
HETATM   32  C11 UNL     1      -6.940   0.714  -1.212  1.00  0.00     0.250 A 
HETATM   33  O2  UNL     1      -8.144   1.033  -1.478  1.00  0.00    -0.268 OA
HETATM   34  N7  UNL     1      -6.021   1.681  -0.987  1.00  0.00    -0.275 N 
HETATM   35  C12 UNL     1      -4.732   1.406  -0.702  1.00  0.00     0.332 A 
ATOM     36  H7  UNL     1      -6.315   2.657  -1.035  1.00  0.00     0.173 HD
HETATM   37  O3  UNL     1      -3.900   2.320  -0.498  1.00  0.00    -0.246 OA
ENDBRANCH   5  29
TORSDOF 13
