REMARK  6 active torsions:
REMARK  status: ('A' for Active; 'I' for Inactive)
REMARK    1  A    between atoms: N1_1  and  C1_5 
REMARK    2  A    between atoms: C1_5  and  C2_6 
REMARK    3  A    between atoms: C2_6  and  N2_7 
REMARK    4  A    between atoms: N2_7  and  C3_9 
REMARK    5  A    between atoms: C4_12  and  N4_13 
REMARK    6  A    between atoms: N4_13  and  N5_15 
ROOT
HETATM    1  C3  UNL     1       0.341   0.212   0.136  1.00  0.00     0.707 A 
HETATM    2  N3  UNL     1       1.462   0.434   0.841  1.00  0.00    -0.018 N 
ATOM      3  H3  UNL     1       1.515   0.651   1.836  1.00  0.00     0.203 HD
HETATM    4  C4  UNL     1       2.496   0.320   0.003  1.00  0.00     0.726 A 
HETATM    5  N6  UNL     1       1.980   0.027  -1.206  1.00  0.00    -0.116 N 
ATOM      6  H6  UNL     1       2.530  -0.120  -2.052  1.00  0.00     0.206 HD
HETATM    7  N7  UNL     1       0.662  -0.043  -1.144  1.00  0.00    -0.117 N 
ATOM      8  H7  UNL     1       0.020  -0.248  -1.910  1.00  0.00     0.206 HD
ENDROOT
BRANCH   1   9
HETATM    9  N2  UNL     1      -0.997   0.237   0.650  1.00  0.00    -0.223 N 
ATOM     10  H2  UNL     1      -1.156   0.439   1.637  1.00  0.00     0.177 HD
BRANCH   9  11
HETATM   11  C2  UNL     1      -2.124  -0.021  -0.219  1.00  0.00     0.165 C 
BRANCH  11  12
HETATM   12  C1  UNL     1      -3.392   0.072   0.588  1.00  0.00     0.249 C 
BRANCH  12  13
HETATM   13  N1  UNL     1      -3.299  -0.938   1.642  1.00  0.00    -0.078 N 
ATOM     14  H13 UNL     1      -3.118  -1.876   1.285  1.00  0.00     0.274 HD
ATOM     15  H12 UNL     1      -2.455  -0.851   2.208  1.00  0.00     0.274 HD
ATOM     16  H11 UNL     1      -4.158  -0.875   2.189  1.00  0.00     0.274 HD
ENDBRANCH  12  13
ENDBRANCH  11  12
ENDBRANCH   9  11
ENDBRANCH   1   9
BRANCH   4  17
HETATM   17  N4  UNL     1       3.727   0.467   0.326  1.00  0.00    -0.137 N 
ATOM     18  H4  UNL     1       3.954   0.689   1.295  1.00  0.00     0.205 HD
BRANCH  17  19
HETATM   19  N5  UNL     1       4.772   0.337  -0.591  1.00  0.00    -0.331 N 
ATOM     20  H52 UNL     1       4.527   0.115  -1.556  1.00  0.00     0.177 HD
ATOM     21  H51 UNL     1       5.752   0.454  -0.334  1.00  0.00     0.177 HD
ENDBRANCH  17  19
ENDBRANCH   4  17
TORSDOF 6
