REMARK  2 active torsions:
REMARK  status: ('A' for Active; 'I' for Inactive)
REMARK    1  A    between atoms: O1_2  and  C2_3 
REMARK    2  A    between atoms: C2_3  and  N1_4 
ROOT
HETATM    1  N1  UNL     1       0.422   0.813  -0.233  1.00  0.00    -0.240 N 
HETATM    2  N2  UNL     1       0.503   2.122  -0.313  1.00  0.00    -0.223 N 
ATOM      3  H2  UNL     1      -0.277   2.743  -0.529  1.00  0.00     0.210 HD
HETATM    4  N3  UNL     1       1.724   2.513  -0.077  1.00  0.00    -0.227 N 
ATOM      5  H3  UNL     1       2.049   3.480  -0.078  1.00  0.00     0.210 HD
HETATM    6  N4  UNL     1       2.465   1.458   0.162  1.00  0.00    -0.272 N 
ATOM      7  H4  UNL     1       3.462   1.452   0.379  1.00  0.00     0.190 HD
HETATM    8  C3  UNL     1       1.661   0.389   0.067  1.00  0.00     0.114 A 
HETATM    9  C4  UNL     1       2.137  -1.005   0.274  1.00  0.00     0.092 C 
ENDROOT
BRANCH   1  10
HETATM   10  C2  UNL     1      -0.763   0.031  -0.432  1.00  0.00     0.319 C 
BRANCH  10  11
HETATM   11  O1  UNL     1      -1.479  -0.165   0.763  1.00  0.00    -0.375 OA
HETATM   12  C1  UNL     1      -2.604  -0.940   0.421  1.00  0.00     0.203 C 
ENDBRANCH  10  11
ENDBRANCH   1  10
TORSDOF 2
