REMARK  7 active torsions:
REMARK  status: ('A' for Active; 'I' for Inactive)
REMARK    1  A    between atoms: N2_6  and  C4_8 
REMARK    2  A    between atoms: C10_16  and  O2_17 
REMARK    3  A    between atoms: C11_19  and  C12_20 
REMARK    4  A    between atoms: C12_20  and  O3_21 
REMARK    5  A    between atoms: C12_20  and  N3_23 
REMARK    6  A    between atoms: N3_23  and  C13_24 
REMARK    7  A    between atoms: N3_23  and  C16_27 
ROOT
HETATM    1  C1  UNL     1      -0.280   1.698   1.042  1.00  0.00     0.069 C 
HETATM    2  C2  UNL     1       0.177   0.717   0.080  1.00  0.00     0.020 A 
HETATM    3  N1  UNL     1       1.453   0.260   0.203  1.00  0.00    -0.344 N 
ATOM      4  H1  UNL     1       2.025   0.620   0.968  1.00  0.00     0.167 HD
HETATM    5  C3  UNL     1       1.989  -0.626  -0.618  1.00  0.00     0.126 A 
HETATM    6  N2  UNL     1       3.193  -1.075  -0.535  1.00  0.00    -0.370 N 
ATOM      7  H2  UNL     1       3.460  -1.756  -1.246  1.00  0.00     0.161 HD
HETATM    8  C9  UNL     1       1.210  -1.104  -1.647  1.00  0.00     0.111 A 
HETATM    9 CL1  UNL     1       1.785  -2.274  -2.802  1.00  0.00    -0.077 Cl
HETATM   10  C10 UNL     1      -0.108  -0.648  -1.797  1.00  0.00     0.103 A 
HETATM   11  C11 UNL     1      -0.666   0.276  -0.936  1.00  0.00     0.047 A 
ENDROOT
BRANCH  11  12
HETATM   12  C12 UNL     1      -2.019   0.832  -1.015  1.00  0.00     0.255 C 
BRANCH  12  13
HETATM   13  O3  UNL     1      -1.996   2.238  -0.982  1.00  0.00    -0.372 OA
ATOM     14  H3  UNL     1      -2.873   2.599  -1.033  1.00  0.00     0.212 HD
ENDBRANCH  12  13
BRANCH  12  15
HETATM   15  N3  UNL     1      -2.885   0.418   0.059  1.00  0.00    -0.377 N 
BRANCH  15  16
HETATM   16  C13 UNL     1      -4.192   0.968   0.013  1.00  0.00     0.074 C 
HETATM   17  C14 UNL     1      -5.044   0.618  -1.153  1.00  0.00     0.031 C 
HETATM   18  C15 UNL     1      -4.262   2.478   0.196  1.00  0.00     0.031 C 
ENDBRANCH  15  16
BRANCH  15  19
HETATM   19  C16 UNL     1      -2.832  -0.923   0.479  1.00  0.00     0.074 C 
HETATM   20  C17 UNL     1      -3.342  -1.926  -0.528  1.00  0.00     0.031 C 
HETATM   21  C18 UNL     1      -3.642  -1.099   1.744  1.00  0.00     0.031 C 
ENDBRANCH  15  19
ENDBRANCH  12  15
ENDBRANCH  11  12
BRANCH  10  22
HETATM   22  O2  UNL     1      -0.884  -1.130  -2.845  1.00  0.00    -0.358 OA
ATOM     23  H2  UNL     1      -1.777  -0.821  -2.947  1.00  0.00     0.217 HD
ENDBRANCH  10  22
BRANCH   6  24
HETATM   24  C4  UNL     1       4.196  -0.750   0.410  1.00  0.00     0.087 C 
HETATM   25  C5  UNL     1       4.684   0.658   0.380  1.00  0.00     0.051 C 
HETATM   26  C6  UNL     1       6.201   0.730   0.173  1.00  0.00     0.169 C 
HETATM   27  O1  UNL     1       6.750  -0.017   1.214  1.00  0.00    -0.391 OA
HETATM   28  C7  UNL     1       6.595  -1.349   0.927  1.00  0.00     0.169 C 
HETATM   29  C8  UNL     1       5.359  -1.711   0.185  1.00  0.00     0.051 C 
ENDBRANCH   6  24
TORSDOF 7
