REMARK  9 active torsions:
REMARK  status: ('A' for Active; 'I' for Inactive)
REMARK    1  A    between atoms: C2_3  and  C3_4 
REMARK    2  A    between atoms: N2_7  and  C6_8 
REMARK    3  A    between atoms: C6_8  and  C7_9 
REMARK    4  A    between atoms: C7_9  and  C8_10 
REMARK    5  A    between atoms: C8_10  and  C9_11 
REMARK    6  A    between atoms: C9_11  and  N3_12 
REMARK    7  A    between atoms: N4_15  and  C12_16 
REMARK    8  A    between atoms: C12_16  and  C13_17 
REMARK    9  A    between atoms: C13_17  and  O1_18 
ROOT
HETATM    1  N1  UNL     1      -8.162   0.659   1.154  1.00  0.00    -0.197 NA
HETATM    2  C1  UNL     1      -7.364   0.184   0.443  1.00  0.00     0.063 C 
HETATM    3  C2  UNL     1      -6.350  -0.397  -0.434  1.00  0.00     0.163 C 
ENDROOT
BRANCH   3   4
HETATM    4  C3  UNL     1      -4.977   0.013  -0.046  1.00  0.00    -0.027 A 
HETATM    5  C4  UNL     1      -4.408   1.157  -0.584  1.00  0.00     0.028 A 
HETATM    6  C5  UNL     1      -3.115   1.549  -0.223  1.00  0.00     0.110 A 
HETATM    7  N2  UNL     1      -2.415   0.810   0.656  1.00  0.00    -0.304 N 
HETATM    8  N5  UNL     1      -2.965  -0.271   1.158  1.00  0.00    -0.310 N 
HETATM    9  C15 UNL     1      -4.199  -0.694   0.848  1.00  0.00     0.115 A 
ATOM     10  H5  UNL     1      -2.422  -0.822   1.823  1.00  0.00     0.186 HD
BRANCH   7  11
HETATM   11  C6  UNL     1      -1.085   1.181   1.061  1.00  0.00     0.148 C 
BRANCH  11  12
HETATM   12  C7  UNL     1      -0.017   0.611   0.192  1.00  0.00     0.023 C 
BRANCH  12  13
HETATM   13  C8  UNL     1      -0.032  -0.879   0.175  1.00  0.00     0.022 C 
BRANCH  13  14
HETATM   14  C9  UNL     1       1.038  -1.482  -0.692  1.00  0.00     0.129 C 
BRANCH  14  15
HETATM   15  N3  UNL     1       2.370  -1.124  -0.282  1.00  0.00    -0.352 N 
HETATM   16  C10 UNL     1       3.147  -1.803   0.609  1.00  0.00     0.109 A 
HETATM   17  C11 UNL     1       4.342  -1.122   0.706  1.00  0.00     0.109 A 
HETATM   18  N4  UNL     1       4.256  -0.059  -0.122  1.00  0.00    -0.350 N 
HETATM   19  C14 UNL     1       3.054  -0.059  -0.725  1.00  0.00     0.185 A 
BRANCH  18  20
HETATM   20  C12 UNL     1       5.310   0.907  -0.306  1.00  0.00     0.155 C 
BRANCH  20  21
HETATM   21  C13 UNL     1       6.192   0.427  -1.441  1.00  0.00     0.184 C 
BRANCH  21  22
HETATM   22  O1  UNL     1       7.209   1.361  -1.617  1.00  0.00    -0.399 OA
ATOM     23  H1  UNL     1       7.762   1.060  -2.329  1.00  0.00     0.209 HD
ENDBRANCH  21  22
ENDBRANCH  20  21
ENDBRANCH  18  20
ENDBRANCH  14  15
ENDBRANCH  13  14
ENDBRANCH  12  13
ENDBRANCH  11  12
ENDBRANCH   7  11
ENDBRANCH   3   4
TORSDOF 9
