REMARK  12 active torsions:
REMARK  status: ('A' for Active; 'I' for Inactive)
REMARK    1  A    between atoms: C2_2  and  C3_4 
REMARK    2  A    between atoms: C3_4  and  C4_5 
REMARK    3  A    between atoms: C3_4  and  N2_16 
REMARK    4  A    between atoms: C4_5  and  S1_6 
REMARK    5  A    between atoms: S1_6  and  C5_7 
REMARK    6  A    between atoms: C5_7  and  C6_8 
REMARK       I    between atoms: C6_8  and  N1_10 
REMARK    7  A    between atoms: N1_10  and  S2_12 
REMARK    8  A    between atoms: N2_16  and  N3_18 
REMARK       I    between atoms: N3_18  and  C7_20 
REMARK    9  A    between atoms: C7_20  and  C8_22 
REMARK   10  A    between atoms: C13_29  and  O9_30 
REMARK   11  A    between atoms: C16_35  and  O11_36 
REMARK   12  A    between atoms: N4_40  and  N5_41 
ROOT
HETATM    1  C8  UNL     1       1.760   0.373   0.614  1.00  0.00     0.107 A 
HETATM    2  C9  UNL     1       2.446   0.232   1.777  1.00  0.00     0.165 A 
HETATM    3  O7  UNL     1       3.778   0.221   1.810  1.00  0.00    -0.302 OA
HETATM    4  C10 UNL     1       4.482   0.345   0.741  1.00  0.00     0.185 A 
HETATM    5  C11 UNL     1       3.874   0.500  -0.474  1.00  0.00     0.101 A 
HETATM    6  C12 UNL     1       2.513   0.525  -0.600  1.00  0.00     0.206 A 
HETATM    7  O8  UNL     1       1.897   0.667  -1.668  1.00  0.00    -0.286 OA
HETATM    8  C13 UNL     1       4.522   0.600  -1.806  1.00  0.00     0.087 C 
HETATM    9  C14 UNL     1       5.744   0.158  -2.171  1.00  0.00     0.077 C 
HETATM   10  C15 UNL     1       6.702  -0.535  -1.304  1.00  0.00     0.110 A 
HETATM   11  O10 UNL     1       7.654  -1.362  -1.685  1.00  0.00    -0.286 OA
HETATM   12  C16 UNL     1       8.352  -1.817  -0.682  1.00  0.00     0.185 A 
HETATM   13  C17 UNL     1       7.829  -1.253   0.446  1.00  0.00     0.098 A 
HETATM   14  C18 UNL     1       6.784  -0.443   0.068  1.00  0.00     0.097 A 
HETATM   15  N4  UNL     1       5.911   0.286   0.964  1.00  0.00    -0.237 N 
ENDROOT
BRANCH   1  16
HETATM   16  C7  UNL     1       0.349   0.324   0.407  1.00  0.00     0.275 C 
HETATM   17  N3  UNL     1      -0.472   1.545   0.235  1.00  0.00    -0.269 N 
ATOM     18  H3  UNL     1      -0.101   2.491   0.322  1.00  0.00     0.190 HD
HETATM   19  O6  UNL     1      -0.286  -0.771   0.344  1.00  0.00    -0.266 OA
BRANCH  17  20
HETATM   20  N2  UNL     1      -1.707   1.285  -0.036  1.00  0.00    -0.321 N 
ATOM     21  H2  UNL     1      -1.869   0.370  -0.458  1.00  0.00     0.181 HD
BRANCH  20  22
HETATM   22  C3  UNL     1      -2.922   2.098   0.166  1.00  0.00     0.177 C 
BRANCH  22  23
HETATM   23  C2  UNL     1      -3.377   2.217  -1.196  1.00  0.00     0.147 C 
HETATM   24  C1  UNL     1      -3.962   1.190  -2.047  1.00  0.00     0.093 C 
HETATM   25  O1  UNL     1      -3.239   3.337  -1.780  1.00  0.00    -0.296 OA
ENDBRANCH  22  23
BRANCH  22  26
HETATM   26  C4  UNL     1      -3.554   1.573   1.379  1.00  0.00     0.113 C 
BRANCH  26  27
HETATM   27  S1  UNL     1      -3.975  -0.046   1.539  1.00  0.00    -0.134 SA
BRANCH  27  28
HETATM   28  C5  UNL     1      -5.355  -0.988   1.514  1.00  0.00     0.120 C 
BRANCH  28  29
HETATM   29  C6  UNL     1      -6.306  -1.257   0.459  1.00  0.00     0.262 C 
HETATM   30  O2  UNL     1      -6.145  -1.035  -0.723  1.00  0.00    -0.267 OA
HETATM   31  N1  UNL     1      -7.551  -1.834   0.866  1.00  0.00    -0.231 N 
ATOM     32  H1  UNL     1      -7.720  -2.042   1.850  1.00  0.00     0.184 HD
BRANCH  31  33
HETATM   33  S2  UNL     1      -8.755  -2.174  -0.300  1.00  0.00     0.211 S 
HETATM   34  O3  UNL     1      -8.699  -1.212  -1.447  1.00  0.00    -0.578 OA
HETATM   35  O4  UNL     1     -10.126  -2.103   0.345  1.00  0.00    -0.578 OA
HETATM   36  O5  UNL     1      -8.594  -3.769  -0.842  1.00  0.00    -0.578 OA
ENDBRANCH  31  33
ENDBRANCH  28  29
ENDBRANCH  27  28
ENDBRANCH  26  27
ENDBRANCH  22  26
ENDBRANCH  20  22
ENDBRANCH  17  20
ENDBRANCH   1  16
BRANCH   8  37
HETATM   37  O9  UNL     1       3.732   1.223  -2.744  1.00  0.00    -0.359 OA
ATOM     38  H9  UNL     1       4.147   1.287  -3.596  1.00  0.00     0.217 HD
ENDBRANCH   8  37
BRANCH  15  39
HETATM   39  N5  UNL     1       6.460   0.874   2.036  1.00  0.00    -0.336 N 
ATOM     40  H52 UNL     1       5.845   1.388   2.667  1.00  0.00     0.177 HD
ATOM     41  H51 UNL     1       7.467   0.832   2.193  1.00  0.00     0.177 HD
ENDBRANCH  15  39
BRANCH  12  42
HETATM   42  O11 UNL     1       9.437  -2.722  -0.744  1.00  0.00    -0.341 OA
ATOM     43  H11 UNL     1       9.946  -3.053  -0.013  1.00  0.00     0.220 HD
ENDBRANCH  12  42
TORSDOF 12
