REMARK  1 active torsions:
REMARK  status: ('A' for Active; 'I' for Inactive)
REMARK    1  A    between atoms: N1_5  and  N2_7 
ROOT
HETATM    1  C1  UNL     1      -0.817  -1.988   0.558  1.00  0.00     0.021 C 
HETATM    2  C2  UNL     1      -1.389  -1.014  -0.394  1.00  0.00    -0.002 C 
HETATM    3  C3  UNL     1      -1.449  -1.670  -1.761  1.00  0.00     0.021 C 
HETATM    4  C4  UNL     1      -0.629   0.291  -0.463  1.00  0.00     0.018 C 
HETATM    5  N1  UNL     1       0.605   0.517  -0.632  1.00  0.00    -0.308 N 
ATOM      6  H1  UNL     1       0.927   1.485  -0.648  1.00  0.00     0.186 HD
HETATM    7  C11 UNL     1      -1.722   1.293  -0.276  1.00  0.00     0.051 C 
HETATM    8  C12 UNL     1      -2.392   0.715   0.983  1.00  0.00    -0.033 C 
HETATM    9  C13 UNL     1      -1.472   0.442   2.095  1.00  0.00     0.016 C 
HETATM   10  C14 UNL     1      -3.634   1.427   1.411  1.00  0.00     0.016 C 
HETATM   11  C15 UNL     1      -2.722  -0.425   0.021  1.00  0.00     0.017 C 
HETATM   12  C16 UNL     1      -2.863   0.684  -0.978  1.00  0.00    -0.025 A 
HETATM   13  C17 UNL     1      -3.146   0.615  -2.361  1.00  0.00     0.011 A 
HETATM   14  C18 UNL     1      -4.092   1.313  -1.371  1.00  0.00     0.011 A 
ENDROOT
BRANCH   5  15
HETATM   15  N2  UNL     1       1.541  -0.502  -0.797  1.00  0.00    -0.309 N 
HETATM   16  C5  UNL     1       2.618  -0.464  -0.088  1.00  0.00     0.003 C 
HETATM   17  C6  UNL     1       2.864   0.616   0.870  1.00  0.00     0.054 C 
HETATM   18  C10 UNL     1       3.673  -1.518  -0.204  1.00  0.00     0.054 C 
HETATM   19  C7  UNL     1       4.186   1.266   0.544  1.00  0.00     0.006 C 
HETATM   20  C8  UNL     1       5.294   0.267   0.398  1.00  0.00     0.001 C 
HETATM   21  C9  UNL     1       4.960  -0.842  -0.563  1.00  0.00     0.006 C 
ATOM     22  H2  UNL     1       1.379  -1.259  -1.461  1.00  0.00     0.186 HD
ENDBRANCH   5  15
TORSDOF 1
