REMARK  2 active torsions:
REMARK  status: ('A' for Active; 'I' for Inactive)
REMARK    1  A    between atoms: C2_2  and  C3_3 
REMARK    2  A    between atoms: C5_5  and  C6_6 
REMARK       I    between atoms: N1_7  and  C7_9 
ROOT
HETATM    1  C6  UNL     1       0.619  -0.727  -0.660  1.00  0.00     0.070 C 
HETATM    2  N1  UNL     1       1.859  -0.952  -0.924  1.00  0.00    -0.325 N 
ATOM      3  H1  UNL     1       2.091  -1.525  -1.735  1.00  0.00     0.169 HD
HETATM    4  C7  UNL     1       2.907  -0.437  -0.136  1.00  0.00     0.332 C 
HETATM    5  N2  UNL     1       3.363   0.902  -0.307  1.00  0.00    -0.040 NA
HETATM    6  O1  UNL     1       3.438  -1.172   0.721  1.00  0.00    -0.251 OA
ENDROOT
BRANCH   1   7
HETATM    7  C5  UNL     1       0.190   0.084   0.483  1.00  0.00     0.032 A 
HETATM    8  C3  UNL     1      -1.139   0.675   0.601  1.00  0.00     0.017 A 
HETATM    9  C4  UNL     1      -0.833  -0.538   1.462  1.00  0.00     0.019 A 
BRANCH   8  10
HETATM   10  C2  UNL     1      -2.214   0.418  -0.401  1.00  0.00    -0.032 C 
HETATM   11  C1  UNL     1      -3.325  -0.146   0.034  1.00  0.00     0.007 C 
ENDBRANCH   8  10
ENDBRANCH   1   7
TORSDOF 2
