REMARK  12 active torsions:
REMARK  status: ('A' for Active; 'I' for Inactive)
REMARK    1  A    between atoms: O1_2  and  C2_3 
REMARK    2  A    between atoms: C2_3  and  C3_4 
REMARK    3  A    between atoms: C3_4  and  C4_5 
REMARK    4  A    between atoms: C4_5  and  O2_7 
REMARK    5  A    between atoms: O2_7  and  S1_8 
REMARK    6  A    between atoms: S1_8  and  C6_11 
REMARK    7  A    between atoms: C10_15  and  N1_16 
REMARK    8  A    between atoms: C11_18  and  C12_19 
REMARK    9  A    between atoms: C18_25  and  C19_26 
REMARK   10  A    between atoms: N2_27  and  O5_29 
REMARK   11  A    between atoms: O5_29  and  C20_30 
REMARK   12  A    between atoms: C20_30  and  O6_34 
ROOT
HETATM    1  C6  UNL     1      -0.933   0.045  -0.349  1.00  0.00     0.100 A 
HETATM    2  C7  UNL     1      -1.007   1.390  -0.049  1.00  0.00     0.027 A 
HETATM    3  C8  UNL     1      -0.100   1.983   0.797  1.00  0.00     0.004 A 
HETATM    4  C9  UNL     1       0.910   1.204   1.358  1.00  0.00     0.030 A 
HETATM    5  C10 UNL     1       1.026  -0.138   1.090  1.00  0.00     0.045 A 
HETATM    6  C18 UNL     1       0.086  -0.699   0.227  1.00  0.00     0.032 A 
ENDROOT
BRANCH   1   7
HETATM    7  S1  UNL     1      -2.113  -0.667  -1.429  1.00  0.00     0.299 S 
HETATM    8  O3  UNL     1      -1.357  -1.231  -2.609  1.00  0.00    -0.193 OA
HETATM    9  O4  UNL     1      -2.840  -1.785  -0.737  1.00  0.00    -0.193 OA
BRANCH   7  10
HETATM   10  O2  UNL     1      -3.162   0.539  -1.917  1.00  0.00    -0.267 OA
BRANCH  10  11
HETATM   11  C4  UNL     1      -4.441   0.395  -1.444  1.00  0.00     0.140 C 
HETATM   12  C5  UNL     1      -5.462   0.155  -2.535  1.00  0.00     0.041 C 
BRANCH  11  13
HETATM   13  C3  UNL     1      -4.894   1.556  -0.566  1.00  0.00     0.059 C 
BRANCH  13  14
HETATM   14  C2  UNL     1      -6.225   1.232   0.062  1.00  0.00     0.169 C 
BRANCH  14  15
HETATM   15  O1  UNL     1      -6.702   2.250   0.851  1.00  0.00    -0.396 OA
HETATM   16  C1  UNL     1      -5.890   2.579   1.901  1.00  0.00     0.201 C 
ENDBRANCH  14  15
ENDBRANCH  13  14
ENDBRANCH  11  13
ENDBRANCH  10  11
ENDBRANCH   7  10
ENDBRANCH   1   7
BRANCH   6  17
HETATM   17  C19 UNL     1       0.181  -2.100  -0.073  1.00  0.00     0.130 C 
HETATM   18  N2  UNL     1       1.109  -2.846   0.433  1.00  0.00    -0.267 N 
ATOM     19  H2  UNL     1       1.792  -2.425   1.063  1.00  0.00     0.194 HD
BRANCH  18  20
HETATM   20  O5  UNL     1       1.202  -4.165   0.154  1.00  0.00    -0.195 OA
BRANCH  20  21
HETATM   21  C20 UNL     1       1.686  -5.110   1.040  1.00  0.00     0.278 C 
HETATM   22  N3  UNL     1       1.905  -4.794   2.256  1.00  0.00    -0.358 N 
ATOM     23  H32 UNL     1       1.709  -3.831   2.528  1.00  0.00     0.160 HD
ATOM     24  H31 UNL     1       2.262  -5.491   2.910  1.00  0.00     0.160 HD
BRANCH  21  25
HETATM   25  O6  UNL     1       1.954  -6.427   0.668  1.00  0.00    -0.326 OA
ATOM     26  H6  UNL     1       2.287  -7.076   1.277  1.00  0.00     0.221 HD
ENDBRANCH  21  25
ENDBRANCH  20  21
ENDBRANCH  18  20
ENDBRANCH   6  17
BRANCH   5  27
HETATM   27  N1  UNL     1       2.054  -0.879   1.674  1.00  0.00    -0.368 N 
HETATM   28  C11 UNL     1       3.303  -0.769   1.556  1.00  0.00     0.066 C 
ATOM     29  H1  UNL     1       1.745  -1.628   2.294  1.00  0.00     0.165 HD
BRANCH  28  30
HETATM   30  C12 UNL     1       4.052   0.200   0.746  1.00  0.00     0.024 C 
HETATM   31  C13 UNL     1       3.993  -0.257  -0.705  1.00  0.00     0.010 C 
HETATM   32  C14 UNL     1       4.280   0.970  -1.550  1.00  0.00     0.001 C 
HETATM   33  C15 UNL     1       5.178   1.882  -0.770  1.00  0.00     0.000 C 
HETATM   34  C16 UNL     1       6.196   1.129   0.073  1.00  0.00     0.001 C 
HETATM   35  C17 UNL     1       5.525   0.248   1.107  1.00  0.00     0.010 C 
ENDBRANCH  28  30
ENDBRANCH   5  27
TORSDOF 12
