REMARK  4 active torsions:
REMARK  status: ('A' for Active; 'I' for Inactive)
REMARK    1  A    between atoms: N1_2  and  C2_4 
REMARK    2  A    between atoms: C3_7  and  N3_8 
REMARK    3  A    between atoms: C6_11  and  N4_12 
REMARK    4  A    between atoms: C10_22  and  C11_23 
REMARK       I    between atoms: C11_23  and  N7_25 
REMARK       I    between atoms: N7_25  and  C12_27 
REMARK       I    between atoms: C12_27  and  N8_28 
REMARK       I    between atoms: C12_27  and  N9_32 
ROOT
HETATM    1  C2  UNL     1       0.369  -2.157  -0.646  1.00  0.00     0.147 A 
HETATM    2  N2  UNL     1      -0.870  -1.714  -0.394  1.00  0.00    -0.174 N 
ATOM      3  H2  UNL     1      -1.664  -2.333  -0.557  1.00  0.00     0.186 HD
HETATM    4  C3  UNL     1      -1.092  -0.455   0.075  1.00  0.00     0.683 A 
HETATM    5  N5  UNL     1      -0.057   0.387   0.300  1.00  0.00    -0.174 N 
ATOM      6  H5  UNL     1      -0.233   1.328   0.652  1.00  0.00     0.186 HD
HETATM    7  C9  UNL     1       1.188  -0.012   0.063  1.00  0.00     0.153 A 
HETATM    8  N6  UNL     1       2.385   0.611   0.197  1.00  0.00    -0.322 N 
ATOM      9  H6  UNL     1       2.528   1.565   0.529  1.00  0.00     0.169 HD
HETATM   10  C10 UNL     1       3.349  -0.243  -0.182  1.00  0.00     0.177 A 
HETATM   11  N10 UNL     1       2.754  -1.390  -0.549  1.00  0.00    -0.332 N 
ATOM     12  H10 UNL     1       3.243  -2.220  -0.883  1.00  0.00     0.168 HD
HETATM   13  C13 UNL     1       1.433  -1.286  -0.413  1.00  0.00     0.123 A 
ENDROOT
BRANCH  10  14
HETATM   14  C11 UNL     1       4.772   0.054  -0.185  1.00  0.00     0.288 C 
HETATM   15  O1  UNL     1       5.586  -0.825  -0.561  1.00  0.00    -0.264 OA
HETATM   16  N7  UNL     1       5.269   1.317   0.229  1.00  0.00    -0.305 N 
HETATM   17  C12 UNL     1       6.686   1.604   0.223  1.00  0.00     0.483 C 
ATOM     18  H7  UNL     1       4.614   2.036   0.537  1.00  0.00     0.166 HD
HETATM   19  N8  UNL     1       7.064   1.837   1.619  1.00  0.00    -0.033 N 
HETATM   20  N9  UNL     1       7.034   2.744  -0.582  1.00  0.00    -0.033 N 
ATOM     21  H83 UNL     1       6.506   2.559   2.075  1.00  0.00     0.278 HD
ATOM     22  H82 UNL     1       6.809   1.070   2.241  1.00  0.00     0.278 HD
ATOM     23  H81 UNL     1       8.064   2.039   1.615  1.00  0.00     0.278 HD
ATOM     24  H93 UNL     1       6.683   2.636  -1.533  1.00  0.00     0.278 HD
ATOM     25  H92 UNL     1       6.500   3.565  -0.297  1.00  0.00     0.278 HD
ATOM     26  H91 UNL     1       8.034   2.946  -0.586  1.00  0.00     0.278 HD
ENDBRANCH  10  14
BRANCH   1  27
HETATM   27  N1  UNL     1       0.603  -3.340  -1.092  1.00  0.00    -0.378 N 
HETATM   28  C1  UNL     1      -0.463  -4.286  -1.356  1.00  0.00     0.147 C 
ATOM     29  H1  UNL     1       1.568  -3.621  -1.265  1.00  0.00     0.160 HD
ENDBRANCH   1  27
BRANCH   4  30
HETATM   30  N3  UNL     1      -2.399   0.011   0.339  1.00  0.00    -0.215 N 
HETATM   31  C4  UNL     1      -2.749   1.325   0.826  1.00  0.00     0.143 C 
HETATM   32  C5  UNL     1      -4.262   1.346   0.914  1.00  0.00     0.055 C 
HETATM   33  C6  UNL     1      -4.660   0.306  -0.082  1.00  0.00     0.205 C 
HETATM   34  C8  UNL     1      -3.604  -0.780   0.154  1.00  0.00     0.174 C 
BRANCH  33  35
HETATM   35  N4  UNL     1      -5.948  -0.285   0.190  1.00  0.00    -0.073 N 
HETATM   36  C7  UNL     1      -7.013   0.684   0.128  1.00  0.00     0.267 C 
ATOM     37  H42 UNL     1      -6.130  -1.075  -0.429  1.00  0.00     0.277 HD
ATOM     38  H41 UNL     1      -5.948  -0.777   1.083  1.00  0.00     0.277 HD
ENDBRANCH  33  35
ENDBRANCH   4  30
TORSDOF 4
