REMARK  1 active torsions:
REMARK  status: ('A' for Active; 'I' for Inactive)
REMARK    1  A    between atoms: C9_11  and  C10_12 
ROOT
HETATM    1  C1  UNL     1      -3.868   2.664   0.756  1.00  0.00     0.158 C 
HETATM    2  N1  UNL     1      -3.242   1.388   0.471  1.00  0.00    -0.329 N 
HETATM    3  C2  UNL     1      -3.759   0.185   0.278  1.00  0.00     0.063 A 
HETATM    4  C3  UNL     1      -5.081  -0.199   0.295  1.00  0.00     0.032 A 
HETATM    5  C4  UNL     1      -5.415  -1.512   0.069  1.00  0.00     0.002 A 
HETATM    6  C5  UNL     1      -4.419  -2.429  -0.173  1.00  0.00     0.002 A 
HETATM    7  C6  UNL     1      -3.112  -2.016  -0.184  1.00  0.00     0.032 A 
HETATM    8  C7  UNL     1      -2.746  -0.711   0.039  1.00  0.00     0.068 A 
HETATM    9  N2  UNL     1      -1.551  -0.017   0.089  1.00  0.00    -0.299 N 
HETATM   10  C8  UNL     1      -0.269  -0.316  -0.055  1.00  0.00     0.119 A 
HETATM   11  C9  UNL     1       0.660   0.655   0.069  1.00  0.00     0.035 A 
HETATM   12  S1  UNL     1      -0.378   2.031   0.399  1.00  0.00    -0.051 SA
HETATM   13  C20 UNL     1      -1.880   1.236   0.350  1.00  0.00     0.158 A 
ENDROOT
BRANCH  11  14
HETATM   14  C10 UNL     1       2.101   0.762  -0.108  1.00  0.00    -0.006 A 
HETATM   15  C11 UNL     1       2.549   1.998  -0.612  1.00  0.00     0.014 A 
HETATM   16  C12 UNL     1       3.869   2.284  -0.834  1.00  0.00     0.002 A 
HETATM   17  C13 UNL     1       4.806   1.327  -0.554  1.00  0.00     0.012 A 
HETATM   18  C14 UNL     1       4.388   0.117  -0.059  1.00  0.00    -0.025 A 
HETATM   19  C15 UNL     1       5.342  -0.830   0.256  1.00  0.00     0.012 A 
HETATM   20  C19 UNL     1       3.028  -0.181   0.173  1.00  0.00    -0.014 A 
HETATM   21  C16 UNL     1       4.972  -2.041   0.790  1.00  0.00     0.001 A 
HETATM   22  C17 UNL     1       3.654  -2.327   1.020  1.00  0.00     0.001 A 
HETATM   23  C18 UNL     1       2.667  -1.388   0.709  1.00  0.00     0.013 A 
ENDBRANCH  11  14
TORSDOF 1
