REMARK  3 active torsions:
REMARK  status: ('A' for Active; 'I' for Inactive)
REMARK    1  A    between atoms: C2_2  and  C5_5 
REMARK    2  A    between atoms: C11_13  and  N2_14 
REMARK    3  A    between atoms: N2_14  and  C12_16 
ROOT
HETATM    1  C5  UNL     1      -2.850  -0.078   0.502  1.00  0.00    -0.003 C 
HETATM    2  C6  UNL     1      -3.559  -1.111  -0.332  1.00  0.00     0.005 C 
HETATM    3  C7  UNL     1      -2.929  -2.446   0.054  1.00  0.00     0.005 C 
HETATM    4  C8  UNL     1      -1.506  -2.448  -0.380  1.00  0.00     0.054 C 
HETATM    5  C9  UNL     1      -0.702  -1.271  -0.041  1.00  0.00     0.109 A 
HETATM    6  C10 UNL     1      -1.397   0.019   0.149  1.00  0.00     0.059 C 
HETATM    7  N1  UNL     1       0.324  -1.537   0.946  1.00  0.00    -0.336 N 
ATOM      8  H1  UNL     1       0.254  -1.756   1.940  1.00  0.00     0.165 HD
HETATM    9  C11 UNL     1       1.349  -1.412   0.182  1.00  0.00     0.175 A 
HETATM   10  N3  UNL     1       0.460  -1.133  -0.893  1.00  0.00    -0.336 N 
ATOM     11  H3  UNL     1       0.591  -0.919  -1.882  1.00  0.00     0.165 HD
ENDROOT
BRANCH   1  12
HETATM   12  C2  UNL     1      -3.557   1.229   0.369  1.00  0.00    -0.048 C 
HETATM   13  C1  UNL     1      -3.606   1.734  -1.037  1.00  0.00     0.015 C 
HETATM   14  C3  UNL     1      -2.961   2.313   1.236  1.00  0.00     0.015 C 
HETATM   15  C4  UNL     1      -4.993   1.031   0.856  1.00  0.00     0.015 C 
ENDBRANCH   1  12
BRANCH   9  16
HETATM   16  N2  UNL     1       2.766  -1.494   0.265  1.00  0.00    -0.358 N 
ATOM     17  H2  UNL     1       3.190  -2.111   0.958  1.00  0.00     0.163 HD
BRANCH  16  18
HETATM   18  C12 UNL     1       3.620  -0.721  -0.612  1.00  0.00     0.084 C 
HETATM   19  C13 UNL     1       5.071  -0.954  -0.359  1.00  0.00     0.025 C 
HETATM   20  C14 UNL     1       5.532  -0.203   0.877  1.00  0.00     0.002 C 
HETATM   21  C15 UNL     1       5.396   1.279   0.517  1.00  0.00     0.000 C 
HETATM   22  C16 UNL     1       3.947   1.578   0.354  1.00  0.00     0.002 C 
HETATM   23  C17 UNL     1       3.226   0.726  -0.624  1.00  0.00     0.025 C 
ENDBRANCH  16  18
ENDBRANCH   9  16
TORSDOF 3
