REMARK  14 active torsions:
REMARK  status: ('A' for Active; 'I' for Inactive)
REMARK    1  A    between atoms: O1_2  and  C2_3 
REMARK    2  A    between atoms: C2_3  and  C3_5 
REMARK    3  A    between atoms: C4_7  and  C5_8 
REMARK    4  A    between atoms: C8_19  and  C9_20 
REMARK    5  A    between atoms: C9_20  and  O7_21 
REMARK    6  A    between atoms: C9_20  and  O8_23 
REMARK    7  A    between atoms: O8_23  and  C10_24 
REMARK    8  A    between atoms: C12_26  and  O9_27 
REMARK    9  A    between atoms: C15_32  and  N4_33 
REMARK       I    between atoms: N4_33  and  C16_35 
REMARK   10  A    between atoms: C16_35  and  C17_37 
REMARK   11  A    between atoms: C17_37  and  N5_39 
REMARK   12  A    between atoms: C17_37  and  C19_43 
REMARK   13  A    between atoms: C19_43  and  O12_44 
REMARK   14  A    between atoms: C22_49  and  O14_50 
ROOT
HETATM    1  C10 UNL     1       0.971  -0.588   0.191  1.00  0.00     0.117 A 
HETATM    2  C11 UNL     1       0.425  -0.944   1.401  1.00  0.00     0.078 A 
HETATM    3  C12 UNL     1      -0.934  -0.957   1.624  1.00  0.00     0.085 A 
HETATM    4  C13 UNL     1      -1.788  -0.600   0.598  1.00  0.00     0.086 A 
HETATM    5  C14 UNL     1      -3.147  -0.596   0.766  1.00  0.00     0.216 A 
HETATM    6  O10 UNL     1      -3.686  -0.911   1.844  1.00  0.00    -0.285 OA
HETATM    7  C15 UNL     1      -3.978  -0.225  -0.309  1.00  0.00     0.109 A 
HETATM    8  C20 UNL     1      -3.335   0.106  -1.452  1.00  0.00     0.176 A 
HETATM    9  O13 UNL     1      -2.007   0.094  -1.589  1.00  0.00    -0.316 OA
HETATM   10  C21 UNL     1      -1.240  -0.246  -0.606  1.00  0.00     0.128 A 
HETATM   11  C22 UNL     1       0.138  -0.232  -0.835  1.00  0.00     0.135 A 
ENDROOT
BRANCH   1  12
HETATM   12  O8  UNL     1       2.368  -0.590   0.011  1.00  0.00    -0.284 OA
BRANCH  12  13
HETATM   13  C9  UNL     1       3.106   0.513   0.266  1.00  0.00     0.202 C 
BRANCH  13  14
HETATM   14  C8  UNL     1       4.504   0.816   0.183  1.00  0.00     0.130 A 
HETATM   15  C3  UNL     1       5.472  -0.045  -0.216  1.00  0.00     0.173 A 
HETATM   16  O3  UNL     1       6.755   0.395  -0.242  1.00  0.00    -0.284 OA
HETATM   17  C4  UNL     1       7.149   1.575   0.083  1.00  0.00     0.185 A 
HETATM   18  N3  UNL     1       6.209   2.440   0.480  1.00  0.00    -0.301 N 
HETATM   19  C7  UNL     1       4.915   2.128   0.547  1.00  0.00     0.265 A 
ATOM     20  H3  UNL     1       6.496   3.383   0.744  1.00  0.00     0.171 HD
HETATM   21  O6  UNL     1       4.053   2.960   0.923  1.00  0.00    -0.267 OA
BRANCH  15  22
HETATM   22  C2  UNL     1       5.232  -1.400  -0.617  1.00  0.00     0.318 C 
HETATM   23  O2  UNL     1       4.173  -1.994  -0.669  1.00  0.00    -0.257 OA
BRANCH  22  24
HETATM   24  O1  UNL     1       6.350  -2.172  -1.007  1.00  0.00    -0.321 OA
HETATM   25  C1  UNL     1       6.197  -3.523  -1.417  1.00  0.00     0.213 C 
ENDBRANCH  22  24
ENDBRANCH  15  22
BRANCH  17  26
HETATM   26  C5  UNL     1       8.554   1.923   0.013  1.00  0.00     0.175 A 
HETATM   27  N1  UNL     1       9.582   1.153  -0.365  1.00  0.00    -0.269 N 
HETATM   28  N2  UNL     1      10.697   1.898  -0.271  1.00  0.00     0.030 NA
ATOM     29  H1  UNL     1       9.529   0.181  -0.668  1.00  0.00     0.185 HD
HETATM   30  O4  UNL     1      10.377   3.082   0.146  1.00  0.00    -0.180 OA
HETATM   31  C6  UNL     1       9.081   3.149   0.335  1.00  0.00     0.335 A 
HETATM   32  O5  UNL     1       8.403   4.152   0.742  1.00  0.00    -0.256 OA
ENDBRANCH  17  26
ENDBRANCH  13  14
BRANCH  13  33
HETATM   33  O7  UNL     1       2.360   1.505   0.679  1.00  0.00    -0.340 OA
ATOM     34  H7  UNL     1       1.433   1.304   0.734  1.00  0.00     0.220 HD
ENDBRANCH  13  33
ENDBRANCH  12  13
ENDBRANCH   1  12
BRANCH  11  35
HETATM   35  O14 UNL     1       0.640   0.137  -2.080  1.00  0.00    -0.356 OA
ATOM     36  H14 UNL     1       0.062   0.384  -2.792  1.00  0.00     0.218 HD
ENDBRANCH  11  35
BRANCH   3  37
HETATM   37  O9  UNL     1      -1.494  -1.315   2.845  1.00  0.00    -0.360 OA
ATOM     38  H9  UNL     1      -2.431  -1.324   2.999  1.00  0.00     0.217 HD
ENDBRANCH   3  37
BRANCH   7  39
HETATM   39  N4  UNL     1      -5.366  -0.212  -0.163  1.00  0.00    -0.320 N 
HETATM   40  C16 UNL     1      -6.375   0.115  -1.075  1.00  0.00     0.260 C 
HETATM   41  O11 UNL     1      -6.157   0.475  -2.254  1.00  0.00    -0.270 OA
ATOM     42  H4  UNL     1      -5.700  -0.486   0.761  1.00  0.00     0.169 HD
BRANCH  40  43
HETATM   43  C17 UNL     1      -7.808   0.024  -0.592  1.00  0.00     0.220 C 
HETATM   44  C18 UNL     1      -8.112  -1.376  -0.119  1.00  0.00     0.059 C 
BRANCH  43  45
HETATM   45  N5  UNL     1      -8.714   0.395  -1.659  1.00  0.00    -0.060 N 
ATOM     46  H53 UNL     1      -8.497   1.315  -2.042  1.00  0.00     0.275 HD
ATOM     47  H52 UNL     1      -8.559  -0.158  -2.502  1.00  0.00     0.275 HD
ATOM     48  H51 UNL     1      -9.679   0.334  -1.334  1.00  0.00     0.275 HD
ENDBRANCH  43  45
BRANCH  43  49
HETATM   49  C19 UNL     1      -8.026   0.992   0.555  1.00  0.00     0.212 C 
BRANCH  49  50
HETATM   50  O12 UNL     1      -9.359   0.858   0.939  1.00  0.00    -0.398 OA
ATOM     51  H12 UNL     1      -9.496   1.464   1.657  1.00  0.00     0.209 HD
ENDBRANCH  49  50
ENDBRANCH  43  49
ENDBRANCH  40  43
ENDBRANCH   7  39
TORSDOF 14
