REMARK  14 active torsions:
REMARK  status: ('A' for Active; 'I' for Inactive)
REMARK    1  A    between atoms: C2_2  and  C3_3 
REMARK    2  A    between atoms: C3_3  and  C4_4 
REMARK    3  A    between atoms: C3_3  and  O5_31 
REMARK    4  A    between atoms: C4_4  and  O1_5 
REMARK    5  A    between atoms: O1_5  and  C5_6 
REMARK    6  A    between atoms: C6_7  and  C7_8 
REMARK    7  A    between atoms: C6_7  and  C12_13 
REMARK    8  A    between atoms: C7_8  and  C8_9 
REMARK    9  A    between atoms: C8_9  and  C9_10 
REMARK   10  A    between atoms: C12_13  and  C14_15 
REMARK   11  A    between atoms: C14_15  and  C15_16 
REMARK   12  A    between atoms: C15_16  and  C16_17 
REMARK   13  A    between atoms: C16_17  and  C17_18 
REMARK   14  A    between atoms: C25_27  and  C26_28 
ROOT
HETATM    1  C12 UNL     1       0.285   0.021  -0.399  1.00  0.00     0.012 C 
HETATM    2  C13 UNL     1      -0.285  -0.687  -1.565  1.00  0.00     0.015 C 
ENDROOT
BRANCH   1   3
HETATM    3  C6  UNL     1       1.769  -0.192  -0.383  1.00  0.00    -0.054 C 
HETATM    4  C5  UNL     1       2.357  -1.087  -1.121  1.00  0.00     0.138 C 
BRANCH   4   5
HETATM    5  O1  UNL     1       3.760  -1.202  -1.059  1.00  0.00    -0.360 OA
BRANCH   5   6
HETATM    6  C4  UNL     1       4.340  -2.485  -0.975  1.00  0.00     0.206 C 
BRANCH   6   7
HETATM    7  C3  UNL     1       5.849  -2.341  -0.922  1.00  0.00     0.144 C 
BRANCH   7   8
HETATM    8  C2  UNL     1       6.390  -1.710  -2.181  1.00  0.00     0.029 C 
HETATM    9  C1  UNL     1       5.848  -0.335  -2.443  1.00  0.00     0.007 C 
ENDBRANCH   7   8
BRANCH   7  10
HETATM   10  O5  UNL     1       6.243  -1.604   0.166  1.00  0.00    -0.389 OA
HETATM   11  C27 UNL     1       7.061  -2.360   0.980  1.00  0.00     0.202 C 
ENDBRANCH   7  10
ENDBRANCH   6   7
ENDBRANCH   5   6
ENDBRANCH   4   5
BRANCH   3  12
HETATM   12  C7  UNL     1       2.581   0.688   0.508  1.00  0.00     0.037 C 
BRANCH  12  13
HETATM   13  C8  UNL     1       2.390   2.143   0.172  1.00  0.00     0.008 C 
BRANCH  13  14
HETATM   14  C9  UNL     1       3.261   2.936   1.138  1.00  0.00    -0.023 C 
HETATM   15  C10 UNL     1       3.161   4.417   0.907  1.00  0.00     0.009 C 
HETATM   16  C11 UNL     1       4.692   2.459   1.037  1.00  0.00     0.009 C 
ENDBRANCH  13  14
ENDBRANCH  12  13
ENDBRANCH   3  12
ENDBRANCH   1   3
BRANCH   1  17
HETATM   17  C14 UNL     1      -0.200  -0.279   0.957  1.00  0.00     0.009 C 
BRANCH  17  18
HETATM   18  C15 UNL     1      -1.645  -0.157   1.281  1.00  0.00     0.004 C 
BRANCH  18  19
HETATM   19  C16 UNL     1      -2.595  -1.039   0.583  1.00  0.00     0.038 C 
BRANCH  19  20
HETATM   20  C17 UNL     1      -4.026  -0.761   1.095  1.00  0.00     0.062 C 
HETATM   21  C18 UNL     1      -3.946  -1.072   2.587  1.00  0.00     0.046 C 
HETATM   22  O2  UNL     1      -4.931  -1.617   0.546  1.00  0.00    -0.374 OA
HETATM   23  C19 UNL     1      -6.031  -0.907   0.079  1.00  0.00     0.141 C 
HETATM   24  C20 UNL     1      -5.731  -0.666  -1.409  1.00  0.00     0.011 C 
HETATM   25  C25 UNL     1      -5.987   0.446   0.722  1.00  0.00     0.123 C 
HETATM   26  C21 UNL     1      -7.106  -0.571  -2.080  1.00  0.00     0.012 C 
HETATM   27  C22 UNL     1      -5.042   0.641  -1.636  1.00  0.00     0.007 C 
HETATM   28  C23 UNL     1      -4.069   1.054  -0.583  1.00  0.00     0.009 C 
HETATM   29  C24 UNL     1      -4.473   0.639   0.813  1.00  0.00     0.037 C 
BRANCH  25  30
HETATM   30  C26 UNL     1      -6.693   0.576   1.984  1.00  0.00     0.180 C 
HETATM   31  O3  UNL     1      -7.356  -0.377   2.451  1.00  0.00    -0.648 OA
HETATM   32  O4  UNL     1      -6.622   1.780   2.668  1.00  0.00    -0.648 OA
ENDBRANCH  25  30
ENDBRANCH  19  20
ENDBRANCH  18  19
ENDBRANCH  17  18
ENDBRANCH   1  17
TORSDOF 14
