REMARK  13 active torsions:
REMARK  status: ('A' for Active; 'I' for Inactive)
REMARK    1  A    between atoms: C2_2  and  C3_3 
REMARK    2  A    between atoms: C3_3  and  C4_4 
REMARK       I    between atoms: C4_4  and  N1_6 
REMARK    3  A    between atoms: N1_6  and  C5_8 
REMARK    4  A    between atoms: C5_8  and  C6_9 
REMARK    5  A    between atoms: C14_17  and  C15_18 
REMARK    6  A    between atoms: C16_21  and  N3_22 
REMARK    7  A    between atoms: N3_22  and  C17_24 
REMARK    8  A    between atoms: C17_24  and  C18_25 
REMARK    9  A    between atoms: C22_32  and  N5_33 
REMARK   10  A    between atoms: N6_36  and  C25_37 
REMARK   11  A    between atoms: C25_37  and  C26_38 
REMARK   12  A    between atoms: C26_38  and  C27_39 
REMARK   13  A    between atoms: C27_39  and  N7_40 
ROOT
HETATM    1  C15 UNL     1      -2.014  -1.101  -0.073  1.00  0.00     0.118 A 
HETATM    2  N2  UNL     1      -1.874  -2.396  -0.471  1.00  0.00    -0.179 N 
ATOM      3  H2  UNL     1      -2.725  -2.936  -0.630  1.00  0.00     0.185 HD
HETATM    4  C16 UNL     1      -0.712  -3.008  -0.667  1.00  0.00     0.694 A 
HETATM    5  N4  UNL     1       0.402  -2.312  -0.462  1.00  0.00    -0.022 N 
ATOM      6  H4  UNL     1       1.312  -2.751  -0.602  1.00  0.00     0.203 HD
HETATM    7  C22 UNL     1       0.326  -1.021  -0.067  1.00  0.00     0.696 A 
HETATM    8  N8  UNL     1      -0.880  -0.430   0.124  1.00  0.00    -0.179 N 
ATOM      9  H8  UNL     1      -0.919   0.544   0.423  1.00  0.00     0.185 HD
ENDROOT
BRANCH   1  10
HETATM   10  C14 UNL     1      -3.349  -0.589   0.109  1.00  0.00     0.065 C 
HETATM   11  C6  UNL     1      -3.746   0.752  -0.421  1.00  0.00    -0.014 C 
HETATM   12  C7  UNL     1      -3.161   1.103  -1.730  1.00  0.00     0.012 C 
HETATM   13  C12 UNL     1      -5.297   0.759  -0.433  1.00  0.00     0.012 C 
HETATM   14  C8  UNL     1      -3.780   0.500  -2.940  1.00  0.00     0.001 C 
HETATM   15  C9  UNL     1      -4.088  -0.978  -2.829  1.00  0.00     0.005 C 
HETATM   16  C10 UNL     1      -4.973  -1.321  -1.694  1.00  0.00    -0.014 C 
HETATM   17  C11 UNL     1      -5.902  -0.137  -1.440  1.00  0.00     0.005 C 
HETATM   18  C13 UNL     1      -4.346  -1.631  -0.382  1.00  0.00     0.017 C 
BRANCH  11  19
HETATM   19  C5  UNL     1      -3.453   1.866   0.566  1.00  0.00     0.133 C 
BRANCH  19  20
HETATM   20  N1  UNL     1      -4.008   3.151   0.161  1.00  0.00    -0.360 N 
HETATM   21  C4  UNL     1      -3.853   4.298   0.972  1.00  0.00     0.217 C 
HETATM   22  O1  UNL     1      -3.227   4.197   2.051  1.00  0.00    -0.274 OA
ATOM     23  H1  UNL     1      -4.516   3.224  -0.721  1.00  0.00     0.162 HD
BRANCH  21  24
HETATM   24  C3  UNL     1      -4.406   5.596   0.577  1.00  0.00     0.102 C 
BRANCH  24  25
HETATM   25  C2  UNL     1      -4.143   6.662   1.621  1.00  0.00     0.005 C 
HETATM   26  C1  UNL     1      -4.776   6.271   2.937  1.00  0.00     0.005 C 
ENDBRANCH  24  25
ENDBRANCH  21  24
ENDBRANCH  19  20
ENDBRANCH  11  19
ENDBRANCH   1  10
BRANCH   4  27
HETATM   27  N3  UNL     1      -0.676  -4.247  -1.046  1.00  0.00    -0.223 N 
ATOM     28  H3  UNL     1      -1.552  -4.748  -1.193  1.00  0.00     0.177 HD
BRANCH  27  29
HETATM   29  C17 UNL     1       0.577  -4.936  -1.265  1.00  0.00     0.170 C 
BRANCH  29  30
HETATM   30  C18 UNL     1       0.399  -6.413  -1.435  1.00  0.00     0.139 C 
HETATM   31  C19 UNL     1      -0.178  -7.106  -0.248  1.00  0.00     0.035 C 
HETATM   32  C20 UNL     1       0.651  -8.366  -0.149  1.00  0.00     0.029 C 
HETATM   33  C21 UNL     1       1.459  -8.372  -1.421  1.00  0.00     0.168 C 
HETATM   34  O2  UNL     1       1.664  -7.000  -1.641  1.00  0.00    -0.384 OA
ENDBRANCH  29  30
ENDBRANCH  27  29
ENDBRANCH   4  27
BRANCH   7  35
HETATM   35  N5  UNL     1       1.521  -0.277   0.146  1.00  0.00    -0.211 N 
HETATM   36  C23 UNL     1       2.803  -0.929  -0.039  1.00  0.00     0.185 C 
HETATM   37  C24 UNL     1       3.826  -0.389   0.928  1.00  0.00     0.078 C 
HETATM   38  N6  UNL     1       3.923   1.007   0.833  1.00  0.00    -0.390 N 
HETATM   39  C30 UNL     1       2.922   1.623   0.063  1.00  0.00     0.142 C 
HETATM   40  C31 UNL     1       1.546   1.116   0.535  1.00  0.00     0.161 C 
BRANCH  38  41
HETATM   41  C25 UNL     1       4.526   1.734   1.881  1.00  0.00     0.123 C 
BRANCH  41  42
HETATM   42  C26 UNL     1       6.018   1.499   2.008  1.00  0.00     0.050 C 
BRANCH  42  43
HETATM   43  C27 UNL     1       6.717   1.907   0.721  1.00  0.00     0.273 C 
BRANCH  43  44
HETATM   44  N7  UNL     1       8.138   1.717   0.753  1.00  0.00     0.080 N 
HETATM   45  C28 UNL     1       8.637   2.118  -0.567  1.00  0.00     0.309 C 
HETATM   46  C29 UNL     1       8.831   2.567   1.697  1.00  0.00     0.309 C 
ENDBRANCH  43  44
ENDBRANCH  42  43
ENDBRANCH  41  42
ENDBRANCH  38  41
ENDBRANCH   7  35
TORSDOF 13
