REMARK  6 active torsions:
REMARK  status: ('A' for Active; 'I' for Inactive)
REMARK    1  A    between atoms: C3_5  and  N2_6 
REMARK    2  A    between atoms: C6_11  and  N3_12 
REMARK    3  A    between atoms: N3_12  and  C7_14 
REMARK    4  A    between atoms: C7_14  and  O1_15 
REMARK    5  A    between atoms: C7_14  and  C8_17 
REMARK    6  A    between atoms: C9_18  and  O2_19 
ROOT
HETATM    1  N3  UNL     1      -0.059  -0.233   0.506  1.00  0.00    -0.357 N 
ATOM      2  H3  UNL     1      -0.545  -1.092   0.762  1.00  0.00     0.162 HD
ENDROOT
BRANCH   1   3
HETATM    3  C6  UNL     1       1.153  -0.469   0.484  1.00  0.00     0.061 C 
HETATM    4  C5  UNL     1       2.063   0.542   0.161  1.00  0.00    -0.020 C 
HETATM    5  C4  UNL     1       3.246   0.334  -0.533  1.00  0.00    -0.006 C 
HETATM    6  C15 UNL     1       1.890   1.942   0.517  1.00  0.00     0.042 C 
HETATM    7  C3  UNL     1       3.916  -0.823  -0.866  1.00  0.00     0.106 C 
HETATM    8  C17 UNL     1       3.752   1.664  -0.909  1.00  0.00     0.043 C 
HETATM    9  N1  UNL     1       3.684  -2.067  -0.362  1.00  0.00    -0.345 N 
HETATM   10  C2  UNL     1       2.712  -2.469   0.476  1.00  0.00     0.031 C 
ATOM     11  H1  UNL     1       4.336  -2.792  -0.661  1.00  0.00     0.167 HD
HETATM   12  C1  UNL     1       2.881  -3.777   1.147  1.00  0.00     0.070 C 
HETATM   13  C14 UNL     1       1.555  -1.791   0.788  1.00  0.00     0.083 C 
HETATM   14 CL1  UNL     1       0.380  -2.716   1.714  1.00  0.00    -0.080 Cl
HETATM   15  C16 UNL     1       3.319   2.478   0.285  1.00  0.00     0.009 C 
BRANCH   7  16
HETATM   16  N2  UNL     1       4.866  -0.793  -1.735  1.00  0.00    -0.385 N 
ATOM     17  H22 UNL     1       5.362  -1.650  -1.982  1.00  0.00     0.157 HD
ATOM     18  H21 UNL     1       5.040   0.139  -2.112  1.00  0.00     0.157 HD
ENDBRANCH   7  16
ENDBRANCH   1   3
BRANCH   1  19
HETATM   19  C7  UNL     1      -0.994   0.744   0.317  1.00  0.00     0.274 C 
BRANCH  19  20
HETATM   20  O1  UNL     1      -1.039   1.546   1.458  1.00  0.00    -0.371 OA
ATOM     21  H1  UNL     1      -1.690   2.226   1.327  1.00  0.00     0.212 HD
ENDBRANCH  19  20
BRANCH  19  22
HETATM   22  C8  UNL     1      -2.388   0.403   0.032  1.00  0.00     0.114 A 
HETATM   23  C9  UNL     1      -3.386   1.079   0.694  1.00  0.00     0.172 A 
HETATM   24  N4  UNL     1      -4.697   0.844   0.506  1.00  0.00    -0.293 N 
HETATM   25  C10 UNL     1      -5.726   1.567   1.211  1.00  0.00     0.162 C 
HETATM   26  C11 UNL     1      -5.056  -0.098  -0.373  1.00  0.00     0.317 A 
HETATM   27  O3  UNL     1      -6.276  -0.376  -0.605  1.00  0.00    -0.262 OA
HETATM   28  C12 UNL     1      -4.062  -0.777  -1.037  1.00  0.00     0.316 A 
HETATM   29  O4  UNL     1      -4.389  -1.670  -1.870  1.00  0.00    -0.262 OA
HETATM   30  N5  UNL     1      -2.773  -0.539  -0.845  1.00  0.00    -0.310 N 
HETATM   31  C13 UNL     1      -1.698  -1.221  -1.516  1.00  0.00     0.160 C 
BRANCH  23  32
HETATM   32  O2  UNL     1      -3.104   2.088   1.637  1.00  0.00    -0.344 OA
ATOM     33  H2  UNL     1      -3.793   2.555   2.094  1.00  0.00     0.219 HD
ENDBRANCH  23  32
ENDBRANCH  19  22
ENDBRANCH   1  19
TORSDOF 6
