REMARK  3 active torsions:
REMARK  status: ('A' for Active; 'I' for Inactive)
REMARK    1  A    between atoms: C5_8  and  N1_9 
REMARK    2  A    between atoms: N1_9  and  C6_11 
REMARK    3  A    between atoms: C6_11  and  C7_12 
ROOT
HETATM    1  F1  UNL     1       3.858   1.415  -2.553  1.00  0.00    -0.203 F 
HETATM    2  C1  UNL     1       3.455   0.870  -1.373  1.00  0.00     0.160 A 
HETATM    3  C2  UNL     1       3.978   1.369  -0.214  1.00  0.00     0.091 A 
HETATM    4  C3  UNL     1       3.568   0.814   0.988  1.00  0.00     0.160 A 
HETATM    5  F2  UNL     1       4.111   1.337   2.115  1.00  0.00    -0.203 F 
HETATM    6  C4  UNL     1       2.665  -0.205   1.005  1.00  0.00     0.184 A 
HETATM    7  F3  UNL     1       2.287  -0.723   2.201  1.00  0.00    -0.200 F 
HETATM    8  C5  UNL     1       2.111  -0.739  -0.141  1.00  0.00     0.112 A 
HETATM    9  C14 UNL     1       2.548  -0.154  -1.342  1.00  0.00     0.184 A 
HETATM   10  F4  UNL     1       2.063  -0.609  -2.514  1.00  0.00    -0.200 F 
ENDROOT
BRANCH   8  11
HETATM   11  N1  UNL     1       1.219  -1.832  -0.137  1.00  0.00    -0.384 N 
ATOM     12  H1  UNL     1       1.637  -2.731  -0.377  1.00  0.00     0.159 HD
BRANCH  11  13
HETATM   13  C6  UNL     1      -0.174  -1.874   0.150  1.00  0.00     0.125 C 
BRANCH  13  14
HETATM   14  C7  UNL     1      -0.975  -0.889  -0.595  1.00  0.00     0.008 C 
HETATM   15  C8  UNL     1      -2.489  -1.076  -0.264  1.00  0.00     0.011 C 
HETATM   16  C9  UNL     1      -3.100   0.287  -0.289  1.00  0.00    -0.014 C 
HETATM   17  C10 UNL     1      -2.941   0.850   1.110  1.00  0.00     0.005 C 
HETATM   18  C13 UNL     1      -2.020   1.122  -0.981  1.00  0.00     0.010 C 
HETATM   19  C11 UNL     1      -1.431   0.770   1.255  1.00  0.00     0.005 C 
HETATM   20  C12 UNL     1      -0.857   0.549  -0.138  1.00  0.00    -0.009 C 
ENDBRANCH  13  14
ENDBRANCH  11  13
ENDBRANCH   8  11
TORSDOF 3
