REMARK  2 active torsions:
REMARK  status: ('A' for Active; 'I' for Inactive)
REMARK       I    between atoms: C1_2  and  N1_3 
REMARK    1  A    between atoms: C1_2  and  C10_16 
REMARK    2  A    between atoms: N1_3  and  C2_5 
ROOT
HETATM    1  C2  UNL     1       0.144  -1.243   0.045  1.00  0.00     0.151 A 
HETATM    2  N2  UNL     1      -0.614  -0.255   0.530  1.00  0.00    -0.339 N 
ATOM      3  H2  UNL     1      -0.191   0.606   0.878  1.00  0.00     0.168 HD
HETATM    4  C3  UNL     1      -1.917  -0.420   0.547  1.00  0.00     0.024 A 
HETATM    5  C4  UNL     1      -2.407  -1.604   0.061  1.00  0.00     0.009 A 
HETATM    6  S1  UNL     1      -0.992  -2.428  -0.398  1.00  0.00    -0.057 SA
HETATM    7  C5  UNL     1      -3.815  -2.114  -0.065  1.00  0.00     0.048 C 
HETATM    8  C6  UNL     1      -4.691  -1.159  -0.806  1.00  0.00     0.005 C 
HETATM    9  C7  UNL     1      -5.065  -0.045   0.181  1.00  0.00     0.001 C 
HETATM   10  C8  UNL     1      -3.941   0.966   0.101  1.00  0.00     0.006 C 
HETATM   11  C9  UNL     1      -2.839   0.670   1.089  1.00  0.00     0.058 C 
ENDROOT
BRANCH   1  12
HETATM   12  N1  UNL     1       1.459  -1.262  -0.054  1.00  0.00    -0.307 N 
HETATM   13  C1  UNL     1       2.232  -0.150   0.381  1.00  0.00     0.227 C 
HETATM   14  O1  UNL     1       2.222   0.083   1.618  1.00  0.00    -0.273 OA
ATOM     15  H1  UNL     1       1.925  -2.080  -0.445  1.00  0.00     0.171 HD
BRANCH  13  16
HETATM   16  C10 UNL     1       2.976   0.639  -0.619  1.00  0.00     0.080 C 
HETATM   17  C11 UNL     1       3.985  -0.203  -1.371  1.00  0.00     0.024 C 
HETATM   18  C12 UNL     1       5.130  -0.650  -0.524  1.00  0.00     0.075 C 
HETATM   19  S2  UNL     1       5.870   0.684   0.429  1.00  0.00    -0.169 SA
HETATM   20  C13 UNL     1       4.562   1.786   0.970  1.00  0.00     0.075 C 
HETATM   21  C14 UNL     1       3.532   1.913  -0.090  1.00  0.00     0.024 C 
ENDBRANCH  13  16
ENDBRANCH   1  12
TORSDOF 2
