REMARK  10 active torsions:
REMARK  status: ('A' for Active; 'I' for Inactive)
REMARK       I    between atoms: C1_4  and  N3_6 
REMARK    1  A    between atoms: N3_6  and  C2_8 
REMARK    2  A    between atoms: C5_11  and  C6_12 
REMARK    3  A    between atoms: C6_12  and  C7_13 
REMARK    4  A    between atoms: C7_13  and  N4_14 
REMARK    5  A    between atoms: C7_13  and  N8_25 
REMARK       I    between atoms: N8_25  and  C12_27 
REMARK    6  A    between atoms: C12_27  and  C13_29 
REMARK    7  A    between atoms: C13_29  and  S1_30 
REMARK    8  A    between atoms: S1_30  and  C14_31 
REMARK    9  A    between atoms: N11_36  and  C15_37 
REMARK   10  A    between atoms: C20_46  and  O3_47 
ROOT
HETATM    1  C7  UNL     1      -0.985  -0.848  -0.526  1.00  0.00     0.189 C 
ENDROOT
BRANCH   1   2
HETATM    2  C6  UNL     1      -2.135  -1.745  -0.088  1.00  0.00     0.085 C 
BRANCH   2   3
HETATM    3  C5  UNL     1      -3.108  -1.016   0.759  1.00  0.00    -0.052 A 
HETATM    4  C4  UNL     1      -3.063  -0.972   2.134  1.00  0.00     0.010 A 
HETATM    5  C3  UNL     1      -3.970  -0.283   2.919  1.00  0.00     0.033 A 
HETATM    6  C2  UNL     1      -4.996   0.415   2.315  1.00  0.00     0.068 A 
HETATM    7  C20 UNL     1      -5.051   0.377   0.923  1.00  0.00     0.092 A 
HETATM    8  C19 UNL     1      -4.143  -0.313   0.155  1.00  0.00     0.046 A 
BRANCH   6   9
HETATM    9  N3  UNL     1      -5.944   1.141   3.069  1.00  0.00    -0.329 N 
HETATM   10  C1  UNL     1      -5.881   1.142   4.488  1.00  0.00     0.186 C 
HETATM   11  N1  UNL     1      -4.945   1.785   5.133  1.00  0.00    -0.373 N 
HETATM   12  N2  UNL     1      -6.824   0.449   5.276  1.00  0.00    -0.064 NA
ATOM     13  H12 UNL     1      -4.900   1.786   6.152  1.00  0.00     0.158 HD
ATOM     14  H11 UNL     1      -4.263   2.286   4.563  1.00  0.00     0.158 HD
ATOM     15  H3  UNL     1      -6.677   1.667   2.593  1.00  0.00     0.168 HD
ENDBRANCH   6   9
BRANCH   7  16
HETATM   16  O3  UNL     1      -6.094   1.086   0.328  1.00  0.00    -0.358 OA
ATOM     17  H3  UNL     1      -6.131   1.060  -0.621  1.00  0.00     0.217 HD
ENDBRANCH   7  16
ENDBRANCH   2   3
ENDBRANCH   1   2
BRANCH   1  18
HETATM   18  N4  UNL     1      -1.347   0.268  -1.265  1.00  0.00    -0.357 N 
HETATM   19  C8  UNL     1      -1.614   0.583  -2.438  1.00  0.00     0.104 C 
HETATM   20  N5  UNL     1      -1.963   1.946  -2.799  1.00  0.00    -0.314 N 
HETATM   21  C11 UNL     1      -1.647  -0.220  -3.663  1.00  0.00     0.192 C 
HETATM   22  C9  UNL     1      -2.228   2.020  -4.178  1.00  0.00     0.245 C 
ATOM     23  H5  UNL     1      -2.009   2.731  -2.150  1.00  0.00     0.170 HD
HETATM   24  O1  UNL     1      -2.372   3.067  -4.879  1.00  0.00    -0.271 OA
HETATM   25  C10 UNL     1      -2.319   0.660  -4.708  1.00  0.00     0.215 C 
HETATM   26  N6  UNL     1      -3.503  -0.058  -4.363  1.00  0.00    -0.131 NA
HETATM   27  N7  UNL     1      -2.723  -1.118  -3.891  1.00  0.00    -0.133 NA
ATOM     28  H4  UNL     1      -1.416   1.085  -0.658  1.00  0.00     0.163 HD
ENDBRANCH   1  18
BRANCH   1  29
HETATM   29  N8  UNL     1       0.029  -1.628  -1.207  1.00  0.00    -0.339 N 
HETATM   30  C12 UNL     1       1.291  -1.964  -0.615  1.00  0.00     0.228 C 
HETATM   31  O2  UNL     1       1.483  -1.550   0.549  1.00  0.00    -0.273 OA
ATOM     32  H8  UNL     1      -0.165  -1.954  -2.154  1.00  0.00     0.164 HD
BRANCH  30  33
HETATM   33  C13 UNL     1       2.297  -2.760  -1.355  1.00  0.00     0.185 C 
BRANCH  33  34
HETATM   34  S1  UNL     1       3.711  -1.802  -1.929  1.00  0.00    -0.082 SA
BRANCH  34  35
HETATM   35  C14 UNL     1       4.699  -1.322  -0.520  1.00  0.00     0.176 A 
HETATM   36  N9  UNL     1       4.462  -1.603   0.773  1.00  0.00    -0.263 N 
HETATM   37  N10 UNL     1       5.413  -1.107   1.509  1.00  0.00    -0.222 N 
ATOM     38  H9  UNL     1       3.659  -2.125   1.123  1.00  0.00     0.190 HD
HETATM   39  N11 UNL     1       6.292  -0.490   0.707  1.00  0.00    -0.194 N 
ATOM     40  H10 UNL     1       5.479  -1.176   2.525  1.00  0.00     0.210 HD
HETATM   41  N13 UNL     1       5.858  -0.619  -0.528  1.00  0.00    -0.259 N 
ATOM     42  H13 UNL     1       6.320  -0.249  -1.359  1.00  0.00     0.191 HD
BRANCH  39  43
HETATM   43  C15 UNL     1       7.471   0.144   1.256  1.00  0.00     0.225 C 
HETATM   44  C16 UNL     1       7.856   1.420   0.547  1.00  0.00     0.055 C 
HETATM   45  C17 UNL     1       9.372   1.438   0.801  1.00  0.00     0.048 C 
HETATM   46  C18 UNL     1       9.666  -0.022   0.804  1.00  0.00     0.058 C 
HETATM   47  N12 UNL     1       8.623  -0.688   1.052  1.00  0.00    -0.379 N 
ATOM     48  H12 UNL     1       8.601  -1.707   1.102  1.00  0.00     0.160 HD
ENDBRANCH  39  43
ENDBRANCH  34  35
ENDBRANCH  33  34
ENDBRANCH  30  33
ENDBRANCH   1  29
TORSDOF 10
