REMARK  14 active torsions:
REMARK  status: ('A' for Active; 'I' for Inactive)
REMARK    1  A    between atoms: C2_2  and  C3_3 
REMARK    2  A    between atoms: C4_4  and  O1_5 
REMARK    3  A    between atoms: C5_7  and  O2_8 
REMARK    4  A    between atoms: C6_10  and  O3_11 
REMARK    5  A    between atoms: O3_11  and  C7_12 
REMARK    6  A    between atoms: C8_14  and  C9_15 
REMARK    7  A    between atoms: C9_15  and  O5_16 
REMARK    8  A    between atoms: C10_18  and  O6_19 
REMARK    9  A    between atoms: C11_21  and  O7_22 
REMARK   10  A    between atoms: C12_24  and  N1_25 
REMARK   11  A    between atoms: C13_29  and  N2_30 
REMARK   12  A    between atoms: N2_30  and  N3_32 
REMARK   13  A    between atoms: N3_32  and  N4_33 
REMARK   14  A    between atoms: C17_39  and  N5_40 
ROOT
HETATM    1  C3  UNL     1      -2.295  -1.400   0.826  1.00  0.00     0.045 C 
HETATM    2  C4  UNL     1      -0.963  -2.103   0.994  1.00  0.00     0.157 C 
HETATM    3  C5  UNL     1      -0.158  -2.216  -0.243  1.00  0.00     0.178 C 
HETATM    4  C6  UNL     1       0.378  -0.911  -0.780  1.00  0.00     0.181 C 
HETATM    5  C13 UNL     1      -0.592  -0.117  -1.568  1.00  0.00     0.150 C 
HETATM    6  C14 UNL     1      -1.817   0.380  -0.923  1.00  0.00     0.020 C 
HETATM    7  C15 UNL     1      -1.745   1.911  -0.828  1.00  0.00     0.009 C 
HETATM    8  C16 UNL     1      -2.541   2.306   0.400  1.00  0.00     0.036 C 
HETATM    9  C17 UNL     1      -3.051   1.016   0.958  1.00  0.00     0.227 C 
HETATM   10  C20 UNL     1      -2.052   0.015   0.494  1.00  0.00     0.035 C 
ENDROOT
BRANCH   4  11
HETATM   11  O3  UNL     1       1.115  -0.193   0.156  1.00  0.00    -0.349 OA
BRANCH  11  12
HETATM   12  C7  UNL     1       2.460  -0.114  -0.103  1.00  0.00     0.294 C 
HETATM   13  O4  UNL     1       2.866   1.229  -0.207  1.00  0.00    -0.349 OA
HETATM   14  C8  UNL     1       4.129   1.299  -0.755  1.00  0.00     0.179 C 
HETATM   15  C10 UNL     1       5.115   0.406  -0.079  1.00  0.00     0.180 C 
HETATM   16  C11 UNL     1       4.548  -0.044   1.241  1.00  0.00     0.184 C 
HETATM   17  C12 UNL     1       3.275  -0.815   0.958  1.00  0.00     0.269 C 
BRANCH  14  18
HETATM   18  C9  UNL     1       4.672   2.702  -0.773  1.00  0.00     0.198 C 
BRANCH  18  19
HETATM   19  O5  UNL     1       4.780   3.283   0.475  1.00  0.00    -0.398 OA
ATOM     20  H5  UNL     1       5.123   4.169   0.464  1.00  0.00     0.209 HD
ENDBRANCH  18  19
ENDBRANCH  14  18
BRANCH  15  21
HETATM   21  O6  UNL     1       6.364   1.005   0.086  1.00  0.00    -0.390 OA
ATOM     22  H6  UNL     1       6.992   0.436   0.516  1.00  0.00     0.210 HD
ENDBRANCH  15  21
BRANCH  16  23
HETATM   23  O7  UNL     1       4.359   0.980   2.154  1.00  0.00    -0.391 OA
ATOM     24  H7  UNL     1       4.001   0.696   2.987  1.00  0.00     0.210 HD
ENDBRANCH  16  23
BRANCH  17  25
HETATM   25  N1  UNL     1       3.689  -2.151   0.548  1.00  0.00    -0.068 N 
ATOM     26  H13 UNL     1       2.886  -2.715   0.268  1.00  0.00     0.275 HD
ATOM     27  H12 UNL     1       4.188  -2.125  -0.341  1.00  0.00     0.275 HD
ATOM     28  H11 UNL     1       4.239  -2.624   1.265  1.00  0.00     0.275 HD
ENDBRANCH  17  25
ENDBRANCH  11  12
ENDBRANCH   4  11
BRANCH   3  29
HETATM   29  O2  UNL     1      -0.729  -2.900  -1.286  1.00  0.00    -0.390 OA
ATOM     30  H2  UNL     1      -0.212  -2.973  -2.080  1.00  0.00     0.210 HD
ENDBRANCH   3  29
BRANCH   5  31
HETATM   31  N2  UNL     1      -0.901  -0.909  -2.773  1.00  0.00    -0.245 N 
ATOM     32  H2  UNL     1      -1.840  -1.290  -2.892  1.00  0.00     0.197 HD
BRANCH  31  33
HETATM   33  N3  UNL     1      -0.054  -1.120  -3.637  1.00  0.00    -0.248 NA
BRANCH  33  34
HETATM   34  N4  UNL     1       0.767  -1.617  -4.393  1.00  0.00    -0.261 N 
ATOM     35  H42 UNL     1       0.641  -2.548  -3.996  1.00  0.00     0.193 HD
ATOM     36  H41 UNL     1       1.470  -1.792  -5.111  1.00  0.00     0.193 HD
ENDBRANCH  33  34
ENDBRANCH  31  33
ENDBRANCH   5  31
BRANCH   2  37
HETATM   37  O1  UNL     1      -1.120  -3.360   1.562  1.00  0.00    -0.392 OA
ATOM     38  H1  UNL     1      -0.285  -3.801   1.667  1.00  0.00     0.210 HD
ENDBRANCH   2  37
BRANCH   1  39
HETATM   39  C2  UNL     1      -3.232  -2.150  -0.010  1.00  0.00    -0.029 C 
HETATM   40  C1  UNL     1      -4.336  -2.721   0.470  1.00  0.00     0.007 C 
ENDBRANCH   1  39
BRANCH   9  41
HETATM   41  N5  UNL     1      -4.430   0.776   0.773  1.00  0.00     0.085 N 
HETATM   42  C18 UNL     1      -5.160   1.813   1.578  1.00  0.00     0.309 C 
HETATM   43  C19 UNL     1      -4.946   1.021  -0.556  1.00  0.00     0.309 C 
ENDBRANCH   9  41
TORSDOF 14
