REMARK  1 active torsions:
REMARK  status: ('A' for Active; 'I' for Inactive)
REMARK    1  A    between atoms: C2_2  and  C3_3 
ROOT
HETATM    1  C1  UNL     1      -0.906  -1.453   1.493  1.00  0.00     0.044 C 
HETATM    2  C2  UNL     1      -0.778  -0.637   0.193  1.00  0.00     0.054 C 
HETATM    3  C9  UNL     1       0.344   0.387   0.426  1.00  0.00     0.036 C 
HETATM    4  C10 UNL     1       0.944   0.923  -0.804  1.00  0.00     0.004 C 
HETATM    5  C11 UNL     1       2.423   1.125  -0.795  1.00  0.00     0.027 C 
HETATM    6  C12 UNL     1       3.133   0.754   0.445  1.00  0.00     0.169 C 
HETATM    7  C13 UNL     1       4.369   1.597   0.508  1.00  0.00     0.072 C 
HETATM    8  N1  UNL     1       5.318   2.263   0.557  1.00  0.00    -0.196 NA
HETATM    9  C14 UNL     1       3.524  -0.706   0.341  1.00  0.00     0.158 C 
HETATM   10  N2  UNL     1       4.536  -1.022   1.074  1.00  0.00    -0.381 N 
ATOM     11  H21 UNL     1       4.799  -2.005   1.004  1.00  0.00     0.158 HD
ATOM     12  H22 UNL     1       5.013  -0.338   1.661  1.00  0.00     0.158 HD
HETATM   13  O1  UNL     1       2.899  -1.601  -0.428  1.00  0.00    -0.223 OA
HETATM   14  N3  UNL     1       1.854  -2.243  -0.731  1.00  0.00    -0.255 N 
ATOM     15  H3  UNL     1       2.229  -3.178  -0.891  1.00  0.00     0.195 HD
HETATM   16  C15 UNL     1       0.660  -2.417  -0.948  1.00  0.00     0.201 C 
HETATM   17  N4  UNL     1      -0.433  -1.487  -0.891  1.00  0.00    -0.372 N 
ATOM     18  H4  UNL     1      -1.026  -1.431  -1.719  1.00  0.00     0.161 HD
ENDROOT
BRANCH   2  19
HETATM   19  C3  UNL     1      -2.074   0.036  -0.003  1.00  0.00    -0.030 A 
HETATM   20  C4  UNL     1      -2.339   0.829  -1.094  1.00  0.00     0.011 A 
HETATM   21  C5  UNL     1      -3.576   1.473  -1.243  1.00  0.00     0.019 A 
HETATM   22  C6  UNL     1      -4.581   1.348  -0.316  1.00  0.00     0.011 A 
HETATM   23 BR1  UNL     1      -6.261   2.246  -0.542  1.00  0.00    -0.051 Br
HETATM   24  C7  UNL     1      -4.327   0.557   0.781  1.00  0.00     0.019 A 
HETATM   25  C8  UNL     1      -3.108  -0.081   0.932  1.00  0.00     0.011 A 
ENDBRANCH   2  19
TORSDOF 1
