REMARK  5 active torsions:
REMARK  status: ('A' for Active; 'I' for Inactive)
REMARK    1  A    between atoms: O1_1  and  C1_3 
REMARK    2  A    between atoms: C1_3  and  N1_4 
REMARK    3  A    between atoms: C1_3  and  C4_11 
REMARK    4  A    between atoms: N1_4  and  N2_5 
REMARK    5  A    between atoms: N2_5  and  C2_7 
ROOT
HETATM    1  C1  UNL     1      -0.072  -0.119   0.493  1.00  0.00     0.283 C 
ENDROOT
BRANCH   1   2
HETATM    2  O1  UNL     1      -0.033  -0.103   1.886  1.00  0.00    -0.372 OA
ATOM      3  H1  UNL     1      -0.390   0.721   2.196  1.00  0.00     0.212 HD
ENDBRANCH   1   2
BRANCH   1   4
HETATM    4  N1  UNL     1       0.467  -1.365   0.025  1.00  0.00    -0.101 NA
BRANCH   4   5
HETATM    5  N2  UNL     1       1.781  -1.456   0.477  1.00  0.00    -0.285 N 
ATOM      6  H2  UNL     1       2.199  -2.378   0.597  1.00  0.00     0.184 HD
BRANCH   5   7
HETATM    7  C2  UNL     1       2.552  -0.311   0.774  1.00  0.00     0.132 A 
HETATM    8  N3  UNL     1       2.806   0.799   1.399  1.00  0.00    -0.347 N 
HETATM    9  C3  UNL     1       3.804   0.471   0.478  1.00  0.00     0.139 A 
ATOM     10  H3  UNL     1       2.487   1.468   2.100  1.00  0.00     0.167 HD
ENDBRANCH   5   7
ENDBRANCH   4   5
ENDBRANCH   1   4
BRANCH   1  11
HETATM   11  C4  UNL     1      -1.498   0.064   0.041  1.00  0.00     0.073 A 
HETATM   12  C5  UNL     1      -1.951   0.893  -0.964  1.00  0.00     0.049 A 
HETATM   13  C6  UNL     1      -3.341   0.768  -1.065  1.00  0.00     0.109 A 
HETATM   14  N4  UNL     1      -3.673  -0.128  -0.122  1.00  0.00    -0.312 N 
HETATM   15  N5  UNL     1      -2.592  -0.545   0.531  1.00  0.00    -0.301 N 
ATOM     16  H4  UNL     1      -4.624  -0.445   0.068  1.00  0.00     0.186 HD
ATOM     17  H5  UNL     1      -2.593  -1.226   1.291  1.00  0.00     0.186 HD
ENDBRANCH   1  11
TORSDOF 5
