REMARK  7 active torsions:
REMARK  status: ('A' for Active; 'I' for Inactive)
REMARK    1  A    between atoms: C2_2  and  C4_4 
REMARK    2  A    between atoms: C4_4  and  C5_5 
REMARK    3  A    between atoms: C5_5  and  N1_6 
REMARK    4  A    between atoms: C5_5  and  N2_10 
REMARK    5  A    between atoms: N2_10  and  C6_12 
REMARK    6  A    between atoms: C7_15  and  N4_16 
REMARK    7  A    between atoms: C8_21  and  N6_22 
ROOT
HETATM    1  C6  UNL     1       1.330  -0.617   0.153  1.00  0.00     0.143 A 
HETATM    2  N3  UNL     1       1.450  -1.551   1.084  1.00  0.00    -0.175 N 
ATOM      3  H3  UNL     1       2.385  -1.806   1.401  1.00  0.00     0.186 HD
HETATM    4  C7  UNL     1       0.405  -2.171   1.624  1.00  0.00     0.679 A 
HETATM    5  N5  UNL     1      -0.829  -1.856   1.226  1.00  0.00    -0.175 N 
ATOM      6  H5  UNL     1      -1.631  -2.331   1.640  1.00  0.00     0.186 HD
HETATM    7  C8  UNL     1      -1.026  -0.902   0.268  1.00  0.00     0.150 A 
HETATM    8  C16 UNL     1       0.045  -0.258  -0.292  1.00  0.00     0.133 A 
HETATM    9  C17 UNL     1      -0.169   0.727  -1.284  1.00  0.00     0.107 C 
HETATM   10  N8  UNL     1      -0.325   1.540  -2.107  1.00  0.00    -0.191 NA
ENDROOT
BRANCH   1  11
HETATM   11  N2  UNL     1       2.291   0.003  -0.388  1.00  0.00    -0.347 N 
ATOM     12  H2  UNL     1       2.054   0.701  -1.093  1.00  0.00     0.163 HD
BRANCH  11  13
HETATM   13  C5  UNL     1       3.693  -0.186  -0.099  1.00  0.00     0.283 C 
BRANCH  13  14
HETATM   14  C4  UNL     1       4.449   0.673  -1.089  1.00  0.00     0.058 C 
BRANCH  14  15
HETATM   15  C2  UNL     1       5.934   0.578  -0.980  1.00  0.00    -0.019 C 
HETATM   16  C1  UNL     1       6.465   0.994   0.376  1.00  0.00     0.009 C 
HETATM   17  C3  UNL     1       6.501   1.511  -2.062  1.00  0.00     0.009 C 
ENDBRANCH  14  15
ENDBRANCH  13  14
BRANCH  13  18
HETATM   18  N1  UNL     1       4.009   0.171   1.270  1.00  0.00    -0.058 N 
ATOM     19  H13 UNL     1       5.014   0.139   1.441  1.00  0.00     0.276 HD
ATOM     20  H12 UNL     1       3.851   1.164   1.442  1.00  0.00     0.276 HD
ATOM     21  H11 UNL     1       3.499  -0.408   1.937  1.00  0.00     0.276 HD
ENDBRANCH  13  18
ENDBRANCH  11  13
ENDBRANCH   1  11
BRANCH   7  22
HETATM   22  N6  UNL     1      -2.344  -0.586  -0.140  1.00  0.00    -0.301 N 
HETATM   23  C9  UNL     1      -3.173  -1.395  -1.012  1.00  0.00     0.135 C 
HETATM   24  C10 UNL     1      -4.512  -1.280  -0.343  1.00  0.00     0.041 C 
HETATM   25  C11 UNL     1      -4.591   0.168   0.094  1.00  0.00     0.068 C 
HETATM   26  C12 UNL     1      -5.379   1.014  -0.843  1.00  0.00     0.048 C 
HETATM   27  C14 UNL     1      -5.247   0.305   1.449  1.00  0.00     0.251 C 
HETATM   28  C15 UNL     1      -3.148   0.540   0.185  1.00  0.00     0.236 C 
HETATM   29  C13 UNL     1      -6.688   1.228  -0.112  1.00  0.00     0.233 C 
HETATM   30  N7  UNL     1      -6.394   1.146   1.306  1.00  0.00    -0.074 N 
ATOM     31  H72 UNL     1      -6.277   2.060   1.744  1.00  0.00     0.277 HD
ATOM     32  H71 UNL     1      -7.190   0.835   1.862  1.00  0.00     0.277 HD
HETATM   33  O1  UNL     1      -2.723   1.672   0.499  1.00  0.00    -0.272 OA
ENDBRANCH   7  22
BRANCH   4  34
HETATM   34  N4  UNL     1       0.545  -3.086   2.538  1.00  0.00    -0.234 N 
ATOM     35  H42 UNL     1       1.488  -3.327   2.842  1.00  0.00     0.174 HD
ATOM     36  H41 UNL     1      -0.257  -3.562   2.952  1.00  0.00     0.174 HD
ENDBRANCH   4  34
TORSDOF 7
