REMARK  4 active torsions:
REMARK  status: ('A' for Active; 'I' for Inactive)
REMARK    1  A    between atoms: C2_7  and  N3_8 
REMARK    2  A    between atoms: N3_8  and  N4_10 
REMARK    3  A    between atoms: C3_14  and  C4_15 
REMARK    4  A    between atoms: C4_15  and  N6_19 
REMARK       I    between atoms: N6_19  and  C5_20 
ROOT
HETATM    1  N1  UNL     1       2.060  -1.217  -1.555  1.00  0.00    -0.386 N 
ATOM      2  H11 UNL     1       2.869  -0.673  -1.256  1.00  0.00     0.157 HD
ATOM      3  H12 UNL     1       2.426  -2.110  -1.885  1.00  0.00     0.157 HD
HETATM    4  C1  UNL     1       0.835  -0.873  -1.523  1.00  0.00     0.117 C 
HETATM    5  N2  UNL     1      -0.296  -1.633  -1.941  1.00  0.00    -0.308 N 
ATOM      6  H2  UNL     1      -0.293  -2.624  -2.182  1.00  0.00     0.170 HD
HETATM    7  C2  UNL     1      -1.344  -0.840  -1.963  1.00  0.00     0.240 C 
HETATM    8  O1  UNL     1      -1.005   0.427  -1.586  1.00  0.00    -0.299 OA
HETATM    9  C3  UNL     1       0.307   0.414  -1.047  1.00  0.00     0.280 C 
ENDROOT
BRANCH   9  10
HETATM   10  C4  UNL     1       0.242   0.529   0.406  1.00  0.00     0.192 C 
HETATM   11  N5  UNL     1      -0.784  -0.112   0.965  1.00  0.00    -0.375 N 
ATOM     12  H52 UNL     1      -1.437  -0.604   0.355  1.00  0.00     0.158 HD
ATOM     13  H51 UNL     1      -0.829  -0.032   1.981  1.00  0.00     0.158 HD
BRANCH  10  14
HETATM   14  N6  UNL     1       1.136   1.202   1.240  1.00  0.00    -0.338 NA
HETATM   15  C5  UNL     1       1.973   1.833   2.019  1.00  0.00     0.407 C 
HETATM   16  N7  UNL     1       1.858   1.868   3.491  1.00  0.00    -0.025 NA
HETATM   17  O2  UNL     1       3.010   2.513   1.674  1.00  0.00    -0.234 OA
ENDBRANCH  10  14
ENDBRANCH   9  10
BRANCH   7  18
HETATM   18  N3  UNL     1      -2.651  -1.275  -2.337  1.00  0.00    -0.272 N 
ATOM     19  H3  UNL     1      -3.144  -0.831  -3.111  1.00  0.00     0.190 HD
BRANCH  18  20
HETATM   20  N4  UNL     1      -3.240  -2.315  -1.627  1.00  0.00    -0.342 N 
ATOM     21  H42 UNL     1      -2.734  -2.749  -0.855  1.00  0.00     0.176 HD
ATOM     22  H41 UNL     1      -4.174  -2.626  -1.894  1.00  0.00     0.176 HD
ENDBRANCH  18  20
ENDBRANCH   7  18
TORSDOF 4
