REMARK  7 active torsions:
REMARK  status: ('A' for Active; 'I' for Inactive)
REMARK    1  A    between atoms: O1_2  and  C2_3 
REMARK    2  A    between atoms: C2_3  and  O2_4 
REMARK    3  A    between atoms: C2_3  and  C3_6 
REMARK    4  A    between atoms: C3_6  and  N1_7 
REMARK    5  A    between atoms: N1_7  and  C4_9 
REMARK    6  A    between atoms: C7_16  and  N4_17 
REMARK    7  A    between atoms: C8_22  and  N6_23 
ROOT
HETATM    1  C4  UNL     1      -0.151   0.379   0.432  1.00  0.00     0.132 A 
HETATM    2  N2  UNL     1       0.305  -0.074   1.611  1.00  0.00    -0.337 N 
ATOM      3  H2  UNL     1       1.292   0.037   1.844  1.00  0.00     0.168 HD
HETATM    4  C5  UNL     1      -0.530  -0.680   2.502  1.00  0.00     0.182 A 
HETATM    5  N3  UNL     1      -1.830  -0.828   2.202  1.00  0.00    -0.347 N 
ATOM      6  H3  UNL     1      -2.449  -1.282   2.874  1.00  0.00     0.167 HD
HETATM    7  C6  UNL     1      -2.340  -0.386   1.021  1.00  0.00     0.109 A 
HETATM    8  C7  UNL     1      -3.663  -0.541   0.725  1.00  0.00     0.144 A 
HETATM    9  N5  UNL     1      -4.122  -0.080  -0.471  1.00  0.00    -0.175 N 
ATOM     10  H5  UNL     1      -5.109  -0.191  -0.702  1.00  0.00     0.186 HD
HETATM   11  C8  UNL     1      -3.303   0.518  -1.354  1.00  0.00     0.678 A 
HETATM   12  N7  UNL     1      -2.000   0.665  -1.051  1.00  0.00    -0.186 N 
ATOM     13  H7  UNL     1      -1.379   1.118  -1.721  1.00  0.00     0.184 HD
HETATM   14  C9  UNL     1      -1.504   0.229   0.111  1.00  0.00     0.123 A 
ENDROOT
BRANCH   1  15
HETATM   15  N1  UNL     1       0.559   0.958  -0.462  1.00  0.00    -0.370 N 
ATOM     16  H1  UNL     1       0.111   1.265  -1.325  1.00  0.00     0.161 HD
BRANCH  15  17
HETATM   17  C3  UNL     1       1.975   1.192  -0.289  1.00  0.00     0.181 C 
BRANCH  17  18
HETATM   18  C2  UNL     1       2.787  -0.060  -0.652  1.00  0.00     0.273 C 
BRANCH  18  19
HETATM   19  O1  UNL     1       4.134   0.224  -0.467  1.00  0.00    -0.365 OA
HETATM   20  C1  UNL     1       4.736  -0.640   0.451  1.00  0.00     0.204 C 
ENDBRANCH  18  19
BRANCH  18  21
HETATM   21  O2  UNL     1       2.554  -0.402  -1.979  1.00  0.00    -0.370 OA
ATOM     22  H2  UNL     1       1.633  -0.596  -2.106  1.00  0.00     0.212 HD
ENDBRANCH  18  21
ENDBRANCH  17  18
ENDBRANCH  15  17
ENDBRANCH   1  15
BRANCH   8  23
HETATM   23  N4  UNL     1      -4.429  -1.111   1.575  1.00  0.00    -0.383 N 
ATOM     24  H42 UNL     1      -4.085  -1.456   2.471  1.00  0.00     0.157 HD
ATOM     25  H41 UNL     1      -5.418  -1.227   1.354  1.00  0.00     0.157 HD
ENDBRANCH   8  23
BRANCH  11  26
HETATM   26  N6  UNL     1      -3.773   0.953  -2.500  1.00  0.00    -0.234 N 
ATOM     27  H62 UNL     1      -4.761   0.842  -2.730  1.00  0.00     0.174 HD
ATOM     28  H61 UNL     1      -3.152   1.407  -3.170  1.00  0.00     0.174 HD
ENDBRANCH  11  26
TORSDOF 7
