REMARK  2 active torsions:
REMARK  status: ('A' for Active; 'I' for Inactive)
REMARK    1  A    between atoms: N1_1  and  C1_4 
REMARK    2  A    between atoms: C5_13  and  C6_14 
ROOT
HETATM    1  C1  UNL     1      -1.514   0.936  -0.413  1.00  0.00     0.703 A 
HETATM    2  N2  UNL     1      -2.482   0.026  -0.208  1.00  0.00    -0.140 N 
ATOM      3  H2  UNL     1      -3.458   0.315  -0.265  1.00  0.00     0.189 HD
HETATM    4  C2  UNL     1      -2.189  -1.272   0.074  1.00  0.00     0.340 A 
HETATM    5  O1  UNL     1      -3.086  -2.117   0.265  1.00  0.00    -0.246 OA
HETATM    6  N3  UNL     1      -0.916  -1.676   0.155  1.00  0.00    -0.292 N 
ATOM      7  H3  UNL     1      -0.685  -2.647   0.367  1.00  0.00     0.172 HD
HETATM    8  C3  UNL     1       0.051  -0.763  -0.051  1.00  0.00     0.151 A 
HETATM    9  C4  UNL     1       1.430  -0.818  -0.047  1.00  0.00     0.085 A 
HETATM   10  C5  UNL     1       1.942   0.438  -0.325  1.00  0.00     0.090 A 
HETATM   11  N4  UNL     1       0.875   1.225  -0.491  1.00  0.00    -0.275 N 
ATOM     12  H4  UNL     1       0.915   2.221  -0.709  1.00  0.00     0.188 HD
HETATM   13  N5  UNL     1      -0.235   0.535  -0.333  1.00  0.00    -0.069 N 
ENDROOT
BRANCH   1  14
HETATM   14  N1  UNL     1      -1.842   2.164  -0.680  1.00  0.00    -0.233 N 
ATOM     15  H12 UNL     1      -2.814   2.469  -0.741  1.00  0.00     0.174 HD
ATOM     16  H11 UNL     1      -1.108   2.854  -0.836  1.00  0.00     0.174 HD
ENDBRANCH   1  14
BRANCH  10  17
HETATM   17  C6  UNL     1       3.355   0.779  -0.408  1.00  0.00     0.289 C 
HETATM   18  O2  UNL     1       4.228  -0.099  -0.220  1.00  0.00    -0.300 OA
ENDBRANCH  10  17
TORSDOF 2
