REMARK  2 active torsions:
REMARK  status: ('A' for Active; 'I' for Inactive)
REMARK    1  A    between atoms: N1_1  and  C1_5 
REMARK    2  A    between atoms: C1_5  and  C2_6 
ROOT
HETATM    1  C2  UNL     1      -1.333  -0.254   0.679  1.00  0.00     0.055 A 
HETATM    2  C3  UNL     1      -0.545  -0.999  -0.175  1.00  0.00     0.067 A 
HETATM    3  C4  UNL     1       0.711  -0.457  -0.153  1.00  0.00     0.144 A 
HETATM    4  C5  UNL     1       1.879  -0.821  -0.826  1.00  0.00     0.279 A 
HETATM    5  O1  UNL     1       1.873  -1.816  -1.620  1.00  0.00    -0.265 OA
HETATM    6  N2  UNL     1       2.987  -0.087  -0.602  1.00  0.00    -0.272 N 
ATOM      7  H2  UNL     1       3.862  -0.315  -1.073  1.00  0.00     0.174 HD
HETATM    8  C6  UNL     1       2.923   0.941   0.243  1.00  0.00     0.343 A 
HETATM    9  O2  UNL     1       3.977   1.632   0.451  1.00  0.00    -0.245 OA
HETATM   10  N3  UNL     1       1.804   1.296   0.893  1.00  0.00    -0.229 N 
ATOM     11  H3  UNL     1       1.809   2.093   1.529  1.00  0.00     0.194 HD
HETATM   12  N4  UNL     1       0.692   0.600   0.700  1.00  0.00    -0.187 N 
HETATM   13  N5  UNL     1      -0.537   0.698   1.181  1.00  0.00    -0.281 N 
ATOM     14  H5  UNL     1      -0.839   1.408   1.848  1.00  0.00     0.189 HD
ENDROOT
BRANCH   1  15
HETATM   15  C1  UNL     1      -2.771  -0.488   0.963  1.00  0.00     0.288 C 
BRANCH  15  16
HETATM   16  N1  UNL     1      -3.629   0.254   0.032  1.00  0.00    -0.074 N 
ATOM     17  H13 UNL     1      -3.406   1.249   0.030  1.00  0.00     0.274 HD
ATOM     18  H12 UNL     1      -3.400   0.040  -0.939  1.00  0.00     0.274 HD
ATOM     19  H11 UNL     1      -4.617   0.093   0.227  1.00  0.00     0.274 HD
ENDBRANCH  15  16
ENDBRANCH   1  15
TORSDOF 2
