REMARK  8 active torsions:
REMARK  status: ('A' for Active; 'I' for Inactive)
REMARK    1  A    between atoms: C4_6  and  N2_7 
REMARK    2  A    between atoms: N3_13  and  N4_14 
REMARK    3  A    between atoms: N4_14  and  O2_16 
REMARK    4  A    between atoms: N5_18  and  C7_19 
REMARK    5  A    between atoms: C8_20  and  O3_21 
REMARK    6  A    between atoms: C9_23  and  O4_24 
REMARK    7  A    between atoms: C11_27  and  N6_28 
REMARK       I    between atoms: N7_32  and  C12_33 
REMARK       I    between atoms: C12_33  and  N8_35 
REMARK    8  A    between atoms: N8_35  and  N9_37 
ROOT
HETATM    1  C1  UNL     1       2.806   4.651  -0.567  1.00  0.00     0.021 C 
HETATM    2  C2  UNL     1       2.802   3.486  -0.251  1.00  0.00    -0.041 C 
HETATM    3  C3  UNL     1       2.817   2.087   0.129  1.00  0.00     0.163 A 
HETATM    4  N1  UNL     1       3.899   1.488   0.591  1.00  0.00    -0.321 N 
ATOM      5  H1  UNL     1       4.764   2.019   0.689  1.00  0.00     0.169 HD
HETATM    6  C4  UNL     1       3.878   0.178   0.937  1.00  0.00     0.120 A 
HETATM    7  C5  UNL     1       2.699  -0.530   0.799  1.00  0.00     0.124 A 
HETATM    8  C6  UNL     1       2.367  -1.833   1.053  1.00  0.00     0.301 A 
HETATM    9  O1  UNL     1       3.112  -2.742   1.504  1.00  0.00    -0.263 OA
HETATM   10  N3  UNL     1       1.079  -1.972   0.730  1.00  0.00    -0.130 N 
HETATM   11  N5  UNL     1       0.586  -0.813   0.284  1.00  0.00    -0.223 N 
HETATM   12  C13 UNL     1       1.576   0.071   0.324  1.00  0.00     0.148 A 
HETATM   13  N10 UNL     1       1.669   1.373   0.000  1.00  0.00    -0.319 N 
ATOM     14  H10 UNL     1       0.840   1.846  -0.359  1.00  0.00     0.169 HD
ENDROOT
BRANCH   6  15
HETATM   15  N2  UNL     1       4.963  -0.348   1.381  1.00  0.00    -0.384 N 
ATOM     16  H22 UNL     1       5.833   0.174   1.483  1.00  0.00     0.157 HD
ATOM     17  H21 UNL     1       4.947  -1.334   1.641  1.00  0.00     0.157 HD
ENDBRANCH   6  15
BRANCH  11  18
HETATM   18  C7  UNL     1      -0.772  -0.693  -0.139  1.00  0.00     0.250 C 
HETATM   19  C8  UNL     1      -0.847  -1.148  -1.581  1.00  0.00     0.191 C 
HETATM   20  C9  UNL     1      -2.162  -0.973  -2.242  1.00  0.00     0.154 C 
HETATM   21  C10 UNL     1      -3.110  -0.016  -1.613  1.00  0.00     0.088 C 
HETATM   22  C11 UNL     1      -2.301   1.102  -0.946  1.00  0.00     0.292 C 
HETATM   23  N7  UNL     1      -1.494   0.501   0.119  1.00  0.00    -0.278 N 
HETATM   24  C12 UNL     1      -1.513   1.079   1.395  1.00  0.00     0.340 C 
HETATM   25  O5  UNL     1      -2.167   2.197   1.476  1.00  0.00    -0.245 OA
HETATM   26  N8  UNL     1      -0.946   0.642   2.580  1.00  0.00    -0.258 N 
ATOM     27  H8  UNL     1      -0.422  -0.233   2.591  1.00  0.00     0.191 HD
BRANCH  19  28
HETATM   28  O3  UNL     1       0.180  -0.589  -2.362  1.00  0.00    -0.389 OA
ATOM     29  H3  UNL     1       0.133  -0.875  -3.267  1.00  0.00     0.210 HD
ENDBRANCH  19  28
BRANCH  20  30
HETATM   30  O4  UNL     1      -2.849  -2.206  -2.364  1.00  0.00    -0.393 OA
ATOM     31  H4  UNL     1      -3.692  -2.094  -2.788  1.00  0.00     0.210 HD
ENDBRANCH  20  30
BRANCH  22  32
HETATM   32  N6  UNL     1      -1.578   1.815  -1.938  1.00  0.00    -0.058 N 
ATOM     33  H63 UNL     1      -0.994   1.201  -2.506  1.00  0.00     0.276 HD
ATOM     34  H62 UNL     1      -2.184   2.166  -2.680  1.00  0.00     0.276 HD
ATOM     35  H61 UNL     1      -1.040   2.559  -1.494  1.00  0.00     0.276 HD
ENDBRANCH  22  32
BRANCH  26  36
HETATM   36  N9  UNL     1      -1.078   1.375   3.758  1.00  0.00    -0.341 N 
ATOM     37  H92 UNL     1      -1.605   2.248   3.729  1.00  0.00     0.177 HD
ATOM     38  H91 UNL     1      -0.660   1.053   4.631  1.00  0.00     0.177 HD
ENDBRANCH  26  36
ENDBRANCH  11  18
BRANCH  10  39
HETATM   39  N4  UNL     1       0.375  -3.202   0.857  1.00  0.00    -0.185 N 
ATOM     40  H4  UNL     1      -0.607  -3.260   0.587  1.00  0.00     0.218 HD
BRANCH  39  41
HETATM   41  O2  UNL     1       1.010  -4.287   1.334  1.00  0.00    -0.273 OA
ATOM     42  H2  UNL     1       0.540  -5.108   1.419  1.00  0.00     0.246 HD
ENDBRANCH  39  41
ENDBRANCH  10  39
TORSDOF 8
