REMARK  11 active torsions:
REMARK  status: ('A' for Active; 'I' for Inactive)
REMARK    1  A    between atoms: C2_2  and  C3_3 
REMARK    2  A    between atoms: C2_2  and  C25_31 
REMARK    3  A    between atoms: C3_3  and  C4_4 
REMARK    4  A    between atoms: C4_4  and  O2_6 
REMARK    5  A    between atoms: O2_6  and  C5_7 
REMARK    6  A    between atoms: C5_7  and  C6_8 
REMARK    7  A    between atoms: C15_17  and  C16_18 
REMARK    8  A    between atoms: C16_18  and  N1_19 
REMARK       I    between atoms: N1_19  and  C17_21 
REMARK    9  A    between atoms: C17_21  and  O4_23 
REMARK   10  A    between atoms: O4_23  and  C18_24 
REMARK   11  A    between atoms: C25_31  and  C28_34 
ROOT
HETATM    1  C6  UNL     1       0.056  -0.609   0.513  1.00  0.00    -0.017 C 
HETATM    2  C7  UNL     1       0.272  -0.385  -0.981  1.00  0.00     0.017 C 
HETATM    3  C8  UNL     1       1.119  -1.482  -1.588  1.00  0.00    -0.005 C 
HETATM    4  C9  UNL     1       0.455  -2.777  -1.320  1.00  0.00    -0.010 C 
HETATM    5  C10 UNL     1       0.896  -3.951  -2.113  1.00  0.00     0.011 C 
HETATM    6  C11 UNL     1       0.470  -2.997   0.180  1.00  0.00    -0.005 C 
HETATM    7  C12 UNL     1      -0.498  -1.952   0.738  1.00  0.00     0.017 C 
HETATM    8  C13 UNL     1       1.841  -2.951   0.739  1.00  0.00    -0.000 C 
HETATM    9  C14 UNL     1       1.895  -3.426   2.148  1.00  0.00     0.011 C 
HETATM   10  C15 UNL     1       2.394  -1.508   0.572  1.00  0.00    -0.000 C 
HETATM   11  C22 UNL     1       1.431  -0.597   1.222  1.00  0.00     0.027 C 
HETATM   12  C23 UNL     1       2.504  -1.333  -0.912  1.00  0.00    -0.000 C 
HETATM   13  C24 UNL     1       3.497  -2.214  -1.572  1.00  0.00     0.011 C 
ENDROOT
BRANCH   1  14
HETATM   14  C5  UNL     1      -0.632   0.584   1.057  1.00  0.00     0.188 C 
BRANCH  14  15
HETATM   15  O2  UNL     1      -1.830   1.006   0.642  1.00  0.00    -0.320 OA
BRANCH  15  16
HETATM   16  C4  UNL     1      -3.100   0.475   0.809  1.00  0.00     0.262 C 
HETATM   17  O1  UNL     1      -3.143  -0.581   1.486  1.00  0.00    -0.265 OA
BRANCH  16  18
HETATM   18  C3  UNL     1      -4.263   1.142   0.214  1.00  0.00     0.145 C 
BRANCH  18  19
HETATM   19  C2  UNL     1      -5.590   0.578   0.382  1.00  0.00    -0.072 C 
HETATM   20  C1  UNL     1      -5.955  -0.491   1.022  1.00  0.00     0.015 C 
BRANCH  19  21
HETATM   21  C25 UNL     1      -6.680   1.396  -0.314  1.00  0.00    -0.025 C 
HETATM   22  C26 UNL     1      -6.305   1.416  -1.788  1.00  0.00     0.019 C 
HETATM   23  C27 UNL     1      -6.574   2.826   0.187  1.00  0.00     0.019 C 
BRANCH  21  24
HETATM   24  C28 UNL     1      -7.997   0.778  -0.036  1.00  0.00     0.009 C 
HETATM   25  C29 UNL     1      -9.146   1.543  -0.679  1.00  0.00     0.006 C 
ENDBRANCH  21  24
ENDBRANCH  19  21
ENDBRANCH  18  19
ENDBRANCH  16  18
ENDBRANCH  15  16
ENDBRANCH  14  15
ENDBRANCH   1  14
BRANCH  10  26
HETATM   26  C16 UNL     1       3.701  -1.402   1.260  1.00  0.00     0.076 C 
BRANCH  26  27
HETATM   27  N1  UNL     1       4.407  -0.187   1.378  1.00  0.00    -0.316 N 
HETATM   28  C17 UNL     1       5.028   0.730   0.541  1.00  0.00     0.365 C 
HETATM   29  O3  UNL     1       5.170   0.749  -0.688  1.00  0.00    -0.238 OA
ATOM     30  H1  UNL     1       4.483   0.099   2.354  1.00  0.00     0.170 HD
BRANCH  28  31
HETATM   31  O4  UNL     1       5.627   1.874   1.161  1.00  0.00    -0.294 OA
BRANCH  31  32
HETATM   32  C18 UNL     1       6.258   2.810   0.341  1.00  0.00     0.061 C 
HETATM   33  C19 UNL     1       6.802   3.912   1.259  1.00  0.00     0.046 C 
HETATM   34  C20 UNL     1       5.354   3.459  -0.654  1.00  0.00     0.046 C 
HETATM   35  C21 UNL     1       7.432   2.185  -0.390  1.00  0.00     0.046 C 
ENDBRANCH  31  32
ENDBRANCH  28  31
ENDBRANCH  26  27
ENDBRANCH  10  26
TORSDOF 11
