REMARK  13 active torsions:
REMARK  status: ('A' for Active; 'I' for Inactive)
REMARK    1  A    between atoms: C3_3  and  C5_5 
REMARK    2  A    between atoms: C5_5  and  C6_6 
REMARK    3  A    between atoms: C6_6  and  N1_7 
REMARK    4  A    between atoms: C6_6  and  C12_16 
REMARK       I    between atoms: N1_7  and  C7_9 
REMARK    5  A    between atoms: C7_9  and  O2_11 
REMARK    6  A    between atoms: O2_11  and  C8_12 
REMARK       I    between atoms: C12_16  and  N2_18 
REMARK    7  A    between atoms: C16_22  and  C17_23 
REMARK       I    between atoms: C17_23  and  N3_25 
REMARK    8  A    between atoms: N3_25  and  C18_27 
REMARK    9  A    between atoms: C18_27  and  C19_28 
REMARK   10  A    between atoms: C19_28  and  C20_29 
REMARK   11  A    between atoms: N4_39  and  C27_40 
REMARK   12  A    between atoms: C27_40  and  C28_41 
REMARK   13  A    between atoms: C28_41  and  O6_43 
ROOT
HETATM    1  C1  UNL     1      -4.039   4.196  -2.012  1.00  0.00     0.012 C 
HETATM    2  C2  UNL     1      -4.456   3.478  -1.133  1.00  0.00    -0.113 C 
HETATM    3  C3  UNL     1      -4.979   2.648  -0.066  1.00  0.00     0.062 C 
HETATM    4  C4  UNL     1      -5.696   3.610   0.899  1.00  0.00     0.023 C 
ENDROOT
BRANCH   3   5
HETATM    5  C5  UNL     1      -3.990   1.858   0.708  1.00  0.00     0.051 C 
BRANCH   5   6
HETATM    6  C6  UNL     1      -3.183   0.844  -0.036  1.00  0.00     0.180 C 
BRANCH   6   7
HETATM    7  N1  UNL     1      -4.097  -0.146  -0.646  1.00  0.00    -0.324 N 
HETATM    8  C7  UNL     1      -4.125  -1.488  -0.181  1.00  0.00     0.362 C 
HETATM    9  O1  UNL     1      -3.365  -1.871   0.774  1.00  0.00    -0.238 OA
ATOM     10  H1  UNL     1      -4.713   0.138  -1.408  1.00  0.00     0.165 HD
BRANCH   8  11
HETATM   11  O2  UNL     1      -4.946  -2.463  -0.698  1.00  0.00    -0.294 OA
BRANCH  11  12
HETATM   12  C8  UNL     1      -4.977  -3.790  -0.235  1.00  0.00     0.061 C 
HETATM   13  C9  UNL     1      -5.997  -4.548  -1.054  1.00  0.00     0.046 C 
HETATM   14  C10 UNL     1      -3.674  -4.514  -0.355  1.00  0.00     0.046 C 
HETATM   15  C11 UNL     1      -5.425  -3.873   1.214  1.00  0.00     0.046 C 
ENDBRANCH  11  12
ENDBRANCH   8  11
ENDBRANCH   6   7
BRANCH   6  16
HETATM   16  C12 UNL     1      -2.244   1.346  -1.043  1.00  0.00     0.243 C 
HETATM   17  O3  UNL     1      -2.416   1.063  -2.294  1.00  0.00    -0.271 OA
HETATM   18  N2  UNL     1      -1.084   2.160  -0.789  1.00  0.00    -0.337 N 
HETATM   19  C13 UNL     1      -0.209   2.724  -1.831  1.00  0.00     0.127 C 
HETATM   20  C16 UNL     1      -0.490   2.551   0.461  1.00  0.00     0.179 C 
HETATM   21  C14 UNL     1       0.161   4.048  -1.266  1.00  0.00     0.022 C 
HETATM   22  C15 UNL     1      -0.050   3.967   0.225  1.00  0.00     0.037 C 
BRANCH  20  23
HETATM   23  C17 UNL     1       0.740   1.722   0.785  1.00  0.00     0.244 C 
HETATM   24  O4  UNL     1       1.108   0.840  -0.019  1.00  0.00    -0.271 OA
HETATM   25  N3  UNL     1       1.470   1.926   1.970  1.00  0.00    -0.335 N 
ATOM     26  H3  UNL     1       1.091   2.655   2.575  1.00  0.00     0.168 HD
BRANCH  25  27
HETATM   27  C18 UNL     1       2.617   1.312   2.466  1.00  0.00     0.092 C 
BRANCH  27  28
HETATM   28  C19 UNL     1       3.959   1.419   1.923  1.00  0.00     0.030 C 
BRANCH  28  29
HETATM   29  C20 UNL     1       4.300   1.100   0.546  1.00  0.00    -0.011 A 
HETATM   30  C21 UNL     1       4.626  -0.180   0.185  1.00  0.00     0.044 A 
HETATM   31  C22 UNL     1       4.941  -0.562  -1.137  1.00  0.00     0.054 A 
HETATM   32  C23 UNL     1       4.895   0.459  -2.049  1.00  0.00     0.036 A 
HETATM   33  N4  UNL     1       5.267  -1.758  -1.585  1.00  0.00    -0.322 N 
HETATM   34  C24 UNL     1       4.562   1.777  -1.687  1.00  0.00     0.046 A 
HETATM   35  S1  UNL     1       5.318  -0.326  -3.503  1.00  0.00    -0.058 SA
HETATM   36  C25 UNL     1       4.260   2.113  -0.386  1.00  0.00     0.045 A 
HETATM   37 CL1  UNL     1       3.894   3.783  -0.018  1.00  0.00    -0.083 Cl
HETATM   38  C26 UNL     1       5.530  -1.895  -2.884  1.00  0.00     0.146 A 
HETATM   39  S2  UNL     1       5.958  -3.288  -3.676  1.00  0.00    -0.052 SA
BRANCH  33  40
HETATM   40  C27 UNL     1       5.355  -2.954  -0.696  1.00  0.00     0.241 C 
BRANCH  40  41
HETATM   41  C28 UNL     1       6.697  -3.109  -0.153  1.00  0.00     0.276 C 
HETATM   42  O5  UNL     1       7.615  -2.310  -0.442  1.00  0.00    -0.263 OA
BRANCH  41  43
HETATM   43  O6  UNL     1       6.978  -4.156   0.703  1.00  0.00    -0.325 OA
HETATM   44  C29 UNL     1       8.226  -4.411   1.289  1.00  0.00     0.213 C 
ENDBRANCH  41  43
ENDBRANCH  40  41
ENDBRANCH  33  40
ENDBRANCH  28  29
ENDBRANCH  27  28
ENDBRANCH  25  27
ENDBRANCH  20  23
ENDBRANCH   6  16
ENDBRANCH   5   6
ENDBRANCH   3   5
TORSDOF 13
