REMARK  2 active torsions:
REMARK  status: ('A' for Active; 'I' for Inactive)
REMARK    1  A    between atoms: C2_2  and  C4_12 
REMARK    2  A    between atoms: N1_3  and  N2_5 
REMARK       I    between atoms: N2_5  and  C3_7 
ROOT
HETATM    1  C1  UNL     1       0.606  -2.018  -1.522  1.00  0.00     0.065 C 
HETATM    2  C2  UNL     1       0.140  -0.684  -1.075  1.00  0.00     0.005 C 
HETATM    3  N1  UNL     1       1.024   0.192  -0.751  1.00  0.00    -0.306 N 
ATOM      4  H1  UNL     1       0.694   1.107  -0.445  1.00  0.00     0.186 HD
ENDROOT
BRANCH   2   5
HETATM    5  C4  UNL     1      -1.326  -0.399  -1.015  1.00  0.00     0.044 A 
HETATM    6  C5  UNL     1      -1.746   0.874  -0.583  1.00  0.00     0.028 A 
HETATM    7  C6  UNL     1      -1.636   1.648   0.670  1.00  0.00     0.238 C 
HETATM    8  C8  UNL     1      -2.021  -0.475   0.203  1.00  0.00     0.028 A 
HETATM    9  N5  UNL     1      -2.927   1.304   1.300  1.00  0.00    -0.074 N 
HETATM   10  C7  UNL     1      -3.319   0.002   0.722  1.00  0.00     0.238 C 
ATOM     11  H52 UNL     1      -2.898   1.307   2.320  1.00  0.00     0.277 HD
ATOM     12  H51 UNL     1      -3.638   2.028   1.197  1.00  0.00     0.277 HD
ENDBRANCH   2   5
BRANCH   3  13
HETATM   13  N2  UNL     1       2.385  -0.018  -0.788  1.00  0.00    -0.274 N 
HETATM   14  C3  UNL     1       3.245   0.526   0.205  1.00  0.00     0.200 C 
HETATM   15  N3  UNL     1       3.546   1.787   0.239  1.00  0.00    -0.372 N 
HETATM   16  N4  UNL     1       3.781  -0.358   1.179  1.00  0.00    -0.062 NA
ATOM     17  H32 UNL     1       3.161   2.422  -0.460  1.00  0.00     0.158 HD
ATOM     18  H31 UNL     1       4.163   2.177   0.951  1.00  0.00     0.158 HD
ATOM     19  H2  UNL     1       2.784  -0.575  -1.543  1.00  0.00     0.189 HD
ENDBRANCH   3  13
TORSDOF 2
