REMARK  2 active torsions:
REMARK  status: ('A' for Active; 'I' for Inactive)
REMARK    1  A    between atoms: C3_3  and  C4_4 
REMARK    2  A    between atoms: C4_4  and  N1_5 
ROOT
HETATM    1  C4  UNL     1       0.178   1.817  -0.185  1.00  0.00     0.089 C 
ENDROOT
BRANCH   1   2
HETATM    2  C3  UNL     1      -0.923   0.843   0.177  1.00  0.00     0.125 C 
HETATM    3  C2  UNL     1      -2.254   1.555   0.050  1.00  0.00     0.075 C 
HETATM    4  C1  UNL     1      -3.412   0.656  -0.119  1.00  0.00     0.064 C 
HETATM    5  N5  UNL     1      -3.178  -0.730  -0.085  1.00  0.00    -0.366 N 
HETATM    6  C8  UNL     1      -1.943  -1.208  -0.571  1.00  0.00     0.176 C 
ATOM      7  H5  UNL     1      -3.881  -1.372   0.281  1.00  0.00     0.165 HD
HETATM    8  N4  UNL     1      -0.902  -0.258  -0.716  1.00  0.00    -0.377 N 
ATOM      9  H4  UNL     1      -0.176  -0.361  -1.425  1.00  0.00     0.161 HD
ENDBRANCH   1   2
BRANCH   1  10
HETATM   10  N1  UNL     1       1.485   1.382  -0.153  1.00  0.00    -0.340 N 
HETATM   11  C5  UNL     1       2.102   0.403   0.279  1.00  0.00     0.174 C 
HETATM   12  N2  UNL     1       1.691  -0.759   0.971  1.00  0.00    -0.361 N 
HETATM   13  N3  UNL     1       3.549   0.259   0.121  1.00  0.00    -0.361 N 
HETATM   14  C6  UNL     1       2.582  -1.859   0.615  1.00  0.00     0.142 C 
ATOM     15  H2  UNL     1       0.901  -0.819   1.614  1.00  0.00     0.162 HD
HETATM   16  C7  UNL     1       3.846  -1.149   0.241  1.00  0.00     0.142 C 
ATOM     17  H3  UNL     1       4.220   1.010  -0.043  1.00  0.00     0.162 HD
ATOM     18  H1  UNL     1       2.111   2.047  -0.608  1.00  0.00     0.168 HD
ENDBRANCH   1  10
TORSDOF 2
