REMARK  15 active torsions:
REMARK  status: ('A' for Active; 'I' for Inactive)
REMARK    1  A    between atoms: C2_2  and  C3_3 
REMARK    2  A    between atoms: C3_3  and  N1_4 
REMARK    3  A    between atoms: C3_3  and  C4_8 
REMARK    4  A    between atoms: C4_8  and  O2_10 
REMARK    5  A    between atoms: O2_10  and  C5_11 
REMARK    6  A    between atoms: C6_12  and  C8_14 
REMARK    7  A    between atoms: C12_19  and  O3_20 
REMARK    8  A    between atoms: O3_20  and  C13_21 
REMARK    9  A    between atoms: C13_21  and  C14_23 
REMARK   10  A    between atoms: C23_33  and  C24_34 
REMARK   11  A    between atoms: C24_34  and  C25_35 
REMARK   12  A    between atoms: C25_35  and  O6_36 
REMARK   13  A    between atoms: C26_38  and  C27_39 
REMARK   14  A    between atoms: C27_39  and  C28_40 
REMARK   15  A    between atoms: C28_40  and  C29_41 
ROOT
HETATM    1  C5  UNL     1      -1.719  -0.335   0.900  1.00  0.00     0.155 C 
HETATM    2  C6  UNL     1      -1.052  -1.016   2.033  1.00  0.00     0.016 C 
HETATM    3  C7  UNL     1      -1.681  -0.430   3.359  1.00  0.00     0.023 C 
HETATM    4  C9  UNL     1       0.336  -0.483   1.892  1.00  0.00     0.015 C 
HETATM    5  C10 UNL     1       0.994  -1.375   0.866  1.00  0.00     0.015 C 
HETATM    6  C11 UNL     1       0.400  -0.818  -0.431  1.00  0.00     0.032 C 
HETATM    7  C12 UNL     1       1.592   0.026  -0.860  1.00  0.00     0.167 C 
HETATM    8  C18 UNL     1       1.569   1.007   0.244  1.00  0.00    -0.028 C 
HETATM    9  C19 UNL     1       2.801   1.350   0.886  1.00  0.00    -0.006 A 
HETATM   10  C20 UNL     1       3.368   1.202   2.132  1.00  0.00     0.038 A 
HETATM   11  C21 UNL     1       4.631   1.745   2.127  1.00  0.00     0.142 A 
HETATM   12  O5  UNL     1       4.829   2.200   0.946  1.00  0.00    -0.334 OA
HETATM   13  C22 UNL     1       3.810   2.010   0.159  1.00  0.00     0.153 A 
HETATM   14  C23 UNL     1       0.306   0.801   1.110  1.00  0.00     0.004 C 
HETATM   15  C26 UNL     1      -0.579   0.223   0.000  1.00  0.00     0.006 C 
ENDROOT
BRANCH   1  16
HETATM   16  O2  UNL     1      -2.674  -1.048   0.207  1.00  0.00    -0.312 OA
BRANCH  16  17
HETATM   17  C4  UNL     1      -4.010  -0.707   0.040  1.00  0.00     0.290 C 
HETATM   18  O1  UNL     1      -4.392   0.368   0.579  1.00  0.00    -0.263 OA
BRANCH  17  19
HETATM   19  C3  UNL     1      -4.972  -1.533  -0.725  1.00  0.00     0.282 C 
BRANCH  19  20
HETATM   20  C2  UNL     1      -5.106  -2.859   0.035  1.00  0.00     0.039 C 
HETATM   21  C1  UNL     1      -6.149  -3.665  -0.731  1.00  0.00     0.007 C 
ENDBRANCH  19  20
BRANCH  19  22
HETATM   22  N1  UNL     1      -6.258  -0.913  -0.711  1.00  0.00    -0.066 N 
ATOM     23  H13 UNL     1      -6.996  -1.513  -1.079  1.00  0.00     0.275 HD
ATOM     24  H12 UNL     1      -6.638  -0.800   0.229  1.00  0.00     0.275 HD
ATOM     25  H11 UNL     1      -6.169  -0.031  -1.216  1.00  0.00     0.275 HD
ENDBRANCH  19  22
ENDBRANCH  17  19
ENDBRANCH  16  17
ENDBRANCH   1  16
BRANCH   2  26
HETATM   26  C8  UNL     1      -1.366  -2.443   2.194  1.00  0.00     0.070 C 
HETATM   27 CL1  UNL     1      -1.108  -3.612   0.931  1.00  0.00    -0.100 Cl
ENDBRANCH   2  26
BRANCH  15  28
HETATM   28  C27 UNL     1      -1.282   1.025  -0.923  1.00  0.00     0.017 C 
BRANCH  28  29
HETATM   29  C28 UNL     1      -0.803   1.818  -2.043  1.00  0.00     0.029 C 
BRANCH  29  30
HETATM   30  C29 UNL     1      -2.054   2.443  -2.674  1.00  0.00    -0.008 C 
HETATM   31  C30 UNL     1      -2.218   3.743  -2.758  1.00  0.00     0.004 C 
HETATM   32  C31 UNL     1      -1.175   4.651  -2.236  1.00  0.00     0.061 C 
HETATM   33 CL2  UNL     1      -3.658   4.395  -3.484  1.00  0.00    -0.090 Cl
ENDBRANCH  29  30
ENDBRANCH  28  29
ENDBRANCH  15  28
BRANCH  14  34
HETATM   34  C24 UNL     1       0.078   2.099   1.613  1.00  0.00     0.041 C 
BRANCH  34  35
HETATM   35  C25 UNL     1      -0.979   2.761   2.326  1.00  0.00     0.165 C 
BRANCH  35  36
HETATM   36  O6  UNL     1      -0.559   4.137   2.471  1.00  0.00    -0.401 OA
ATOM     37  H6  UNL     1      -1.258   4.575   2.942  1.00  0.00     0.209 HD
ENDBRANCH  35  36
ENDBRANCH  34  35
ENDBRANCH  14  34
BRANCH   7  38
HETATM   38  O3  UNL     1       2.806  -0.710  -0.807  1.00  0.00    -0.310 OA
BRANCH  38  39
HETATM   39  C13 UNL     1       3.664  -0.889  -1.859  1.00  0.00     0.267 C 
HETATM   40  O4  UNL     1       3.356  -0.356  -2.964  1.00  0.00    -0.264 OA
BRANCH  39  41
HETATM   41  C14 UNL     1       4.908  -1.660  -1.769  1.00  0.00     0.037 C 
HETATM   42  C15 UNL     1       5.638  -1.671  -3.094  1.00  0.00     0.025 C 
HETATM   43  C16 UNL     1       4.613  -3.124  -1.422  1.00  0.00     0.025 C 
HETATM   44  C17 UNL     1       5.866  -1.168  -0.712  1.00  0.00     0.025 C 
ENDBRANCH  39  41
ENDBRANCH  38  39
ENDBRANCH   7  38
TORSDOF 15
