REMARK  1 active torsions:
REMARK  status: ('A' for Active; 'I' for Inactive)
REMARK    1  A    between atoms: N1_2  and  C2_4 
ROOT
HETATM    1  C2  UNL     1       0.230  -0.405   0.591  1.00  0.00     0.709 A 
HETATM    2  N2  UNL     1       1.205  -0.951   1.327  1.00  0.00    -0.115 N 
ATOM      3  H2  UNL     1       1.070  -1.504   2.174  1.00  0.00     0.207 HD
HETATM    4  N3  UNL     1       2.369  -0.659   0.781  1.00  0.00    -0.213 N 
ATOM      5  H3  UNL     1       3.283  -0.946   1.131  1.00  0.00     0.210 HD
HETATM    6  N4  UNL     1       2.147   0.069  -0.298  1.00  0.00    -0.213 N 
ATOM      7  H4  UNL     1       2.858   0.443  -0.927  1.00  0.00     0.210 HD
HETATM    8  N5  UNL     1       0.848   0.227  -0.418  1.00  0.00    -0.115 N 
ATOM      9  H5  UNL     1       0.383   0.748  -1.161  1.00  0.00     0.207 HD
ENDROOT
BRANCH   1  10
HETATM   10  N1  UNL     1      -1.041  -0.495   0.843  1.00  0.00    -0.228 N 
HETATM   11  C1  UNL     1      -2.051   0.103   0.031  1.00  0.00     0.165 C 
ATOM     12  H1  UNL     1      -1.333  -1.022   1.666  1.00  0.00     0.177 HD
ENDBRANCH   1  10
TORSDOF 1
