REMARK  1 active torsions:
REMARK  status: ('A' for Active; 'I' for Inactive)
REMARK    1  A    between atoms: O1_1  and  N1_3 
ROOT
HETATM    1  N1  UNL     1       2.786   0.850  -1.364  1.00  0.00    -0.235 N 
HETATM    2  C1  UNL     1       4.099   0.910  -1.712  1.00  0.00     0.123 A 
HETATM    3  C2  UNL     1       5.003   0.022  -1.199  1.00  0.00     0.021 A 
HETATM    4  C3  UNL     1       4.556  -0.934  -0.321  1.00  0.00     0.015 A 
HETATM    5  C4  UNL     1       3.210  -0.992   0.032  1.00  0.00    -0.006 A 
HETATM    6  C5  UNL     1       2.751  -1.955   0.917  1.00  0.00     0.014 A 
HETATM    7  C6  UNL     1       1.410  -2.003   1.262  1.00  0.00     0.014 A 
HETATM    8  C7  UNL     1       0.588  -1.071   0.694  1.00  0.00    -0.009 A 
HETATM    9  C8  UNL     1       0.974  -0.109  -0.174  1.00  0.00    -0.012 A 
HETATM   10  C9  UNL     1       2.323  -0.083  -0.502  1.00  0.00     0.079 A 
HETATM   11  C10 UNL     1      -0.156   0.730  -0.596  1.00  0.00     0.082 A 
HETATM   12  C11 UNL     1      -1.356   0.147   0.150  1.00  0.00    -0.024 A 
HETATM   13  C12 UNL     1      -0.875  -0.889   0.880  1.00  0.00     0.024 A 
HETATM   14  S1  UNL     1      -2.265  -1.484   1.679  1.00  0.00    -0.088 SA
HETATM   15  C13 UNL     1      -3.427  -0.394   1.062  1.00  0.00     0.016 A 
HETATM   16  C14 UNL     1      -4.810  -0.231   1.245  1.00  0.00     0.019 A 
HETATM   17  C15 UNL     1      -5.495   0.767   0.592  1.00  0.00     0.001 A 
HETATM   18  C16 UNL     1      -4.767   1.587  -0.239  1.00  0.00     0.001 A 
HETATM   19  C17 UNL     1      -3.423   1.421  -0.411  1.00  0.00     0.013 A 
HETATM   20  C18 UNL     1      -2.695   0.409   0.243  1.00  0.00    -0.011 A 
ENDROOT
BRANCH   1  21
HETATM   21  O1  UNL     1       1.873   1.739  -1.876  1.00  0.00    -0.283 OA
ATOM     22  H1  UNL     1       0.956   1.697  -1.633  1.00  0.00     0.245 HD
ENDBRANCH   1  21
TORSDOF 1
