REMARK  1 active torsions:
REMARK  status: ('A' for Active; 'I' for Inactive)
REMARK    1  A    between atoms: C12_14  and  C13_15 
ROOT
HETATM    1  C1  UNL     1      -3.877  -4.608   0.466  1.00  0.00     0.048 C 
HETATM    2  C2  UNL     1      -3.189  -3.346   0.177  1.00  0.00    -0.061 A 
HETATM    3  C3  UNL     1      -3.594  -2.181   0.773  1.00  0.00     0.015 A 
HETATM    4  C4  UNL     1      -2.965  -0.932   0.527  1.00  0.00    -0.034 A 
HETATM    5  C5  UNL     1      -3.209   0.250   1.361  1.00  0.00     0.050 C 
HETATM    6  C6  UNL     1      -1.943  -0.982  -0.348  1.00  0.00     0.057 A 
HETATM    7  C7  UNL     1      -1.486  -2.178  -0.981  1.00  0.00    -0.025 A 
HETATM    8  C8  UNL     1      -2.132  -3.328  -0.695  1.00  0.00     0.016 A 
HETATM    9  C9  UNL     1      -0.255  -2.283  -1.832  1.00  0.00     0.083 C 
HETATM   10  C10 UNL     1       0.903  -1.559  -1.172  1.00  0.00    -0.008 A 
HETATM   11  C11 UNL     1       2.060  -2.295  -1.107  1.00  0.00     0.099 A 
HETATM   12  N1  UNL     1       3.149  -1.711  -0.547  1.00  0.00    -0.351 N 
ATOM     13  H1  UNL     1       4.010  -2.255  -0.497  1.00  0.00     0.166 HD
HETATM   14  C12 UNL     1       3.164  -0.460  -0.054  1.00  0.00     0.116 A 
HETATM   15  N2  UNL     1       2.048   0.289  -0.101  1.00  0.00    -0.338 N 
ATOM     16  H2  UNL     1       2.031   1.241   0.266  1.00  0.00     0.167 HD
HETATM   17  C19 UNL     1       0.975  -0.260  -0.642  1.00  0.00     0.087 A 
HETATM   18  C20 UNL     1      -0.143   0.686  -0.643  1.00  0.00     0.143 A 
HETATM   19  N3  UNL     1       0.191   1.957  -0.806  1.00  0.00    -0.339 N 
ATOM     20  H3  UNL     1       1.172   2.238  -0.810  1.00  0.00     0.167 HD
HETATM   21  C21 UNL     1      -0.781   2.873  -0.966  1.00  0.00     0.049 A 
HETATM   22  C22 UNL     1      -0.482   4.213  -1.133  1.00  0.00     0.030 A 
HETATM   23  C23 UNL     1      -1.504   5.126  -1.291  1.00  0.00     0.002 A 
HETATM   24  C24 UNL     1      -2.831   4.754  -1.290  1.00  0.00     0.001 A 
HETATM   25  C25 UNL     1      -3.134   3.426  -1.125  1.00  0.00     0.019 A 
HETATM   26  C26 UNL     1      -2.133   2.485  -0.964  1.00  0.00     0.059 A 
HETATM   27  C27 UNL     1      -2.483   1.154  -0.795  1.00  0.00     0.266 A 
HETATM   28  O1  UNL     1      -3.644   0.803  -0.823  1.00  0.00    -0.267 OA
HETATM   29  N4  UNL     1      -1.462   0.334  -0.635  1.00  0.00    -0.261 N 
ENDROOT
BRANCH  14  30
HETATM   30  C13 UNL     1       4.409   0.080   0.535  1.00  0.00     0.008 A 
HETATM   31  C14 UNL     1       4.451   1.357   1.047  1.00  0.00     0.015 A 
HETATM   32  C15 UNL     1       5.627   1.837   1.592  1.00  0.00     0.001 A 
HETATM   33  C16 UNL     1       6.770   1.041   1.629  1.00  0.00     0.000 A 
HETATM   34  C17 UNL     1       6.745  -0.245   1.119  1.00  0.00     0.001 A 
HETATM   35  C18 UNL     1       5.557  -0.680   0.588  1.00  0.00     0.015 A 
ENDBRANCH  14  30
TORSDOF 1
