REMARK  13 active torsions:
REMARK  status: ('A' for Active; 'I' for Inactive)
REMARK    1  A    between atoms: C2_2  and  C3_3 
REMARK    2  A    between atoms: C3_3  and  N1_4 
REMARK       I    between atoms: N1_4  and  C4_6 
REMARK       I    between atoms: C4_6  and  N3_10 
REMARK    3  A    between atoms: N3_10  and  C5_12 
REMARK    4  A    between atoms: C5_12  and  C6_13 
REMARK    5  A    between atoms: C6_13  and  O1_14 
REMARK    6  A    between atoms: C6_13  and  C7_16 
REMARK    7  A    between atoms: C17_29  and  C18_30 
REMARK    8  A    between atoms: C18_30  and  C19_31 
REMARK    9  A    between atoms: C19_31  and  C20_32 
REMARK   10  A    between atoms: C20_32  and  C21_33 
REMARK   11  A    between atoms: C21_33  and  C22_34 
REMARK   12  A    between atoms: C22_34  and  C23_35 
REMARK   13  A    between atoms: C23_35  and  N5_36 
ROOT
HETATM    1  C7  UNL     1      -4.816  -0.597  -0.699  1.00  0.00     0.040 C 
HETATM    2  C8  UNL     1      -3.862   0.563  -0.537  1.00  0.00     0.009 C 
HETATM    3  C9  UNL     1      -3.557   0.904   0.876  1.00  0.00     0.001 C 
HETATM    4  C10 UNL     1      -2.170   1.342   1.182  1.00  0.00     0.000 C 
HETATM    5  C11 UNL     1      -1.407   1.970   0.061  1.00  0.00     0.000 C 
HETATM    6  C12 UNL     1      -0.024   2.315   0.640  1.00  0.00     0.000 C 
HETATM    7  C13 UNL     1       0.998   2.565  -0.416  1.00  0.00     0.000 C 
HETATM    8  C14 UNL     1       1.690   1.292  -0.846  1.00  0.00     0.009 C 
HETATM    9  C15 UNL     1       3.198   1.387  -0.780  1.00  0.00     0.103 C 
HETATM   10  C16 UNL     1       3.741   0.661   0.394  1.00  0.00     0.218 C 
HETATM   11  O2  UNL     1       4.154   1.406   1.353  1.00  0.00    -0.274 OA
HETATM   12  N4  UNL     1       3.844  -0.724   0.559  1.00  0.00    -0.348 N 
ATOM     13  H4  UNL     1       3.468  -1.086   1.435  1.00  0.00     0.163 HD
HETATM   14  C17 UNL     1       4.397  -1.707  -0.316  1.00  0.00     0.176 C 
HETATM   15  C26 UNL     1       3.466  -2.290  -1.298  1.00  0.00     0.240 C 
HETATM   16  O3  UNL     1       3.301  -1.714  -2.404  1.00  0.00    -0.271 OA
HETATM   17  N6  UNL     1       2.714  -3.491  -1.094  1.00  0.00    -0.359 N 
ATOM     18  H6  UNL     1       2.537  -4.094  -1.897  1.00  0.00     0.162 HD
HETATM   19  C27 UNL     1       2.200  -3.886   0.177  1.00  0.00     0.122 C 
HETATM   20  C28 UNL     1       0.892  -4.611   0.150  1.00  0.00     0.021 C 
HETATM   21  C29 UNL     1      -0.072  -4.174  -0.896  1.00  0.00     0.012 C 
HETATM   22  C30 UNL     1      -0.948  -3.021  -0.552  1.00  0.00    -0.026 C 
HETATM   23  C31 UNL     1      -0.778  -2.503   0.861  1.00  0.00     0.017 C 
HETATM   24  C32 UNL     1      -0.676  -1.910  -1.554  1.00  0.00     0.017 C 
HETATM   25  C33 UNL     1      -2.446  -3.345  -0.676  1.00  0.00     0.176 C 
HETATM   26  O4  UNL     1      -3.109  -2.170  -0.990  1.00  0.00    -0.390 OA
HETATM   27  C34 UNL     1      -4.225  -1.907  -0.237  1.00  0.00     0.174 C 
ENDROOT
BRANCH   1  28
HETATM   28  C6  UNL     1      -6.159  -0.300  -0.125  1.00  0.00     0.142 C 
BRANCH  28  29
HETATM   29  C5  UNL     1      -7.122  -1.468  -0.289  1.00  0.00     0.170 C 
BRANCH  29  30
HETATM   30  N3  UNL     1      -8.424  -1.019   0.146  1.00  0.00    -0.224 N 
HETATM   31  C4  UNL     1      -9.151  -0.031  -0.609  1.00  0.00     0.667 C 
HETATM   32  N1  UNL     1      -9.866   0.997   0.032  1.00  0.00    -0.227 N 
HETATM   33  N2  UNL     1      -9.111  -0.139  -1.893  1.00  0.00    -0.235 N 
ATOM     34  H1  UNL     1     -10.771   0.763   0.439  1.00  0.00     0.177 HD
ATOM     35  H22 UNL     1      -9.626   0.561  -2.428  1.00  0.00     0.174 HD
ATOM     36  H21 UNL     1      -8.593  -0.884  -2.358  1.00  0.00     0.174 HD
ATOM     37  H3  UNL     1      -8.833  -1.406   0.997  1.00  0.00     0.177 HD
BRANCH  32  38
HETATM   38  C3  UNL     1      -9.407   2.360   0.153  1.00  0.00     0.137 C 
BRANCH  38  39
HETATM   39  C2  UNL     1     -10.415   3.190   0.889  1.00  0.00     0.016 C 
HETATM   40  C1  UNL     1     -11.727   3.178   0.134  1.00  0.00     0.006 C 
ENDBRANCH  38  39
ENDBRANCH  32  38
ENDBRANCH  29  30
ENDBRANCH  28  29
BRANCH  28  41
HETATM   41  O1  UNL     1      -6.170   0.016   1.223  1.00  0.00    -0.393 OA
ATOM     42  H1  UNL     1      -5.569   0.745   1.325  1.00  0.00     0.210 HD
ENDBRANCH  28  41
ENDBRANCH   1  28
BRANCH  14  43
HETATM   43  C18 UNL     1       5.701  -1.264  -0.993  1.00  0.00     0.035 C 
BRANCH  43  44
HETATM   44  C19 UNL     1       6.765  -0.969   0.059  1.00  0.00     0.002 C 
BRANCH  44  45
HETATM   45  C20 UNL     1       8.053  -0.550  -0.560  1.00  0.00     0.000 C 
BRANCH  45  46
HETATM   46  C21 UNL     1       8.006   0.680  -1.397  1.00  0.00     0.002 C 
BRANCH  46  47
HETATM   47  C22 UNL     1       7.570   1.914  -0.660  1.00  0.00     0.030 C 
BRANCH  47  48
HETATM   48  C23 UNL     1       8.517   2.218   0.489  1.00  0.00     0.271 C 
BRANCH  48  49
HETATM   49  N5  UNL     1       9.856   2.425  -0.069  1.00  0.00     0.080 N 
HETATM   50  C24 UNL     1       9.898   3.647  -0.853  1.00  0.00     0.309 C 
HETATM   51  C25 UNL     1      10.823   2.512   1.031  1.00  0.00     0.309 C 
ENDBRANCH  48  49
ENDBRANCH  47  48
ENDBRANCH  46  47
ENDBRANCH  45  46
ENDBRANCH  44  45
ENDBRANCH  43  44
ENDBRANCH  14  43
TORSDOF 13
