REMARK  4 active torsions:
REMARK  status: ('A' for Active; 'I' for Inactive)
REMARK    1  A    between atoms: C2_2  and  C4_4 
REMARK    2  A    between atoms: C4_4  and  N1_5 
REMARK    3  A    between atoms: C13_16  and  C14_17 
REMARK       I    between atoms: C14_17  and  N3_19 
REMARK    4  A    between atoms: N3_19  and  C15_21 
ROOT
HETATM    1  N1  UNL     1       0.386   0.976   1.047  1.00  0.00     0.130 N 
HETATM    2  C5  UNL     1      -0.857   1.301   0.401  1.00  0.00     0.314 C 
HETATM    3  C6  UNL     1      -1.443  -0.021  -0.033  1.00  0.00     0.094 C 
HETATM    4  C7  UNL     1      -2.454  -0.570   0.907  1.00  0.00     0.070 C 
HETATM    5  C8  UNL     1      -3.821  -0.032   0.644  1.00  0.00     0.275 C 
HETATM    6  N2  UNL     1      -4.338  -0.520  -0.619  1.00  0.00     0.088 N 
HETATM    7  C9  UNL     1      -4.988  -1.777  -0.371  1.00  0.00     0.310 C 
HETATM    8  C10 UNL     1      -3.293  -0.708  -1.602  1.00  0.00     0.221 C 
HETATM    9  C11 UNL     1      -3.888  -0.281  -2.949  1.00  0.00     0.043 C 
HETATM   10  C12 UNL     1      -2.106   0.184  -1.368  1.00  0.00     0.075 C 
HETATM   11  O1  UNL     1      -0.284  -0.805  -0.126  1.00  0.00    -0.337 OA
HETATM   12  C13 UNL     1       0.352  -0.480   1.047  1.00  0.00     0.453 C 
ENDROOT
BRANCH   1  13
HETATM   13  C4  UNL     1       1.524   1.517   0.358  1.00  0.00     0.280 C 
BRANCH  13  14
HETATM   14  C2  UNL     1       1.483   3.033   0.512  1.00  0.00     0.006 C 
HETATM   15  C1  UNL     1       1.541   3.385   1.986  1.00  0.00     0.011 C 
HETATM   16  C3  UNL     1       2.672   3.681  -0.176  1.00  0.00     0.011 C 
ENDBRANCH  13  14
ENDBRANCH   1  13
BRANCH  12  17
HETATM   17  C14 UNL     1       1.727  -1.014   1.178  1.00  0.00     0.277 C 
HETATM   18  O2  UNL     1       2.318  -0.740   2.263  1.00  0.00    -0.269 OA
HETATM   19  N3  UNL     1       2.389  -1.772   0.215  1.00  0.00    -0.353 N 
ATOM     20  H3  UNL     1       1.914  -1.995  -0.660  1.00  0.00     0.163 HD
BRANCH  19  21
HETATM   21  C15 UNL     1       3.731  -2.247   0.432  1.00  0.00     0.076 C 
HETATM   22  C16 UNL     1       4.724  -1.463  -0.428  1.00  0.00     0.032 C 
HETATM   23  C17 UNL     1       3.869  -3.716   0.155  1.00  0.00     0.032 C 
ENDBRANCH  19  21
ENDBRANCH  12  17
TORSDOF 4
