REMARK  11 active torsions:
REMARK  status: ('A' for Active; 'I' for Inactive)
REMARK    1  A    between atoms: N1_1  and  C1_4 
REMARK    2  A    between atoms: C4_14  and  C5_15 
REMARK    3  A    between atoms: C5_15  and  N5_16 
REMARK    4  A    between atoms: N6_20  and  N7_21 
REMARK    5  A    between atoms: N7_21  and  C6_23 
REMARK    6  A    between atoms: N8_24  and  C7_26 
REMARK    7  A    between atoms: C7_26  and  C8_27 
REMARK    8  A    between atoms: C8_27  and  C9_28 
REMARK    9  A    between atoms: C9_28  and  C10_29 
REMARK   10  A    between atoms: C10_29  and  N9_30 
REMARK   11  A    between atoms: N9_30  and  O1_31 
ROOT
HETATM    1  C1  UNL     1      -1.495   2.301   0.160  1.00  0.00     0.679 A 
HETATM    2  N2  UNL     1      -2.351   2.533   1.147  1.00  0.00    -0.175 N 
ATOM      3  H2  UNL     1      -2.558   3.484   1.454  1.00  0.00     0.186 HD
HETATM    4  C2  UNL     1      -2.932   1.480   1.724  1.00  0.00     0.145 A 
HETATM    5  N3  UNL     1      -3.778   1.686   2.699  1.00  0.00    -0.383 N 
ATOM      6  H31 UNL     1      -4.222   0.881   3.140  1.00  0.00     0.157 HD
ATOM      7  H32 UNL     1      -3.968   2.645   2.989  1.00  0.00     0.157 HD
HETATM    8  C3  UNL     1      -2.677   0.194   1.335  1.00  0.00     0.125 A 
HETATM    9  N4  UNL     1      -3.096  -1.016   1.716  1.00  0.00    -0.337 N 
ATOM     10  H4  UNL     1      -3.766  -1.213   2.460  1.00  0.00     0.167 HD
HETATM   11  C4  UNL     1      -2.481  -1.923   0.949  1.00  0.00     0.132 A 
HETATM   12  N6  UNL     1      -1.652  -1.310   0.058  1.00  0.00    -0.222 N 
HETATM   13  C11 UNL     1      -1.766   0.003   0.289  1.00  0.00     0.174 A 
HETATM   14  N10 UNL     1      -1.191   1.071  -0.280  1.00  0.00    -0.173 N 
ATOM     15  H10 UNL     1      -0.526   0.949  -1.044  1.00  0.00     0.186 HD
ENDROOT
BRANCH  12  16
HETATM   16  N7  UNL     1      -0.888  -1.994  -0.861  1.00  0.00    -0.287 N 
ATOM     17  H7  UNL     1      -0.964  -3.011  -0.854  1.00  0.00     0.188 HD
BRANCH  16  18
HETATM   18  C6  UNL     1      -0.011  -1.432  -1.811  1.00  0.00     0.193 C 
HETATM   19  N8  UNL     1       1.252  -1.476  -1.638  1.00  0.00    -0.385 N 
ATOM     20  H8  UNL     1       1.604  -1.929  -0.795  1.00  0.00     0.160 HD
BRANCH  19  21
HETATM   21  C7  UNL     1       2.211  -0.926  -2.559  1.00  0.00     0.120 C 
BRANCH  21  22
HETATM   22  C8  UNL     1       2.774   0.365  -1.990  1.00  0.00     0.021 C 
BRANCH  22  23
HETATM   23  C9  UNL     1       3.430   0.043  -0.687  1.00  0.00     0.020 C 
BRANCH  23  24
HETATM   24  C10 UNL     1       4.034   1.248  -0.014  1.00  0.00     0.142 C 
BRANCH  24  25
HETATM   25  N9  UNL     1       3.043   2.265   0.275  1.00  0.00    -0.104 NA
BRANCH  25  26
HETATM   26  O1  UNL     1       3.717   3.292   0.879  1.00  0.00    -0.296 OA
ATOM     27  H1  UNL     1       3.067   3.959   1.068  1.00  0.00     0.238 HD
ENDBRANCH  25  26
ENDBRANCH  24  25
ENDBRANCH  23  24
ENDBRANCH  22  23
ENDBRANCH  21  22
ENDBRANCH  19  21
ENDBRANCH  16  18
ENDBRANCH  12  16
BRANCH  11  28
HETATM   28  C5  UNL     1      -2.707  -3.387   1.092  1.00  0.00     0.307 C 
BRANCH  28  29
HETATM   29  N5  UNL     1      -3.643  -3.696   2.128  1.00  0.00    -0.073 N 
ATOM     30  H53 UNL     1      -3.360  -3.279   3.015  1.00  0.00     0.274 HD
ATOM     31  H52 UNL     1      -4.523  -3.200   1.988  1.00  0.00     0.274 HD
ATOM     32  H51 UNL     1      -3.798  -4.699   2.226  1.00  0.00     0.274 HD
ENDBRANCH  28  29
ENDBRANCH  11  28
BRANCH   1  33
HETATM   33  N1  UNL     1      -0.926   3.302  -0.407  1.00  0.00    -0.234 N 
ATOM     34  H12 UNL     1      -1.157   4.237  -0.072  1.00  0.00     0.174 HD
ATOM     35  H11 UNL     1      -0.268   3.124  -1.166  1.00  0.00     0.174 HD
ENDBRANCH   1  33
TORSDOF 11
