REMARK  6 active torsions:
REMARK  status: ('A' for Active; 'I' for Inactive)
REMARK    1  A    between atoms: N2_10  and  C7_11 
REMARK    2  A    between atoms: C7_11  and  O2_12 
REMARK    3  A    between atoms: C7_11  and  C8_14 
REMARK    4  A    between atoms: C7_11  and  C10_17 
REMARK    5  A    between atoms: C8_14  and  C9_15 
REMARK    6  A    between atoms: C10_17  and  C13_20 
ROOT
HETATM    1  C7  UNL     1      -0.957  -0.508  -0.198  1.00  0.00     0.145 C 
ENDROOT
BRANCH   1   2
HETATM    2  N2  UNL     1       0.384  -0.047  -0.495  1.00  0.00    -0.301 N 
HETATM    3  C3  UNL     1       1.620  -0.292   0.114  1.00  0.00     0.161 C 
HETATM    4  C2  UNL     1       2.104   0.288   1.397  1.00  0.00     0.154 C 
HETATM    5  C4  UNL     1       2.550   0.798  -0.416  1.00  0.00     0.076 C 
HETATM    6  N1  UNL     1       3.382   0.455   0.676  1.00  0.00    -0.382 N 
HETATM    7  C1  UNL     1       4.750   0.336   0.932  1.00  0.00     0.149 C 
HETATM    8  C5  UNL     1       2.062   1.312  -1.497  1.00  0.00     0.208 C 
HETATM    9  F1  UNL     1       2.720   2.198  -2.281  1.00  0.00    -0.198 F 
HETATM   10  C6  UNL     1       0.691   0.824  -1.621  1.00  0.00     0.287 C 
HETATM   11  O1  UNL     1      -0.023   1.168  -2.590  1.00  0.00    -0.265 OA
ENDBRANCH   1   2
BRANCH   1  12
HETATM   12  O2  UNL     1      -0.802  -1.474   0.853  1.00  0.00    -0.370 OA
ATOM     13  H2  UNL     1      -1.681  -1.776   1.048  1.00  0.00     0.212 HD
ENDBRANCH   1  12
BRANCH   1  14
HETATM   14  C8  UNL     1      -1.613  -1.290  -1.285  1.00  0.00     0.073 C 
BRANCH  14  15
HETATM   15  C9  UNL     1      -1.030  -2.551  -1.759  1.00  0.00     0.090 C 
HETATM   16 BR1  UNL     1       0.690  -2.466  -2.594  1.00  0.00    -0.096 Br
ENDBRANCH  14  15
ENDBRANCH   1  14
BRANCH   1  17
HETATM   17  C10 UNL     1      -1.873   0.502   0.405  1.00  0.00     0.012 C 
HETATM   18  C11 UNL     1      -3.237  -0.204   0.619  1.00  0.00     0.020 C 
HETATM   19  C12 UNL     1      -2.179   1.710  -0.433  1.00  0.00     0.020 C 
BRANCH  17  20
HETATM   20  C13 UNL     1      -1.494   1.000   1.757  1.00  0.00     0.099 C 
HETATM   21 BR2  UNL     1      -1.409  -0.339   3.125  1.00  0.00    -0.096 Br
ENDBRANCH  17  20
ENDBRANCH   1  17
TORSDOF 6
