REMARK  10 active torsions:
REMARK  status: ('A' for Active; 'I' for Inactive)
REMARK    1  A    between atoms: O1_1  and  C1_3 
REMARK    2  A    between atoms: C1_3  and  N1_4 
REMARK    3  A    between atoms: C1_3  and  C15_23 
REMARK    4  A    between atoms: N1_4  and  C2_6 
REMARK    5  A    between atoms: C2_6  and  C3_7 
REMARK    6  A    between atoms: C2_6  and  C9_15 
REMARK    7  A    between atoms: C3_7  and  C4_8 
REMARK    8  A    between atoms: C4_8  and  N2_9 
REMARK    9  A    between atoms: C20_28  and  O2_29 
REMARK   10  A    between atoms: O2_29  and  C21_30 
ROOT
HETATM    1  N1  UNL     1       0.355   0.081  -1.011  1.00  0.00    -0.385 N 
ATOM      2  H1  UNL     1       0.717  -0.461  -1.796  1.00  0.00     0.156 HD
ENDROOT
BRANCH   1   3
HETATM    3  C1  UNL     1       1.060   1.222  -0.623  1.00  0.00     0.251 C 
BRANCH   3   4
HETATM    4  O1  UNL     1       2.108   1.429  -1.578  1.00  0.00    -0.373 OA
ATOM      5  H1  UNL     1       2.588   2.205  -1.314  1.00  0.00     0.212 HD
ENDBRANCH   3   4
BRANCH   3   6
HETATM    6  C15 UNL     1       1.718   1.069   0.721  1.00  0.00     0.023 A 
HETATM    7  C16 UNL     1       1.203   1.695   1.817  1.00  0.00     0.014 A 
HETATM    8  C17 UNL     1       1.726   1.606   3.083  1.00  0.00     0.001 A 
HETATM    9  C18 UNL     1       2.852   0.825   3.229  1.00  0.00     0.003 A 
HETATM   10  C19 UNL     1       3.394   0.184   2.145  1.00  0.00     0.038 A 
HETATM   11  C20 UNL     1       2.857   0.279   0.874  1.00  0.00     0.086 A 
BRANCH  11  12
HETATM   12  O2  UNL     1       3.349  -0.334  -0.239  1.00  0.00    -0.308 OA
BRANCH  12  13
HETATM   13  C21 UNL     1       4.412  -1.196  -0.342  1.00  0.00     0.097 A 
HETATM   14  C22 UNL     1       5.549  -0.836  -1.076  1.00  0.00     0.039 A 
HETATM   15  C23 UNL     1       6.576  -1.739  -1.143  1.00  0.00     0.003 A 
HETATM   16  C24 UNL     1       6.531  -2.964  -0.528  1.00  0.00     0.002 A 
HETATM   17  C25 UNL     1       5.417  -3.314   0.189  1.00  0.00     0.026 A 
HETATM   18  C26 UNL     1       4.347  -2.414   0.279  1.00  0.00     0.067 A 
HETATM   19 CL3  UNL     1       2.919  -2.953   1.191  1.00  0.00    -0.081 Cl
ENDBRANCH  12  13
ENDBRANCH  11  12
ENDBRANCH   3   6
ENDBRANCH   1   3
BRANCH   1  20
HETATM   20  C2  UNL     1      -0.806  -0.362  -0.396  1.00  0.00     0.114 C 
BRANCH  20  21
HETATM   21  C3  UNL     1      -2.087   0.354  -0.484  1.00  0.00     0.060 C 
BRANCH  21  22
HETATM   22  C4  UNL     1      -2.236   1.731  -0.007  1.00  0.00     0.275 C 
BRANCH  22  23
HETATM   23  N2  UNL     1      -3.627   2.241  -0.154  1.00  0.00     0.090 N 
HETATM   24  C5  UNL     1      -3.474   3.670   0.235  1.00  0.00     0.282 C 
HETATM   25  C6  UNL     1      -4.649   4.370  -0.446  1.00  0.00     0.104 C 
HETATM   26  S1  UNL     1      -6.141   3.708   0.314  1.00  0.00    -0.166 SA
HETATM   27  C7  UNL     1      -5.874   2.013   0.834  1.00  0.00     0.104 C 
HETATM   28  C8  UNL     1      -4.421   1.609   0.895  1.00  0.00     0.282 C 
ENDBRANCH  22  23
ENDBRANCH  21  22
ENDBRANCH  20  21
BRANCH  20  29
HETATM   29  C9  UNL     1      -1.087  -1.777  -0.885  1.00  0.00    -0.034 A 
HETATM   30  C10 UNL     1      -1.000  -2.030  -2.234  1.00  0.00     0.011 A 
HETATM   31  C11 UNL     1      -1.251  -3.306  -2.743  1.00  0.00     0.026 A 
HETATM   32  C12 UNL     1      -1.585  -4.303  -1.873  1.00  0.00     0.055 A 
HETATM   33 CL1  UNL     1      -1.917  -5.938  -2.413  1.00  0.00    -0.083 Cl
HETATM   34  C13 UNL     1      -1.672  -4.058  -0.530  1.00  0.00     0.056 A 
HETATM   35 CL2  UNL     1      -2.096  -5.303   0.596  1.00  0.00    -0.083 Cl
HETATM   36  C14 UNL     1      -1.425  -2.793  -0.023  1.00  0.00     0.034 A 
ENDBRANCH  20  29
ENDBRANCH   1  20
TORSDOF 10
