REMARK  5 active torsions:
REMARK  status: ('A' for Active; 'I' for Inactive)
REMARK    1  A    between atoms: C3_3  and  C5_5 
REMARK    2  A    between atoms: C5_5  and  O2_7 
REMARK    3  A    between atoms: O2_7  and  C6_8 
REMARK    4  A    between atoms: C17_21  and  C18_22 
REMARK    5  A    between atoms: C17_21  and  O5_24 
ROOT
HETATM    1  C6  UNL     1       1.989  -0.898  -0.655  1.00  0.00     0.164 C 
HETATM    2  C7  UNL     1       1.880  -0.719  -2.145  1.00  0.00     0.043 C 
HETATM    3  C8  UNL     1       0.561  -0.028  -2.385  1.00  0.00     0.027 C 
HETATM    4  C9  UNL     1      -0.109  -0.503  -3.652  1.00  0.00     0.013 C 
HETATM    5  C10 UNL     1      -0.280  -0.210  -1.161  1.00  0.00     0.157 A 
HETATM    6  O3  UNL     1      -1.477  -0.903  -1.336  1.00  0.00    -0.223 OA
HETATM    7  O4  UNL     1      -1.644  -1.659  -0.297  1.00  0.00    -0.229 OA
HETATM    8  C11 UNL     1      -2.566  -1.169   0.615  1.00  0.00     0.099 C 
HETATM    9  C12 UNL     1      -2.669  -2.216   1.722  1.00  0.00     0.041 C 
HETATM   10  C13 UNL     1      -3.976  -2.909   1.552  1.00  0.00     0.003 C 
HETATM   11  C14 UNL     1      -4.598  -2.456   0.273  1.00  0.00     0.003 C 
HETATM   12  C15 UNL     1      -3.921  -1.131  -0.005  1.00  0.00     0.041 C 
HETATM   13  C16 UNL     1      -2.151   0.105   1.278  1.00  0.00     0.082 C 
HETATM   14  C17 UNL     1      -1.818   1.204   0.231  1.00  0.00     0.092 C 
HETATM   15  C21 UNL     1      -0.417   0.978  -0.274  1.00  0.00     0.197 A 
HETATM   16  O6  UNL     1       0.337   0.286   0.702  1.00  0.00    -0.368 OA
HETATM   17  C22 UNL     1       0.607  -0.799  -0.093  1.00  0.00     0.192 A 
ENDROOT
BRANCH   1  18
HETATM   18  O2  UNL     1       2.900   0.014  -0.074  1.00  0.00    -0.309 OA
BRANCH  18  19
HETATM   19  C5  UNL     1       4.078  -0.384   0.545  1.00  0.00     0.289 C 
HETATM   20  O1  UNL     1       4.315  -1.610   0.572  1.00  0.00    -0.260 OA
BRANCH  19  21
HETATM   21  C3  UNL     1       5.004   0.549   1.137  1.00  0.00     0.009 C 
HETATM   22  C2  UNL     1       6.103   0.156   1.712  1.00  0.00    -0.018 C 
HETATM   23  C1  UNL     1       6.571  -1.240   1.851  1.00  0.00     0.036 C 
HETATM   24  C4  UNL     1       4.669   1.992   1.075  1.00  0.00     0.054 C 
ENDBRANCH  19  21
ENDBRANCH  18  19
ENDBRANCH   1  18
BRANCH  14  25
HETATM   25  C18 UNL     1      -1.786   2.440   1.098  1.00  0.00     0.036 C 
HETATM   26  C19 UNL     1      -1.474   3.716   0.431  1.00  0.00     0.008 C 
ENDBRANCH  14  25
BRANCH  14  27
HETATM   27  O5  UNL     1      -2.790   1.109  -0.688  1.00  0.00    -0.382 OA
HETATM   28  C20 UNL     1      -2.856   1.877  -1.779  1.00  0.00     0.202 C 
ENDBRANCH  14  27
TORSDOF 5
