REMARK  2 active torsions:
REMARK  status: ('A' for Active; 'I' for Inactive)
REMARK    1  A    between atoms: C2_2  and  C3_3 
REMARK    2  A    between atoms: C3_3  and  O1_4 
ROOT
HETATM    1  C1  UNL     1      -1.992   1.639   0.351  1.00  0.00     0.018 C 
HETATM    2  C2  UNL     1      -1.496   0.357  -0.205  1.00  0.00    -0.018 C 
HETATM    3  C4  UNL     1      -1.696  -0.745   0.782  1.00  0.00     0.012 C 
HETATM    4  C5  UNL     1      -0.319  -0.960   1.308  1.00  0.00     0.013 C 
HETATM    5  C6  UNL     1       0.652  -0.742   0.157  1.00  0.00    -0.004 A 
HETATM    6  C7  UNL     1      -0.022   0.357  -0.538  1.00  0.00     0.007 C 
HETATM    7  C8  UNL     1       0.702   1.297   0.404  1.00  0.00     0.019 C 
HETATM    8  C9  UNL     1       1.777   0.315   0.332  1.00  0.00     0.006 A 
HETATM    9  C10 UNL     1       2.928   0.357  -0.570  1.00  0.00     0.105 A 
HETATM   10 BR1  UNL     1       2.753   0.665  -2.417  1.00  0.00    -0.087 Br
HETATM   11  C11 UNL     1       3.178  -1.127  -0.310  1.00  0.00     0.127 A 
HETATM   12 CL1  UNL     1       2.960  -2.168  -1.714  1.00  0.00    -0.103 Cl
HETATM   13 BR2  UNL     1       4.864  -1.395   0.532  1.00  0.00    -0.065 Br
HETATM   14  C12 UNL     1       1.968  -1.029   0.593  1.00  0.00     0.069 A 
HETATM   15 BR3  UNL     1       2.436  -1.539   2.423  1.00  0.00    -0.081 Br
ENDROOT
BRANCH   2  16
HETATM   16  C3  UNL     1      -2.322   0.024  -1.452  1.00  0.00     0.173 C 
BRANCH  16  17
HETATM   17  O1  UNL     1      -1.925  -1.160  -2.036  1.00  0.00    -0.400 OA
ATOM     18  H1  UNL     1      -2.437  -1.366  -2.809  1.00  0.00     0.209 HD
ENDBRANCH  16  17
ENDBRANCH   2  16
TORSDOF 2
