REMARK  9 active torsions:
REMARK  status: ('A' for Active; 'I' for Inactive)
REMARK    1  A    between atoms: N1_1  and  N2_4 
REMARK    2  A    between atoms: N2_4  and  C1_6 
REMARK    3  A    between atoms: C2_7  and  O1_8 
REMARK    4  A    between atoms: C3_12  and  N4_13 
REMARK    5  A    between atoms: C4_16  and  N6_17 
REMARK    6  A    between atoms: N6_17  and  N7_19 
REMARK       I    between atoms: N8_21  and  C5_23 
REMARK    7  A    between atoms: C5_23  and  C6_25 
REMARK    8  A    between atoms: C6_25  and  N9_26 
REMARK    9  A    between atoms: C6_25  and  C7_30 
ROOT
HETATM    1  N4  UNL     1      -0.834   0.423  -0.893  1.00  0.00    -0.151 N 
HETATM    2  N5  UNL     1      -0.032  -0.401  -1.527  1.00  0.00    -0.117 N 
ATOM      3  H5  UNL     1      -0.254  -1.370  -1.755  1.00  0.00     0.206 HD
HETATM    4  C4  UNL     1       1.123   0.214  -1.832  1.00  0.00     0.717 A 
HETATM    5  N10 UNL     1       0.991   1.462  -1.352  1.00  0.00    -0.137 N 
ATOM      6  H10 UNL     1       1.698   2.194  -1.418  1.00  0.00     0.189 HD
HETATM    7  C8  UNL     1      -0.210   1.600  -0.773  1.00  0.00     0.363 A 
HETATM    8  O5  UNL     1      -0.629   2.661  -0.229  1.00  0.00    -0.244 OA
ENDROOT
BRANCH   4   9
HETATM    9  N6  UNL     1       2.144  -0.315  -2.463  1.00  0.00    -0.116 N 
ATOM     10  H6  UNL     1       2.135  -1.283  -2.785  1.00  0.00     0.207 HD
BRANCH   9  11
HETATM   11  N7  UNL     1       3.242   0.519  -2.669  1.00  0.00    -0.226 N 
HETATM   12  N8  UNL     1       4.223   0.467  -1.851  1.00  0.00    -0.253 N 
HETATM   13  C5  UNL     1       4.201  -0.423  -0.750  1.00  0.00     0.278 C 
ATOM     14  H8  UNL     1       5.031   1.073  -1.993  1.00  0.00     0.191 HD
HETATM   15  O2  UNL     1       4.058  -1.634  -0.979  1.00  0.00    -0.269 OA
ATOM     16  H7  UNL     1       3.262   1.161  -3.461  1.00  0.00     0.209 HD
BRANCH  13  17
HETATM   17  C6  UNL     1       4.341   0.030   0.652  1.00  0.00     0.375 C 
BRANCH  17  18
HETATM   18  N9  UNL     1       4.280  -1.106   1.551  1.00  0.00    -0.056 N 
ATOM     19  H93 UNL     1       3.434  -1.659   1.411  1.00  0.00     0.275 HD
ATOM     20  H92 UNL     1       4.967  -1.821   1.310  1.00  0.00     0.275 HD
ATOM     21  H91 UNL     1       4.376  -0.794   2.517  1.00  0.00     0.275 HD
ENDBRANCH  17  18
BRANCH  17  22
HETATM   22  C7  UNL     1       5.588   0.790   0.865  1.00  0.00     0.214 C 
HETATM   23  O3  UNL     1       6.398   0.406   1.730  1.00  0.00    -0.646 OA
HETATM   24  O4  UNL     1       5.840   1.910   0.109  1.00  0.00    -0.646 OA
ENDBRANCH  17  22
ENDBRANCH  13  17
ENDBRANCH   9  11
ENDBRANCH   4   9
BRANCH   1  25
HETATM   25  C3  UNL     1      -2.161   0.117  -0.408  1.00  0.00     0.260 A 
HETATM   26  N3  UNL     1      -2.724   0.922   0.504  1.00  0.00    -0.299 N 
HETATM   27  C2  UNL     1      -3.958   0.657   0.969  1.00  0.00     0.178 A 
ATOM     28  H3  UNL     1      -2.216   1.737   0.846  1.00  0.00     0.171 HD
HETATM   29  C1  UNL     1      -4.598  -0.462   0.471  1.00  0.00     0.175 A 
HETATM   30  C9  UNL     1      -3.968  -1.260  -0.471  1.00  0.00     0.323 A 
HETATM   31  O6  UNL     1      -2.761  -0.938  -0.880  1.00  0.00    -0.239 OA
HETATM   32  O7  UNL     1      -4.585  -2.268  -0.899  1.00  0.00    -0.257 OA
BRANCH  27  33
HETATM   33  O1  UNL     1      -4.606   1.441   1.910  1.00  0.00    -0.344 OA
ATOM     34  H1  UNL     1      -4.166   2.210   2.252  1.00  0.00     0.219 HD
ENDBRANCH  27  33
BRANCH  29  35
HETATM   35  N2  UNL     1      -5.902  -0.755   0.953  1.00  0.00    -0.298 N 
ATOM     36  H2  UNL     1      -6.726  -0.377   0.486  1.00  0.00     0.186 HD
BRANCH  35  37
HETATM   37  N1  UNL     1      -6.031  -1.566   2.072  1.00  0.00    -0.344 N 
ATOM     38  H12 UNL     1      -5.197  -1.936   2.527  1.00  0.00     0.176 HD
ATOM     39  H11 UNL     1      -6.967  -1.776   2.418  1.00  0.00     0.176 HD
ENDBRANCH  35  37
ENDBRANCH  29  35
ENDBRANCH   1  25
TORSDOF 9
