REMARK  6 active torsions:
REMARK  status: ('A' for Active; 'I' for Inactive)
REMARK    1  A    between atoms: C1_2  and  C2_4 
REMARK    2  A    between atoms: C2_4  and  N2_5 
REMARK    3  A    between atoms: C2_4  and  C3_9 
REMARK    4  A    between atoms: C3_9  and  N3_10 
REMARK    5  A    between atoms: C3_9  and  C11_23 
REMARK       I    between atoms: N3_10  and  C4_12 
REMARK       I    between atoms: C4_12  and  N4_14 
REMARK    6  A    between atoms: C9_19  and  C10_20 
ROOT
HETATM    1  N3  UNL     1       0.870  -0.175   0.299  1.00  0.00    -0.326 N 
ATOM      2  H3  UNL     1       0.719  -0.988   0.896  1.00  0.00     0.165 HD
HETATM    3  C4  UNL     1      -0.247   0.538  -0.118  1.00  0.00     0.319 C 
HETATM    4  O2  UNL     1      -0.126   1.583  -0.874  1.00  0.00    -0.247 OA
HETATM    5  N4  UNL     1      -1.559   0.201   0.234  1.00  0.00    -0.321 N 
HETATM    6  C5  UNL     1      -1.864  -0.930   1.060  1.00  0.00     0.128 C 
HETATM    7  C6  UNL     1      -2.806  -1.870   0.319  1.00  0.00     0.020 C 
HETATM    8  C7  UNL     1      -4.035  -1.164  -0.147  1.00  0.00     0.004 C 
HETATM    9  C8  UNL     1      -4.019   0.308   0.093  1.00  0.00     0.035 C 
HETATM   10  C9  UNL     1      -2.718   0.976  -0.209  1.00  0.00     0.178 C 
ENDROOT
BRANCH   1  11
HETATM   11  C3  UNL     1       2.240   0.160  -0.058  1.00  0.00     0.226 C 
BRANCH  11  12
HETATM   12  C2  UNL     1       2.945  -0.949  -0.776  1.00  0.00     0.304 C 
BRANCH  12  13
HETATM   13  C1  UNL     1       4.314  -0.507  -1.088  1.00  0.00     0.264 C 
HETATM   14  N1  UNL     1       4.525   0.677  -1.811  1.00  0.00    -0.060 NA
HETATM   15  O1  UNL     1       5.289  -1.185  -0.710  1.00  0.00    -0.274 OA
ENDBRANCH  12  13
BRANCH  12  16
HETATM   16  N2  UNL     1       2.993  -2.177  -0.056  1.00  0.00    -0.064 N 
ATOM     17  H23 UNL     1       3.525  -2.893  -0.551  1.00  0.00     0.275 HD
ATOM     18  H22 UNL     1       3.576  -2.112   0.778  1.00  0.00     0.275 HD
ATOM     19  H21 UNL     1       2.044  -2.483   0.160  1.00  0.00     0.275 HD
ENDBRANCH  12  16
ENDBRANCH  11  12
BRANCH  11  20
HETATM   20  C11 UNL     1       2.947   0.532   1.193  1.00  0.00     0.199 C 
HETATM   21  O4  UNL     1       2.361   0.524   2.326  1.00  0.00    -0.646 OA
HETATM   22  O5  UNL     1       4.282   0.910   1.220  1.00  0.00    -0.646 OA
ENDBRANCH  11  20
ENDBRANCH   1  11
BRANCH  10  23
HETATM   23  C10 UNL     1      -2.738   2.312   0.466  1.00  0.00     0.254 C 
HETATM   24  N5  UNL     1      -1.746   2.714   1.402  1.00  0.00    -0.060 NA
HETATM   25  O3  UNL     1      -3.650   3.144   0.225  1.00  0.00    -0.275 OA
ENDBRANCH  10  23
TORSDOF 6
