REMARK  2 active torsions:
REMARK  status: ('A' for Active; 'I' for Inactive)
REMARK       I    between atoms: C2_2  and  N1_4 
REMARK    1  A    between atoms: N1_4  and  C3_6 
REMARK    2  A    between atoms: C7_12  and  C8_13 
ROOT
HETATM    1  C8  UNL     1       0.731   1.391  -1.519  1.00  0.00     0.004 A 
HETATM    2  C9  UNL     1       0.828   2.665  -2.139  1.00  0.00     0.101 A 
HETATM    3  N2  UNL     1      -0.348   3.296  -2.051  1.00  0.00    -0.364 N 
ATOM      4  H2  UNL     1      -0.539   4.228  -2.419  1.00  0.00     0.165 HD
HETATM    5  C10 UNL     1      -1.246   2.523  -1.405  1.00  0.00     0.045 A 
HETATM    6  C11 UNL     1      -2.580   2.686  -1.075  1.00  0.00     0.054 A 
HETATM    7  C12 UNL     1      -3.290   1.681  -0.406  1.00  0.00     0.058 A 
HETATM    8  C13 UNL     1      -4.697   1.771  -0.154  1.00  0.00     0.100 C 
HETATM    9  N3  UNL     1      -5.871   1.861   0.003  1.00  0.00    -0.191 NA
HETATM   10  C14 UNL     1      -2.608   0.568  -0.103  1.00  0.00     0.001 A 
HETATM   11  C15 UNL     1      -1.249   0.353  -0.419  1.00  0.00    -0.032 A 
HETATM   12  C16 UNL     1      -0.568   1.335  -1.074  1.00  0.00     0.010 A 
HETATM   13  C17 UNL     1      -0.768  -0.953   0.004  1.00  0.00     0.041 C 
HETATM   14  C18 UNL     1      -1.708  -2.055  -0.522  1.00  0.00     0.009 C 
HETATM   15  C19 UNL     1      -3.086  -1.937   0.092  1.00  0.00     0.042 C 
HETATM   16  C20 UNL     1      -3.283  -0.514   0.613  1.00  0.00    -0.012 C 
HETATM   17  C21 UNL     1      -3.913  -0.319   1.703  1.00  0.00     0.097 C 
HETATM   18  C22 UNL     1      -4.599  -1.467   2.370  1.00  0.00     0.082 C 
HETATM   19  F1  UNL     1      -3.909   0.827   2.413  1.00  0.00    -0.211 F 
ENDROOT
BRANCH   1  20
HETATM   20  C7  UNL     1       1.800   0.429  -1.418  1.00  0.00     0.002 A 
HETATM   21  C6  UNL     1       1.963  -0.469  -2.431  1.00  0.00     0.067 A 
HETATM   22  C5  UNL     1       3.021  -1.352  -2.392  1.00  0.00     0.058 A 
HETATM   23 CL2  UNL     1       0.842  -0.533  -3.789  1.00  0.00    -0.082 Cl
HETATM   24  C4  UNL     1       3.892  -1.322  -1.348  1.00  0.00     0.055 A 
HETATM   25 CL1  UNL     1       3.260  -2.535  -3.688  1.00  0.00    -0.082 Cl
HETATM   26  C3  UNL     1       3.769  -0.421  -0.284  1.00  0.00     0.037 A 
HETATM   27  C23 UNL     1       2.679   0.450  -0.377  1.00  0.00     0.043 A 
BRANCH  26  28
HETATM   28  N1  UNL     1       4.724  -0.409   0.754  1.00  0.00    -0.327 N 
HETATM   29  C2  UNL     1       4.420  -0.013   2.063  1.00  0.00     0.218 C 
HETATM   30  C1  UNL     1       5.469   0.012   3.144  1.00  0.00     0.117 C 
HETATM   31  O1  UNL     1       3.278   0.335   2.384  1.00  0.00    -0.274 OA
ATOM     32  H1  UNL     1       5.678  -0.702   0.542  1.00  0.00     0.169 HD
ENDBRANCH  26  28
ENDBRANCH   1  20
TORSDOF 2
