REMARK  10 active torsions:
REMARK  status: ('A' for Active; 'I' for Inactive)
REMARK       I    between atoms: C1_2  and  N2_4 
REMARK    1  A    between atoms: N2_4  and  C2_6 
REMARK    2  A    between atoms: C2_6  and  C3_7 
REMARK    3  A    between atoms: C3_7  and  C4_8 
REMARK    4  A    between atoms: C3_7  and  N5_25 
REMARK    5  A    between atoms: C4_8  and  N3_9 
REMARK       I    between atoms: N3_9  and  C5_11 
REMARK    6  A    between atoms: C5_11  and  C6_13 
REMARK    7  A    between atoms: C6_13  and  N4_14 
REMARK    8  A    between atoms: C6_13  and  C7_18 
REMARK    9  A    between atoms: C7_18  and  C8_19 
REMARK   10  A    between atoms: N5_25  and  C14_27 
ROOT
HETATM    1  C4  UNL     1      -0.086  -1.543  -0.445  1.00  0.00     0.149 C 
ENDROOT
BRANCH   1   2
HETATM    2  C3  UNL     1      -1.254  -0.471  -0.417  1.00  0.00     0.116 C 
BRANCH   2   3
HETATM    3  C2  UNL     1      -1.554  -0.270  -1.855  1.00  0.00     0.150 C 
BRANCH   3   4
HETATM    4  N2  UNL     1      -2.534   0.712  -2.213  1.00  0.00    -0.343 N 
HETATM    5  C1  UNL     1      -2.351   2.085  -1.914  1.00  0.00     0.328 C 
HETATM    6  N1  UNL     1      -3.296   3.088  -2.253  1.00  0.00    -0.040 NA
HETATM    7  O1  UNL     1      -1.308   2.446  -1.322  1.00  0.00    -0.251 OA
ATOM      8  H2  UNL     1      -3.383   0.416  -2.694  1.00  0.00     0.163 HD
ENDBRANCH   3   4
ENDBRANCH   2   3
BRANCH   2   9
HETATM    9  N5  UNL     1      -2.174  -1.036   0.449  1.00  0.00    -0.389 N 
ATOM     10  H5  UNL     1      -1.892  -1.925   0.862  1.00  0.00     0.159 HD
BRANCH   9  11
HETATM   11  C14 UNL     1      -3.416  -0.577   0.837  1.00  0.00    -0.018 C 
HETATM   12  C15 UNL     1      -3.406   0.775   1.537  1.00  0.00     0.052 C 
HETATM   13  C16 UNL     1      -4.360   0.763   2.733  1.00  0.00     0.006 C 
HETATM   14  C17 UNL     1      -5.650   0.065   2.415  1.00  0.00     0.000 C 
HETATM   15  C18 UNL     1      -6.299   0.620   1.191  1.00  0.00     0.000 C 
HETATM   16  C19 UNL     1      -5.581   0.343  -0.086  1.00  0.00     0.006 C 
HETATM   17  C20 UNL     1      -4.619  -0.827  -0.003  1.00  0.00     0.052 C 
ENDBRANCH   9  11
ENDBRANCH   2   9
ENDBRANCH   1   2
BRANCH   1  18
HETATM   18  N3  UNL     1       1.050  -1.021  -1.144  1.00  0.00    -0.357 N 
HETATM   19  C5  UNL     1       2.195  -1.826  -1.311  1.00  0.00     0.248 C 
HETATM   20  O2  UNL     1       2.193  -2.985  -0.841  1.00  0.00    -0.271 OA
ATOM     21  H3  UNL     1       1.031  -0.073  -1.519  1.00  0.00     0.162 HD
BRANCH  19  22
HETATM   22  C6  UNL     1       3.410  -1.365  -2.020  1.00  0.00     0.275 C 
BRANCH  22  23
HETATM   23  N4  UNL     1       4.403  -2.408  -2.096  1.00  0.00    -0.066 N 
ATOM     24  H43 UNL     1       4.627  -2.778  -1.172  1.00  0.00     0.275 HD
ATOM     25  H42 UNL     1       4.023  -3.256  -2.518  1.00  0.00     0.275 HD
ATOM     26  H41 UNL     1       5.240  -2.090  -2.585  1.00  0.00     0.275 HD
ENDBRANCH  22  23
BRANCH  22  27
HETATM   27  C7  UNL     1       3.912  -0.049  -1.540  1.00  0.00     0.047 C 
BRANCH  27  28
HETATM   28  C8  UNL     1       4.289   0.051  -0.108  1.00  0.00    -0.012 C 
HETATM   29  C9  UNL     1       5.390  -0.884   0.330  1.00  0.00     0.005 C 
HETATM   30  C10 UNL     1       5.713  -0.607   1.793  1.00  0.00     0.000 C 
HETATM   31  C11 UNL     1       6.217   0.792   1.952  1.00  0.00     0.000 C 
HETATM   32  C12 UNL     1       5.089   1.720   1.541  1.00  0.00     0.000 C 
HETATM   33  C13 UNL     1       4.839   1.476   0.082  1.00  0.00     0.005 C 
ENDBRANCH  27  28
ENDBRANCH  22  27
ENDBRANCH  19  22
ENDBRANCH   1  18
TORSDOF 10
