REMARK  5 active torsions:
REMARK  status: ('A' for Active; 'I' for Inactive)
REMARK    1  A    between atoms: C2_2  and  C6_17 
REMARK    2  A    between atoms: N1_3  and  S1_5 
REMARK    3  A    between atoms: S1_5  and  N2_8 
REMARK    4  A    between atoms: N2_8  and  C3_10 
REMARK    5  A    between atoms: C3_10  and  N3_13 
REMARK       I    between atoms: C6_17  and  N4_19 
REMARK       I    between atoms: N4_19  and  C7_21 
ROOT
HETATM    1  C1  UNL     1      -1.377  -2.149   0.504  1.00  0.00     0.075 C 
HETATM    2  C2  UNL     1      -1.303  -0.694   0.399  1.00  0.00     0.085 C 
HETATM    3  N1  UNL     1      -0.135  -0.101   0.329  1.00  0.00    -0.267 N 
ATOM      4  H1  UNL     1      -0.074   0.914   0.254  1.00  0.00     0.180 HD
ENDROOT
BRANCH   3   5
HETATM    5  S1  UNL     1       1.282  -1.052   0.365  1.00  0.00     0.321 S 
HETATM    6  O1  UNL     1       1.153  -2.075   1.460  1.00  0.00    -0.182 OA
HETATM    7  O2  UNL     1       1.466  -1.694  -0.981  1.00  0.00    -0.182 OA
BRANCH   5   8
HETATM    8  N2  UNL     1       2.666  -0.084   0.771  1.00  0.00    -0.269 N 
ATOM      9  H2  UNL     1       3.003   0.082   1.719  1.00  0.00     0.176 HD
BRANCH   8  10
HETATM   10  C3  UNL     1       3.278   0.458  -0.437  1.00  0.00     0.198 C 
HETATM   11  C4  UNL     1       4.477   1.295  -0.072  1.00  0.00     0.070 C 
HETATM   12  C5  UNL     1       2.213   1.279  -1.142  1.00  0.00     0.070 C 
BRANCH  10  13
HETATM   13  N3  UNL     1       3.699  -0.643  -1.279  1.00  0.00    -0.053 N 
ATOM     14  H33 UNL     1       4.312  -1.296  -0.790  1.00  0.00     0.277 HD
ATOM     15  H32 UNL     1       2.938  -1.291  -1.484  1.00  0.00     0.277 HD
ATOM     16  H31 UNL     1       4.127  -0.264  -2.124  1.00  0.00     0.277 HD
ENDBRANCH  10  13
ENDBRANCH   8  10
ENDBRANCH   5   8
ENDBRANCH   3   5
BRANCH   2  17
HETATM   17  C6  UNL     1      -2.497   0.138   0.370  1.00  0.00     0.270 C 
HETATM   18  O3  UNL     1      -2.375   1.388   0.272  1.00  0.00    -0.266 OA
HETATM   19  N4  UNL     1      -3.777  -0.438   0.451  1.00  0.00    -0.296 N 
HETATM   20  C7  UNL     1      -4.972   0.365   0.422  1.00  0.00     0.188 C 
ATOM     21  H4  UNL     1      -3.861  -1.451   0.532  1.00  0.00     0.171 HD
HETATM   22  N5  UNL     1      -6.132  -0.147   0.495  1.00  0.00    -0.373 N 
HETATM   23  N6  UNL     1      -4.818   1.769   0.309  1.00  0.00    -0.064 NA
ATOM     24  H52 UNL     1      -6.243  -1.158   0.576  1.00  0.00     0.158 HD
ATOM     25  H51 UNL     1      -6.978   0.422   0.474  1.00  0.00     0.158 HD
ENDBRANCH   2  17
TORSDOF 5
