REMARK  0 active torsions:
REMARK  status: ('A' for Active; 'I' for Inactive)
ROOT
HETATM    1  F1  UNL     1       1.643   1.445  -1.179  1.00  0.00    -0.249 F 
HETATM    2  C1  UNL     1       1.445   1.023   0.093  1.00  0.00     0.174 C 
HETATM    3  C2  UNL     1       2.160  -0.324   0.301  1.00  0.00     0.038 C 
HETATM    4  C3  UNL     1       1.060  -1.393   0.184  1.00  0.00     0.008 C 
HETATM    5  C4  UNL     1      -0.042  -0.641  -0.440  1.00  0.00    -0.008 C 
HETATM    6  C5  UNL     1      -1.430  -1.019  -0.142  1.00  0.00     0.005 C 
HETATM    7  C6  UNL     1      -2.161   0.333  -0.118  1.00  0.00     0.001 C 
HETATM    8  C7  UNL     1      -1.055   1.397  -0.220  1.00  0.00     0.008 C 
HETATM    9  C8  UNL     1       0.064   0.667   0.377  1.00  0.00     0.024 C 
ENDROOT
TORSDOF 0
