REMARK  11 active torsions:
REMARK  status: ('A' for Active; 'I' for Inactive)
REMARK    1  A    between atoms: N1_1  and  C1_4 
REMARK    2  A    between atoms: C2_7  and  N3_8 
REMARK    3  A    between atoms: N3_8  and  O1_10 
REMARK    4  A    between atoms: C6_17  and  O2_18 
REMARK    5  A    between atoms: C6_17  and  C7_20 
REMARK    6  A    between atoms: C7_20  and  O4_22 
REMARK    7  A    between atoms: O4_22  and  N5_23 
REMARK       I    between atoms: N5_23  and  C8_25 
REMARK    8  A    between atoms: C8_25  and  C9_27 
REMARK    9  A    between atoms: C9_27  and  N6_28 
REMARK   10  A    between atoms: C9_27  and  C10_32 
REMARK   11  A    between atoms: C10_32  and  N7_33 
ROOT
HETATM    1  C1  UNL     1      -4.132  -0.650   1.611  1.00  0.00     0.123 A 
HETATM    2  N2  UNL     1      -5.138   0.238   1.508  1.00  0.00    -0.175 N 
ATOM      3  H2  UNL     1      -5.853   0.264   2.235  1.00  0.00     0.186 HD
HETATM    4  C2  UNL     1      -5.227   1.089   0.477  1.00  0.00     0.704 A 
HETATM    5  N4  UNL     1      -4.278   1.039  -0.468  1.00  0.00    -0.185 N 
ATOM      6  H4  UNL     1      -4.336   1.683  -1.257  1.00  0.00     0.184 HD
HETATM    7  C3  UNL     1      -3.235   0.156  -0.412  1.00  0.00     0.108 A 
HETATM    8  C4  UNL     1      -3.135  -0.721   0.643  1.00  0.00     0.021 A 
HETATM    9  C5  UNL     1      -1.928  -1.567   0.471  1.00  0.00     0.102 C 
HETATM   10  C6  UNL     1      -1.160  -0.975  -0.655  1.00  0.00     0.218 C 
HETATM   11  C11 UNL     1      -2.118  -0.064  -1.318  1.00  0.00     0.221 C 
HETATM   12  O6  UNL     1      -2.037   0.462  -2.465  1.00  0.00    -0.287 OA
ENDROOT
BRANCH  10  13
HETATM   13  O2  UNL     1      -0.858  -1.964  -1.616  1.00  0.00    -0.372 OA
ATOM     14  H2  UNL     1      -0.367  -1.586  -2.336  1.00  0.00     0.211 HD
ENDBRANCH  10  13
BRANCH  10  15
HETATM   15  C7  UNL     1       0.087  -0.289  -0.221  1.00  0.00     0.324 C 
HETATM   16  O3  UNL     1      -0.012   0.616   0.640  1.00  0.00    -0.259 OA
BRANCH  15  17
HETATM   17  O4  UNL     1       1.346  -0.592  -0.712  1.00  0.00    -0.194 OA
BRANCH  17  18
HETATM   18  N5  UNL     1       2.493   0.041  -0.308  1.00  0.00    -0.224 N 
HETATM   19  C8  UNL     1       3.699  -0.706  -0.044  1.00  0.00     0.274 C 
HETATM   20  O5  UNL     1       3.697  -1.967  -0.187  1.00  0.00    -0.269 OA
ATOM     21  H5  UNL     1       2.494   1.054  -0.192  1.00  0.00     0.198 HD
BRANCH  19  22
HETATM   22  C9  UNL     1       4.953  -0.062   0.391  1.00  0.00     0.301 C 
BRANCH  22  23
HETATM   23  N6  UNL     1       5.927  -1.133   0.659  1.00  0.00    -0.065 N 
ATOM     24  H63 UNL     1       5.584  -1.827   1.324  1.00  0.00     0.275 HD
ATOM     25  H62 UNL     1       6.056  -1.762  -0.134  1.00  0.00     0.275 HD
ATOM     26  H61 UNL     1       6.794  -0.688   0.960  1.00  0.00     0.275 HD
ENDBRANCH  22  23
BRANCH  22  27
HETATM   27  C10 UNL     1       5.595   0.800  -0.659  1.00  0.00     0.272 C 
BRANCH  27  28
HETATM   28  N7  UNL     1       4.791   1.888  -1.120  1.00  0.00    -0.077 N 
ATOM     29  H73 UNL     1       3.889   1.545  -1.449  1.00  0.00     0.274 HD
ATOM     30  H72 UNL     1       4.487   2.460  -0.332  1.00  0.00     0.274 HD
ATOM     31  H71 UNL     1       5.227   2.473  -1.833  1.00  0.00     0.274 HD
ENDBRANCH  27  28
ENDBRANCH  22  27
ENDBRANCH  19  22
ENDBRANCH  17  18
ENDBRANCH  15  17
ENDBRANCH  10  15
BRANCH   1  32
HETATM   32  N1  UNL     1      -4.072  -1.458   2.612  1.00  0.00    -0.385 N 
ATOM     33  H12 UNL     1      -4.803  -1.406   3.322  1.00  0.00     0.157 HD
ATOM     34  H11 UNL     1      -3.310  -2.131   2.690  1.00  0.00     0.157 HD
ENDBRANCH   1  32
BRANCH   4  35
HETATM   35  N3  UNL     1      -6.208   1.941   0.390  1.00  0.00    -0.098 N 
ATOM     36  H3  UNL     1      -6.936   1.983   1.104  1.00  0.00     0.213 HD
BRANCH  35  37
HETATM   37  O1  UNL     1      -6.228   2.779  -0.695  1.00  0.00    -0.276 OA
ATOM     38  H1  UNL     1      -6.944   3.401  -0.758  1.00  0.00     0.245 HD
ENDBRANCH  35  37
ENDBRANCH   4  35
TORSDOF 11
