REMARK  4 active torsions:
REMARK  status: ('A' for Active; 'I' for Inactive)
REMARK    1  A    between atoms: C10_21  and  C11_22 
REMARK    2  A    between atoms: C11_22  and  O6_23 
REMARK    3  A    between atoms: C16_33  and  O9_34 
REMARK    4  A    between atoms: N5_37  and  O10_39 
ROOT
HETATM    1  C1  UNL     1      -4.943  -2.225   0.341  1.00  0.00     0.042 C 
HETATM    2  C2  UNL     1      -3.685  -1.798  -0.393  1.00  0.00     0.147 C 
HETATM    3  C3  UNL     1      -3.043  -3.062  -0.938  1.00  0.00     0.172 C 
HETATM    4  N1  UNL     1      -2.403  -3.831   0.102  1.00  0.00    -0.320 N 
ATOM      5  H1  UNL     1      -2.140  -3.416   0.996  1.00  0.00     0.181 HD
HETATM    6  N2  UNL     1      -2.183  -5.070  -0.163  1.00  0.00    -0.244 N 
ATOM      7  H2  UNL     1      -2.462  -5.445  -1.070  1.00  0.00     0.208 HD
HETATM    8  N3  UNL     1      -1.565  -5.917   0.775  1.00  0.00    -0.255 N 
ATOM      9  H3  UNL     1      -2.001  -6.803   1.031  1.00  0.00     0.191 HD
HETATM   10  C4  UNL     1      -0.327  -5.530   1.365  1.00  0.00     0.246 C 
HETATM   11  O1  UNL     1      -0.109  -5.955   2.550  1.00  0.00    -0.271 OA
HETATM   12  C5  UNL     1       0.662  -4.680   0.653  1.00  0.00     0.215 C 
HETATM   13  C6  UNL     1       2.024  -5.052   1.119  1.00  0.00     0.267 C 
HETATM   14  O2  UNL     1       2.193  -6.276   1.420  1.00  0.00    -0.265 OA
HETATM   15  O3  UNL     1       3.032  -4.110   1.212  1.00  0.00    -0.319 OA
HETATM   16  C7  UNL     1       3.342  -3.198   0.169  1.00  0.00     0.205 C 
HETATM   17  C8  UNL     1       3.531  -1.821   0.747  1.00  0.00     0.205 C 
HETATM   18  O4  UNL     1       2.943  -0.894  -0.117  1.00  0.00    -0.318 OA
HETATM   19  C9  UNL     1       3.585   0.094  -0.809  1.00  0.00     0.284 C 
HETATM   20  O5  UNL     1       3.272   0.384  -2.003  1.00  0.00    -0.263 OA
HETATM   21  C10 UNL     1       4.690   0.890  -0.206  1.00  0.00     0.207 C 
HETATM   22  N4  UNL     1       4.575   2.298  -0.492  1.00  0.00    -0.345 N 
ATOM     23  H4  UNL     1       5.415   2.791  -0.795  1.00  0.00     0.163 HD
HETATM   24  C12 UNL     1       3.379   3.044  -0.382  1.00  0.00     0.218 C 
HETATM   25  O7  UNL     1       3.198   3.964  -1.251  1.00  0.00    -0.274 OA
HETATM   26  C13 UNL     1       2.367   2.791   0.682  1.00  0.00     0.110 C 
HETATM   27  C14 UNL     1       1.233   3.784   0.507  1.00  0.00     0.090 C 
HETATM   28  C15 UNL     1      -0.024   3.229   1.123  1.00  0.00     0.161 C 
HETATM   29  O8  UNL     1      -0.112   2.069   1.487  1.00  0.00    -0.295 OA
HETATM   30  C16 UNL     1      -1.166   4.168   1.270  1.00  0.00     0.234 C 
HETATM   31  C17 UNL     1      -2.125   4.065   0.136  1.00  0.00     0.045 C 
HETATM   32  N5  UNL     1      -1.812   4.642  -0.967  1.00  0.00    -0.274 N 
ATOM     33  H5  UNL     1      -0.931   5.149  -1.045  1.00  0.00     0.193 HD
HETATM   34  C18 UNL     1      -3.404   3.336   0.229  1.00  0.00     0.058 C 
HETATM   35  C19 UNL     1      -3.284   2.039  -0.527  1.00  0.00     0.015 C 
HETATM   36  C20 UNL     1      -4.450   1.113  -0.261  1.00  0.00     0.111 C 
HETATM   37  C21 UNL     1      -4.606   0.241  -1.436  1.00  0.00     0.259 C 
HETATM   38  O11 UNL     1      -5.327   0.625  -2.373  1.00  0.00    -0.265 OA
HETATM   39  O12 UNL     1      -3.969  -0.965  -1.491  1.00  0.00    -0.315 OA
ENDROOT
BRANCH  30  40
HETATM   40  O9  UNL     1      -0.704   5.486   1.419  1.00  0.00    -0.382 OA
ATOM     41  H9  UNL     1      -1.434   6.086   1.513  1.00  0.00     0.211 HD
ENDBRANCH  30  40
BRANCH  32  42
HETATM   42  O10 UNL     1      -2.659   4.576  -2.034  1.00  0.00    -0.290 OA
ATOM     43  H10 UNL     1      -2.427   5.003  -2.850  1.00  0.00     0.244 HD
ENDBRANCH  32  42
BRANCH  21  44
HETATM   44  C11 UNL     1       5.980   0.359  -0.837  1.00  0.00     0.199 C 
BRANCH  44  45
HETATM   45  O6  UNL     1       5.877   0.589  -2.228  1.00  0.00    -0.398 OA
ATOM     46  H6  UNL     1       6.677   0.260  -2.620  1.00  0.00     0.209 HD
ENDBRANCH  44  45
ENDBRANCH  21  44
TORSDOF 4
