REMARK  5 active torsions:
REMARK  status: ('A' for Active; 'I' for Inactive)
REMARK    1  A    between atoms: C2_2  and  C3_3 
REMARK    2  A    between atoms: C4_4  and  C5_5 
REMARK    3  A    between atoms: C5_5  and  N1_6 
REMARK    4  A    between atoms: N1_6  and  S1_8 
REMARK    5  A    between atoms: S1_8  and  N2_11 
ROOT
HETATM    1  N2  UNL     1      -0.245  -0.943  -0.441  1.00  0.00    -0.193 NA
HETATM    2  C6  UNL     1      -0.893  -0.099   0.513  1.00  0.00     0.112 C 
HETATM    3  C7  UNL     1      -2.000   0.734  -0.094  1.00  0.00     0.056 C 
HETATM    4  C8  UNL     1      -3.003  -0.170  -0.739  1.00  0.00     0.084 C 
HETATM    5  C9  UNL     1      -2.280  -1.080  -1.728  1.00  0.00     0.056 C 
HETATM    6  C10 UNL     1      -1.179  -1.841  -1.052  1.00  0.00     0.112 C 
HETATM    7  C11 UNL     1      -3.984   0.655  -1.547  1.00  0.00     0.205 C 
HETATM    8  O3  UNL     1      -4.678   1.463  -0.633  1.00  0.00    -0.386 OA
HETATM    9  C12 UNL     1      -5.486   0.594   0.109  1.00  0.00     0.193 C 
HETATM   10  C13 UNL     1      -4.649  -0.371   0.881  1.00  0.00     0.195 C 
HETATM   11  O4  UNL     1      -3.658  -0.985   0.155  1.00  0.00    -0.376 OA
ENDROOT
BRANCH   1  12
HETATM   12  S1  UNL     1       1.016  -1.811   0.344  1.00  0.00     0.299 S 
HETATM   13  O1  UNL     1       1.646  -2.834  -0.561  1.00  0.00    -0.188 OA
HETATM   14  O2  UNL     1       0.419  -2.570   1.508  1.00  0.00    -0.188 OA
BRANCH  12  15
HETATM   15  N1  UNL     1       2.212  -0.745   0.989  1.00  0.00    -0.296 N 
ATOM     16  H1  UNL     1       2.216  -0.335   1.923  1.00  0.00     0.174 HD
BRANCH  15  17
HETATM   17  C5  UNL     1       3.203  -0.543  -0.036  1.00  0.00     0.226 C 
BRANCH  17  18
HETATM   18  C4  UNL     1       4.229   0.370   0.515  1.00  0.00    -0.086 C 
HETATM   19  C3  UNL     1       5.068   1.124   0.951  1.00  0.00    -0.105 C 
BRANCH  19  20
HETATM   20  C2  UNL     1       6.075   2.061   1.475  1.00  0.00     0.089 C 
HETATM   21  C1  UNL     1       7.463   1.672   1.073  1.00  0.00     0.018 C 
ENDBRANCH  19  20
ENDBRANCH  17  18
ENDBRANCH  15  17
ENDBRANCH  12  15
ENDBRANCH   1  12
TORSDOF 5
