REMARK  4 active torsions:
REMARK  status: ('A' for Active; 'I' for Inactive)
REMARK    1  A    between atoms: O1_1  and  C1_3 
REMARK    2  A    between atoms: C1_3  and  C2_4 
REMARK    3  A    between atoms: C4_7  and  C5_8 
REMARK    4  A    between atoms: C7_12  and  O3_13 
ROOT
HETATM    1  C2  UNL     1      -1.366   0.422  -0.617  1.00  0.00     0.172 C 
HETATM    2  C3  UNL     1      -0.855   1.095   0.665  1.00  0.00     0.203 C 
HETATM    3  O2  UNL     1       0.483   1.348   0.410  1.00  0.00    -0.374 OA
HETATM    4  C4  UNL     1       1.151   0.158   0.349  1.00  0.00     0.201 C 
HETATM    5  C7  UNL     1       0.498  -0.932  -0.402  1.00  0.00     0.290 C 
HETATM    6  O4  UNL     1      -0.831  -0.828  -0.643  1.00  0.00    -0.349 OA
ENDROOT
BRANCH   4   7
HETATM    7  C5  UNL     1       2.520   0.448  -0.223  1.00  0.00     0.036 C 
HETATM    8  C6  UNL     1       3.530  -0.355   0.043  1.00  0.00     0.056 C 
HETATM    9 BR1  UNL     1       5.242   0.016  -0.679  1.00  0.00    -0.043 Br
HETATM   10 BR2  UNL     1       3.284  -1.902   1.160  1.00  0.00    -0.043 Br
ENDBRANCH   4   7
BRANCH   5  11
HETATM   11  O3  UNL     1       1.141  -1.160  -1.642  1.00  0.00    -0.368 OA
ATOM     12  H3  UNL     1       0.721  -1.862  -2.125  1.00  0.00     0.212 HD
ENDBRANCH   5  11
BRANCH   1  13
HETATM   13  C1  UNL     1      -2.864   0.412  -0.523  1.00  0.00     0.198 C 
BRANCH  13  14
HETATM   14  O1  UNL     1      -3.326  -0.228   0.626  1.00  0.00    -0.398 OA
ATOM     15  H1  UNL     1      -4.274  -0.234   0.685  1.00  0.00     0.209 HD
ENDBRANCH  13  14
ENDBRANCH   1  13
TORSDOF 4
