REMARK  4 active torsions:
REMARK  status: ('A' for Active; 'I' for Inactive)
REMARK    1  A    between atoms: C4_4  and  C5_5 
REMARK    2  A    between atoms: C7_9  and  C8_10 
REMARK    3  A    between atoms: C13_18  and  O2_19 
REMARK    4  A    between atoms: C14_21  and  O3_22 
ROOT
HETATM    1  C1  UNL     1       6.900   1.661   0.174  1.00  0.00     0.017 C 
HETATM    2  C2  UNL     1       5.765   1.273   0.235  1.00  0.00    -0.090 C 
HETATM    3  C3  UNL     1       4.389   0.805   0.304  1.00  0.00     0.064 C 
HETATM    4  C4  UNL     1       4.124  -0.479   0.424  1.00  0.00     0.042 C 
ENDROOT
BRANCH   4   5
HETATM    5  C5  UNL     1       2.725  -0.927   0.491  1.00  0.00     0.289 C 
HETATM    6  O1  UNL     1       2.512  -2.086  -0.247  1.00  0.00    -0.321 OA
HETATM    7  C6  UNL     1       1.115  -2.111  -0.327  1.00  0.00     0.341 C 
HETATM    8  F1  UNL     1       0.655  -2.645   0.853  1.00  0.00    -0.217 F 
HETATM    9  C7  UNL     1       0.775  -0.664  -0.490  1.00  0.00     0.218 C 
HETATM   10  O4  UNL     1       1.885   0.037  -0.016  1.00  0.00    -0.345 OA
BRANCH   9  11
HETATM   11  C8  UNL     1      -0.479  -0.281   0.298  1.00  0.00     0.251 C 
HETATM   12  N1  UNL     1      -1.560  -1.039  -0.249  1.00  0.00    -0.061 N 
HETATM   13  C9  UNL     1      -2.802  -0.828   0.404  1.00  0.00     0.193 C 
ATOM     14  H12 UNL     1      -1.648  -0.866  -1.250  1.00  0.00     0.278 HD
ATOM     15  H11 UNL     1      -1.328  -2.032  -0.266  1.00  0.00     0.278 HD
HETATM   16  C10 UNL     1      -3.955  -1.079  -0.578  1.00  0.00     0.034 C 
HETATM   17  C12 UNL     1      -3.181   0.586   0.522  1.00  0.00     0.048 C 
HETATM   18  C11 UNL     1      -4.048   0.422  -0.734  1.00  0.00     0.011 C 
HETATM   19  C13 UNL     1      -2.143   1.605   0.361  1.00  0.00     0.155 C 
HETATM   20  C14 UNL     1      -0.762   1.179   0.093  1.00  0.00     0.180 C 
BRANCH  19  21
HETATM   21  O2  UNL     1      -2.136   2.403   1.532  1.00  0.00    -0.392 OA
ATOM     22  H2  UNL     1      -1.462   3.064   1.427  1.00  0.00     0.210 HD
ENDBRANCH  19  21
BRANCH  20  23
HETATM   23  O3  UNL     1       0.182   1.887   0.860  1.00  0.00    -0.391 OA
ATOM     24  H3  UNL     1       0.003   2.811   0.730  1.00  0.00     0.210 HD
ENDBRANCH  20  23
ENDBRANCH   9  11
ENDBRANCH   4   5
TORSDOF 4
