REMARK  5 active torsions:
REMARK  status: ('A' for Active; 'I' for Inactive)
REMARK    1  A    between atoms: C3_3  and  C4_4 
REMARK    2  A    between atoms: N1_8  and  C7_9 
REMARK    3  A    between atoms: C9_12  and  O2_13 
REMARK    4  A    between atoms: C10_15  and  O3_16 
REMARK    5  A    between atoms: C11_18  and  O4_19 
ROOT
HETATM    1  C1  UNL     1       5.959   0.018  -1.118  1.00  0.00     0.012 C 
HETATM    2  C2  UNL     1       4.996  -0.579  -0.678  1.00  0.00    -0.116 C 
HETATM    3  C3  UNL     1       3.847  -1.315  -0.150  1.00  0.00     0.118 C 
ENDROOT
BRANCH   3   4
HETATM    4  C4  UNL     1       2.954  -0.355   0.614  1.00  0.00     0.050 C 
HETATM    5 CL1  UNL     1       3.933   0.341   1.948  1.00  0.00    -0.118 Cl
HETATM    6  C5  UNL     1       1.757  -1.074   1.199  1.00  0.00     0.057 C 
HETATM    7  C6  UNL     1       0.691  -1.138   0.131  1.00  0.00     0.278 C 
HETATM    8  N1  UNL     1       0.134   0.142  -0.189  1.00  0.00     0.120 N 
HETATM    9  C12 UNL     1       1.033   1.180   0.200  1.00  0.00     0.278 C 
HETATM   10  C13 UNL     1       2.458   0.783  -0.211  1.00  0.00     0.057 C 
BRANCH   8  11
HETATM   11  C7  UNL     1      -1.213   0.321   0.378  1.00  0.00     0.390 C 
HETATM   12  O1  UNL     1      -1.596   1.619   0.412  1.00  0.00    -0.352 OA
HETATM   13  C8  UNL     1      -2.827   1.974  -0.022  1.00  0.00     0.205 C 
HETATM   14  C9  UNL     1      -3.896   0.912   0.276  1.00  0.00     0.173 C 
HETATM   15  C10 UNL     1      -3.480  -0.249  -0.602  1.00  0.00     0.182 C 
HETATM   16  C11 UNL     1      -2.110  -0.684  -0.225  1.00  0.00     0.208 C 
BRANCH  14  17
HETATM   17  O2  UNL     1      -5.127   1.432  -0.148  1.00  0.00    -0.391 OA
ATOM     18  H2  UNL     1      -5.788   0.775   0.036  1.00  0.00     0.210 HD
ENDBRANCH  14  17
BRANCH  15  19
HETATM   19  O3  UNL     1      -4.391  -1.283  -0.456  1.00  0.00    -0.390 OA
ATOM     20  H3  UNL     1      -4.130  -2.012  -1.007  1.00  0.00     0.210 HD
ENDBRANCH  15  19
BRANCH  16  21
HETATM   21  O4  UNL     1      -1.519  -1.198  -1.406  1.00  0.00    -0.388 OA
ATOM     22  H4  UNL     1      -2.096  -1.845  -1.794  1.00  0.00     0.210 HD
ENDBRANCH  16  21
ENDBRANCH   8  11
ENDBRANCH   3   4
TORSDOF 5
