REMARK  15 active torsions:
REMARK  status: ('A' for Active; 'I' for Inactive)
REMARK    1  A    between atoms: C3_3  and  C4_4 
REMARK    2  A    between atoms: C4_4  and  C5_6 
REMARK    3  A    between atoms: C5_6  and  N1_7 
REMARK    4  A    between atoms: C5_6  and  C6_11 
REMARK    5  A    between atoms: C6_11  and  C7_12 
REMARK    6  A    between atoms: C6_11  and  C9_15 
REMARK    7  A    between atoms: C7_12  and  C8_13 
REMARK    8  A    between atoms: N3_18  and  C10_19 
REMARK    9  A    between atoms: C11_22  and  N5_23 
REMARK   10  A    between atoms: C12_28  and  N7_29 
REMARK   11  A    between atoms: C14_34  and  N8_35 
REMARK   12  A    between atoms: C15_43  and  C16_44 
REMARK   13  A    between atoms: C16_44  and  O3_45 
REMARK   14  A    between atoms: C16_44  and  C17_47 
REMARK   15  A    between atoms: C17_47  and  O4_48 
ROOT
HETATM    1  C9  UNL     1       1.557  -0.937  -1.129  1.00  0.00     0.145 A 
HETATM    2  N2  UNL     1       2.152  -0.337  -0.090  1.00  0.00    -0.262 N 
ATOM      3  H2  UNL     1       1.656   0.090   0.692  1.00  0.00     0.190 HD
HETATM    4  N3  UNL     1       3.492  -0.373  -0.215  1.00  0.00    -0.065 N 
HETATM    5  C14 UNL     1       3.702  -1.028  -1.387  1.00  0.00     0.700 A 
HETATM    6  N9  UNL     1       2.504  -1.372  -1.944  1.00  0.00    -0.173 N 
ATOM      7  H9  UNL     1       2.365  -1.871  -2.823  1.00  0.00     0.186 HD
ENDROOT
BRANCH   1   8
HETATM    8  C6  UNL     1       0.062  -1.110  -1.318  1.00  0.00     0.024 C 
BRANCH   8   9
HETATM    9  C5  UNL     1      -0.684   0.157  -1.408  1.00  0.00     0.295 C 
BRANCH   9  10
HETATM   10  C4  UNL     1      -2.110   0.250  -1.195  1.00  0.00     0.213 C 
HETATM   11  O1  UNL     1      -2.910   0.222  -2.187  1.00  0.00    -0.288 OA
BRANCH  10  12
HETATM   12  C3  UNL     1      -2.788   0.396   0.123  1.00  0.00     0.112 A 
HETATM   13  C2  UNL     1      -4.148   0.679   0.314  1.00  0.00     0.009 A 
HETATM   14  C1  UNL     1      -5.207   0.597  -0.736  1.00  0.00     0.054 C 
HETATM   15  C15 UNL     1      -4.364   0.868   1.694  1.00  0.00     0.138 A 
HETATM   16  O2  UNL     1      -3.200   0.685   2.252  1.00  0.00    -0.234 OA
HETATM   17  N10 UNL     1      -2.290   0.415   1.354  1.00  0.00    -0.256 N 
ATOM     18  H10 UNL     1      -1.310   0.239   1.573  1.00  0.00     0.195 HD
BRANCH  15  19
HETATM   19  C16 UNL     1      -5.685   1.228   2.224  1.00  0.00     0.103 C 
BRANCH  19  20
HETATM   20  O3  UNL     1      -6.512   1.988   1.477  1.00  0.00    -0.360 OA
ATOM     21  H3  UNL     1      -7.367   2.221   1.820  1.00  0.00     0.217 HD
ENDBRANCH  19  20
BRANCH  19  22
HETATM   22  C17 UNL     1      -6.324   0.271   3.220  1.00  0.00     0.231 C 
BRANCH  22  23
HETATM   23  O4  UNL     1      -5.433  -0.451   3.952  1.00  0.00    -0.394 OA
ATOM     24  H4  UNL     1      -5.832  -1.048   4.574  1.00  0.00     0.209 HD
ENDBRANCH  22  23
ENDBRANCH  19  22
ENDBRANCH  15  19
ENDBRANCH  10  12
ENDBRANCH   9  10
BRANCH   9  25
HETATM   25  N1  UNL     1      -0.313   0.919  -2.639  1.00  0.00    -0.064 N 
ATOM     26  H13 UNL     1      -0.845   0.616  -3.455  1.00  0.00     0.275 HD
ATOM     27  H12 UNL     1      -0.635   1.886  -2.605  1.00  0.00     0.275 HD
ATOM     28  H11 UNL     1       0.694   0.853  -2.789  1.00  0.00     0.275 HD
ENDBRANCH   9  25
ENDBRANCH   8   9
BRANCH   8  29
HETATM   29  C7  UNL     1      -0.239  -2.273  -2.136  1.00  0.00     0.017 C 
BRANCH  29  30
HETATM   30  C8  UNL     1      -0.245  -2.278  -3.605  1.00  0.00     0.250 C 
HETATM   31  F1  UNL     1      -1.221  -1.489  -4.218  1.00  0.00    -0.251 F 
ENDBRANCH  29  30
ENDBRANCH   8  29
ENDBRANCH   1   8
BRANCH   4  32
HETATM   32  C10 UNL     1       4.514   0.176   0.627  1.00  0.00     0.203 A 
HETATM   33  N4  UNL     1       4.517   1.491   0.970  1.00  0.00    -0.171 N 
HETATM   34  C11 UNL     1       5.470   2.052   1.701  1.00  0.00     0.679 A 
ATOM     35  H4  UNL     1       3.746   2.077   0.648  1.00  0.00     0.186 HD
HETATM   36  N6  UNL     1       6.497   1.273   2.130  1.00  0.00    -0.174 N 
HETATM   37  C12 UNL     1       6.593  -0.044   1.846  1.00  0.00     0.157 A 
ATOM     38  H6  UNL     1       7.230   1.703   2.693  1.00  0.00     0.186 HD
HETATM   39  C13 UNL     1       5.564  -0.596   1.073  1.00  0.00     0.207 A 
HETATM   40  F2  UNL     1       5.692  -1.922   0.834  1.00  0.00    -0.198 F 
BRANCH  34  41
HETATM   41  N5  UNL     1       5.441   3.335   1.986  1.00  0.00    -0.234 N 
ATOM     42  H52 UNL     1       4.670   3.920   1.664  1.00  0.00     0.174 HD
ATOM     43  H51 UNL     1       6.174   3.767   2.548  1.00  0.00     0.174 HD
ENDBRANCH  34  41
BRANCH  37  44
HETATM   44  N7  UNL     1       7.588  -0.726   2.285  1.00  0.00    -0.382 N 
ATOM     45  H72 UNL     1       8.337  -0.324   2.848  1.00  0.00     0.157 HD
ATOM     46  H71 UNL     1       7.660  -1.721   2.071  1.00  0.00     0.157 HD
ENDBRANCH  37  44
ENDBRANCH   4  32
BRANCH   5  47
HETATM   47  N8  UNL     1       4.863  -1.289  -1.922  1.00  0.00    -0.233 N 
ATOM     48  H82 UNL     1       5.758  -1.032  -1.506  1.00  0.00     0.174 HD
ATOM     49  H81 UNL     1       5.021  -1.781  -2.802  1.00  0.00     0.174 HD
ENDBRANCH   5  47
TORSDOF 15
