REMARK  10 active torsions:
REMARK  status: ('A' for Active; 'I' for Inactive)
REMARK    1  A    between atoms: N1_1  and  C1_4 
REMARK    2  A    between atoms: N5_13  and  C4_14 
REMARK    3  A    between atoms: C4_14  and  C5_15 
REMARK    4  A    between atoms: C5_15  and  C6_16 
REMARK    5  A    between atoms: C6_16  and  C7_17 
REMARK    6  A    between atoms: C7_17  and  N6_18 
REMARK    7  A    between atoms: N6_18  and  C8_20 
REMARK       I    between atoms: N7_23  and  C11_25 
REMARK       I    between atoms: C11_25  and  N8_26 
REMARK       I    between atoms: C11_25  and  N9_30 
REMARK    8  A    between atoms: C12_34  and  N10_35 
REMARK       I    between atoms: N10_35  and  C13_37 
REMARK    9  A    between atoms: C13_37  and  C14_39 
REMARK   10  A    between atoms: C14_39  and  N11_40 
ROOT
HETATM    1  C8  UNL     1      -0.200  -0.194  -1.291  1.00  0.00     0.104 A 
HETATM    2  C9  UNL     1      -0.798  -0.487  -0.108  1.00  0.00     0.080 A 
HETATM    3  C10 UNL     1      -1.998   0.178   0.318  1.00  0.00     0.065 A 
HETATM    4  N7  UNL     1      -2.460  -0.141   1.418  1.00  0.00    -0.339 N 
ATOM      5  H7  UNL     1      -1.885  -0.858   1.861  1.00  0.00     0.163 HD
HETATM    6  C11 UNL     1      -3.529   0.195   2.217  1.00  0.00     0.480 C 
HETATM    7  N8  UNL     1      -3.160   0.157   3.674  1.00  0.00    -0.033 N 
ATOM      8  H81 UNL     1      -3.952   0.406   4.266  1.00  0.00     0.278 HD
ATOM      9  H82 UNL     1      -2.349   0.744   3.869  1.00  0.00     0.278 HD
ATOM     10  H83 UNL     1      -2.767  -0.747   3.936  1.00  0.00     0.278 HD
HETATM   11  N9  UNL     1      -4.641  -0.790   2.149  1.00  0.00    -0.033 N 
ATOM     12  H91 UNL     1      -5.433  -0.541   2.741  1.00  0.00     0.278 HD
ATOM     13  H92 UNL     1      -4.308  -1.730   2.364  1.00  0.00     0.278 HD
ATOM     14  H93 UNL     1      -4.940  -0.935   1.185  1.00  0.00     0.278 HD
HETATM   15  C12 UNL     1      -2.511   1.117  -0.521  1.00  0.00     0.103 A 
HETATM   16  C15 UNL     1      -1.867   1.395  -1.734  1.00  0.00     0.147 A 
HETATM   17  N12 UNL     1      -2.455   2.387  -2.561  1.00  0.00    -0.080 NA
HETATM   18  N13 UNL     1      -0.747   0.751  -2.095  1.00  0.00    -0.329 N 
ATOM     19  H13 UNL     1      -0.302   0.975  -2.985  1.00  0.00     0.168 HD
ENDROOT
BRANCH   1  20
HETATM   20  N6  UNL     1       1.008  -0.868  -1.713  1.00  0.00    -0.376 N 
ATOM     21  H6  UNL     1       1.457  -0.648  -2.602  1.00  0.00     0.161 HD
BRANCH  20  22
HETATM   22  C7  UNL     1       1.547  -1.858  -0.829  1.00  0.00     0.121 C 
BRANCH  22  23
HETATM   23  C6  UNL     1       2.806  -2.493  -1.374  1.00  0.00     0.021 C 
BRANCH  23  24
HETATM   24  C5  UNL     1       3.310  -3.497  -0.396  1.00  0.00     0.023 C 
BRANCH  24  25
HETATM   25  C4  UNL     1       3.761  -2.963   0.931  1.00  0.00     0.152 C 
BRANCH  25  26
HETATM   26  N5  UNL     1       4.898  -2.113   0.789  1.00  0.00    -0.260 N 
HETATM   27  C2  UNL     1       5.058  -0.812   0.668  1.00  0.00     0.172 A 
HETATM   28  N2  UNL     1       4.197   0.220   0.663  1.00  0.00    -0.173 N 
HETATM   29  C3  UNL     1       6.426  -0.523   0.530  1.00  0.00     0.152 A 
HETATM   30  C1  UNL     1       4.601   1.487   0.532  1.00  0.00     0.679 A 
ATOM     31  H2  UNL     1       3.200   0.029   0.763  1.00  0.00     0.186 HD
HETATM   32  N14 UNL     1       5.893   1.819   0.397  1.00  0.00    -0.164 N 
HETATM   33  C16 UNL     1       6.774   0.794   0.400  1.00  0.00     0.234 A 
ATOM     34  H14 UNL     1       6.194   2.789   0.298  1.00  0.00     0.186 HD
HETATM   35  F1  UNL     1       8.093   1.079   0.266  1.00  0.00    -0.183 F 
HETATM   36  N3  UNL     1       7.040  -1.705   0.577  1.00  0.00    -0.278 N 
HETATM   37  N4  UNL     1       6.139  -2.644   0.731  1.00  0.00    -0.238 N 
ATOM     38  H3  UNL     1       8.046  -1.854   0.505  1.00  0.00     0.189 HD
ATOM     39  H4  UNL     1       6.346  -3.640   0.798  1.00  0.00     0.208 HD
BRANCH  30  40
HETATM   40  N1  UNL     1       3.715   2.426   0.537  1.00  0.00    -0.234 N 
ATOM     41  H12 UNL     1       2.732   2.173   0.640  1.00  0.00     0.174 HD
ATOM     42  H11 UNL     1       4.023   3.393   0.437  1.00  0.00     0.174 HD
ENDBRANCH  30  40
ENDBRANCH  25  26
ENDBRANCH  24  25
ENDBRANCH  23  24
ENDBRANCH  22  23
ENDBRANCH  20  22
ENDBRANCH   1  20
BRANCH  15  43
HETATM   43  N10 UNL     1      -3.688   1.825  -0.275  1.00  0.00    -0.321 N 
HETATM   44  C13 UNL     1      -4.958   1.499  -0.773  1.00  0.00     0.247 C 
HETATM   45  O1  UNL     1      -5.096   0.497  -1.505  1.00  0.00    -0.271 OA
ATOM     46  H10 UNL     1      -3.619   2.652   0.319  1.00  0.00     0.169 HD
BRANCH  44  47
HETATM   47  C14 UNL     1      -6.140   2.318  -0.450  1.00  0.00     0.332 C 
BRANCH  47  48
HETATM   48  N11 UNL     1      -7.348   1.812  -1.062  1.00  0.00    -0.071 N 
ATOM     49 3H11 UNL     1      -7.235   1.713  -2.071  1.00  0.00     0.274 HD
ATOM     50 2H11 UNL     1      -7.501   0.834  -0.817  1.00  0.00     0.274 HD
ATOM     51 1H11 UNL     1      -8.166   2.379  -0.838  1.00  0.00     0.274 HD
ENDBRANCH  47  48
ENDBRANCH  44  47
ENDBRANCH  15  43
TORSDOF 10
