REMARK  17 active torsions:
REMARK  status: ('A' for Active; 'I' for Inactive)
REMARK    1  A    between atoms: C2_2  and  C4_4 
REMARK    2  A    between atoms: C4_4  and  C5_5 
REMARK    3  A    between atoms: C5_5  and  O1_6 
REMARK    4  A    between atoms: C5_5  and  C6_8 
REMARK    5  A    between atoms: C6_8  and  O2_9 
REMARK    6  A    between atoms: C6_8  and  C7_11 
REMARK    7  A    between atoms: C7_11  and  C8_12 
REMARK    8  A    between atoms: C14_18  and  C15_19 
REMARK    9  A    between atoms: C15_19  and  N1_20 
REMARK   10  A    between atoms: N3_25  and  C16_26 
REMARK   11  A    between atoms: C16_26  and  C17_27 
REMARK   12  A    between atoms: C17_27  and  C18_28 
REMARK   13  A    between atoms: C18_28  and  C19_29 
REMARK   14  A    between atoms: C19_29  and  C20_30 
REMARK   15  A    between atoms: C20_30  and  C21_31 
REMARK   16  A    between atoms: C21_31  and  N4_32 
REMARK   17  A    between atoms: C21_31  and  C22_36 
REMARK       I    between atoms: C22_36  and  N5_38 
ROOT
HETATM    1  C8  UNL     1      -2.951  -1.705  -1.044  1.00  0.00     0.081 C 
HETATM    2  C9  UNL     1      -3.089  -2.868  -2.021  1.00  0.00     0.014 C 
HETATM    3  C10 UNL     1      -4.180  -3.786  -1.596  1.00  0.00     0.001 C 
HETATM    4  C11 UNL     1      -3.879  -4.778  -0.528  1.00  0.00     0.000 C 
HETATM    5  C12 UNL     1      -3.967  -4.305   0.874  1.00  0.00     0.002 C 
HETATM    6  C13 UNL     1      -2.835  -3.689   1.549  1.00  0.00     0.031 C 
HETATM    7  C14 UNL     1      -1.505  -3.712   0.800  1.00  0.00     0.127 C 
HETATM    8  N3  UNL     1      -1.058  -2.336   0.627  1.00  0.00    -0.342 N 
HETATM    9  C27 UNL     1      -1.577  -1.597  -0.509  1.00  0.00     0.224 C 
HETATM   10  O5  UNL     1      -0.762  -0.801  -1.067  1.00  0.00    -0.273 OA
ENDROOT
BRANCH   8  11
HETATM   11  C16 UNL     1      -0.219  -1.613   1.559  1.00  0.00     0.126 C 
BRANCH  11  12
HETATM   12  C17 UNL     1       1.211  -1.458   1.222  1.00  0.00     0.020 C 
BRANCH  12  13
HETATM   13  C18 UNL     1       1.863  -0.678   2.373  1.00  0.00     0.002 C 
BRANCH  13  14
HETATM   14  C19 UNL     1       3.325  -0.468   2.142  1.00  0.00     0.002 C 
BRANCH  14  15
HETATM   15  C20 UNL     1       3.558   0.314   0.886  1.00  0.00     0.042 C 
BRANCH  15  16
HETATM   16  C21 UNL     1       5.034   0.542   0.621  1.00  0.00     0.275 C 
BRANCH  16  17
HETATM   17  N4  UNL     1       5.694   1.258   1.656  1.00  0.00    -0.067 N 
ATOM     18  H43 UNL     1       5.220   2.142   1.841  1.00  0.00     0.275 HD
ATOM     19  H42 UNL     1       5.556   0.799   2.556  1.00  0.00     0.275 HD
ATOM     20  H41 UNL     1       6.687   1.411   1.478  1.00  0.00     0.275 HD
ENDBRANCH  16  17
BRANCH  16  21
HETATM   21  C22 UNL     1       5.160   1.116  -0.713  1.00  0.00     0.250 C 
HETATM   22  O3  UNL     1       4.501   0.505  -1.635  1.00  0.00    -0.271 OA
HETATM   23  N5  UNL     1       5.897   2.238  -1.126  1.00  0.00    -0.346 N 
HETATM   24  C23 UNL     1       5.895   2.677  -2.509  1.00  0.00     0.152 C 
HETATM   25  C26 UNL     1       6.699   3.011  -0.210  1.00  0.00     0.152 C 
HETATM   26  C24 UNL     1       7.321   2.883  -2.957  1.00  0.00     0.187 C 
HETATM   27  O4  UNL     1       8.050   3.658  -2.090  1.00  0.00    -0.388 OA
HETATM   28  C25 UNL     1       7.317   4.142  -1.034  1.00  0.00     0.187 C 
ENDBRANCH  16  21
ENDBRANCH  15  16
ENDBRANCH  14  15
ENDBRANCH  13  14
ENDBRANCH  12  13
ENDBRANCH  11  12
ENDBRANCH   8  11
BRANCH   7  29
HETATM   29  C15 UNL     1      -0.571  -4.637   1.513  1.00  0.00     0.104 C 
BRANCH  29  30
HETATM   30  N1  UNL     1       0.697  -4.847   0.964  1.00  0.00    -0.320 N 
HETATM   31  N2  UNL     1       1.145  -5.942   0.548  1.00  0.00    -0.346 N 
ATOM     32  H22 UNL     1       0.515  -6.740   0.624  1.00  0.00     0.176 HD
ATOM     33  H21 UNL     1       2.070  -6.095   0.147  1.00  0.00     0.176 HD
ATOM     34  H1  UNL     1       1.313  -4.037   0.896  1.00  0.00     0.185 HD
ENDBRANCH  29  30
ENDBRANCH   7  29
BRANCH   1  35
HETATM   35  C7  UNL     1      -3.419  -0.407  -1.695  1.00  0.00     0.052 C 
BRANCH  35  36
HETATM   36  C6  UNL     1      -3.345   0.793  -0.808  1.00  0.00     0.175 C 
BRANCH  36  37
HETATM   37  C5  UNL     1      -3.827   2.020  -1.542  1.00  0.00     0.068 C 
BRANCH  37  38
HETATM   38  C4  UNL     1      -3.251   3.310  -1.202  1.00  0.00     0.012 C 
BRANCH  38  39
HETATM   39  C2  UNL     1      -3.620   4.105  -0.047  1.00  0.00     0.002 C 
HETATM   40  C1  UNL     1      -3.417   3.518   1.323  1.00  0.00     0.013 C 
HETATM   41  C3  UNL     1      -5.001   4.717  -0.059  1.00  0.00     0.013 C 
ENDBRANCH  38  39
ENDBRANCH  37  38
BRANCH  37  42
HETATM   42  O1  UNL     1      -5.193   1.938  -1.763  1.00  0.00    -0.363 OA
ATOM     43  H1  UNL     1      -5.570   1.095  -1.985  1.00  0.00     0.217 HD
ENDBRANCH  37  42
ENDBRANCH  36  37
BRANCH  36  44
HETATM   44  O2  UNL     1      -4.001   0.622   0.396  1.00  0.00    -0.389 OA
ATOM     45  H2  UNL     1      -3.698  -0.151   0.858  1.00  0.00     0.210 HD
ENDBRANCH  36  44
ENDBRANCH  35  36
ENDBRANCH   1  35
TORSDOF 17
