REMARK  1 active torsions:
REMARK  status: ('A' for Active; 'I' for Inactive)
REMARK    1  A    between atoms: C4_14  and  N7_15 
ROOT
HETATM    1  N1  UNL     1      -0.961  -2.183  -1.079  1.00  0.00    -0.386 N 
ATOM      2  H11 UNL     1      -1.974  -2.236  -1.189  1.00  0.00     0.157 HD
ATOM      3  H12 UNL     1      -0.287  -2.903  -1.338  1.00  0.00     0.157 HD
HETATM    4  C1  UNL     1      -0.526  -1.081  -0.557  1.00  0.00     0.116 C 
HETATM    5  N2  UNL     1       0.879  -1.008  -0.405  1.00  0.00    -0.318 N 
ATOM      6  H2  UNL     1       1.410  -1.783  -0.801  1.00  0.00     0.170 HD
HETATM    7  C2  UNL     1       1.645   0.009   0.230  1.00  0.00     0.192 C 
HETATM    8  N3  UNL     1       2.971  -0.297   0.629  1.00  0.00    -0.063 NA
HETATM    9  N4  UNL     1       1.205   1.208   0.469  1.00  0.00    -0.332 N 
ATOM     10  H4  UNL     1       1.892   1.804   0.931  1.00  0.00     0.165 HD
HETATM   11  C3  UNL     1      -0.033   1.864   0.222  1.00  0.00     0.289 A 
HETATM   12  N5  UNL     1      -0.370   1.890  -1.218  1.00  0.00    -0.117 NA
HETATM   13  N6  UNL     1      -1.110   1.277  -0.255  1.00  0.00    -0.162 NA
HETATM   14  C4  UNL     1      -1.501  -0.039  -0.182  1.00  0.00     0.287 C 
ENDROOT
BRANCH  14  15
HETATM   15  N7  UNL     1      -1.955  -0.345   1.186  1.00  0.00     0.044 NA
HETATM   16  F1  UNL     1      -2.518  -1.576   1.137  1.00  0.00    -0.099 F 
HETATM   17  F2  UNL     1      -0.903  -0.344   2.021  1.00  0.00    -0.099 F 
ENDBRANCH  14  15
TORSDOF 1
