REMARK  7 active torsions:
REMARK  status: ('A' for Active; 'I' for Inactive)
REMARK    1  A    between atoms: C4_4  and  N1_5 
REMARK    2  A    between atoms: C10_12  and  C11_13 
REMARK    3  A    between atoms: N3_14  and  N4_16 
REMARK    4  A    between atoms: N4_16  and  C12_18 
REMARK    5  A    between atoms: C12_18  and  N5_20 
REMARK    6  A    between atoms: N5_20  and  C13_22 
REMARK    7  A    between atoms: C13_22  and  C14_23 
ROOT
HETATM    1  C1  UNL     1       3.258  -1.602   1.935  1.00  0.00     0.049 C 
HETATM    2  C2  UNL     1       3.711  -0.701   0.842  1.00  0.00    -0.047 A 
HETATM    3  C3  UNL     1       4.982  -0.788   0.394  1.00  0.00     0.037 A 
HETATM    4  C4  UNL     1       5.430   0.049  -0.633  1.00  0.00     0.031 A 
HETATM    5  C7  UNL     1       4.559   0.961  -1.180  1.00  0.00     0.053 A 
HETATM    6  C8  UNL     1       3.241   1.067  -0.729  1.00  0.00     0.059 A 
HETATM    7  C9  UNL     1       2.375   2.039  -1.338  1.00  0.00     0.100 C 
HETATM    8  N2  UNL     1       1.693   2.839  -1.852  1.00  0.00    -0.191 NA
HETATM    9  C10 UNL     1       2.847   0.233   0.271  1.00  0.00     0.007 A 
ENDROOT
BRANCH   9  10
HETATM   10  C11 UNL     1       1.496   0.278   0.796  1.00  0.00     0.120 C 
HETATM   11  N3  UNL     1       0.651   1.108   0.321  1.00  0.00    -0.309 N 
ATOM     12  H3  UNL     1       0.923   1.743  -0.430  1.00  0.00     0.186 HD
BRANCH  11  13
HETATM   13  N4  UNL     1      -0.640   1.143   0.831  1.00  0.00    -0.277 N 
ATOM     14  H4  UNL     1      -0.804   1.334   1.819  1.00  0.00     0.189 HD
BRANCH  13  15
HETATM   15  C12 UNL     1      -1.726   0.908  -0.052  1.00  0.00     0.186 C 
HETATM   16  S1  UNL     1      -1.446   0.609  -1.623  1.00  0.00    -0.040 SA
BRANCH  15  17
HETATM   17  N5  UNL     1      -3.079   0.928   0.404  1.00  0.00    -0.366 N 
ATOM     18  H5  UNL     1      -3.298   1.112   1.383  1.00  0.00     0.161 HD
BRANCH  17  19
HETATM   19  C13 UNL     1      -4.128   0.681  -0.554  1.00  0.00     0.126 C 
BRANCH  19  20
HETATM   20  C14 UNL     1      -5.447   0.739   0.141  1.00  0.00     0.006 C 
HETATM   21  C15 UNL     1      -5.594  -0.266   1.232  1.00  0.00     0.034 C 
HETATM   22  C16 UNL     1      -5.781  -1.647   0.625  1.00  0.00     0.232 C 
HETATM   23  N6  UNL     1      -6.863  -1.704  -0.310  1.00  0.00    -0.075 N 
HETATM   24  C17 UNL     1      -6.730  -0.734  -1.379  1.00  0.00     0.232 C 
ATOM     25  H62 UNL     1      -6.975  -2.647  -0.683  1.00  0.00     0.277 HD
ATOM     26  H61 UNL     1      -7.761  -1.606   0.163  1.00  0.00     0.277 HD
HETATM   27  C18 UNL     1      -6.575   0.666  -0.867  1.00  0.00     0.034 C 
ENDBRANCH  19  20
ENDBRANCH  17  19
ENDBRANCH  15  17
ENDBRANCH  13  15
ENDBRANCH  11  13
ENDBRANCH   9  10
BRANCH   4  28
HETATM   28  N1  UNL     1       6.759  -0.039  -1.106  1.00  0.00    -0.390 N 
HETATM   29  C5  UNL     1       7.700  -0.982  -0.558  1.00  0.00     0.149 C 
HETATM   30  C6  UNL     1       7.195   0.834  -2.164  1.00  0.00     0.149 C 
ENDBRANCH   4  28
TORSDOF 7
