REMARK  8 active torsions:
REMARK  status: ('A' for Active; 'I' for Inactive)
REMARK    1  A    between atoms: C2_2  and  O2_4 
REMARK    2  A    between atoms: O2_4  and  C3_5 
REMARK    3  A    between atoms: C6_8  and  O3_9 
REMARK    4  A    between atoms: O3_9  and  C7_10 
REMARK    5  A    between atoms: C7_10  and  C8_12 
REMARK    6  A    between atoms: C10_15  and  N1_16 
REMARK    7  A    between atoms: C14_23  and  C15_24 
REMARK    8  A    between atoms: C15_24  and  O6_25 
ROOT
HETATM    1  C3  UNL     1      -2.025   0.869   0.615  1.00  0.00     0.144 C 
HETATM    2  C4  UNL     1      -0.782   1.000   1.425  1.00  0.00     0.041 C 
HETATM    3  C5  UNL     1       0.101  -0.135   0.944  1.00  0.00     0.026 C 
HETATM    4  C6  UNL     1       0.938   0.399  -0.174  1.00  0.00     0.137 C 
HETATM    5  C11 UNL     1       0.247   0.537  -1.477  1.00  0.00     0.038 C 
HETATM    6  C12 UNL     1      -1.119  -0.041  -1.577  1.00  0.00    -0.002 C 
HETATM    7  C13 UNL     1      -1.928   0.681  -2.639  1.00  0.00     0.011 C 
HETATM    8  C14 UNL     1      -1.844  -0.275  -0.301  1.00  0.00     0.018 C 
HETATM    9  C16 UNL     1      -0.921  -1.164   0.523  1.00  0.00    -0.029 C 
HETATM   10  C17 UNL     1      -0.334  -2.291  -0.280  1.00  0.00     0.016 C 
HETATM   11  C18 UNL     1      -1.562  -1.728   1.741  1.00  0.00     0.016 C 
ENDROOT
BRANCH   4  12
HETATM   12  O3  UNL     1       2.184  -0.294  -0.284  1.00  0.00    -0.314 OA
BRANCH  12  13
HETATM   13  C7  UNL     1       3.405   0.260  -0.035  1.00  0.00     0.290 C 
HETATM   14  O4  UNL     1       3.412   1.488   0.321  1.00  0.00    -0.262 OA
BRANCH  13  15
HETATM   15  C8  UNL     1       4.701  -0.442  -0.144  1.00  0.00     0.253 C 
HETATM   16  O5  UNL     1       5.786   0.346   0.163  1.00  0.00    -0.371 OA
HETATM   17  C9  UNL     1       5.893  -0.239   1.445  1.00  0.00     0.204 C 
HETATM   18  C10 UNL     1       5.037  -1.388   0.960  1.00  0.00     0.245 C 
BRANCH  18  19
HETATM   19  N1  UNL     1       5.912  -2.451   0.451  1.00  0.00    -0.070 N 
ATOM     20  H13 UNL     1       5.508  -2.929  -0.355  1.00  0.00     0.274 HD
ATOM     21  H12 UNL     1       6.746  -2.078  -0.003  1.00  0.00     0.274 HD
ATOM     22  H11 UNL     1       6.142  -3.098   1.206  1.00  0.00     0.274 HD
ENDBRANCH  18  19
ENDBRANCH  13  15
ENDBRANCH  12  13
ENDBRANCH   4  12
BRANCH   1  23
HETATM   23  O2  UNL     1      -2.588   2.031   0.126  1.00  0.00    -0.315 OA
BRANCH  23  24
HETATM   24  C2  UNL     1      -3.768   2.631   0.485  1.00  0.00     0.255 C 
HETATM   25  C1  UNL     1      -4.260   3.875  -0.122  1.00  0.00     0.126 C 
HETATM   26  O1  UNL     1      -4.364   1.992   1.383  1.00  0.00    -0.266 OA
ENDBRANCH  23  24
ENDBRANCH   1  23
BRANCH   8  27
HETATM   27  C15 UNL     1      -3.138  -0.948  -0.619  1.00  0.00     0.177 C 
BRANCH  27  28
HETATM   28  O6  UNL     1      -4.041  -0.088  -1.234  1.00  0.00    -0.400 OA
ATOM     29  H6  UNL     1      -4.864  -0.516  -1.436  1.00  0.00     0.209 HD
ENDBRANCH  27  28
ENDBRANCH   8  27
TORSDOF 8
