REMARK  1 active torsions:
REMARK  status: ('A' for Active; 'I' for Inactive)
REMARK    1  A    between atoms: N3_12  and  N4_14 
ROOT
HETATM    1  C1  UNL     1      -2.084  -1.761   1.610  1.00  0.00     0.064 C 
HETATM    2  C2  UNL     1      -1.433  -0.856   0.923  1.00  0.00     0.101 C 
HETATM    3  N1  UNL     1      -2.013   0.443   1.071  1.00  0.00    -0.305 N 
ATOM      4  H1  UNL     1      -2.892   0.436   1.589  1.00  0.00     0.170 HD
HETATM    5  C3  UNL     1      -1.620   1.744   0.647  1.00  0.00     0.315 C 
HETATM    6  O1  UNL     1      -2.524   2.622   0.870  1.00  0.00    -0.262 OA
HETATM    7  C4  UNL     1      -0.432   2.312   0.020  1.00  0.00     0.315 C 
HETATM    8  O2  UNL     1      -0.525   3.541  -0.095  1.00  0.00    -0.262 OA
HETATM    9  N2  UNL     1       0.810   1.784  -0.491  1.00  0.00    -0.299 N 
ATOM     10  H2  UNL     1       1.431   2.515  -0.838  1.00  0.00     0.171 HD
HETATM   11  C5  UNL     1       1.375   0.476  -0.625  1.00  0.00     0.192 C 
HETATM   12  N3  UNL     1       2.637   0.473  -0.856  1.00  0.00    -0.287 N 
ATOM     13  H3  UNL     1       3.148   1.353  -0.929  1.00  0.00     0.188 HD
HETATM   14  C6  UNL     1       0.771  -0.847  -0.546  1.00  0.00     0.292 C 
HETATM   15  O3  UNL     1       1.340  -1.675  -1.304  1.00  0.00    -0.264 OA
HETATM   16  N5  UNL     1      -0.325  -1.385   0.209  1.00  0.00    -0.307 N 
ATOM     17  H5  UNL     1      -0.302  -2.404   0.241  1.00  0.00     0.170 HD
ENDROOT
BRANCH  12  18
HETATM   18  N4  UNL     1       3.301  -0.736  -1.006  1.00  0.00    -0.343 N 
ATOM     19  H42 UNL     1       2.775  -1.607  -0.930  1.00  0.00     0.176 HD
ATOM     20  H41 UNL     1       4.304  -0.738  -1.190  1.00  0.00     0.176 HD
ENDBRANCH  12  18
TORSDOF 1
