REMARK  1 active torsions:
REMARK  status: ('A' for Active; 'I' for Inactive)
REMARK       I    between atoms: C1_4  and  N2_5 
REMARK       I    between atoms: C1_4  and  N7_20 
REMARK    1  A    between atoms: N7_20  and  N8_22 
ROOT
HETATM    1  N1  UNL     1      -2.360   1.081   1.239  1.00  0.00    -0.233 N 
ATOM      2  H11 UNL     1      -3.193   1.658   1.121  1.00  0.00     0.174 HD
ATOM      3  H12 UNL     1      -1.621   1.425   1.852  1.00  0.00     0.174 HD
HETATM    4  C1  UNL     1      -2.202  -0.062   0.647  1.00  0.00     0.704 C 
HETATM    5  N2  UNL     1      -1.061  -0.852   0.809  1.00  0.00    -0.019 N 
ATOM      6  H2  UNL     1      -1.190  -1.783   1.204  1.00  0.00     0.203 HD
HETATM    7  C2  UNL     1       0.141  -0.503   0.501  1.00  0.00     0.726 C 
HETATM    8  N3  UNL     1       0.361   0.789  -0.054  1.00  0.00    -0.127 N 
ATOM      9  H3  UNL     1      -0.480   1.283  -0.352  1.00  0.00     0.205 HD
HETATM   10  N4  UNL     1       1.576   1.491  -0.254  1.00  0.00    -0.247 N 
ATOM     11  H4  UNL     1       1.505   2.499  -0.393  1.00  0.00     0.191 HD
HETATM   12  C3  UNL     1       2.885   0.932  -0.281  1.00  0.00     0.329 C 
HETATM   13  O1  UNL     1       3.839   1.736  -0.487  1.00  0.00    -0.261 OA
HETATM   14  C4  UNL     1       3.313  -0.458  -0.103  1.00  0.00     0.329 C 
HETATM   15  O2  UNL     1       4.470  -0.750  -0.504  1.00  0.00    -0.261 OA
HETATM   16  N5  UNL     1       2.523  -1.486   0.484  1.00  0.00    -0.247 N 
ATOM     17  H5  UNL     1       3.022  -2.338   0.740  1.00  0.00     0.191 HD
HETATM   18  N6  UNL     1       1.138  -1.479   0.758  1.00  0.00    -0.127 N 
ATOM     19  H6  UNL     1       0.795  -2.321   1.221  1.00  0.00     0.205 HD
HETATM   20  N7  UNL     1      -3.234  -0.542  -0.209  1.00  0.00    -0.139 N 
ATOM     21  H7  UNL     1      -3.418  -1.542  -0.295  1.00  0.00     0.205 HD
ENDROOT
BRANCH  20  22
HETATM   22  N8  UNL     1      -3.995   0.396  -0.934  1.00  0.00    -0.331 N 
ATOM     23  H82 UNL     1      -3.799   1.392  -0.837  1.00  0.00     0.177 HD
ATOM     24  H81 UNL     1      -4.734   0.052  -1.547  1.00  0.00     0.177 HD
ENDBRANCH  20  22
TORSDOF 1
