REMARK  17 active torsions:
REMARK  status: ('A' for Active; 'I' for Inactive)
REMARK    1  A    between atoms: C3_3  and  O1_4 
REMARK    2  A    between atoms: C6_8  and  O2_9 
REMARK    3  A    between atoms: C17_22  and  O4_23 
REMARK    4  A    between atoms: O4_23  and  C18_24 
REMARK    5  A    between atoms: C18_24  and  C19_25 
REMARK    6  A    between atoms: C19_25  and  C20_26 
REMARK    7  A    between atoms: C20_26  and  C21_27 
REMARK    8  A    between atoms: C21_27  and  C22_28 
REMARK    9  A    between atoms: C22_28  and  C23_29 
REMARK       I    between atoms: C23_29  and  N1_31 
REMARK   10  A    between atoms: N1_31  and  C24_33 
REMARK   11  A    between atoms: C24_33  and  C25_34 
REMARK   12  A    between atoms: C24_33  and  C32_44 
REMARK   13  A    between atoms: C25_34  and  C26_35 
REMARK   14  A    between atoms: C26_35  and  C27_36 
REMARK       I    between atoms: C27_36  and  N2_38 
REMARK   15  A    between atoms: N2_38  and  C29_40 
REMARK   16  A    between atoms: C29_40  and  C30_41 
REMARK   17  A    between atoms: C30_41  and  O7_42 
ROOT
HETATM    1  C32 UNL     1       5.346  -0.333   0.996  1.00  0.00     0.313 C 
HETATM    2  O8  UNL     1       4.117  -0.185   1.064  1.00  0.00    -0.255 OA
HETATM    3  N3  UNL     1       6.163  -0.528   2.120  1.00  0.00    -0.393 NA
HETATM    4  C33 UNL     1       6.936  -0.712   3.186  1.00  0.00     0.233 C 
ENDROOT
BRANCH   1   5
HETATM    5  C24 UNL     1       5.875  -0.289  -0.474  1.00  0.00     0.192 C 
BRANCH   5   6
HETATM    6  N1  UNL     1       4.599  -0.325  -1.236  1.00  0.00    -0.347 N 
HETATM    7  C23 UNL     1       3.885   0.871  -1.516  1.00  0.00     0.218 C 
HETATM    8  O5  UNL     1       4.345   1.945  -1.074  1.00  0.00    -0.274 OA
ATOM      9  H1  UNL     1       4.232  -1.219  -1.562  1.00  0.00     0.163 HD
BRANCH   7  10
HETATM   10  C22 UNL     1       2.650   0.911  -2.291  1.00  0.00     0.103 C 
BRANCH  10  11
HETATM   11  C21 UNL     1       1.668   1.998  -1.925  1.00  0.00     0.009 C 
BRANCH  11  12
HETATM   12  C20 UNL     1       1.143   1.773  -0.518  1.00  0.00     0.002 C 
BRANCH  12  13
HETATM   13  C19 UNL     1       0.103   2.866  -0.252  1.00  0.00     0.026 C 
BRANCH  13  14
HETATM   14  C18 UNL     1      -0.518   2.652   1.110  1.00  0.00     0.168 C 
BRANCH  14  15
HETATM   15  O4  UNL     1      -1.287   1.447   1.091  1.00  0.00    -0.378 OA
BRANCH  15  16
HETATM   16  C17 UNL     1      -2.397   1.645   0.326  1.00  0.00     0.192 C 
HETATM   17  C16 UNL     1      -2.624   0.729  -0.790  1.00  0.00     0.164 C 
HETATM   18  C14 UNL     1      -4.116   0.810  -1.132  1.00  0.00     0.024 C 
HETATM   19  O3  UNL     1      -1.848   0.026  -1.369  1.00  0.00    -0.294 OA
HETATM   20  C13 UNL     1      -4.522  -0.499  -1.653  1.00  0.00     0.018 C 
HETATM   21  C15 UNL     1      -4.178   1.817  -2.286  1.00  0.00     0.024 C 
HETATM   22  C35 UNL     1      -4.763   1.352   0.086  1.00  0.00     0.013 C 
HETATM   23  C12 UNL     1      -5.360  -1.301  -0.678  1.00  0.00     0.007 C 
HETATM   24  C11 UNL     1      -6.519  -0.362  -0.325  1.00  0.00     0.007 C 
HETATM   25  C9  UNL     1      -7.701  -1.107   0.180  1.00  0.00    -0.013 C 
HETATM   26  C36 UNL     1      -5.966   0.636   0.614  1.00  0.00     0.031 C 
HETATM   27  C4  UNL     1      -8.729  -0.170   0.664  1.00  0.00    -0.035 C 
HETATM   28  C8  UNL     1      -8.280  -1.914  -0.967  1.00  0.00     0.016 C 
HETATM   29  C10 UNL     1      -7.357  -2.009   1.354  1.00  0.00     0.020 C 
HETATM   30  C3  UNL     1      -8.388   1.080   1.078  1.00  0.00     0.074 C 
HETATM   31  C5  UNL     1     -10.150  -0.528   0.716  1.00  0.00     0.069 C 
HETATM   32  C2  UNL     1      -7.022   1.542   1.076  1.00  0.00    -0.029 C 
HETATM   33  C1  UNL     1      -6.802   2.758   1.523  1.00  0.00     0.022 C 
HETATM   34  C6  UNL     1     -10.649  -1.435  -0.357  1.00  0.00     0.122 C 
HETATM   35  C7  UNL     1      -9.614  -2.495  -0.719  1.00  0.00     0.033 C 
HETATM   36  C34 UNL     1      -3.689   1.434   1.160  1.00  0.00     0.046 C 
BRANCH  30  37
HETATM   37  O1  UNL     1      -9.432   1.918   1.504  1.00  0.00    -0.360 OA
ATOM     38  H1  UNL     1     -10.332   1.614   1.505  1.00  0.00     0.217 HD
ENDBRANCH  30  37
BRANCH  34  39
HETATM   39  O2  UNL     1     -11.755  -2.125   0.141  1.00  0.00    -0.395 OA
ATOM     40  H2  UNL     1     -12.073  -2.703  -0.543  1.00  0.00     0.210 HD
ENDBRANCH  34  39
ENDBRANCH  15  16
ENDBRANCH  14  15
ENDBRANCH  13  14
ENDBRANCH  12  13
ENDBRANCH  11  12
ENDBRANCH  10  11
ENDBRANCH   7  10
ENDBRANCH   5   6
BRANCH   5  41
HETATM   41  C25 UNL     1       6.542  -1.592  -0.709  1.00  0.00     0.045 C 
BRANCH  41  42
HETATM   42  C26 UNL     1       8.002  -1.649  -0.281  1.00  0.00     0.105 C 
BRANCH  42  43
HETATM   43  C27 UNL     1       8.762  -0.751  -1.217  1.00  0.00     0.219 C 
HETATM   44  O6  UNL     1       8.205  -0.546  -2.352  1.00  0.00    -0.273 OA
HETATM   45  N2  UNL     1       9.982  -0.192  -0.880  1.00  0.00    -0.354 N 
HETATM   46  C28 UNL     1      10.690   0.582  -1.922  1.00  0.00     0.152 C 
BRANCH  45  47
HETATM   47  C29 UNL     1      10.563  -0.275   0.439  1.00  0.00     0.151 C 
BRANCH  47  48
HETATM   48  C30 UNL     1      11.367  -1.525   0.614  1.00  0.00     0.186 C 
BRANCH  48  49
HETATM   49  O7  UNL     1      11.945  -1.621   1.868  1.00  0.00    -0.394 OA
HETATM   50  C31 UNL     1      12.826  -0.628   2.181  1.00  0.00     0.201 C 
ENDBRANCH  48  49
ENDBRANCH  47  48
ENDBRANCH  45  47
ENDBRANCH  42  43
ENDBRANCH  41  42
ENDBRANCH   5  41
ENDBRANCH   1   5
TORSDOF 16
