REMARK  2 active torsions:
REMARK  status: ('A' for Active; 'I' for Inactive)
REMARK    1  A    between atoms: C2_2  and  N1_4 
REMARK    2  A    between atoms: C4_6  and  C5_8 
ROOT
HETATM    1  N1  UNL     1       0.525   0.630   0.432  1.00  0.00    -0.352 N 
ATOM      2  H1  UNL     1       0.352   1.630   0.529  1.00  0.00     0.166 HD
HETATM    3  C4  UNL     1      -0.476  -0.160   0.410  1.00  0.00     0.100 C 
HETATM    4  N2  UNL     1      -0.276  -1.560   0.276  1.00  0.00    -0.087 NA
ENDROOT
BRANCH   3   5
HETATM    5  C5  UNL     1      -1.869   0.324   0.519  1.00  0.00     0.087 A 
HETATM    6  C6  UNL     1      -2.727  -0.025  -0.679  1.00  0.00     0.052 A 
HETATM    7  C7  UNL     1      -2.392   1.399  -0.327  1.00  0.00     0.182 A 
HETATM    8  F1  UNL     1      -1.586   2.133  -1.166  1.00  0.00    -0.249 F 
ENDBRANCH   3   5
BRANCH   1   9
HETATM    9  C2  UNL     1       1.849   0.191   0.330  1.00  0.00    -0.003 C 
HETATM   10  C1  UNL     1       2.445  -0.420   1.329  1.00  0.00     0.037 C 
HETATM   11  C3  UNL     1       2.615   0.406  -0.914  1.00  0.00     0.067 C 
ENDBRANCH   1   9
TORSDOF 2
