REMARK  2 active torsions:
REMARK  status: ('A' for Active; 'I' for Inactive)
REMARK    1  A    between atoms: N1_1  and  C1_4 
REMARK    2  A    between atoms: C3_8  and  N3_9 
ROOT
HETATM    1  C1  UNL     1      -1.624  -0.078  -0.061  1.00  0.00     0.678 A 
HETATM    2  N2  UNL     1      -0.972   1.092   0.083  1.00  0.00    -0.200 N 
ATOM      3  H2  UNL     1      -1.494   1.965   0.160  1.00  0.00     0.183 HD
HETATM    4  C2  UNL     1       0.371   1.102   0.124  1.00  0.00     0.148 A 
HETATM    5  C3  UNL     1       1.129  -0.047   0.026  1.00  0.00     0.186 A 
HETATM    6  C4  UNL     1       0.436  -1.239  -0.121  1.00  0.00     0.294 A 
HETATM    7  O3  UNL     1       1.068  -2.304  -0.214  1.00  0.00    -0.265 OA
HETATM    8  N4  UNL     1      -0.912  -1.216  -0.159  1.00  0.00    -0.154 N 
ATOM      9  H4  UNL     1      -1.413  -2.098  -0.267  1.00  0.00     0.187 HD
ENDROOT
BRANCH   1  10
HETATM   10  N1  UNL     1      -2.936  -0.125  -0.105  1.00  0.00    -0.234 N 
ATOM     11  H12 UNL     1      -3.476   0.737  -0.031  1.00  0.00     0.174 HD
ATOM     12  H11 UNL     1      -3.430  -1.011  -0.214  1.00  0.00     0.174 HD
ENDBRANCH   1  10
BRANCH   5  13
HETATM   13  N3  UNL     1       2.546   0.005   0.075  1.00  0.00    -0.108 N 
HETATM   14  O1  UNL     1       3.203  -0.830  -0.563  1.00  0.00    -0.532 OA
HETATM   15  O2  UNL     1       3.211   0.952   0.811  1.00  0.00    -0.532 OA
ENDBRANCH   5  13
TORSDOF 2
