REMARK  2 active torsions:
REMARK  status: ('A' for Active; 'I' for Inactive)
REMARK    1  A    between atoms: N1_1  and  C1_5 
REMARK    2  A    between atoms: C1_5  and  C2_6 
ROOT
HETATM    1  C2  UNL     1       0.269   0.347   0.056  1.00  0.00     0.106 C 
HETATM    2  C3  UNL     1      -0.186  -0.277  -1.225  1.00  0.00    -0.018 C 
HETATM    3  C4  UNL     1      -1.510  -0.209  -1.314  1.00  0.00    -0.024 C 
HETATM    4  C5  UNL     1      -2.054   0.465  -0.103  1.00  0.00     0.106 C 
HETATM    5  C6  UNL     1      -0.974   0.164   0.917  1.00  0.00     0.255 C 
HETATM    6  F1  UNL     1      -1.140  -1.137   1.320  1.00  0.00    -0.205 F 
HETATM    7  F2  UNL     1      -0.991   1.053   1.969  1.00  0.00    -0.205 F 
ENDROOT
BRANCH   1   8
HETATM    8  C1  UNL     1       1.462  -0.386   0.625  1.00  0.00     0.244 C 
BRANCH   8   9
HETATM    9  N1  UNL     1       2.522  -0.311  -0.364  1.00  0.00    -0.079 N 
ATOM     10  H13 UNL     1       2.239  -0.658  -1.280  1.00  0.00     0.274 HD
ATOM     11  H12 UNL     1       2.738   0.645  -0.647  1.00  0.00     0.274 HD
ATOM     12  H11 UNL     1       3.327  -0.806   0.020  1.00  0.00     0.274 HD
ENDBRANCH   8   9
ENDBRANCH   1   8
TORSDOF 2
