REMARK  6 active torsions:
REMARK  status: ('A' for Active; 'I' for Inactive)
REMARK    1  A    between atoms: C2_2  and  N1_4 
REMARK    2  A    between atoms: C2_2  and  C11_33 
REMARK    3  A    between atoms: N1_4  and  C4_6 
REMARK    4  A    between atoms: C5_9  and  N3_10 
REMARK    5  A    between atoms: C7_19  and  N8_20 
REMARK    6  A    between atoms: C10_27  and  N11_28 
ROOT
HETATM    1  C4  UNL     1      -1.007   0.341   0.284  1.00  0.00     0.682 A 
HETATM    2  N2  UNL     1       0.324   0.578   0.527  1.00  0.00    -0.174 N 
ATOM      3  H2  UNL     1       0.615   1.521   0.785  1.00  0.00     0.186 HD
HETATM    4  C5  UNL     1       1.253  -0.379   0.438  1.00  0.00     0.155 A 
HETATM    5  C7  UNL     1       0.892  -1.668   0.091  1.00  0.00     0.130 A 
HETATM    6  C10 UNL     1      -0.442  -1.883  -0.146  1.00  0.00     0.146 A 
HETATM    7  N12 UNL     1      -1.368  -0.904  -0.052  1.00  0.00    -0.175 N 
ATOM      8  H12 UNL     1      -2.349  -1.114  -0.238  1.00  0.00     0.186 HD
ENDROOT
BRANCH   4   9
HETATM    9  N3  UNL     1       2.607  -0.100   0.692  1.00  0.00    -0.310 N 
HETATM   10  C6  UNL     1       3.343   0.717   0.037  1.00  0.00     0.211 C 
HETATM   11  N4  UNL     1       4.708   1.042   0.241  1.00  0.00    -0.256 N 
HETATM   12  N7  UNL     1       2.939   1.502  -1.072  1.00  0.00    -0.256 N 
HETATM   13  N5  UNL     1       4.942   2.272  -0.374  1.00  0.00    -0.006 NA
ATOM     14  H4  UNL     1       5.393   0.479   0.745  1.00  0.00     0.187 HD
HETATM   15  N6  UNL     1       3.962   2.375  -1.355  1.00  0.00    -0.006 NA
ATOM     16  H7  UNL     1       2.051   1.432  -1.569  1.00  0.00     0.187 HD
ATOM     17  H3  UNL     1       3.043  -0.594   1.470  1.00  0.00     0.170 HD
ENDBRANCH   4   9
BRANCH   5  18
HETATM   18  N8  UNL     1       1.792  -2.751  -0.039  1.00  0.00    -0.295 N 
HETATM   19  C8  UNL     1       2.173  -3.620   0.913  1.00  0.00     0.206 A 
HETATM   20  N9  UNL     1       3.046  -4.514   0.397  1.00  0.00    -0.295 N 
HETATM   21  N10 UNL     1       3.215  -4.214  -0.863  1.00  0.00    -0.295 N 
ATOM     22  H9  UNL     1       3.491  -5.282   0.899  1.00  0.00     0.187 HD
HETATM   23  C9  UNL     1       2.456  -3.138  -1.149  1.00  0.00     0.206 A 
ATOM     24  H10 UNL     1       3.819  -4.710  -1.519  1.00  0.00     0.187 HD
ENDBRANCH   5  18
BRANCH   1  25
HETATM   25  N1  UNL     1      -1.831   1.278   0.378  1.00  0.00    -0.207 N 
ATOM     26  H1  UNL     1      -1.399   2.165   0.639  1.00  0.00     0.179 HD
BRANCH  25  27
HETATM   27  C2  UNL     1      -3.223   1.374   0.202  1.00  0.00     0.128 C 
HETATM   28  C1  UNL     1      -3.773   0.877  -1.096  1.00  0.00     0.050 C 
HETATM   29  C3  UNL     1      -3.710   2.826   0.370  1.00  0.00     0.050 C 
BRANCH  27  30
HETATM   30  C11 UNL     1      -3.898   0.624   1.322  1.00  0.00     0.202 C 
HETATM   31  O1  UNL     1      -3.231   0.044   2.223  1.00  0.00    -0.646 OA
HETATM   32  O2  UNL     1      -5.279   0.544   1.408  1.00  0.00    -0.646 OA
ENDBRANCH  27  30
ENDBRANCH  25  27
ENDBRANCH   1  25
BRANCH   6  33
HETATM   33  N11 UNL     1      -0.848  -3.058  -0.474  1.00  0.00    -0.383 N 
ATOM     34 2H11 UNL     1      -0.149  -3.797  -0.545  1.00  0.00     0.157 HD
ATOM     35 1H11 UNL     1      -1.840  -3.218  -0.650  1.00  0.00     0.157 HD
ENDBRANCH   6  33
TORSDOF 6
