REMARK  12 active torsions:
REMARK  status: ('A' for Active; 'I' for Inactive)
REMARK    1  A    between atoms: C2_2  and  N1_3 
REMARK    2  A    between atoms: N1_3  and  C3_4 
REMARK    3  A    between atoms: N1_3  and  C5_6 
REMARK    4  A    between atoms: C5_6  and  C6_7 
REMARK    5  A    between atoms: C6_7  and  N2_8 
REMARK    6  A    between atoms: N2_8  and  C7_10 
REMARK    7  A    between atoms: N5_21  and  C13_22 
REMARK    8  A    between atoms: C17_26  and  N6_27 
REMARK    9  A    between atoms: N6_27  and  C19_29 
REMARK   10  A    between atoms: C22_32  and  N7_33 
REMARK   11  A    between atoms: N7_33  and  C23_35 
REMARK   12  A    between atoms: C26_38  and  N8_39 
ROOT
HETATM    1  C13 UNL     1      -2.384  -0.934   0.037  1.00  0.00     0.111 C 
HETATM    2  C14 UNL     1      -2.370  -0.947  -1.497  1.00  0.00     0.026 C 
HETATM    3  C15 UNL     1      -1.365  -0.008  -2.060  1.00  0.00     0.004 C 
HETATM    4  C16 UNL     1      -0.485   0.518  -0.992  1.00  0.00     0.025 C 
HETATM    5  C17 UNL     1       0.106  -0.493  -0.066  1.00  0.00     0.085 C 
HETATM    6  C31 UNL     1      -1.038  -1.304   0.544  1.00  0.00     0.051 C 
ENDROOT
BRANCH   1   7
HETATM    7  N5  UNL     1      -3.449  -1.813   0.413  1.00  0.00    -0.161 N 
HETATM    8  C7  UNL     1      -4.660  -1.369   0.840  1.00  0.00     0.682 A 
HETATM    9  N3  UNL     1      -5.430  -2.424   1.107  1.00  0.00    -0.188 N 
HETATM   10  C8  UNL     1      -4.723  -3.547   0.854  1.00  0.00     0.095 A 
ATOM     11  H3  UNL     1      -6.392  -2.389   1.445  1.00  0.00     0.184 HD
HETATM   12  C9  UNL     1      -5.089  -4.893   0.972  1.00  0.00     0.054 A 
HETATM   13  C12 UNL     1      -3.487  -3.146   0.421  1.00  0.00     0.151 A 
HETATM   14  C10 UNL     1      -4.148  -5.830   0.633  1.00  0.00     0.028 A 
HETATM   15 BR1  UNL     1      -4.532  -7.717   0.754  1.00  0.00    -0.050 Br
HETATM   16  C11 UNL     1      -2.930  -5.376   0.207  1.00  0.00     0.109 A 
HETATM   17  N4  UNL     1      -2.582  -4.090   0.094  1.00  0.00    -0.349 N 
ATOM     18  H4  UNL     1      -1.652  -3.829  -0.233  1.00  0.00     0.167 HD
BRANCH   8  19
HETATM   19  N2  UNL     1      -5.043  -0.122   0.964  1.00  0.00    -0.224 N 
ATOM     20  H2  UNL     1      -4.414   0.651   0.747  1.00  0.00     0.177 HD
BRANCH  19  21
HETATM   21  C6  UNL     1      -6.399   0.113   1.422  1.00  0.00     0.168 C 
BRANCH  21  22
HETATM   22  C5  UNL     1      -6.850   1.522   1.247  1.00  0.00     0.292 C 
BRANCH  22  23
HETATM   23  N1  UNL     1      -6.786   1.915  -0.121  1.00  0.00     0.089 N 
BRANCH  23  24
HETATM   24  C2  UNL     1      -7.753   1.221  -0.905  1.00  0.00     0.268 C 
HETATM   25  C1  UNL     1      -7.579   1.496  -2.394  1.00  0.00     0.037 C 
ENDBRANCH  23  24
BRANCH  23  26
HETATM   26  C3  UNL     1      -6.986   3.363  -0.151  1.00  0.00     0.268 C 
HETATM   27  C4  UNL     1      -8.270   3.753   0.573  1.00  0.00     0.037 C 
ENDBRANCH  23  26
ENDBRANCH  22  23
ENDBRANCH  21  22
ENDBRANCH  19  21
ENDBRANCH   8  19
ENDBRANCH   1   7
BRANCH   5  28
HETATM   28  N6  UNL     1       1.200  -1.252  -0.457  1.00  0.00    -0.387 N 
HETATM   29  C18 UNL     1       1.164  -2.173  -1.515  1.00  0.00     0.149 C 
BRANCH  28  30
HETATM   30  C19 UNL     1       2.524  -0.890  -0.166  1.00  0.00    -0.015 C 
HETATM   31  C20 UNL     1       2.919  -0.777   1.290  1.00  0.00     0.058 C 
HETATM   32  C21 UNL     1       4.450  -0.467   1.217  1.00  0.00     0.057 C 
HETATM   33  C22 UNL     1       4.533   0.976   0.910  1.00  0.00    -0.017 C 
HETATM   34  C29 UNL     1       3.627   1.384  -0.252  1.00  0.00     0.057 C 
HETATM   35  C30 UNL     1       3.156   0.181  -1.014  1.00  0.00     0.058 C 
BRANCH  33  36
HETATM   36  N7  UNL     1       5.719   1.669   0.861  1.00  0.00    -0.392 N 
ATOM     37  H7  UNL     1       5.810   2.420   1.545  1.00  0.00     0.159 HD
BRANCH  36  38
HETATM   38  C23 UNL     1       6.795   1.504   0.033  1.00  0.00     0.081 C 
HETATM   39  C24 UNL     1       7.540   0.216   0.213  1.00  0.00     0.027 C 
HETATM   40  C25 UNL     1       8.415  -0.006  -1.017  1.00  0.00     0.035 C 
HETATM   41  C26 UNL     1       9.426   1.117  -1.041  1.00  0.00     0.183 C 
HETATM   42  C27 UNL     1       8.817   2.480  -0.931  1.00  0.00     0.035 C 
HETATM   43  C28 UNL     1       7.853   2.616   0.234  1.00  0.00     0.027 C 
BRANCH  41  44
HETATM   44  N8  UNL     1      10.382   0.866  -0.004  1.00  0.00    -0.075 N 
ATOM     45  H83 UNL     1       9.950   0.742   0.912  1.00  0.00     0.274 HD
ATOM     46  H82 UNL     1      10.812  -0.056  -0.077  1.00  0.00     0.274 HD
ATOM     47  H81 UNL     1      11.064   1.624  -0.020  1.00  0.00     0.274 HD
ENDBRANCH  41  44
ENDBRANCH  36  38
ENDBRANCH  33  36
ENDBRANCH  28  30
ENDBRANCH   5  28
TORSDOF 12
