REMARK  7 active torsions:
REMARK  status: ('A' for Active; 'I' for Inactive)
REMARK    1  A    between atoms: C4_4  and  C5_5 
REMARK    2  A    between atoms: C8_8  and  C9_9 
REMARK    3  A    between atoms: C9_9  and  C10_10 
REMARK    4  A    between atoms: C9_9  and  C19_29 
REMARK    5  A    between atoms: C10_10  and  N1_11 
REMARK    6  A    between atoms: N1_11  and  C11_13 
REMARK    7  A    between atoms: C13_15  and  C14_16 
ROOT
HETATM    1  C19 UNL     1       0.114  -2.754   0.457  1.00  0.00    -0.048 A 
HETATM    2  C20 UNL     1       0.430  -2.960  -0.871  1.00  0.00     0.009 A 
HETATM    3  C21 UNL     1       0.343  -4.208  -1.452  1.00  0.00     0.023 A 
HETATM    4  C22 UNL     1      -0.067  -5.321  -0.730  1.00  0.00     0.044 A 
HETATM    5  C23 UNL     1      -0.157  -6.616  -1.330  1.00  0.00     0.099 C 
HETATM    6  N5  UNL     1      -0.219  -7.658  -1.830  1.00  0.00    -0.191 NA
HETATM    7  C24 UNL     1      -0.380  -5.102   0.594  1.00  0.00     0.023 A 
HETATM    8  C25 UNL     1      -0.294  -3.857   1.177  1.00  0.00     0.009 A 
ENDROOT
BRANCH   1   9
HETATM    9  C9  UNL     1       0.201  -1.420   1.093  1.00  0.00     0.069 C 
BRANCH   9  10
HETATM   10  C8  UNL     1      -1.060  -0.648   1.009  1.00  0.00    -0.048 A 
HETATM   11  C7  UNL     1      -1.346   0.116  -0.104  1.00  0.00     0.009 A 
HETATM   12  C6  UNL     1      -2.534   0.813  -0.125  1.00  0.00     0.013 A 
HETATM   13  C5  UNL     1      -3.469   0.811   0.884  1.00  0.00    -0.023 A 
HETATM   14  C27 UNL     1      -3.167   0.041   1.992  1.00  0.00     0.013 A 
HETATM   15  C26 UNL     1      -1.991  -0.674   2.058  1.00  0.00     0.009 A 
BRANCH  13  16
HETATM   16  C4  UNL     1      -4.716   1.579   0.797  1.00  0.00     0.006 A 
HETATM   17  C3  UNL     1      -5.995   1.227   1.096  1.00  0.00     0.047 A 
HETATM   18  C2  UNL     1      -6.778   2.321   0.833  1.00  0.00     0.050 A 
HETATM   19  C1  UNL     1      -8.255   2.409   1.010  1.00  0.00     0.076 C 
HETATM   20  O2  UNL     1      -6.007   3.265   0.403  1.00  0.00    -0.319 OA
HETATM   21  C28 UNL     1      -4.753   2.895   0.354  1.00  0.00     0.060 A 
HETATM   22  C29 UNL     1      -3.652   3.761  -0.096  1.00  0.00     0.077 C 
ENDBRANCH  13  16
ENDBRANCH   9  10
BRANCH   9  23
HETATM   23  C10 UNL     1       1.415  -0.650   0.665  1.00  0.00     0.134 C 
BRANCH  23  24
HETATM   24  N1  UNL     1       2.626  -1.416   0.756  1.00  0.00    -0.388 N 
ATOM     25  H1  UNL     1       2.569  -2.379   1.089  1.00  0.00     0.159 HD
BRANCH  24  26
HETATM   26  C11 UNL     1       3.884  -0.901   0.408  1.00  0.00     0.051 A 
HETATM   27  C12 UNL     1       3.993   0.392  -0.044  1.00  0.00     0.046 A 
HETATM   28  C13 UNL     1       5.239   0.916  -0.393  1.00  0.00     0.012 A 
HETATM   29  C16 UNL     1       6.382   0.147  -0.291  1.00  0.00     0.017 A 
HETATM   30  C17 UNL     1       6.268  -1.145   0.161  1.00  0.00     0.027 A 
HETATM   31  C18 UNL     1       5.034  -1.650   0.502  1.00  0.00     0.060 A 
HETATM   32 CL1  UNL     1       4.935  -3.315   1.079  1.00  0.00    -0.082 Cl
BRANCH  28  33
HETATM   33  C14 UNL     1       5.346   2.289  -0.872  1.00  0.00     0.134 A 
HETATM   34  N2  UNL     1       6.480   2.911  -1.239  1.00  0.00    -0.281 N 
HETATM   35  N3  UNL     1       6.225   4.142  -1.620  1.00  0.00    -0.250 N 
ATOM     36  H2  UNL     1       7.408   2.487  -1.224  1.00  0.00     0.188 HD
HETATM   37  C15 UNL     1       4.898   4.318  -1.496  1.00  0.00     0.340 A 
ATOM     38  H3  UNL     1       6.903   4.831  -1.947  1.00  0.00     0.192 HD
HETATM   39  O1  UNL     1       4.265   5.382  -1.769  1.00  0.00    -0.245 OA
HETATM   40  N4  UNL     1       4.349   3.187  -1.038  1.00  0.00    -0.292 N 
ATOM     41  H4  UNL     1       3.359   3.031  -0.849  1.00  0.00     0.172 HD
ENDBRANCH  28  33
ENDBRANCH  24  26
ENDBRANCH  23  24
ENDBRANCH   9  23
ENDBRANCH   1   9
TORSDOF 7
