REMARK  6 active torsions:
REMARK  status: ('A' for Active; 'I' for Inactive)
REMARK    1  A    between atoms: N1_1  and  C1_5 
REMARK    2  A    between atoms: C1_5  and  C2_6 
REMARK    3  A    between atoms: C2_6  and  C3_7 
REMARK    4  A    between atoms: C3_7  and  C4_8 
REMARK    5  A    between atoms: C6_10  and  N2_11 
REMARK    6  A    between atoms: N2_11  and  C7_13 
ROOT
HETATM    1  C4  UNL     1      -0.453  -1.087  -0.415  1.00  0.00     0.011 A 
HETATM    2  C5  UNL     1       0.557  -1.260  -1.503  1.00  0.00     0.032 A 
HETATM    3  C6  UNL     1       0.848  -0.330  -0.352  1.00  0.00     0.104 A 
ENDROOT
BRANCH   3   4
HETATM    4  N2  UNL     1       1.788  -0.745   0.664  1.00  0.00    -0.220 N 
ATOM      5  H2  UNL     1       1.481  -1.355   1.422  1.00  0.00     0.178 HD
BRANCH   4   6
HETATM    6  C7  UNL     1       3.031  -0.341   0.614  1.00  0.00     0.694 A 
HETATM    7  N3  UNL     1       4.006  -0.643   1.481  1.00  0.00    -0.185 N 
HETATM    8  C8  UNL     1       5.118  -0.020   1.052  1.00  0.00     0.215 A 
ATOM      9  H3  UNL     1       3.921  -1.233   2.309  1.00  0.00     0.185 HD
HETATM   10  N4  UNL     1       4.832   0.661  -0.070  1.00  0.00    -0.281 N 
HETATM   11  N5  UNL     1       3.557   0.454  -0.323  1.00  0.00    -0.131 N 
ATOM     12  H4  UNL     1       5.478   1.228  -0.619  1.00  0.00     0.188 HD
ATOM     13  H5  UNL     1       3.046   0.842  -1.116  1.00  0.00     0.205 HD
ENDBRANCH   4   6
ENDBRANCH   3   4
BRANCH   1  14
HETATM   14  C3  UNL     1      -1.647  -0.259  -0.777  1.00  0.00     0.008 C 
BRANCH  14  15
HETATM   15  C2  UNL     1      -2.635  -0.116   0.359  1.00  0.00     0.028 C 
BRANCH  15  16
HETATM   16  C1  UNL     1      -3.773   0.751  -0.194  1.00  0.00     0.229 C 
BRANCH  16  17
HETATM   17  N1  UNL     1      -4.800   0.981   0.771  1.00  0.00    -0.079 N 
ATOM     18  H13 UNL     1      -5.156   0.102   1.146  1.00  0.00     0.274 HD
ATOM     19  H12 UNL     1      -4.417   1.380   1.628  1.00  0.00     0.274 HD
ATOM     20  H11 UNL     1      -5.557   1.558   0.403  1.00  0.00     0.274 HD
ENDBRANCH  16  17
ENDBRANCH  15  16
ENDBRANCH  14  15
ENDBRANCH   1  14
TORSDOF 6
