REMARK  7 active torsions:
REMARK  status: ('A' for Active; 'I' for Inactive)
REMARK    1  A    between atoms: C3_3  and  C4_4 
REMARK    2  A    between atoms: C4_4  and  O1_7 
REMARK    3  A    between atoms: C7_9  and  C8_10 
REMARK    4  A    between atoms: C8_10  and  C9_11 
REMARK    5  A    between atoms: C9_11  and  C10_12 
REMARK    6  A    between atoms: C16_19  and  O3_20 
REMARK    7  A    between atoms: O3_20  and  C17_21 
ROOT
HETATM    1  C1  UNL     1      -3.916  -0.288   0.029  1.00  0.00     0.046 C 
HETATM    2  C2  UNL     1      -2.542   0.198  -0.142  1.00  0.00    -0.044 C 
HETATM    3  C3  UNL     1      -1.420  -0.490  -0.006  1.00  0.00    -0.008 C 
HETATM    4  C7  UNL     1      -0.185   0.310  -0.257  1.00  0.00     0.090 C 
HETATM    5  C14 UNL     1      -0.337   0.947  -1.588  1.00  0.00     0.078 C 
HETATM    6  C15 UNL     1      -1.009   1.984  -0.713  1.00  0.00     0.160 C 
HETATM    7  O2  UNL     1      -0.367   1.533   0.434  1.00  0.00    -0.367 OA
HETATM    8  C16 UNL     1      -2.457   1.673  -0.522  1.00  0.00     0.193 C 
ENDROOT
BRANCH   4   9
HETATM    9  C8  UNL     1       1.108  -0.262   0.152  1.00  0.00     0.044 C 
BRANCH   9  10
HETATM   10  C9  UNL     1       2.214   0.742  -0.218  1.00  0.00     0.011 C 
BRANCH  10  11
HETATM   11  C10 UNL     1       3.548   0.133   0.228  1.00  0.00    -0.051 C 
HETATM   12  C11 UNL     1       4.679   1.051  -0.097  1.00  0.00     0.014 C 
HETATM   13  C12 UNL     1       3.433  -0.217   1.678  1.00  0.00     0.014 C 
HETATM   14  C13 UNL     1       3.725  -1.138  -0.569  1.00  0.00     0.014 C 
ENDBRANCH  10  11
ENDBRANCH   9  10
ENDBRANCH   4   9
BRANCH   3  15
HETATM   15  C4  UNL     1      -1.420  -1.905   0.353  1.00  0.00     0.077 C 
HETATM   16  C5  UNL     1      -0.740  -2.787  -0.674  1.00  0.00     0.050 C 
HETATM   17  C6  UNL     1      -0.664  -2.181   1.669  1.00  0.00     0.050 C 
BRANCH  15  18
HETATM   18  O1  UNL     1      -2.692  -2.422   0.537  1.00  0.00    -0.386 OA
ATOM     19  H1  UNL     1      -2.692  -3.343   0.771  1.00  0.00     0.211 HD
ENDBRANCH  15  18
ENDBRANCH   3  15
BRANCH   8  20
HETATM   20  O3  UNL     1      -2.965   2.362   0.616  1.00  0.00    -0.283 OA
BRANCH  20  21
HETATM   21  C17 UNL     1      -4.042   3.201   0.610  1.00  0.00     0.333 C 
HETATM   22  O4  UNL     1      -4.651   3.399  -0.471  1.00  0.00    -0.624 OA
HETATM   23  O5  UNL     1      -4.525   3.864   1.729  1.00  0.00    -0.624 OA
ENDBRANCH  20  21
ENDBRANCH   8  20
TORSDOF 7
