REMARK  6 active torsions:
REMARK  status: ('A' for Active; 'I' for Inactive)
REMARK    1  A    between atoms: O1_2  and  C2_3 
REMARK    2  A    between atoms: C2_3  and  C3_4 
REMARK    3  A    between atoms: C7_8  and  O2_9 
REMARK    4  A    between atoms: O2_9  and  C8_10 
REMARK    5  A    between atoms: C8_10  and  C9_12 
REMARK    6  A    between atoms: C16_20  and  O5_21 
ROOT
HETATM    1  C2  UNL     1      -1.370   0.097   0.371  1.00  0.00     0.122 C 
HETATM    2  C7  UNL     1      -0.046   0.763   0.676  1.00  0.00     0.172 C 
HETATM    3  C13 UNL     1      -0.109   2.273   0.483  1.00  0.00     0.075 C 
HETATM    4  C14 UNL     1      -0.658   2.632  -0.881  1.00  0.00     0.197 C 
HETATM    5  O4  UNL     1      -1.157   1.465  -1.514  1.00  0.00    -0.367 OA
HETATM    6  C15 UNL     1      -2.101   1.015  -0.598  1.00  0.00     0.196 C 
HETATM    7  C16 UNL     1      -2.745   2.199   0.021  1.00  0.00     0.222 C 
HETATM    8  C17 UNL     1      -1.953   3.322  -0.618  1.00  0.00     0.186 C 
HETATM    9  O6  UNL     1      -2.296   4.454  -0.842  1.00  0.00    -0.292 OA
ENDROOT
BRANCH   2  10
HETATM   10  O2  UNL     1       1.078   0.319  -0.009  1.00  0.00    -0.312 OA
BRANCH  10  11
HETATM   11  C8  UNL     1       2.261  -0.080   0.598  1.00  0.00     0.267 C 
HETATM   12  O3  UNL     1       2.242  -0.010   1.875  1.00  0.00    -0.264 OA
BRANCH  11  13
HETATM   13  C9  UNL     1       3.468  -0.549  -0.079  1.00  0.00     0.037 C 
HETATM   14  C10 UNL     1       3.304  -1.799  -0.884  1.00  0.00     0.025 C 
HETATM   15  C11 UNL     1       4.081   0.522  -0.973  1.00  0.00     0.025 C 
HETATM   16  C12 UNL     1       4.527  -0.843   0.973  1.00  0.00     0.025 C 
ENDBRANCH  11  13
ENDBRANCH  10  11
ENDBRANCH   2  10
BRANCH   1  17
HETATM   17  O1  UNL     1      -1.981   0.003   1.575  1.00  0.00    -0.379 OA
HETATM   18  C1  UNL     1      -3.183  -0.409   1.869  1.00  0.00     0.202 C 
ENDBRANCH   1  17
BRANCH   1  19
HETATM   19  C3  UNL     1      -1.258  -1.253  -0.253  1.00  0.00    -0.015 C 
HETATM   20  C4  UNL     1      -0.434  -2.172   0.663  1.00  0.00     0.018 C 
HETATM   21  C5  UNL     1      -0.650  -1.284  -1.632  1.00  0.00     0.018 C 
HETATM   22  C6  UNL     1      -2.583  -1.960  -0.437  1.00  0.00     0.018 C 
ENDBRANCH   1  19
BRANCH   7  23
HETATM   23  O5  UNL     1      -4.053   2.419  -0.417  1.00  0.00    -0.385 OA
ATOM     24  H5  UNL     1      -4.465   3.177  -0.021  1.00  0.00     0.210 HD
ENDBRANCH   7  23
TORSDOF 6
