REMARK  14 active torsions:
REMARK  status: ('A' for Active; 'I' for Inactive)
REMARK    1  A    between atoms: C2_2  and  C3_3 
REMARK    2  A    between atoms: C3_3  and  C4_4 
REMARK    3  A    between atoms: C4_4  and  C5_5 
REMARK    4  A    between atoms: C5_5  and  C6_6 
REMARK    5  A    between atoms: C6_6  and  C7_7 
REMARK    6  A    between atoms: C7_7  and  C8_8 
REMARK    7  A    between atoms: C8_8  and  N1_10 
REMARK    8  A    between atoms: N1_10  and  C10_12 
REMARK    9  A    between atoms: C13_15  and  C14_16 
REMARK   10  A    between atoms: C14_16  and  C15_17 
REMARK   11  A    between atoms: C15_17  and  N2_18 
REMARK   12  A    between atoms: C21_24  and  O1_25 
REMARK   13  A    between atoms: C23_28  and  N3_29 
REMARK   14  A    between atoms: C24_34  and  C25_35 
ROOT
HETATM    1  N2  UNL     1      -1.876   0.176  -0.085  1.00  0.00     0.088 N 
HETATM    2  C16 UNL     1      -2.236  -0.812  -1.039  1.00  0.00     0.273 C 
HETATM    3  C17 UNL     1      -3.778  -0.904  -0.963  1.00  0.00     0.044 C 
HETATM    4  C18 UNL     1      -4.320   0.308  -1.626  1.00  0.00     0.013 C 
HETATM    5  C19 UNL     1      -3.249   1.421  -1.685  1.00  0.00     0.044 C 
HETATM    6  C20 UNL     1      -2.603   1.415  -0.327  1.00  0.00     0.273 C 
HETATM    7  C21 UNL     1      -4.959   0.121  -2.973  1.00  0.00     0.131 C 
HETATM    8  C22 UNL     1      -5.929   1.247  -2.604  1.00  0.00     0.062 C 
HETATM    9  C23 UNL     1      -5.580   0.921  -1.140  1.00  0.00     0.142 C 
ENDROOT
BRANCH   1  10
HETATM   10  C15 UNL     1      -0.493   0.401   0.159  1.00  0.00     0.272 C 
BRANCH  10  11
HETATM   11  C14 UNL     1       0.221   1.066  -0.972  1.00  0.00     0.034 C 
BRANCH  11  12
HETATM   12  C13 UNL     1       1.694   1.290  -0.672  1.00  0.00    -0.013 C 
HETATM   13  C12 UNL     1       2.465   0.025  -0.447  1.00  0.00     0.007 C 
HETATM   14  C11 UNL     1       3.770   0.484   0.298  1.00  0.00     0.025 C 
HETATM   15  C10 UNL     1       3.317   0.590   1.724  1.00  0.00     0.077 C 
HETATM   16  C30 UNL     1       2.202   1.670   1.795  1.00  0.00     0.025 C 
HETATM   17  C29 UNL     1       1.859   2.256   0.488  1.00  0.00     0.007 C 
BRANCH  15  18
HETATM   18  N1  UNL     1       4.271   0.897   2.654  1.00  0.00    -0.413 N 
ATOM     19  H1  UNL     1       4.107   1.780   3.138  1.00  0.00     0.153 HD
BRANCH  18  20
HETATM   20  C8  UNL     1       5.402   0.247   3.059  1.00  0.00     0.072 C 
HETATM   21  C9  UNL     1       5.338  -1.109   3.671  1.00  0.00     0.031 C 
BRANCH  20  22
HETATM   22  C7  UNL     1       6.480   0.197   1.951  1.00  0.00     0.024 C 
BRANCH  22  23
HETATM   23  C6  UNL     1       7.811  -0.117   2.533  1.00  0.00     0.002 C 
BRANCH  23  24
HETATM   24  C5  UNL     1       8.932  -0.024   1.590  1.00  0.00     0.000 C 
BRANCH  24  25
HETATM   25  C4  UNL     1       8.993  -0.818   0.361  1.00  0.00     0.000 C 
BRANCH  25  26
HETATM   26  C3  UNL     1       8.021  -0.607  -0.729  1.00  0.00    -0.000 C 
BRANCH  26  27
HETATM   27  C2  UNL     1       8.354  -1.558  -1.919  1.00  0.00    -0.005 C 
HETATM   28  C1  UNL     1       9.769  -1.207  -2.388  1.00  0.00     0.005 C 
ENDBRANCH  26  27
ENDBRANCH  25  26
ENDBRANCH  24  25
ENDBRANCH  23  24
ENDBRANCH  22  23
ENDBRANCH  20  22
ENDBRANCH  18  20
ENDBRANCH  15  18
ENDBRANCH  11  12
ENDBRANCH  10  11
ENDBRANCH   1  10
BRANCH   7  29
HETATM   29  O1  UNL     1      -5.534  -1.105  -3.202  1.00  0.00    -0.395 OA
ATOM     30  H1  UNL     1      -5.938  -1.223  -4.054  1.00  0.00     0.210 HD
ENDBRANCH   7  29
BRANCH   9  31
HETATM   31  N3  UNL     1      -6.618   0.091  -0.593  1.00  0.00    -0.212 N 
HETATM   32  N4  UNL     1      -6.490  -1.049   0.019  1.00  0.00    -0.224 N 
HETATM   33  N5  UNL     1      -7.688  -1.512   0.400  1.00  0.00    -0.271 N 
ATOM     34  H4  UNL     1      -5.603  -1.524   0.186  1.00  0.00     0.210 HD
HETATM   35  C24 UNL     1      -8.598  -0.625   0.009  1.00  0.00     0.120 A 
ATOM     36  H5  UNL     1      -7.869  -2.384   0.898  1.00  0.00     0.190 HD
HETATM   37  N6  UNL     1      -7.937   0.360  -0.602  1.00  0.00    -0.269 N 
ATOM     38  H6  UNL     1      -8.365   1.190  -1.013  1.00  0.00     0.190 HD
BRANCH  35  39
HETATM   39  C25 UNL     1     -10.088  -0.725   0.225  1.00  0.00     0.010 C 
HETATM   40  C26 UNL     1     -10.433  -1.894   1.084  1.00  0.00     0.023 C 
HETATM   41  C27 UNL     1     -10.692  -0.817  -1.165  1.00  0.00     0.023 C 
HETATM   42  C28 UNL     1     -10.518   0.607   0.821  1.00  0.00     0.023 C 
ENDBRANCH  35  39
ENDBRANCH   9  31
TORSDOF 14
