REMARK  14 active torsions:
REMARK  status: ('A' for Active; 'I' for Inactive)
REMARK    1  A    between atoms: C2_2  and  O2_4 
REMARK    2  A    between atoms: O2_4  and  C3_5 
REMARK    3  A    between atoms: C3_5  and  C4_6 
REMARK    4  A    between atoms: C4_6  and  N1_7 
REMARK    5  A    between atoms: N1_7  and  C5_9 
REMARK    6  A    between atoms: C5_9  and  C6_10 
REMARK    7  A    between atoms: C6_10  and  C7_11 
REMARK    8  A    between atoms: C7_11  and  C8_12 
REMARK    9  A    between atoms: C17_21  and  C18_22 
REMARK   10  A    between atoms: C18_22  and  N2_23 
REMARK   11  A    between atoms: C20_25  and  C21_26 
REMARK   12  A    between atoms: C21_26  and  S1_27 
REMARK   13  A    between atoms: S1_27  and  C22_28 
REMARK   14  A    between atoms: C22_28  and  C23_29 
ROOT
HETATM    1  C5  UNL     1      -2.394   1.234   0.102  1.00  0.00     0.029 C 
HETATM    2  C14 UNL     1      -2.025   1.618   1.492  1.00  0.00     0.031 C 
HETATM    3  C15 UNL     1      -0.729   1.037   2.009  1.00  0.00     0.003 C 
HETATM    4  C16 UNL     1       0.361   1.342   1.014  1.00  0.00     0.006 C 
HETATM    5  C17 UNL     1       0.015   0.498  -0.215  1.00  0.00     0.008 C 
HETATM    6  C29 UNL     1      -1.180   1.147  -0.816  1.00  0.00     0.037 C 
ENDROOT
BRANCH   5   7
HETATM    7  C18 UNL     1       1.126   0.614  -1.227  1.00  0.00     0.154 C 
BRANCH   7   8
HETATM    8  N2  UNL     1       2.409   0.185  -0.800  1.00  0.00    -0.287 N 
HETATM    9  C19 UNL     1       3.395   0.892  -0.226  1.00  0.00     0.138 A 
HETATM   10  C20 UNL     1       4.462   0.052   0.017  1.00  0.00     0.053 A 
HETATM   11  N3  UNL     1       4.073  -1.146  -0.425  1.00  0.00    -0.288 N 
HETATM   12  N4  UNL     1       2.861  -1.067  -0.907  1.00  0.00    -0.241 N 
ATOM     13  H3  UNL     1       4.637  -1.995  -0.392  1.00  0.00     0.188 HD
ATOM     14  H4  UNL     1       2.338  -1.846  -1.306  1.00  0.00     0.208 HD
BRANCH  10  15
HETATM   15  C21 UNL     1       5.773   0.354   0.623  1.00  0.00     0.134 C 
BRANCH  15  16
HETATM   16  S1  UNL     1       7.019   0.833  -0.562  1.00  0.00    -0.158 SA
BRANCH  16  17
HETATM   17  C22 UNL     1       7.509  -0.552  -1.604  1.00  0.00     0.112 C 
BRANCH  17  18
HETATM   18  C23 UNL     1       8.272  -1.579  -0.848  1.00  0.00    -0.049 A 
HETATM   19  C24 UNL     1       7.665  -2.625  -0.240  1.00  0.00     0.008 A 
HETATM   20  C25 UNL     1       8.407  -3.552   0.451  1.00  0.00     0.001 A 
HETATM   21  C26 UNL     1       9.766  -3.406   0.518  1.00  0.00     0.000 A 
HETATM   22  C27 UNL     1      10.428  -2.347  -0.092  1.00  0.00     0.001 A 
HETATM   23  C28 UNL     1       9.650  -1.443  -0.773  1.00  0.00     0.008 A 
ENDBRANCH  17  18
ENDBRANCH  16  17
ENDBRANCH  15  16
ENDBRANCH  10  15
ENDBRANCH   7   8
ENDBRANCH   5   7
BRANCH   1  24
HETATM   24  N1  UNL     1      -3.223   2.195  -0.505  1.00  0.00    -0.391 N 
ATOM     25  H1  UNL     1      -2.877   2.632  -1.359  1.00  0.00     0.159 HD
BRANCH  24  26
HETATM   26  C4  UNL     1      -4.456   2.598  -0.052  1.00  0.00     0.083 C 
BRANCH  26  27
HETATM   27  C3  UNL     1      -4.612   3.426   1.167  1.00  0.00     0.222 C 
BRANCH  27  28
HETATM   28  O2  UNL     1      -3.985   4.668   1.170  1.00  0.00    -0.317 OA
BRANCH  28  29
HETATM   29  C2  UNL     1      -4.216   5.716   0.315  1.00  0.00     0.255 C 
HETATM   30  C1  UNL     1      -3.435   7.001   0.462  1.00  0.00     0.126 C 
HETATM   31  O1  UNL     1      -5.077   5.581  -0.577  1.00  0.00    -0.266 OA
ENDBRANCH  28  29
ENDBRANCH  27  28
ENDBRANCH  26  27
ENDBRANCH  24  26
ENDBRANCH   1  24
BRANCH   1  32
HETATM   32  C6  UNL     1      -2.999  -0.151   0.172  1.00  0.00     0.031 C 
BRANCH  32  33
HETATM   33  C7  UNL     1      -3.345  -0.758  -1.138  1.00  0.00     0.007 C 
BRANCH  33  34
HETATM   34  C8  UNL     1      -3.979  -2.126  -0.974  1.00  0.00    -0.014 C 
HETATM   35  C9  UNL     1      -3.059  -3.080  -0.273  1.00  0.00     0.004 C 
HETATM   36  C10 UNL     1      -3.704  -4.445  -0.168  1.00  0.00     0.000 C 
HETATM   37  C11 UNL     1      -5.027  -4.291   0.538  1.00  0.00     0.000 C 
HETATM   38  C12 UNL     1      -5.936  -3.428  -0.306  1.00  0.00     0.000 C 
HETATM   39  C13 UNL     1      -5.350  -2.048  -0.366  1.00  0.00     0.004 C 
ENDBRANCH  33  34
ENDBRANCH  32  33
ENDBRANCH   1  32
TORSDOF 14
