REMARK  8 active torsions:
REMARK  status: ('A' for Active; 'I' for Inactive)
REMARK    1  A    between atoms: N1_1  and  C1_5 
REMARK    2  A    between atoms: C1_5  and  C2_6 
REMARK    3  A    between atoms: C2_6  and  C3_7 
REMARK    4  A    between atoms: C3_7  and  C4_8 
REMARK    5  A    between atoms: C4_8  and  N2_9 
REMARK    6  A    between atoms: N2_9  and  C5_11 
REMARK    7  A    between atoms: N4_16  and  C8_17 
REMARK    8  A    between atoms: N5_18  and  N6_20 
ROOT
HETATM    1  C5  UNL     1      -1.495  -1.192  -0.482  1.00  0.00     0.677 A 
HETATM    2  N3  UNL     1      -1.556  -2.445  -0.759  1.00  0.00    -0.225 N 
ATOM      3  H3  UNL     1      -0.777  -2.990  -1.130  1.00  0.00     0.177 HD
HETATM    4  C6  UNL     1      -2.869  -2.987  -0.479  1.00  0.00     0.159 A 
HETATM    5  C7  UNL     1      -3.679  -1.847   0.059  1.00  0.00     0.168 A 
HETATM    6  N4  UNL     1      -2.747  -0.748   0.011  1.00  0.00    -0.177 N 
ENDROOT
BRANCH   1   7
HETATM    7  N2  UNL     1      -0.344  -0.373  -0.647  1.00  0.00    -0.226 N 
ATOM      8  H2  UNL     1      -0.392   0.441  -1.259  1.00  0.00     0.177 HD
BRANCH   7   9
HETATM    9  C4  UNL     1       0.911  -0.679   0.048  1.00  0.00     0.138 C 
BRANCH   9  10
HETATM   10  C3  UNL     1       1.975   0.329  -0.288  1.00  0.00     0.022 C 
BRANCH  10  11
HETATM   11  C2  UNL     1       3.225  -0.058   0.465  1.00  0.00     0.029 C 
BRANCH  11  12
HETATM   12  C1  UNL     1       4.368   0.891   0.202  1.00  0.00     0.229 C 
BRANCH  12  13
HETATM   13  N1  UNL     1       4.064   2.239   0.588  1.00  0.00    -0.079 N 
ATOM     14  H13 UNL     1       3.207   2.564   0.141  1.00  0.00     0.274 HD
ATOM     15  H12 UNL     1       3.767   2.283   1.563  1.00  0.00     0.274 HD
ATOM     16  H11 UNL     1       4.837   2.881   0.410  1.00  0.00     0.274 HD
ENDBRANCH  12  13
ENDBRANCH  11  12
ENDBRANCH  10  11
ENDBRANCH   9  10
ENDBRANCH   7   9
ENDBRANCH   1   7
BRANCH   6  17
HETATM   17  C8  UNL     1      -3.089   0.583   0.417  1.00  0.00     0.216 C 
HETATM   18  N5  UNL     1      -2.348   1.545  -0.016  1.00  0.00    -0.302 N 
ATOM     19  H5  UNL     1      -1.553   1.344  -0.623  1.00  0.00     0.187 HD
BRANCH  18  20
HETATM   20  N6  UNL     1      -2.634   2.854   0.345  1.00  0.00    -0.344 N 
ATOM     21  H62 UNL     1      -3.433   3.038   0.952  1.00  0.00     0.176 HD
ATOM     22  H61 UNL     1      -2.048   3.615   0.002  1.00  0.00     0.176 HD
ENDBRANCH  18  20
ENDBRANCH   6  17
TORSDOF 8
