REMARK  7 active torsions:
REMARK  status: ('A' for Active; 'I' for Inactive)
REMARK    1  A    between atoms: C2_2  and  O2_4 
REMARK    2  A    between atoms: O2_4  and  C3_5 
REMARK    3  A    between atoms: C11_14  and  C13_16 
REMARK    4  A    between atoms: C18_21  and  C19_22 
REMARK    5  A    between atoms: C19_22  and  C20_23 
REMARK    6  A    between atoms: C23_28  and  O6_29 
REMARK    7  A    between atoms: O6_29  and  O7_30 
ROOT
HETATM    1  C3  UNL     1       3.799   0.965   1.258  1.00  0.00     0.139 C 
HETATM    2  C4  UNL     1       4.434  -0.393   1.575  1.00  0.00     0.111 C 
HETATM    3  C5  UNL     1       3.442  -1.447   1.130  1.00  0.00     0.134 C 
HETATM    4  O3  UNL     1       3.241  -2.435   1.776  1.00  0.00    -0.297 OA
HETATM    5  C6  UNL     1       2.764  -1.120  -0.168  1.00  0.00     0.060 C 
HETATM    6  C7  UNL     1       2.047  -2.325  -0.636  1.00  0.00     0.013 C 
HETATM    7  C8  UNL     1       1.204  -2.060  -1.865  1.00  0.00     0.006 C 
HETATM    8  C9  UNL     1       0.860  -0.598  -1.897  1.00  0.00    -0.010 C 
HETATM    9  C10 UNL     1       0.073  -0.222  -3.126  1.00  0.00     0.011 C 
HETATM   10  C11 UNL     1       0.546   0.079  -0.614  1.00  0.00    -0.030 C 
HETATM   11  C12 UNL     1       0.236   1.534  -0.986  1.00  0.00     0.016 C 
HETATM   12  C24 UNL     1       1.962   0.140  -0.014  1.00  0.00     0.008 C 
HETATM   13  C25 UNL     1       2.261   0.765   1.238  1.00  0.00     0.039 C 
ENDROOT
BRANCH  10  14
HETATM   14  C13 UNL     1      -0.455  -0.397   0.320  1.00  0.00     0.033 C 
HETATM   15  C14 UNL     1      -0.768   0.568   1.425  1.00  0.00     0.009 C 
HETATM   16  C15 UNL     1      -2.009   0.108   2.140  1.00  0.00     0.013 C 
HETATM   17  C16 UNL     1      -2.677  -0.775   1.172  1.00  0.00    -0.005 C 
HETATM   18  C17 UNL     1      -3.182  -2.019   1.916  1.00  0.00     0.019 C 
HETATM   19  C18 UNL     1      -3.896  -0.116   0.630  1.00  0.00     0.007 C 
HETATM   20  C23 UNL     1      -1.719  -1.090   0.038  1.00  0.00     0.108 C 
HETATM   21  C21 UNL     1      -4.042  -0.854  -0.681  1.00  0.00     0.009 C 
HETATM   22  C22 UNL     1      -2.584  -0.825  -1.102  1.00  0.00     0.043 C 
BRANCH  19  23
HETATM   23  C19 UNL     1      -3.884   1.338   0.397  1.00  0.00     0.118 C 
BRANCH  23  24
HETATM   24  C20 UNL     1      -5.193   1.850  -0.134  1.00  0.00     0.172 C 
HETATM   25  O4  UNL     1      -6.178   1.131  -0.284  1.00  0.00    -0.648 OA
HETATM   26  O5  UNL     1      -5.277   3.197  -0.465  1.00  0.00    -0.648 OA
ENDBRANCH  23  24
ENDBRANCH  19  23
BRANCH  20  27
HETATM   27  O6  UNL     1      -1.525  -2.474   0.058  1.00  0.00    -0.231 OA
BRANCH  27  28
HETATM   28  O7  UNL     1      -2.495  -3.236  -0.223  1.00  0.00    -0.250 OA
ATOM     29  H7  UNL     1      -2.363  -4.177  -0.209  1.00  0.00     0.253 HD
ENDBRANCH  27  28
ENDBRANCH  20  27
ENDBRANCH  10  14
BRANCH   1  30
HETATM   30  O2  UNL     1       4.191   1.487   0.031  1.00  0.00    -0.316 OA
BRANCH  30  31
HETATM   31  C2  UNL     1       4.830   2.693  -0.122  1.00  0.00     0.255 C 
HETATM   32  C1  UNL     1       5.199   3.145  -1.487  1.00  0.00     0.126 C 
HETATM   33  O1  UNL     1       5.074   3.362   0.908  1.00  0.00    -0.266 OA
ENDBRANCH  30  31
ENDBRANCH   1  30
TORSDOF 7
