REMARK  5 active torsions:
REMARK  status: ('A' for Active; 'I' for Inactive)
REMARK    1  A    between atoms: N1_1  and  C1_4 
REMARK    2  A    between atoms: N3_7  and  O1_8 
REMARK    3  A    between atoms: C3_13  and  C4_14 
REMARK    4  A    between atoms: C4_14  and  C5_15 
REMARK    5  A    between atoms: C5_15  and  N5_16 
ROOT
HETATM    1  C1  UNL     1       1.271   0.392   0.533  1.00  0.00     0.124 A 
HETATM    2  N2  UNL     1       2.516  -0.120   0.429  1.00  0.00    -0.243 N 
ATOM      3  H2  UNL     1       3.226   0.104   1.127  1.00  0.00     0.192 HD
HETATM    4  N3  UNL     1       2.804  -0.911  -0.582  1.00  0.00    -0.094 N 
HETATM    5  N4  UNL     1       1.948  -1.250  -1.522  1.00  0.00    -0.270 N 
ATOM      6  H4  UNL     1       2.225  -1.868  -2.285  1.00  0.00     0.190 HD
HETATM    7  C2  UNL     1       0.690  -0.757  -1.449  1.00  0.00     0.122 A 
HETATM    8  C3  UNL     1       0.303   0.080  -0.424  1.00  0.00     0.005 A 
ENDROOT
BRANCH   8   9
HETATM    9  C4  UNL     1      -1.073   0.620  -0.328  1.00  0.00     0.071 C 
BRANCH   9  10
HETATM   10  C5  UNL     1      -1.856  -0.159   0.728  1.00  0.00     0.234 C 
BRANCH  10  11
HETATM   11  N5  UNL     1      -3.190   0.330   0.856  1.00  0.00    -0.079 N 
ATOM     12  H53 UNL     1      -3.204   1.332   1.045  1.00  0.00     0.274 HD
ATOM     13  H52 UNL     1      -3.674   0.332  -0.042  1.00  0.00     0.274 HD
ATOM     14  H51 UNL     1      -3.713  -0.190   1.561  1.00  0.00     0.274 HD
ENDBRANCH  10  11
ENDBRANCH   9  10
ENDBRANCH   8   9
BRANCH   1  15
HETATM   15  N1  UNL     1       0.904   1.171   1.477  1.00  0.00    -0.384 N 
ATOM     16  H12 UNL     1       1.611   1.399   2.176  1.00  0.00     0.157 HD
ATOM     17  H11 UNL     1      -0.037   1.558   1.556  1.00  0.00     0.157 HD
ENDBRANCH   1  15
BRANCH   4  18
HETATM   18  O1  UNL     1       4.073  -1.421  -0.669  1.00  0.00    -0.253 OA
ATOM     19  H1  UNL     1       4.281  -1.992  -1.399  1.00  0.00     0.248 HD
ENDBRANCH   4  18
TORSDOF 5
