REMARK  9 active torsions:
REMARK  status: ('A' for Active; 'I' for Inactive)
REMARK    1  A    between atoms: C3_5  and  N2_6 
REMARK    2  A    between atoms: C5_13  and  C6_14 
REMARK    3  A    between atoms: C6_14  and  N4_15 
REMARK    4  A    between atoms: N4_15  and  C7_17 
REMARK    5  A    between atoms: C8_20  and  N6_21 
REMARK    6  A    between atoms: N6_21  and  O2_23 
REMARK    7  A    between atoms: C10_27  and  N8_28 
REMARK    8  A    between atoms: N8_28  and  C12_31 
REMARK    9  A    between atoms: C12_31  and  O3_32 
ROOT
HETATM    1  N8  UNL     1       3.163  -1.527   1.628  1.00  0.00    -0.093 N 
HETATM    2  C11 UNL     1       2.647  -1.636   2.923  1.00  0.00     0.201 C 
HETATM    3  N9  UNL     1       2.249  -1.718   4.004  1.00  0.00    -0.171 NA
ENDROOT
BRANCH   1   4
HETATM    4  C10 UNL     1       2.527  -0.628   0.739  1.00  0.00     0.724 A 
HETATM    5  N7  UNL     1       3.182   0.283   0.003  1.00  0.00    -0.018 N 
HETATM    6  C8  UNL     1       2.525   1.102  -0.889  1.00  0.00     0.732 A 
ATOM      7  H7  UNL     1       4.193   0.371   0.107  1.00  0.00     0.203 HD
HETATM    8  N5  UNL     1       1.211   0.957  -0.978  1.00  0.00    -0.019 N 
HETATM    9  C7  UNL     1       0.471   0.071  -0.265  1.00  0.00     0.711 A 
ATOM     10  H5  UNL     1       0.716   1.560  -1.635  1.00  0.00     0.203 HD
HETATM   11  N10 UNL     1       1.200  -0.715   0.594  1.00  0.00    -0.020 N 
ATOM     12  H10 UNL     1       0.700  -1.405   1.154  1.00  0.00     0.203 HD
BRANCH   6  13
HETATM   13  N6  UNL     1       3.170   2.117  -1.643  1.00  0.00    -0.094 N 
HETATM   14  C9  UNL     1       2.353   3.166  -2.182  1.00  0.00     0.205 C 
BRANCH  13  15
HETATM   15  O2  UNL     1       4.483   2.098  -1.844  1.00  0.00    -0.274 OA
ATOM     16  H2  UNL     1       4.915   2.777  -2.349  1.00  0.00     0.245 HD
ENDBRANCH  13  15
ENDBRANCH   6  13
BRANCH   9  17
HETATM   17  N4  UNL     1      -0.733  -0.098  -0.401  1.00  0.00    -0.200 N 
ATOM     18  H4  UNL     1      -1.041  -0.822   0.249  1.00  0.00     0.183 HD
BRANCH  17  19
HETATM   19  C6  UNL     1      -1.833   0.351  -1.132  1.00  0.00     0.125 C 
BRANCH  19  20
HETATM   20  C5  UNL     1      -3.034   0.267  -0.222  1.00  0.00     0.071 A 
HETATM   21  C2  UNL     1      -3.618  -0.984  -0.266  1.00  0.00     0.040 A 
HETATM   22  C1  UNL     1      -2.948  -2.071  -1.028  1.00  0.00     0.070 C 
HETATM   23  N1  UNL     1      -4.732  -1.215   0.431  1.00  0.00    -0.195 N 
HETATM   24  C3  UNL     1      -5.287  -0.213   1.183  1.00  0.00     0.679 A 
ATOM     25  H1  UNL     1      -5.170  -2.136   0.404  1.00  0.00     0.184 HD
HETATM   26  N3  UNL     1      -4.712   0.992   1.208  1.00  0.00    -0.156 N 
HETATM   27  C4  UNL     1      -3.557   1.297   0.511  1.00  0.00     0.273 A 
ATOM     28  H3  UNL     1      -5.147   1.724   1.769  1.00  0.00     0.187 HD
HETATM   29  O1  UNL     1      -3.030   2.400   0.534  1.00  0.00    -0.267 OA
BRANCH  24  30
HETATM   30  N2  UNL     1      -6.398  -0.461   1.864  1.00  0.00    -0.234 N 
ATOM     31  H22 UNL     1      -6.837  -1.381   1.845  1.00  0.00     0.174 HD
ATOM     32  H21 UNL     1      -6.811   0.285   2.424  1.00  0.00     0.174 HD
ENDBRANCH  24  30
ENDBRANCH  19  20
ENDBRANCH  17  19
ENDBRANCH   9  17
ENDBRANCH   1   4
BRANCH   1  33
HETATM   33  C12 UNL     1       4.344  -2.302   1.281  1.00  0.00     0.325 C 
BRANCH  33  34
HETATM   34  O3  UNL     1       5.520  -1.608   1.460  1.00  0.00    -0.380 OA
ATOM     35  H3  UNL     1       6.291  -2.114   1.233  1.00  0.00     0.211 HD
ENDBRANCH  33  34
ENDBRANCH   1  33
TORSDOF 9
