REMARK  3 active torsions:
REMARK  status: ('A' for Active; 'I' for Inactive)
REMARK    1  A    between atoms: C2_2  and  C3_3 
REMARK       I    between atoms: N2_6  and  C4_7 
REMARK       I    between atoms: C4_7  and  N4_12 
REMARK    2  A    between atoms: N3_8  and  O1_10 
REMARK    3  A    between atoms: C5_15  and  N5_16 
ROOT
HETATM    1  C3  UNL     1       2.059   0.623  -0.499  1.00  0.00     0.095 A 
HETATM    2  N1  UNL     1       1.216   1.565  -0.276  1.00  0.00    -0.269 N 
ATOM      3  H1  UNL     1       1.472   2.529  -0.061  1.00  0.00     0.189 HD
HETATM    4  N2  UNL     1      -0.092   1.101  -0.366  1.00  0.00    -0.078 N 
HETATM    5  C4  UNL     1      -1.238   1.893  -0.150  1.00  0.00     0.728 C 
HETATM    6  N3  UNL     1      -1.281   2.686   0.891  1.00  0.00    -0.096 N 
ATOM      7  H3  UNL     1      -0.479   2.707   1.520  1.00  0.00     0.213 HD
HETATM    8  N4  UNL     1      -2.372   1.896  -0.993  1.00  0.00    -0.150 N 
ATOM      9  H4  UNL     1      -2.983   1.080  -0.983  1.00  0.00     0.193 HD
HETATM   10  S1  UNL     1      -2.784   3.231  -2.056  1.00  0.00     0.058 SA
HETATM   11  C5  UNL     1      -0.051  -0.278  -0.705  1.00  0.00     0.336 A 
HETATM   12  N8  UNL     1       1.364  -0.601  -0.769  1.00  0.00    -0.339 N 
ATOM     13  H8  UNL     1       1.778  -1.512  -0.966  1.00  0.00     0.164 HD
ENDROOT
BRANCH  11  14
HETATM   14  N5  UNL     1      -0.646  -1.149   0.270  1.00  0.00    -0.314 N 
HETATM   15  C6  UNL     1      -0.342  -1.389   1.647  1.00  0.00     0.149 C 
HETATM   16  C7  UNL     1      -1.662  -1.939   2.197  1.00  0.00     0.142 C 
HETATM   17  N6  UNL     1      -2.315  -2.430   1.026  1.00  0.00    -0.363 N 
HETATM   18  C8  UNL     1      -1.749  -1.991  -0.034  1.00  0.00     0.189 C 
ATOM     19  H6  UNL     1      -3.126  -3.049   1.034  1.00  0.00     0.162 HD
HETATM   20  N7  UNL     1      -2.206  -2.331  -1.372  1.00  0.00    -0.064 NA
ENDBRANCH  11  14
BRANCH   1  21
HETATM   21  C2  UNL     1       3.537   0.705  -0.498  1.00  0.00     0.073 C 
HETATM   22  C1  UNL     1       4.167  -0.205   0.525  1.00  0.00     0.013 C 
ENDBRANCH   1  21
BRANCH   6  23
HETATM   23  O1  UNL     1      -2.344   3.480   1.170  1.00  0.00    -0.276 OA
ATOM     24  H1  UNL     1      -2.375   4.055   1.925  1.00  0.00     0.245 HD
ENDBRANCH   6  23
TORSDOF 3
