REMARK  7 active torsions:
REMARK  status: ('A' for Active; 'I' for Inactive)
REMARK    1  A    between atoms: N1_1  and  C1_4 
REMARK    2  A    between atoms: C2_7  and  N3_8 
REMARK    3  A    between atoms: N5_18  and  C6_19 
REMARK    4  A    between atoms: C6_19  and  O3_20 
REMARK    5  A    between atoms: O3_20  and  C7_21 
REMARK    6  A    between atoms: C7_21  and  C8_22 
REMARK    7  A    between atoms: C8_22  and  N6_23 
ROOT
HETATM    1  C1  UNL     1      -3.195   1.390  -0.687  1.00  0.00     0.679 A 
HETATM    2  N2  UNL     1      -4.066   0.473  -1.136  1.00  0.00    -0.176 N 
ATOM      3  H2  UNL     1      -4.844   0.777  -1.721  1.00  0.00     0.186 HD
HETATM    4  C2  UNL     1      -3.948  -0.827  -0.842  1.00  0.00     0.134 A 
HETATM    5  C3  UNL     1      -2.889  -1.199  -0.052  1.00  0.00     0.121 A 
HETATM    6  C4  UNL     1      -2.755  -2.521   0.290  1.00  0.00     0.267 A 
HETATM    7  O1  UNL     1      -3.595  -3.370  -0.147  1.00  0.00    -0.267 OA
HETATM    8  N4  UNL     1      -1.728  -2.848   1.081  1.00  0.00    -0.274 N 
ATOM      9  H4  UNL     1      -1.606  -3.824   1.352  1.00  0.00     0.173 HD
HETATM   10  C5  UNL     1      -0.852  -1.935   1.530  1.00  0.00     0.332 A 
HETATM   11  O2  UNL     1       0.080  -2.345   2.270  1.00  0.00    -0.246 OA
HETATM   12  N5  UNL     1      -0.940  -0.605   1.217  1.00  0.00    -0.262 N 
HETATM   13  C10 UNL     1      -1.966  -0.260   0.427  1.00  0.00     0.148 A 
HETATM   14  N9  UNL     1      -2.166   1.008   0.083  1.00  0.00    -0.175 N 
ATOM     15  H9  UNL     1      -1.513   1.717   0.417  1.00  0.00     0.186 HD
ENDROOT
BRANCH  12  16
HETATM   16  C6  UNL     1       0.036   0.258   1.782  1.00  0.00     0.305 C 
BRANCH  16  17
HETATM   17  O3  UNL     1       1.218   0.216   1.090  1.00  0.00    -0.370 OA
BRANCH  17  18
HETATM   18  C7  UNL     1       1.134   0.544  -0.229  1.00  0.00     0.189 C 
BRANCH  18  19
HETATM   19  C8  UNL     1       2.496   0.483  -0.919  1.00  0.00     0.148 C 
BRANCH  19  20
HETATM   20  N6  UNL     1       3.423   1.385  -0.318  1.00  0.00    -0.365 N 
HETATM   21  C9  UNL     1       4.643   1.052  -0.165  1.00  0.00     0.197 C 
HETATM   22  N7  UNL     1       5.094  -0.212  -0.588  1.00  0.00    -0.067 NA
HETATM   23  N8  UNL     1       5.549   1.951   0.430  1.00  0.00    -0.067 NA
ATOM     24  H6  UNL     1       3.107   2.304  -0.008  1.00  0.00     0.161 HD
ENDBRANCH  19  20
ENDBRANCH  18  19
ENDBRANCH  17  18
ENDBRANCH  16  17
ENDBRANCH  12  16
BRANCH   4  25
HETATM   25  N3  UNL     1      -4.772  -1.717  -1.262  1.00  0.00    -0.384 N 
ATOM     26  H32 UNL     1      -5.559  -1.441  -1.849  1.00  0.00     0.157 HD
ATOM     27  H31 UNL     1      -4.682  -2.708  -1.038  1.00  0.00     0.157 HD
ENDBRANCH   4  25
BRANCH   1  28
HETATM   28  N1  UNL     1      -3.332   2.649  -0.987  1.00  0.00    -0.234 N 
ATOM     29  H12 UNL     1      -4.115   2.940  -1.573  1.00  0.00     0.174 HD
ATOM     30  H11 UNL     1      -2.670   3.346  -0.646  1.00  0.00     0.174 HD
ENDBRANCH   1  28
TORSDOF 7
