REMARK  6 active torsions:
REMARK  status: ('A' for Active; 'I' for Inactive)
REMARK    1  A    between atoms: N3_4  and  C2_6 
REMARK    2  A    between atoms: C2_6  and  C3_7 
REMARK    3  A    between atoms: C3_7  and  C4_8 
REMARK    4  A    between atoms: C4_8  and  N4_9 
REMARK    5  A    between atoms: C8_17  and  S1_18 
REMARK    6  A    between atoms: S1_18  and  N7_19 
ROOT
HETATM    1  N4  UNL     1      -0.096  -0.421   0.876  1.00  0.00    -0.376 N 
ATOM      2  H4  UNL     1      -0.296   0.124   1.715  1.00  0.00     0.161 HD
HETATM    3  C5  UNL     1      -1.095  -0.736   0.167  1.00  0.00     0.106 A 
HETATM    4  C6  UNL     1      -1.067  -1.461  -0.997  1.00  0.00     0.093 A 
HETATM    5  C7  UNL     1      -2.225  -1.749  -1.693  1.00  0.00     0.121 A 
HETATM    6  N5  UNL     1      -2.188  -2.495  -2.890  1.00  0.00    -0.083 NA
HETATM    7  N6  UNL     1      -3.398  -1.292  -1.192  1.00  0.00    -0.320 N 
ATOM      8  H6  UNL     1      -4.264  -1.493  -1.691  1.00  0.00     0.169 HD
HETATM    9  C8  UNL     1      -3.448  -0.579  -0.052  1.00  0.00     0.226 A 
HETATM   10  N8  UNL     1      -2.317  -0.322   0.591  1.00  0.00    -0.318 N 
ATOM     11  H8  UNL     1      -2.368   0.218   1.455  1.00  0.00     0.169 HD
ENDROOT
BRANCH   1  12
HETATM   12  C4  UNL     1       1.273  -0.734   0.646  1.00  0.00     0.123 C 
BRANCH  12  13
HETATM   13  C3  UNL     1       2.024   0.563   0.379  1.00  0.00     0.039 C 
BRANCH  13  14
HETATM   14  C2  UNL     1       3.465   0.200   0.140  1.00  0.00     0.123 C 
BRANCH  14  15
HETATM   15  N3  UNL     1       4.288   1.359  -0.128  1.00  0.00    -0.367 N 
HETATM   16  C1  UNL     1       4.679   2.077   0.854  1.00  0.00     0.196 C 
HETATM   17  N1  UNL     1       4.320   1.757   2.181  1.00  0.00    -0.067 NA
HETATM   18  N2  UNL     1       5.483   3.210   0.602  1.00  0.00    -0.067 NA
ATOM     19  H3  UNL     1       4.551   1.599  -1.084  1.00  0.00     0.161 HD
ENDBRANCH  14  15
ENDBRANCH  13  14
ENDBRANCH  12  13
ENDBRANCH   1  12
BRANCH   9  20
HETATM   20  S1  UNL     1      -5.013  -0.012   0.549  1.00  0.00     0.289 S 
HETATM   21  O1  UNL     1      -4.975   1.495   0.711  1.00  0.00    -0.198 OA
HETATM   22  O2  UNL     1      -5.167  -0.595   1.925  1.00  0.00    -0.198 OA
BRANCH  20  23
HETATM   23  N7  UNL     1      -6.266  -0.510  -0.506  1.00  0.00    -0.322 N 
ATOM     24  H72 UNL     1      -6.116  -1.055  -1.355  1.00  0.00     0.169 HD
ATOM     25  H71 UNL     1      -7.168  -0.183  -0.160  1.00  0.00     0.169 HD
ENDBRANCH  20  23
ENDBRANCH   9  20
TORSDOF 6
