REMARK  9 active torsions:
REMARK  status: ('A' for Active; 'I' for Inactive)
REMARK    1  A    between atoms: N1_1  and  C1_4 
REMARK    2  A    between atoms: C4_11  and  C5_12 
REMARK    3  A    between atoms: C5_12  and  O1_13 
REMARK    4  A    between atoms: N4_17  and  C8_18 
REMARK    5  A    between atoms: C8_18  and  C9_19 
REMARK    6  A    between atoms: C9_19  and  C10_20 
REMARK       I    between atoms: C10_20  and  N5_22 
REMARK    7  A    between atoms: N5_22  and  C11_24 
REMARK    8  A    between atoms: C11_24  and  C12_25 
REMARK    9  A    between atoms: C12_25  and  N6_26 
ROOT
HETATM    1  C5  UNL     1      -2.683   0.244  -0.551  1.00  0.00     0.176 C 
HETATM    2  C6  UNL     1      -2.013  -0.478  -1.710  1.00  0.00     0.079 C 
HETATM    3  C7  UNL     1      -0.647   0.183  -1.610  1.00  0.00     0.114 C 
HETATM    4  N4  UNL     1      -0.495   0.476  -0.234  1.00  0.00    -0.231 NA
HETATM    5  N7  UNL     1      -1.655   0.162   0.441  1.00  0.00    -0.121 NA
ENDROOT
BRANCH   1   6
HETATM    6  C4  UNL     1      -4.012  -0.154  -0.222  1.00  0.00     0.053 A 
HETATM    7  C1  UNL     1      -4.392  -1.425   0.211  1.00  0.00     0.111 A 
HETATM    8  N2  UNL     1      -5.664  -1.723   0.501  1.00  0.00    -0.338 N 
HETATM    9  C2  UNL     1      -6.626  -0.812   0.387  1.00  0.00     0.181 A 
ATOM     10  H2  UNL     1      -5.900  -2.665   0.815  1.00  0.00     0.168 HD
HETATM   11  N3  UNL     1      -6.328   0.411  -0.019  1.00  0.00    -0.361 N 
HETATM   12  C3  UNL     1      -5.065   0.743  -0.317  1.00  0.00     0.104 A 
ATOM     13  H3  UNL     1      -7.067   1.108  -0.106  1.00  0.00     0.166 HD
BRANCH   7  14
HETATM   14  N1  UNL     1      -3.507  -2.318   0.332  1.00  0.00    -0.385 N 
ATOM     15  H12 UNL     1      -3.785  -3.247   0.648  1.00  0.00     0.157 HD
ATOM     16  H11 UNL     1      -2.537  -2.091   0.111  1.00  0.00     0.157 HD
ENDBRANCH   7  14
ENDBRANCH   1   6
BRANCH   1  17
HETATM   17  O1  UNL     1      -2.681   1.606  -0.950  1.00  0.00    -0.368 OA
ATOM     18  H1  UNL     1      -1.795   1.871  -1.169  1.00  0.00     0.212 HD
ENDBRANCH   1  17
BRANCH   4  19
HETATM   19  C8  UNL     1       0.726   0.107   0.388  1.00  0.00     0.119 C 
BRANCH  19  20
HETATM   20  C9  UNL     1       1.903   0.922  -0.104  1.00  0.00     0.118 C 
BRANCH  20  21
HETATM   21  C10 UNL     1       3.163   0.524   0.554  1.00  0.00     0.218 C 
HETATM   22  O2  UNL     1       3.146  -0.403   1.386  1.00  0.00    -0.274 OA
HETATM   23  N5  UNL     1       4.359   1.182   0.246  1.00  0.00    -0.359 N 
ATOM     24  H5  UNL     1       4.338   1.939  -0.437  1.00  0.00     0.162 HD
BRANCH  23  25
HETATM   25  C11 UNL     1       5.610   0.838   0.849  1.00  0.00     0.150 C 
BRANCH  25  26
HETATM   26  C12 UNL     1       6.030  -0.566   0.559  1.00  0.00     0.249 C 
BRANCH  26  27
HETATM   27  N6  UNL     1       7.319  -0.784   1.230  1.00  0.00    -0.078 N 
ATOM     28  H63 UNL     1       8.025  -0.095   0.971  1.00  0.00     0.274 HD
ATOM     29  H62 UNL     1       7.290  -0.574   2.228  1.00  0.00     0.274 HD
ATOM     30  H61 UNL     1       7.606  -1.743   1.032  1.00  0.00     0.274 HD
ENDBRANCH  26  27
ENDBRANCH  25  26
ENDBRANCH  23  25
ENDBRANCH  20  21
ENDBRANCH  19  20
ENDBRANCH   4  19
TORSDOF 9
