REMARK  9 active torsions:
REMARK  status: ('A' for Active; 'I' for Inactive)
REMARK    1  A    between atoms: C5_5  and  C6_6 
REMARK    2  A    between atoms: C6_6  and  C7_7 
REMARK    3  A    between atoms: C7_7  and  C8_8 
REMARK    4  A    between atoms: C8_8  and  C9_9 
REMARK    5  A    between atoms: N4_18  and  C11_19 
REMARK    6  A    between atoms: C11_19  and  O1_20 
REMARK    7  A    between atoms: O1_20  and  C12_21 
REMARK    8  A    between atoms: C12_21  and  O2_22 
REMARK    9  A    between atoms: C14_26  and  C15_27 
ROOT
HETATM    1  C9  UNL     1       2.497  -0.961  -0.619  1.00  0.00     0.117 A 
HETATM    2  N1  UNL     1       2.710  -1.792   0.405  1.00  0.00    -0.274 N 
ATOM      3  H1  UNL     1       2.172  -2.634   0.610  1.00  0.00     0.189 HD
HETATM    4  N2  UNL     1       3.735  -1.341   1.109  1.00  0.00    -0.131 N 
ATOM      5  H2  UNL     1       4.117  -1.778   1.948  1.00  0.00     0.205 HD
HETATM    6  C10 UNL     1       4.195  -0.204   0.535  1.00  0.00     0.695 A 
HETATM    7  N3  UNL     1       5.206   0.511   0.950  1.00  0.00    -0.233 N 
ATOM      8  H31 UNL     1       5.552   1.367   0.518  1.00  0.00     0.174 HD
ATOM      9  H32 UNL     1       5.788   0.325   1.767  1.00  0.00     0.174 HD
HETATM   10  N4  UNL     1       3.444   0.036  -0.520  1.00  0.00    -0.148 N 
ENDROOT
BRANCH   1  11
HETATM   11  C8  UNL     1       1.456  -1.008  -1.690  1.00  0.00     0.082 C 
BRANCH  11  12
HETATM   12  C7  UNL     1       0.426  -2.052  -1.474  1.00  0.00     0.037 C 
BRANCH  12  13
HETATM   13  C6  UNL     1      -0.367  -1.773  -0.223  1.00  0.00     0.003 C 
BRANCH  13  14
HETATM   14  C5  UNL     1      -1.423  -0.941  -0.275  1.00  0.00     0.030 A 
HETATM   15  C4  UNL     1      -1.719  -0.379  -1.510  1.00  0.00     0.030 A 
HETATM   16  C3  UNL     1      -2.755   0.505  -1.631  1.00  0.00     0.015 A 
HETATM   17  C2  UNL     1      -3.514   0.839  -0.489  1.00  0.00    -0.013 A 
HETATM   18  C1  UNL     1      -4.477   1.709  -0.642  1.00  0.00     0.026 C 
HETATM   19  C14 UNL     1      -3.178   0.256   0.695  1.00  0.00     0.109 A 
HETATM   20  N5  UNL     1      -2.135  -0.633   0.796  1.00  0.00    -0.347 N 
HETATM   21  C13 UNL     1      -1.897  -1.272   2.062  1.00  0.00     0.156 C 
BRANCH  19  22
HETATM   22  C15 UNL     1      -3.923   0.522   1.899  1.00  0.00     0.282 C 
HETATM   23  N6  UNL     1      -5.295   0.759   2.061  1.00  0.00    -0.056 NA
HETATM   24  O3  UNL     1      -3.261   0.546   3.003  1.00  0.00    -0.269 OA
ENDBRANCH  19  22
ENDBRANCH  13  14
ENDBRANCH  12  13
ENDBRANCH  11  12
ENDBRANCH   1  11
BRANCH  10  25
HETATM   25  C11 UNL     1       3.518   1.121  -1.508  1.00  0.00     0.321 C 
BRANCH  25  26
HETATM   26  O1  UNL     1       2.733   2.178  -1.261  1.00  0.00    -0.347 OA
BRANCH  26  27
HETATM   27  C12 UNL     1       2.880   2.955  -0.176  1.00  0.00     0.336 C 
BRANCH  27  28
HETATM   28  O2  UNL     1       4.074   3.620  -0.011  1.00  0.00    -0.377 OA
ATOM     29  H2  UNL     1       4.178   4.170   0.757  1.00  0.00     0.212 HD
ENDBRANCH  27  28
ENDBRANCH  26  27
ENDBRANCH  25  26
ENDBRANCH  10  25
TORSDOF 9
