REMARK  16 active torsions:
REMARK  status: ('A' for Active; 'I' for Inactive)
REMARK    1  A    between atoms: C2_5  and  C3_6 
REMARK    2  A    between atoms: C3_6  and  N3_7 
REMARK    3  A    between atoms: N3_7  and  C4_10 
REMARK    4  A    between atoms: C4_10  and  C5_11 
REMARK    5  A    between atoms: C4_10  and  C6_14 
REMARK    6  A    between atoms: C5_11  and  O1_12 
REMARK    7  A    between atoms: C6_14  and  C7_16 
REMARK       I    between atoms: C7_16  and  N4_18 
REMARK    8  A    between atoms: N4_18  and  C8_20 
REMARK    9  A    between atoms: C11_25  and  C12_26 
REMARK   10  A    between atoms: C13_31  and  O6_32 
REMARK   11  A    between atoms: C16_36  and  C17_37 
REMARK   12  A    between atoms: C17_37  and  N6_38 
REMARK   13  A    between atoms: C17_37  and  C18_42 
REMARK   14  A    between atoms: C19_46  and  O9_47 
REMARK   15  A    between atoms: C20_49  and  N8_50 
REMARK   16  A    between atoms: C21_54  and  O10_55 
ROOT
HETATM    1  C8  UNL     1       2.138  -1.443   0.514  1.00  0.00     0.169 C 
HETATM    2  C9  UNL     1       2.179  -2.932   0.789  1.00  0.00     0.119 C 
HETATM    3  S1  UNL     1       3.778  -3.635   1.041  1.00  0.00    -0.095 SA
HETATM    4  S2  UNL     1       5.244  -2.195   1.406  1.00  0.00    -0.095 SA
HETATM    5  C10 UNL     1       4.977  -1.201   2.850  1.00  0.00     0.122 C 
HETATM    6  C11 UNL     1       5.839   0.033   2.916  1.00  0.00     0.194 C 
HETATM    7  N5  UNL     1       5.110   1.219   2.606  1.00  0.00    -0.357 N 
ATOM      8  H5  UNL     1       4.861   1.766   3.430  1.00  0.00     0.162 HD
HETATM    9  C13 UNL     1       4.664   1.790   1.408  1.00  0.00     0.135 C 
HETATM   10  C14 UNL     1       3.647   1.393   0.437  1.00  0.00     0.163 C 
HETATM   11  C15 UNL     1       3.854   2.264  -0.869  1.00  0.00     0.061 C 
HETATM   12  C16 UNL     1       4.813   1.108  -1.135  1.00  0.00     0.130 C 
HETATM   13  N7  UNL     1       3.850   0.245  -0.370  1.00  0.00    -0.344 N 
HETATM   14  C19 UNL     1       3.243  -1.017  -0.322  1.00  0.00     0.139 C 
ENDROOT
BRANCH   1  15
HETATM   15  N4  UNL     1       0.842  -1.253  -0.148  1.00  0.00    -0.342 N 
HETATM   16  C7  UNL     1      -0.404  -1.345   0.486  1.00  0.00     0.290 C 
HETATM   17  O3  UNL     1      -0.478  -1.623   1.699  1.00  0.00    -0.264 OA
ATOM     18  H4  UNL     1       0.849  -1.038  -1.145  1.00  0.00     0.163 HD
BRANCH  16  19
HETATM   19  C6  UNL     1      -1.634  -1.126  -0.245  1.00  0.00     0.249 C 
HETATM   20  O2  UNL     1      -1.578  -0.708  -1.453  1.00  0.00    -0.285 OA
BRANCH  19  21
HETATM   21  C4  UNL     1      -3.000  -1.350   0.309  1.00  0.00     0.288 C 
BRANCH  21  22
HETATM   22  N3  UNL     1      -3.969  -0.613  -0.519  1.00  0.00    -0.060 N 
ATOM     23  H32 UNL     1      -4.682  -1.226  -0.914  1.00  0.00     0.278 HD
ATOM     24  H31 UNL     1      -3.557  -0.285  -1.392  1.00  0.00     0.278 HD
BRANCH  22  25
HETATM   25  C3  UNL     1      -4.541   0.458   0.245  1.00  0.00     0.260 C 
BRANCH  25  26
HETATM   26  C2  UNL     1      -5.451   1.310  -0.563  1.00  0.00     0.144 C 
HETATM   27  N2  UNL     1      -5.980   2.391   0.279  1.00  0.00    -0.356 N 
HETATM   28  C1  UNL     1      -7.082   2.291   0.913  1.00  0.00     0.186 C 
ATOM     29  H2  UNL     1      -5.445   3.256   0.360  1.00  0.00     0.162 HD
HETATM   30  N1  UNL     1      -7.562   3.367   1.721  1.00  0.00    -0.064 NA
HETATM   31  N9  UNL     1      -7.829   1.094   0.811  1.00  0.00    -0.337 N 
HETATM   32  C21 UNL     1      -7.749   0.280  -0.360  1.00  0.00     0.252 C 
ATOM     33  H9  UNL     1      -8.432   0.809   1.583  1.00  0.00     0.164 HD
HETATM   34  C20 UNL     1      -6.578   0.621  -1.250  1.00  0.00     0.255 C 
BRANCH  32  35
HETATM   35  O10 UNL     1      -8.922   0.393  -1.142  1.00  0.00    -0.375 OA
ATOM     36  H10 UNL     1      -9.659   0.178  -0.582  1.00  0.00     0.212 HD
ENDBRANCH  32  35
BRANCH  34  37
HETATM   37  N8  UNL     1      -6.130  -0.591  -1.911  1.00  0.00    -0.069 N 
ATOM     38  H83 UNL     1      -5.358  -0.405  -2.552  1.00  0.00     0.275 HD
ATOM     39  H82 UNL     1      -5.649  -1.215  -1.263  1.00  0.00     0.275 HD
ATOM     40  H81 UNL     1      -6.902  -1.063  -2.382  1.00  0.00     0.275 HD
ENDBRANCH  34  37
ENDBRANCH  25  26
ENDBRANCH  22  25
ENDBRANCH  21  22
BRANCH  21  41
HETATM   41  C5  UNL     1      -3.278  -2.834   0.022  1.00  0.00     0.205 C 
BRANCH  41  42
HETATM   42  O1  UNL     1      -4.555  -3.223   0.332  1.00  0.00    -0.398 OA
ATOM     43  H1  UNL     1      -4.727  -4.140   0.155  1.00  0.00     0.209 HD
ENDBRANCH  41  42
ENDBRANCH  21  41
ENDBRANCH  19  21
ENDBRANCH  16  19
ENDBRANCH   1  15
BRANCH  14  44
HETATM   44  O9  UNL     1       3.736  -1.912  -1.137  1.00  0.00    -0.348 OA
ATOM     45  H9  UNL     1       4.460  -1.633  -1.685  1.00  0.00     0.219 HD
ENDBRANCH  14  44
BRANCH  12  46
HETATM   46  C17 UNL     1       4.927   0.740  -2.567  1.00  0.00     0.306 C 
BRANCH  46  47
HETATM   47  N6  UNL     1       3.728   0.293  -3.187  1.00  0.00    -0.063 N 
ATOM     48  H63 UNL     1       3.332  -0.485  -2.659  1.00  0.00     0.275 HD
ATOM     49  H62 UNL     1       2.993   0.989  -3.064  1.00  0.00     0.275 HD
ATOM     50  H61 UNL     1       3.806   0.040  -4.172  1.00  0.00     0.275 HD
ENDBRANCH  46  47
BRANCH  46  51
HETATM   51  C18 UNL     1       5.366   1.967  -3.334  1.00  0.00     0.206 C 
HETATM   52  O7  UNL     1       6.379   2.640  -2.969  1.00  0.00    -0.646 OA
HETATM   53  O8  UNL     1       4.654   2.358  -4.444  1.00  0.00    -0.646 OA
ENDBRANCH  46  51
ENDBRANCH  12  46
BRANCH   9  54
HETATM   54  O6  UNL     1       5.278   2.899   1.109  1.00  0.00    -0.348 OA
ATOM     55  H6  UNL     1       4.975   3.286   0.296  1.00  0.00     0.219 HD
ENDBRANCH   9  54
BRANCH   6  56
HETATM   56  C12 UNL     1       7.154  -0.135   2.259  1.00  0.00     0.197 C 
HETATM   57  O4  UNL     1       7.659   0.692   1.466  1.00  0.00    -0.646 OA
HETATM   58  O5  UNL     1       7.856  -1.281   2.543  1.00  0.00    -0.646 OA
ENDBRANCH   6  56
TORSDOF 16
