REMARK  12 active torsions:
REMARK  status: ('A' for Active; 'I' for Inactive)
REMARK       I    between atoms: C1_4  and  N3_6 
REMARK    1  A    between atoms: N3_6  and  C2_8 
REMARK    2  A    between atoms: C2_8  and  C3_9 
REMARK    3  A    between atoms: C2_8  and  C8_15 
REMARK    4  A    between atoms: C3_9  and  C4_10 
REMARK    5  A    between atoms: C4_10  and  C5_11 
REMARK    6  A    between atoms: C5_11  and  C6_12 
REMARK    7  A    between atoms: C6_12  and  C7_13 
REMARK    8  A    between atoms: C8_15  and  N4_16 
REMARK    9  A    between atoms: C8_15  and  N5_19 
REMARK   10  A    between atoms: N5_19  and  C9_21 
REMARK   11  A    between atoms: C9_21  and  C10_23 
REMARK       I    between atoms: C10_23  and  N6_25 
REMARK   12  A    between atoms: C14_30  and  C15_31 
ROOT
HETATM    1  C8  UNL     1      -0.834   0.070   1.024  1.00  0.00     0.124 C 
ENDROOT
BRANCH   1   2
HETATM    2  C2  UNL     1      -1.196  -0.058  -0.346  1.00  0.00     0.074 C 
BRANCH   2   3
HETATM    3  N3  UNL     1      -0.952  -1.386  -0.951  1.00  0.00    -0.328 N 
HETATM    4  C1  UNL     1      -1.907  -2.363  -1.215  1.00  0.00     0.186 C 
HETATM    5  N1  UNL     1      -1.851  -2.876  -2.439  1.00  0.00    -0.373 N 
HETATM    6  N2  UNL     1      -2.913  -2.886  -0.397  1.00  0.00    -0.064 NA
ATOM      7  H12 UNL     1      -2.551  -3.592  -2.633  1.00  0.00     0.158 HD
ATOM      8  H11 UNL     1      -1.117  -2.494  -3.036  1.00  0.00     0.158 HD
ATOM      9  H3  UNL     1       0.012  -1.607  -1.199  1.00  0.00     0.168 HD
ENDBRANCH   2   3
BRANCH   2  10
HETATM   10  C3  UNL     1      -2.447   0.427  -0.930  1.00  0.00     0.007 C 
BRANCH  10  11
HETATM   11  C4  UNL     1      -3.047   1.717  -0.613  1.00  0.00     0.029 C 
BRANCH  11  12
HETATM   12  C5  UNL     1      -3.509   1.964   0.788  1.00  0.00     0.006 C 
BRANCH  12  13
HETATM   13  C6  UNL     1      -4.577   0.968   1.222  1.00  0.00     0.032 C 
BRANCH  13  14
HETATM   14  C7  UNL     1      -5.806   1.021   0.357  1.00  0.00     0.222 C 
HETATM   15  F1  UNL     1      -6.715   0.077   0.845  1.00  0.00    -0.255 F 
ENDBRANCH  13  14
ENDBRANCH  12  13
ENDBRANCH  11  12
ENDBRANCH  10  11
ENDBRANCH   2  10
ENDBRANCH   1   2
BRANCH   1  16
HETATM   16  N4  UNL     1      -1.267  -0.625   1.987  1.00  0.00    -0.384 N 
ATOM     17  H42 UNL     1      -1.951  -1.321   1.691  1.00  0.00     0.157 HD
ATOM     18  H41 UNL     1      -1.007  -0.533   2.969  1.00  0.00     0.157 HD
ENDBRANCH   1  16
BRANCH   1  19
HETATM   19  N5  UNL     1       0.143   1.065   1.447  1.00  0.00    -0.337 N 
ATOM     20  H5  UNL     1      -0.117   1.700   2.202  1.00  0.00     0.164 HD
BRANCH  19  21
HETATM   21  C9  UNL     1       1.436   1.206   0.873  1.00  0.00     0.364 C 
HETATM   22  F2  UNL     1       2.057   2.275   1.530  1.00  0.00    -0.216 F 
BRANCH  21  23
HETATM   23  C10 UNL     1       2.245  -0.021   1.023  1.00  0.00     0.274 C 
HETATM   24  O1  UNL     1       1.694  -0.973   1.675  1.00  0.00    -0.268 OA
HETATM   25  N6  UNL     1       3.546  -0.215   0.509  1.00  0.00    -0.340 N 
HETATM   26  C11 UNL     1       4.273  -1.477   0.687  1.00  0.00     0.163 C 
HETATM   27  C14 UNL     1       4.363   0.686  -0.256  1.00  0.00     0.100 C 
HETATM   28  C12 UNL     1       5.202  -1.555  -0.476  1.00  0.00     0.190 C 
HETATM   29  F3  UNL     1       4.857  -2.576  -1.343  1.00  0.00    -0.248 F 
HETATM   30  C13 UNL     1       5.080  -0.247  -1.232  1.00  0.00     0.065 C 
BRANCH  27  31
HETATM   31  C15 UNL     1       5.340   1.502   0.521  1.00  0.00     0.110 C 
HETATM   32 BR1  UNL     1       6.634   0.471   1.507  1.00  0.00    -0.094 Br
ENDBRANCH  27  31
ENDBRANCH  21  23
ENDBRANCH  19  21
ENDBRANCH   1  19
TORSDOF 12
