REMARK  13 active torsions:
REMARK  status: ('A' for Active; 'I' for Inactive)
REMARK    1  A    between atoms: C2_2  and  N1_3 
REMARK    2  A    between atoms: C6_7  and  C7_8 
REMARK    3  A    between atoms: C7_8  and  C8_9 
REMARK    4  A    between atoms: C8_9  and  C9_10 
REMARK    5  A    between atoms: C9_10  and  C10_11 
REMARK    6  A    between atoms: C10_11  and  N2_12 
REMARK    7  A    between atoms: C10_11  and  C30_42 
REMARK       I    between atoms: N2_12  and  C11_14 
REMARK    8  A    between atoms: C11_14  and  C12_16 
REMARK    9  A    between atoms: C12_16  and  C13_17 
REMARK   10  A    between atoms: C12_16  and  N4_22 
REMARK   11  A    between atoms: C13_17  and  C14_18 
REMARK   12  A    between atoms: C14_18  and  C15_19 
REMARK   13  A    between atoms: C19_26  and  C20_27 
REMARK       I    between atoms: C20_27  and  N5_29 
REMARK       I    between atoms: C30_42  and  N7_44 
ROOT
HETATM    1  C12 UNL     1      -2.487  -1.512  -0.351  1.00  0.00     0.315 C 
ENDROOT
BRANCH   1   2
HETATM    2  C11 UNL     1      -0.975  -1.481  -0.360  1.00  0.00     0.252 C 
HETATM    3  N2  UNL     1      -0.145  -1.522   0.733  1.00  0.00    -0.346 N 
ATOM      4  H2  UNL     1      -0.534  -1.580   1.674  1.00  0.00     0.163 HD
HETATM    5  O1  UNL     1      -0.433  -1.406  -1.521  1.00  0.00    -0.271 OA
BRANCH   3   6
HETATM    6  C10 UNL     1       1.326  -1.481   0.528  1.00  0.00     0.176 C 
BRANCH   6   7
HETATM    7  C9  UNL     1       1.702  -0.078   0.976  1.00  0.00     0.035 C 
BRANCH   7   8
HETATM    8  C8  UNL     1       3.113   0.314   0.865  1.00  0.00     0.003 C 
BRANCH   8   9
HETATM    9  C7  UNL     1       3.666   0.316  -0.530  1.00  0.00     0.005 C 
BRANCH   9  10
HETATM   10  C6  UNL     1       5.086   0.756  -0.629  1.00  0.00    -0.011 C 
HETATM   11  C5  UNL     1       6.082  -0.042   0.138  1.00  0.00     0.032 C 
HETATM   12  C4  UNL     1       7.471   0.390  -0.314  1.00  0.00     0.237 C 
HETATM   13  N1  UNL     1       7.708   1.792  -0.207  1.00  0.00    -0.071 N 
HETATM   14  C3  UNL     1       8.918   2.105  -0.960  1.00  0.00     0.272 C 
HETATM   15  C36 UNL     1       6.659   2.627  -0.760  1.00  0.00     0.237 C 
HETATM   16  C35 UNL     1       5.287   2.227  -0.261  1.00  0.00     0.032 C 
BRANCH  13  17
HETATM   17  C2  UNL     1       7.906   2.191   1.176  1.00  0.00     0.232 C 
HETATM   18  C1  UNL     1       8.906   1.333   1.895  1.00  0.00     0.035 C 
ENDBRANCH  13  17
ENDBRANCH   9  10
ENDBRANCH   8   9
ENDBRANCH   7   8
ENDBRANCH   6   7
BRANCH   6  19
HETATM   19  C30 UNL     1       1.845  -2.480   1.477  1.00  0.00     0.242 C 
HETATM   20  O4  UNL     1       1.284  -2.527   2.627  1.00  0.00    -0.271 OA
HETATM   21  N7  UNL     1       2.877  -3.350   1.196  1.00  0.00    -0.350 N 
HETATM   22  C31 UNL     1       3.650  -3.517   0.000  1.00  0.00     0.126 C 
HETATM   23  C34 UNL     1       3.422  -4.351   2.128  1.00  0.00     0.126 C 
HETATM   24  C32 UNL     1       3.759  -5.020  -0.180  1.00  0.00     0.021 C 
HETATM   25  C33 UNL     1       3.841  -5.501   1.267  1.00  0.00     0.021 C 
ENDBRANCH   6  19
ENDBRANCH   3   6
ENDBRANCH   1   2
BRANCH   1  26
HETATM   26  C13 UNL     1      -2.918  -2.096  -1.636  1.00  0.00     0.054 C 
BRANCH  26  27
HETATM   27  C14 UNL     1      -2.418  -3.501  -1.804  1.00  0.00     0.102 C 
BRANCH  27  28
HETATM   28  C15 UNL     1      -2.950  -4.453  -0.786  1.00  0.00     0.231 C 
HETATM   29  N3  UNL     1      -2.368  -5.756  -0.675  1.00  0.00    -0.062 NA
HETATM   30  O2  UNL     1      -3.888  -4.210   0.002  1.00  0.00    -0.277 OA
ENDBRANCH  27  28
ENDBRANCH  26  27
ENDBRANCH   1  26
BRANCH   1  31
HETATM   31  N4  UNL     1      -2.906  -0.199  -0.036  1.00  0.00     0.116 N 
HETATM   32  C16 UNL     1      -2.472   0.139   1.308  1.00  0.00     0.280 C 
HETATM   33  C17 UNL     1      -3.575   1.072   1.710  1.00  0.00     0.029 A 
HETATM   34  C18 UNL     1      -4.711   0.060   1.289  1.00  0.00     0.043 A 
HETATM   35  C27 UNL     1      -4.751   0.858   2.448  1.00  0.00    -0.035 A 
HETATM   36  C19 UNL     1      -4.315   0.102  -0.128  1.00  0.00     0.320 C 
HETATM   37  C28 UNL     1      -4.496   0.253   3.852  1.00  0.00     0.015 C 
HETATM   38  C29 UNL     1      -5.761   1.971   2.572  1.00  0.00     0.015 C 
BRANCH  36  39
HETATM   39  C20 UNL     1      -4.486   1.335  -0.886  1.00  0.00     0.254 C 
HETATM   40  O3  UNL     1      -3.430   1.935  -1.273  1.00  0.00    -0.271 OA
HETATM   41  N5  UNL     1      -5.704   1.951  -1.246  1.00  0.00    -0.348 N 
HETATM   42  C21 UNL     1      -7.087   1.576  -1.016  1.00  0.00     0.132 C 
HETATM   43  C26 UNL     1      -5.805   3.201  -1.977  1.00  0.00     0.159 C 
HETATM   44  C22 UNL     1      -7.777   2.911  -0.768  1.00  0.00     0.037 C 
HETATM   45  C23 UNL     1      -8.974   3.128  -1.655  1.00  0.00     0.036 C 
HETATM   46  C25 UNL     1      -6.811   3.996  -1.165  1.00  0.00     0.209 C 
HETATM   47  C24 UNL     1      -8.862   4.571  -2.091  1.00  0.00     0.233 C 
HETATM   48  N6  UNL     1      -7.465   4.917  -2.022  1.00  0.00    -0.069 N 
ATOM     49  H62 UNL     1      -7.030   4.970  -2.943  1.00  0.00     0.277 HD
ATOM     50  H61 UNL     1      -7.316   5.886  -1.740  1.00  0.00     0.277 HD
ENDBRANCH  36  39
ENDBRANCH   1  31
TORSDOF 13
