REMARK  13 active torsions:
REMARK  status: ('A' for Active; 'I' for Inactive)
REMARK    1  A    between atoms: C2_2  and  C3_3 
REMARK    2  A    between atoms: C3_3  and  C4_4 
REMARK    3  A    between atoms: C4_4  and  C5_5 
REMARK    4  A    between atoms: C5_5  and  C6_6 
REMARK    5  A    between atoms: C6_6  and  C7_7 
REMARK    6  A    between atoms: C8_8  and  O1_9 
REMARK    7  A    between atoms: C9_13  and  C10_14 
REMARK    8  A    between atoms: C19_28  and  C20_29 
REMARK    9  A    between atoms: C20_29  and  C21_30 
REMARK   10  A    between atoms: C21_30  and  C22_31 
REMARK   11  A    between atoms: C22_31  and  N4_32 
REMARK   12  A    between atoms: C28_43  and  O5_44 
REMARK   13  A    between atoms: C29_48  and  C30_49 
ROOT
HETATM    1  C7  UNL     1       3.043   0.498  -0.279  1.00  0.00     0.110 C 
HETATM    2  C8  UNL     1       2.555  -0.447  -1.300  1.00  0.00     0.126 C 
HETATM    3  N1  UNL     1       2.183  -1.762  -1.352  1.00  0.00    -0.339 N 
ATOM      4  H1  UNL     1       2.824  -2.235  -1.988  1.00  0.00     0.167 HD
HETATM    5  C9  UNL     1       1.261  -2.735  -0.875  1.00  0.00     0.083 C 
HETATM    6  C13 UNL     1       0.640  -2.591   0.411  1.00  0.00     0.267 C 
HETATM    7  O2  UNL     1       1.372  -1.975   1.273  1.00  0.00    -0.266 OA
HETATM    8  N2  UNL     1      -0.569  -2.954   0.983  1.00  0.00    -0.334 N 
HETATM    9  C14 UNL     1      -0.949  -3.240   2.411  1.00  0.00     0.127 C 
HETATM   10  C15 UNL     1      -1.565  -4.603   2.219  1.00  0.00     0.022 C 
HETATM   11  C16 UNL     1      -1.994  -4.682   0.769  1.00  0.00     0.037 C 
HETATM   12  C17 UNL     1      -1.866  -3.186   0.388  1.00  0.00     0.179 C 
HETATM   13  C18 UNL     1      -2.990  -2.515   1.140  1.00  0.00     0.241 C 
HETATM   14  O3  UNL     1      -3.846  -3.237   1.770  1.00  0.00    -0.271 OA
HETATM   15  N3  UNL     1      -3.210  -1.142   1.229  1.00  0.00    -0.346 N 
ATOM     16  H3  UNL     1      -3.467  -0.771   2.144  1.00  0.00     0.163 HD
HETATM   17  C19 UNL     1      -3.105  -0.180   0.120  1.00  0.00     0.177 C 
HETATM   18  C24 UNL     1      -2.386   1.040   0.541  1.00  0.00     0.246 C 
HETATM   19  O4  UNL     1      -2.316   1.131   1.830  1.00  0.00    -0.271 OA
HETATM   20  N7  UNL     1      -1.801   2.061  -0.187  1.00  0.00    -0.321 N 
HETATM   21  C25 UNL     1      -1.952   3.424   0.318  1.00  0.00     0.159 C 
HETATM   22  C26 UNL     1      -1.038   2.008  -1.410  1.00  0.00     0.061 C 
HETATM   23  C27 UNL     1      -1.027   0.687  -2.110  1.00  0.00     0.073 C 
HETATM   24  C28 UNL     1       0.260   2.717  -1.357  1.00  0.00     0.163 C 
HETATM   25  N8  UNL     1       1.603   2.355  -1.251  1.00  0.00    -0.338 N 
ATOM     26  H8  UNL     1       2.070   2.458  -2.152  1.00  0.00     0.168 HD
HETATM   27  C29 UNL     1       2.515   1.888  -0.274  1.00  0.00     0.025 C 
ENDROOT
BRANCH  17  28
HETATM   28  C20 UNL     1      -4.529   0.277  -0.274  1.00  0.00     0.036 C 
BRANCH  28  29
HETATM   29  C21 UNL     1      -5.380  -0.874  -0.713  1.00  0.00     0.022 C 
BRANCH  29  30
HETATM   30  C22 UNL     1      -6.737  -0.332  -1.084  1.00  0.00     0.122 C 
BRANCH  30  31
HETATM   31  N4  UNL     1      -7.411   0.335  -0.012  1.00  0.00    -0.367 N 
HETATM   32  C23 UNL     1      -7.579   1.617   0.051  1.00  0.00     0.196 C 
HETATM   33  N5  UNL     1      -7.107   2.493  -0.948  1.00  0.00    -0.067 NA
HETATM   34  N6  UNL     1      -8.263   2.206   1.156  1.00  0.00    -0.067 NA
ATOM     35  H4  UNL     1      -7.782  -0.235   0.749  1.00  0.00     0.161 HD
ENDBRANCH  30  31
ENDBRANCH  29  30
ENDBRANCH  28  29
ENDBRANCH  17  28
BRANCH  24  36
HETATM   36  O5  UNL     1       0.048   4.012  -1.434  1.00  0.00    -0.345 OA
ATOM     37  H5  UNL     1       0.881   4.467  -1.400  1.00  0.00     0.219 HD
ENDBRANCH  24  36
BRANCH   5  38
HETATM   38  C10 UNL     1       0.324  -3.175  -2.016  1.00  0.00     0.041 A 
HETATM   39  C11 UNL     1       1.098  -3.728  -3.188  1.00  0.00     0.011 A 
HETATM   40  C12 UNL     1       0.183  -4.569  -2.423  1.00  0.00     0.011 A 
ENDBRANCH   5  38
BRANCH  27  41
HETATM   41  C30 UNL     1       2.261   2.346   1.160  1.00  0.00    -0.064 C 
HETATM   42  C31 UNL     1       1.283   1.575   1.936  1.00  0.00     0.045 C 
HETATM   43  C32 UNL     1       2.160   3.848   1.251  1.00  0.00     0.045 C 
ENDBRANCH  27  41
BRANCH   1  44
HETATM   44  C6  UNL     1       4.584   0.465  -0.542  1.00  0.00     0.019 C 
BRANCH  44  45
HETATM   45  C5  UNL     1       5.401   1.294   0.318  1.00  0.00     0.001 C 
BRANCH  45  46
HETATM   46  C4  UNL     1       6.868   1.094  -0.113  1.00  0.00     0.004 C 
BRANCH  46  47
HETATM   47  C3  UNL     1       7.796   1.920   0.720  1.00  0.00     0.026 C 
BRANCH  47  48
HETATM   48  C2  UNL     1       7.683   1.543   2.139  1.00  0.00    -0.037 C 
HETATM   49  C1  UNL     1       8.744   1.079   2.788  1.00  0.00     0.007 C 
ENDBRANCH  47  48
ENDBRANCH  46  47
ENDBRANCH  45  46
ENDBRANCH  44  45
ENDBRANCH   1  44
BRANCH   2  50
HETATM   50  O1  UNL     1       2.494   0.227  -2.432  1.00  0.00    -0.349 OA
ATOM     51  H1  UNL     1       2.180  -0.382  -3.090  1.00  0.00     0.219 HD
ENDBRANCH   2  50
TORSDOF 13
