REMARK  13 active torsions:
REMARK  status: ('A' for Active; 'I' for Inactive)
REMARK    1  A    between atoms: C2_2  and  C3_3 
REMARK    2  A    between atoms: C3_3  and  C5_5 
REMARK    3  A    between atoms: C5_5  and  N1_6 
REMARK    4  A    between atoms: C5_5  and  C13_26 
REMARK       I    between atoms: N1_6  and  C6_8 
REMARK       I    between atoms: C6_8  and  N2_10 
REMARK    5  A    between atoms: N2_10  and  C8_12 
REMARK    6  A    between atoms: C8_12  and  C9_13 
REMARK    7  A    between atoms: C9_13  and  C10_14 
REMARK    8  A    between atoms: C10_14  and  N3_15 
REMARK       I    between atoms: N3_15  and  C11_17 
REMARK       I    between atoms: N5_19  and  C12_21 
REMARK    9  A    between atoms: C13_26  and  O2_27 
REMARK   10  A    between atoms: C13_26  and  N8_29 
REMARK   11  A    between atoms: C16_32  and  N9_33 
REMARK       I    between atoms: N9_33  and  C17_35 
REMARK   12  A    between atoms: C17_35  and  C18_37 
REMARK   13  A    between atoms: C18_37  and  C19_38 
REMARK       I    between atoms: C19_38  and  N10_40 
ROOT
HETATM    1  C13 UNL     1       0.184   0.251  -1.011  1.00  0.00     0.137 C 
ENDROOT
BRANCH   1   2
HETATM    2  C5  UNL     1       1.091   0.795   0.022  1.00  0.00     0.164 C 
BRANCH   2   3
HETATM    3  C3  UNL     1       1.464   2.252  -0.210  1.00  0.00     0.012 C 
HETATM    4  C4  UNL     1       2.268   2.399  -1.499  1.00  0.00     0.012 C 
BRANCH   3   5
HETATM    5  C2  UNL     1       0.381   3.242  -0.098  1.00  0.00     0.002 C 
HETATM    6  C1  UNL     1       0.879   4.679  -0.110  1.00  0.00     0.005 C 
ENDBRANCH   3   5
ENDBRANCH   2   3
BRANCH   2   7
HETATM    7  N1  UNL     1       2.410   0.120  -0.172  1.00  0.00    -0.331 N 
HETATM    8  C6  UNL     1       3.180  -0.380   0.874  1.00  0.00     0.318 C 
HETATM    9  O1  UNL     1       2.774  -0.278   2.054  1.00  0.00    -0.247 OA
HETATM   10  N2  UNL     1       4.428  -1.007   0.636  1.00  0.00    -0.339 N 
HETATM   11  C7  UNL     1       4.961  -1.185  -0.703  1.00  0.00     0.154 C 
ATOM     12  H1  UNL     1       2.765   0.020  -1.123  1.00  0.00     0.165 HD
BRANCH  10  13
HETATM   13  C8  UNL     1       5.238  -1.481   1.732  1.00  0.00     0.128 C 
BRANCH  13  14
HETATM   14  C9  UNL     1       6.131  -0.300   2.116  1.00  0.00     0.039 C 
BRANCH  14  15
HETATM   15  C10 UNL     1       7.036  -0.666   3.241  1.00  0.00     0.124 C 
BRANCH  15  16
HETATM   16  N3  UNL     1       7.931  -1.751   2.955  1.00  0.00    -0.364 N 
HETATM   17  C11 UNL     1       8.983  -1.581   2.020  1.00  0.00     0.190 C 
HETATM   18  N4  UNL     1       9.215  -0.320   1.388  1.00  0.00    -0.063 NA
HETATM   19  N5  UNL     1       9.763  -2.570   1.722  1.00  0.00    -0.305 N 
HETATM   20  C12 UNL     1      10.809  -2.388   0.787  1.00  0.00     0.188 C 
ATOM     21  H5  UNL     1       9.624  -3.480   2.161  1.00  0.00     0.171 HD
HETATM   22  N6  UNL     1      10.787  -3.032  -0.323  1.00  0.00    -0.373 N 
HETATM   23  N7  UNL     1      11.888  -1.503   1.040  1.00  0.00    -0.064 NA
ATOM     24  H62 UNL     1      10.011  -3.668  -0.505  1.00  0.00     0.158 HD
ATOM     25  H61 UNL     1      11.541  -2.901  -0.997  1.00  0.00     0.158 HD
ATOM     26  H3  UNL     1       7.810  -2.648   3.426  1.00  0.00     0.162 HD
ENDBRANCH  15  16
ENDBRANCH  14  15
ENDBRANCH  13  14
ENDBRANCH  10  13
ENDBRANCH   2   7
ENDBRANCH   1   2
BRANCH   1  27
HETATM   27  O2  UNL     1       0.747  -0.297  -2.048  1.00  0.00    -0.348 OA
ATOM     28  H2  UNL     1       0.164  -0.647  -2.712  1.00  0.00     0.219 HD
ENDBRANCH   1  27
BRANCH   1  29
HETATM   29  N8  UNL     1      -1.200   0.235  -1.039  1.00  0.00    -0.363 N 
HETATM   30  C14 UNL     1      -2.185   0.654  -0.059  1.00  0.00     0.131 C 
HETATM   31  C15 UNL     1      -3.293   1.310  -0.911  1.00  0.00     0.033 C 
HETATM   32  C16 UNL     1      -4.563   0.912  -0.310  1.00  0.00     0.090 C 
HETATM   33  C29 UNL     1      -2.883   1.036  -2.264  1.00  0.00     0.019 C 
HETATM   34  C22 UNL     1      -5.802   1.609  -0.908  1.00  0.00     0.030 C 
HETATM   35  C23 UNL     1      -5.921   1.113  -2.294  1.00  0.00    -0.007 A 
HETATM   36  C24 UNL     1      -6.319   1.852  -3.465  1.00  0.00     0.011 A 
HETATM   37  C25 UNL     1      -4.932   1.995  -3.102  1.00  0.00    -0.002 A 
HETATM   38  C26 UNL     1      -3.796   1.096  -3.418  1.00  0.00    -0.038 C 
HETATM   39  C27 UNL     1      -4.222  -0.256  -3.950  1.00  0.00     0.015 C 
HETATM   40  C28 UNL     1      -3.121   1.758  -4.647  1.00  0.00     0.015 C 
HETATM   41  C30 UNL     1      -2.020  -0.222  -2.212  1.00  0.00     0.130 C 
BRANCH  32  42
HETATM   42  N9  UNL     1      -4.806  -0.474  -0.091  1.00  0.00    -0.356 N 
HETATM   43  C17 UNL     1      -5.085  -0.985   1.188  1.00  0.00     0.226 C 
HETATM   44  O3  UNL     1      -5.118  -0.183   2.157  1.00  0.00    -0.273 OA
ATOM     45  H9  UNL     1      -4.777  -1.114  -0.885  1.00  0.00     0.162 HD
BRANCH  43  46
HETATM   46  C18 UNL     1      -5.347  -2.418   1.480  1.00  0.00     0.205 C 
BRANCH  46  47
HETATM   47  C19 UNL     1      -5.611  -2.645   2.916  1.00  0.00     0.227 C 
HETATM   48  O4  UNL     1      -4.639  -2.583   3.703  1.00  0.00    -0.273 OA
HETATM   49  N10 UNL     1      -6.890  -2.926   3.443  1.00  0.00    -0.360 N 
HETATM   50  C20 UNL     1      -8.067  -3.021   2.596  1.00  0.00     0.152 C 
HETATM   51  C21 UNL     1      -7.071  -3.130   4.864  1.00  0.00     0.152 C 
ENDBRANCH  46  47
ENDBRANCH  43  46
ENDBRANCH  32  42
ENDBRANCH   1  29
TORSDOF 13
