REMARK  14 active torsions:
REMARK  status: ('A' for Active; 'I' for Inactive)
REMARK    1  A    between atoms: C2_2  and  C3_3 
REMARK    2  A    between atoms: C3_3  and  N1_4 
REMARK       I    between atoms: N1_4  and  C4_6 
REMARK    3  A    between atoms: C4_6  and  C5_8 
REMARK       I    between atoms: N2_11  and  C8_12 
REMARK    4  A    between atoms: C8_12  and  C9_14 
REMARK    5  A    between atoms: C9_14  and  N3_16 
REMARK       I    between atoms: N3_16  and  C11_18 
REMARK    6  A    between atoms: C11_18  and  C12_20 
REMARK    7  A    between atoms: N4_26  and  C18_27 
REMARK    8  A    between atoms: C18_27  and  O4_28 
REMARK    9  A    between atoms: C18_27  and  N5_30 
REMARK   10  A    between atoms: N5_30  and  C19_32 
REMARK   11  A    between atoms: C19_32  and  C20_33 
REMARK   12  A    between atoms: C23_36  and  C24_37 
REMARK       I    between atoms: C24_37  and  N6_39 
REMARK   13  A    between atoms: N6_39  and  C25_41 
REMARK   14  A    between atoms: C25_41  and  C26_42 
REMARK       I    between atoms: N7_45  and  C29_46 
ROOT
HETATM    1  C5  UNL     1       2.647   2.762  -1.263  1.00  0.00     0.111 C 
HETATM    2  C6  UNL     1       1.594   3.866  -1.230  1.00  0.00     0.036 C 
HETATM    3  C7  UNL     1       0.979   3.588   0.148  1.00  0.00     0.128 C 
HETATM    4  N2  UNL     1       0.800   2.110  -0.022  1.00  0.00    -0.336 N 
HETATM    5  C8  UNL     1      -0.477   1.558   0.210  1.00  0.00     0.243 C 
HETATM    6  O2  UNL     1      -0.694   0.344   0.046  1.00  0.00    -0.271 OA
HETATM    7  C23 UNL     1       2.082   1.636  -0.373  1.00  0.00     0.192 C 
ENDROOT
BRANCH   5   8
HETATM    8  C9  UNL     1      -1.632   2.367   0.660  1.00  0.00     0.172 C 
HETATM    9  C10 UNL     1      -1.377   2.873   2.095  1.00  0.00     0.042 C 
BRANCH   8  10
HETATM   10  N3  UNL     1      -2.870   1.617   0.679  1.00  0.00    -0.346 N 
HETATM   11  C11 UNL     1      -4.084   2.246   0.376  1.00  0.00     0.241 C 
HETATM   12  O3  UNL     1      -4.097   3.464   0.094  1.00  0.00    -0.271 OA
ATOM     13  H3  UNL     1      -2.858   0.625   0.914  1.00  0.00     0.163 HD
BRANCH  11  14
HETATM   14  C12 UNL     1      -5.373   1.521   0.379  1.00  0.00     0.180 C 
HETATM   15  C13 UNL     1      -6.328   1.920  -0.690  1.00  0.00     0.035 C 
HETATM   16  C14 UNL     1      -7.319   0.775  -0.917  1.00  0.00     0.004 C 
HETATM   17  C15 UNL     1      -6.585  -0.339  -1.661  1.00  0.00     0.025 C 
HETATM   18  C16 UNL     1      -5.147  -0.393  -1.112  1.00  0.00     0.084 C 
HETATM   19  C17 UNL     1      -4.525  -1.653  -1.515  1.00  0.00     0.032 C 
HETATM   20  N4  UNL     1      -5.145   0.036   0.250  1.00  0.00    -0.330 N 
BRANCH  20  21
HETATM   21  C18 UNL     1      -4.998  -0.739   1.393  1.00  0.00     0.216 C 
BRANCH  21  22
HETATM   22  O4  UNL     1      -5.099  -0.069   2.510  1.00  0.00    -0.333 OA
ATOM     23  H4  UNL     1      -4.998  -0.599   3.292  1.00  0.00     0.220 HD
ENDBRANCH  21  22
BRANCH  21  24
HETATM   24  N5  UNL     1      -4.764  -2.102   1.572  1.00  0.00    -0.356 N 
ATOM     25  H5  UNL     1      -4.664  -2.689   0.744  1.00  0.00     0.163 HD
BRANCH  24  26
HETATM   26  C19 UNL     1      -4.654  -2.737   2.897  1.00  0.00     0.128 C 
BRANCH  26  27
HETATM   27  C20 UNL     1      -5.979  -2.577   3.599  1.00  0.00     0.003 A 
HETATM   28  C21 UNL     1      -6.150  -3.127   4.974  1.00  0.00     0.007 A 
HETATM   29  C22 UNL     1      -6.745  -3.894   3.799  1.00  0.00     0.007 A 
ENDBRANCH  26  27
ENDBRANCH  24  26
ENDBRANCH  21  24
ENDBRANCH  20  21
ENDBRANCH  11  14
ENDBRANCH   8  10
ENDBRANCH   5   8
BRANCH   7  30
HETATM   30  C24 UNL     1       2.218   0.388  -1.116  1.00  0.00     0.241 C 
HETATM   31  O5  UNL     1       1.272  -0.275  -1.647  1.00  0.00    -0.271 OA
HETATM   32  N6  UNL     1       3.542  -0.163  -1.273  1.00  0.00    -0.359 N 
ATOM     33  H6  UNL     1       4.328   0.348  -0.871  1.00  0.00     0.162 HD
BRANCH  32  34
HETATM   34  C25 UNL     1       3.815  -1.392  -1.965  1.00  0.00     0.127 C 
BRANCH  34  35
HETATM   35  C26 UNL     1       3.153  -2.581  -1.303  1.00  0.00     0.006 C 
HETATM   36  C27 UNL     1       3.649  -2.750   0.124  1.00  0.00     0.026 C 
HETATM   37  C28 UNL     1       5.141  -3.006   0.149  1.00  0.00     0.126 C 
HETATM   38  N7  UNL     1       5.608  -3.935  -0.817  1.00  0.00    -0.356 N 
HETATM   39  C29 UNL     1       6.688  -4.837  -0.495  1.00  0.00     0.183 C 
HETATM   40  C30 UNL     1       5.041  -4.006  -2.136  1.00  0.00     0.126 C 
HETATM   41  N8  UNL     1       6.671  -5.515   0.600  1.00  0.00    -0.374 N 
HETATM   42  N9  UNL     1       7.775  -4.985  -1.376  1.00  0.00    -0.064 NA
ATOM     43  H82 UNL     1       5.883  -5.408   1.239  1.00  0.00     0.158 HD
ATOM     44  H81 UNL     1       7.434  -6.152   0.828  1.00  0.00     0.158 HD
HETATM   45  C31 UNL     1       3.555  -3.821  -2.060  1.00  0.00     0.026 C 
ENDBRANCH  34  35
ENDBRANCH  32  34
ENDBRANCH   7  30
BRANCH   1  46
HETATM   46  C4  UNL     1       3.928   3.280  -0.750  1.00  0.00     0.224 C 
HETATM   47  N1  UNL     1       4.672   4.194  -1.523  1.00  0.00    -0.357 N 
ATOM     48  H1  UNL     1       4.293   4.472  -2.428  1.00  0.00     0.162 HD
HETATM   49  O1  UNL     1       4.392   2.936   0.367  1.00  0.00    -0.273 OA
BRANCH  47  50
HETATM   50  C3  UNL     1       5.943   4.766  -1.114  1.00  0.00     0.149 C 
BRANCH  50  51
HETATM   51  C2  UNL     1       5.807   5.536   0.143  1.00  0.00    -0.018 C 
HETATM   52  C1  UNL     1       6.107   6.820   0.151  1.00  0.00     0.008 C 
ENDBRANCH  50  51
ENDBRANCH  47  50
ENDBRANCH   1  46
TORSDOF 14
