REMARK  4 active torsions:
REMARK  status: ('A' for Active; 'I' for Inactive)
REMARK    1  A    between atoms: C2_3  and  C3_4 
REMARK    2  A    between atoms: N3_7  and  N4_9 
REMARK    3  A    between atoms: N4_9  and  C5_11 
REMARK    4  A    between atoms: C5_11  and  N5_13 
ROOT
HETATM    1  N1  UNL     1       2.298  -2.848  -0.528  1.00  0.00    -0.197 NA
HETATM    2  C1  UNL     1       2.907  -1.858  -0.499  1.00  0.00     0.066 C 
HETATM    3  C2  UNL     1       3.681  -0.628  -0.442  1.00  0.00     0.194 C 
ENDROOT
BRANCH   3   4
HETATM    4  C3  UNL     1       2.774   0.549  -0.469  1.00  0.00     0.118 C 
HETATM    5  C4  UNL     1       3.351   1.872  -0.420  1.00  0.00     0.115 C 
HETATM    6  N2  UNL     1       3.816   2.925  -0.394  1.00  0.00    -0.190 NA
HETATM    7  N3  UNL     1       1.506   0.451  -0.532  1.00  0.00    -0.291 N 
ATOM      8  H3  UNL     1       1.085  -0.477  -0.566  1.00  0.00     0.187 HD
BRANCH   7   9
HETATM    9  N4  UNL     1       0.673   1.570  -0.556  1.00  0.00    -0.275 N 
ATOM     10  H4  UNL     1       1.066   2.439  -0.916  1.00  0.00     0.189 HD
BRANCH   9  11
HETATM   11  C5  UNL     1      -0.673   1.597  -0.121  1.00  0.00     0.188 C 
HETATM   12  S1  UNL     1      -1.457   3.047  -0.254  1.00  0.00    -0.039 SA
BRANCH  11  13
HETATM   13  N5  UNL     1      -1.393   0.503   0.410  1.00  0.00    -0.357 N 
HETATM   14  C6  UNL     1      -0.911  -0.840   0.620  1.00  0.00     0.125 C 
HETATM   15  C7  UNL     1      -1.960  -1.443   1.517  1.00  0.00     0.021 C 
HETATM   16  C8  UNL     1      -3.233  -0.876   0.926  1.00  0.00     0.021 C 
HETATM   17  C9  UNL     1      -2.804   0.589   0.824  1.00  0.00     0.125 C 
ENDBRANCH  11  13
ENDBRANCH   9  11
ENDBRANCH   7   9
ENDBRANCH   3   4
TORSDOF 4
