REMARK  5 active torsions:
REMARK  status: ('A' for Active; 'I' for Inactive)
REMARK    1  A    between atoms: C2_2  and  N1_4 
REMARK       I    between atoms: N1_4  and  C4_6 
REMARK    2  A    between atoms: C4_6  and  C5_8 
REMARK    3  A    between atoms: C8_11  and  C9_12 
REMARK    4  A    between atoms: C9_12  and  N2_13 
REMARK    5  A    between atoms: N4_24  and  C17_25 
ROOT
HETATM    1  C5  UNL     1      -1.815   0.402  -0.557  1.00  0.00     0.176 C 
HETATM    2  C6  UNL     1      -0.832   0.911  -1.603  1.00  0.00     0.035 C 
HETATM    3  C7  UNL     1       0.572   0.954  -1.033  1.00  0.00     0.014 C 
HETATM    4  C8  UNL     1       0.991  -0.430  -0.605  1.00  0.00     0.052 C 
HETATM    5  C16 UNL     1      -0.087  -1.133   0.216  1.00  0.00     0.066 C 
HETATM    6  N4  UNL     1      -1.402  -0.875  -0.141  1.00  0.00    -0.375 N 
ENDROOT
BRANCH   4   7
HETATM    7  C9  UNL     1       2.202  -0.385   0.278  1.00  0.00     0.282 C 
BRANCH   7   8
HETATM    8  N2  UNL     1       3.296   0.221  -0.398  1.00  0.00     0.097 N 
HETATM    9  C10 UNL     1       4.405   0.242   0.553  1.00  0.00     0.305 C 
HETATM   10  C11 UNL     1       5.599   0.885  -0.062  1.00  0.00     0.210 C 
HETATM   11  C12 UNL     1       6.028   2.024   0.874  1.00  0.00     0.042 C 
HETATM   12  N3  UNL     1       5.358   1.458  -1.354  1.00  0.00    -0.068 N 
HETATM   13  C13 UNL     1       4.724   0.571  -2.278  1.00  0.00     0.268 C 
ATOM     14  H32 UNL     1       4.826   2.324  -1.267  1.00  0.00     0.277 HD
ATOM     15  H31 UNL     1       6.224   1.826  -1.749  1.00  0.00     0.277 HD
HETATM   16  C14 UNL     1       3.691  -0.343  -1.640  1.00  0.00     0.244 C 
HETATM   17  C15 UNL     1       4.287  -1.733  -1.493  1.00  0.00     0.045 C 
ENDBRANCH   7   8
ENDBRANCH   4   7
BRANCH   6  18
HETATM   18  C17 UNL     1      -2.353  -1.812   0.240  1.00  0.00     0.084 C 
HETATM   19  C18 UNL     1      -3.323  -2.261  -0.807  1.00  0.00     0.025 C 
HETATM   20  C19 UNL     1      -4.721  -2.275  -0.295  1.00  0.00     0.002 C 
HETATM   21  C20 UNL     1      -4.958  -3.140   0.884  1.00  0.00     0.000 C 
HETATM   22  C21 UNL     1      -3.918  -4.225   1.053  1.00  0.00     0.000 C 
HETATM   23  C22 UNL     1      -2.704  -3.763   1.773  1.00  0.00     0.002 C 
HETATM   24  C23 UNL     1      -1.720  -3.000   0.905  1.00  0.00     0.025 C 
ENDBRANCH   6  18
BRANCH   1  25
HETATM   25  C4  UNL     1      -1.902   1.444   0.470  1.00  0.00     0.240 C 
HETATM   26  N1  UNL     1      -2.296   2.753   0.100  1.00  0.00    -0.355 N 
ATOM     27  H1  UNL     1      -2.511   2.936  -0.880  1.00  0.00     0.162 HD
HETATM   28  O1  UNL     1      -1.638   1.211   1.670  1.00  0.00    -0.271 OA
BRANCH  26  29
HETATM   29  C2  UNL     1      -2.408   3.846   1.048  1.00  0.00     0.076 C 
HETATM   30  C1  UNL     1      -1.460   4.933   0.665  1.00  0.00     0.032 C 
HETATM   31  C3  UNL     1      -3.834   4.342   1.160  1.00  0.00     0.032 C 
ENDBRANCH  26  29
ENDBRANCH   1  25
TORSDOF 5
