REMARK  6 active torsions:
REMARK  status: ('A' for Active; 'I' for Inactive)
REMARK    1  A    between atoms: C2_2  and  C3_3 
REMARK    2  A    between atoms: C2_2  and  N3_18 
REMARK       I    between atoms: C3_3  and  N1_5 
REMARK    3  A    between atoms: N1_5  and  C4_7 
REMARK    4  A    between atoms: N4_21  and  C15_22 
REMARK    5  A    between atoms: C15_22  and  C16_23 
REMARK    6  A    between atoms: C16_23  and  C17_24 
ROOT
HETATM    1  C1  UNL     1       0.216   1.551  -0.040  1.00  0.00     0.042 C 
HETATM    2  C2  UNL     1      -0.282   0.379   0.770  1.00  0.00     0.171 C 
ENDROOT
BRANCH   2   3
HETATM    3  C3  UNL     1      -1.720   0.165   0.439  1.00  0.00     0.240 C 
HETATM    4  O1  UNL     1      -2.063  -1.009   0.155  1.00  0.00    -0.271 OA
HETATM    5  N1  UNL     1      -2.659   1.222   0.442  1.00  0.00    -0.355 N 
ATOM      6  H1  UNL     1      -2.312   2.151   0.679  1.00  0.00     0.162 HD
BRANCH   5   7
HETATM    7  C4  UNL     1      -4.046   1.104   0.143  1.00  0.00     0.089 C 
HETATM    8  C5  UNL     1      -4.786   0.275   1.203  1.00  0.00     0.055 C 
HETATM    9  C6  UNL     1      -6.251   0.521   0.901  1.00  0.00     0.021 C 
HETATM   10  C7  UNL     1      -6.602   1.982   1.031  1.00  0.00     0.037 C 
HETATM   11  C8  UNL     1      -7.031  -0.247   1.978  1.00  0.00     0.037 C 
HETATM   12  N2  UNL     1      -6.570  -0.061  -0.336  1.00  0.00    -0.405 N 
HETATM   13  C9  UNL     1      -5.662  -0.057  -1.398  1.00  0.00     0.021 C 
ATOM     14  H2  UNL     1      -7.484  -0.496  -0.462  1.00  0.00     0.154 HD
HETATM   15  C10 UNL     1      -5.390  -1.525  -1.775  1.00  0.00     0.037 C 
HETATM   16  C11 UNL     1      -6.381   0.521  -2.628  1.00  0.00     0.037 C 
HETATM   17  C12 UNL     1      -4.360   0.611  -1.229  1.00  0.00     0.055 C 
ENDBRANCH   5   7
ENDBRANCH   2   3
BRANCH   2  18
HETATM   18  N3  UNL     1       0.510  -0.773   0.720  1.00  0.00    -0.374 N 
HETATM   19  C13 UNL     1       0.722  -1.439  -0.496  1.00  0.00     0.103 C 
HETATM   20  C14 UNL     1       2.191  -1.664  -0.823  1.00  0.00     0.107 C 
HETATM   21  N4  UNL     1       2.944  -1.172   0.259  1.00  0.00    -0.367 N 
HETATM   22  C23 UNL     1       2.650  -1.639   1.556  1.00  0.00     0.147 C 
HETATM   23  C24 UNL     1       1.208  -1.201   1.861  1.00  0.00     0.143 C 
BRANCH  21  24
HETATM   24  C15 UNL     1       4.118  -0.453   0.042  1.00  0.00     0.068 C 
BRANCH  24  25
HETATM   25  C16 UNL     1       5.294  -1.199  -0.522  1.00  0.00     0.078 C 
BRANCH  25  26
HETATM   26  C17 UNL     1       6.454  -0.283  -0.685  1.00  0.00    -0.079 C 
HETATM   27  C18 UNL     1       6.401   1.010  -0.363  1.00  0.00    -0.024 C 
HETATM   28  C19 UNL     1       7.666   1.802  -0.589  1.00  0.00     0.027 C 
HETATM   29  C20 UNL     1       8.802   1.074   0.104  1.00  0.00     0.004 C 
HETATM   30  C21 UNL     1       8.814  -0.395  -0.174  1.00  0.00     0.005 C 
HETATM   31  C22 UNL     1       7.756  -0.765  -1.221  1.00  0.00     0.034 C 
ENDBRANCH  25  26
ENDBRANCH  24  25
ENDBRANCH  21  24
ENDBRANCH   2  18
TORSDOF 6
