REMARK  1 active torsions:
REMARK  status: ('A' for Active; 'I' for Inactive)
REMARK    1  A    between atoms: N1_2  and  C2_5 
ROOT
HETATM    1  C2  UNL     1      -0.551  -0.149   0.484  1.00  0.00     0.336 A 
HETATM    2  C3  UNL     1      -1.114   0.972  -0.275  1.00  0.00     0.127 A 
HETATM    3  N2  UNL     1      -2.241   0.378  -0.565  1.00  0.00    -0.313 N 
ATOM      4  H2  UNL     1      -3.084   0.626  -1.083  1.00  0.00     0.181 HD
HETATM    5  N3  UNL     1      -1.796  -0.737   0.136  1.00  0.00    -0.103 NA
ENDROOT
BRANCH   1   6
HETATM    6  N1  UNL     1       0.640  -0.772  -0.027  1.00  0.00    -0.055 N 
HETATM    7  C1  UNL     1       1.776   0.135  -0.038  1.00  0.00     0.269 C 
ATOM      8  H12 UNL     1       0.479  -1.172  -0.951  1.00  0.00     0.279 HD
ATOM      9  H11 UNL     1       0.857  -1.627   0.485  1.00  0.00     0.279 HD
ENDBRANCH   1   6
TORSDOF 1
