REMARK  16 active torsions:
REMARK  status: ('A' for Active; 'I' for Inactive)
REMARK    1  A    between atoms: N1_2  and  C3_4 
REMARK    2  A    between atoms: C4_5  and  O1_6 
REMARK    3  A    between atoms: C5_8  and  O2_9 
REMARK    4  A    between atoms: C6_11  and  O3_12 
REMARK    5  A    between atoms: C7_14  and  C8_15 
REMARK    6  A    between atoms: C8_15  and  O4_16 
REMARK    7  A    between atoms: C8_15  and  C9_18 
REMARK    8  A    between atoms: N2_20  and  C11_21 
REMARK    9  A    between atoms: C11_21  and  N3_22 
REMARK   10  A    between atoms: C11_21  and  C12_26 
REMARK   11  A    between atoms: C12_26  and  O5_27 
REMARK   12  A    between atoms: C12_26  and  N4_29 
REMARK   13  A    between atoms: N4_29  and  N5_30 
REMARK   14  A    between atoms: N4_29  and  O6_33 
REMARK   15  A    between atoms: N6_39  and  O9_40 
REMARK   16  A    between atoms: C15_42  and  O10_43 
ROOT
HETATM    1  C9  UNL     1       0.582  -0.997  -1.741  1.00  0.00     0.116 A 
HETATM    2  C10 UNL     1       1.107  -0.805  -0.467  1.00  0.00     0.132 A 
HETATM    3  N2  UNL     1       2.091  -1.548   0.063  1.00  0.00    -0.285 N 
HETATM    4  C13 UNL     1       2.588  -2.534  -0.703  1.00  0.00     0.320 A 
HETATM    5  O7  UNL     1       3.507  -3.251  -0.248  1.00  0.00    -0.262 OA
HETATM    6  C14 UNL     1       2.085  -2.752  -1.984  1.00  0.00     0.340 A 
HETATM    7  O8  UNL     1       2.556  -3.679  -2.698  1.00  0.00    -0.260 OA
HETATM    8  N6  UNL     1       1.107  -2.006  -2.497  1.00  0.00    -0.179 N 
ENDROOT
BRANCH   1   9
HETATM    9  C8  UNL     1      -0.395  -0.145  -2.352  1.00  0.00     0.112 C 
BRANCH   9  10
HETATM   10  C7  UNL     1      -1.434   0.682  -1.799  1.00  0.00     0.071 A 
HETATM   11  C6  UNL     1      -1.828   1.837  -2.460  1.00  0.00     0.117 A 
HETATM   12  C5  UNL     1      -2.860   2.626  -2.058  1.00  0.00     0.136 A 
HETATM   13  C4  UNL     1      -3.563   2.248  -0.908  1.00  0.00     0.131 A 
HETATM   14  C3  UNL     1      -3.228   1.128  -0.216  1.00  0.00     0.100 A 
HETATM   15  C15 UNL     1      -2.142   0.313  -0.660  1.00  0.00     0.111 A 
BRANCH  11  16
HETATM   16  O3  UNL     1      -1.070   2.145  -3.605  1.00  0.00    -0.357 OA
ATOM     17  H3  UNL     1      -0.349   1.594  -3.886  1.00  0.00     0.217 HD
ENDBRANCH  11  16
BRANCH  12  18
HETATM   18  O2  UNL     1      -3.212   3.754  -2.739  1.00  0.00    -0.356 OA
ATOM     19  H2  UNL     1      -2.735   4.011  -3.519  1.00  0.00     0.218 HD
ENDBRANCH  12  18
BRANCH  13  20
HETATM   20  O1  UNL     1      -4.620   3.115  -0.547  1.00  0.00    -0.356 OA
ATOM     21  H1  UNL     1      -4.854   3.898  -1.031  1.00  0.00     0.218 HD
ENDBRANCH  13  20
BRANCH  14  22
HETATM   22  N1  UNL     1      -3.961   0.782   0.945  1.00  0.00    -0.385 N 
HETATM   23  C1  UNL     1      -5.060   1.620   1.392  1.00  0.00     0.149 C 
HETATM   24  C2  UNL     1      -3.671  -0.404   1.748  1.00  0.00     0.149 C 
ENDBRANCH  14  22
BRANCH  15  25
HETATM   25  O10 UNL     1      -1.884  -0.751   0.041  1.00  0.00    -0.357 OA
ATOM     26  H10 UNL     1      -1.162  -1.293  -0.254  1.00  0.00     0.217 HD
ENDBRANCH  15  25
ENDBRANCH   9  10
BRANCH   9  27
HETATM   27  O4  UNL     1      -0.334  -0.100  -3.657  1.00  0.00    -0.357 OA
ATOM     28  H4  UNL     1       0.352  -0.646  -4.022  1.00  0.00     0.217 HD
ENDBRANCH   9  27
ENDBRANCH   1   9
BRANCH   8  29
HETATM   29  O9  UNL     1       0.608  -2.228  -3.776  1.00  0.00    -0.279 OA
ATOM     30  H9  UNL     1       0.973  -2.930  -4.302  1.00  0.00     0.245 HD
ENDBRANCH   8  29
BRANCH   3  31
HETATM   31  C11 UNL     1       2.622  -1.326   1.393  1.00  0.00     0.338 C 
BRANCH  31  32
HETATM   32  N3  UNL     1       3.222  -2.505   1.948  1.00  0.00    -0.054 N 
ATOM     33  H33 UNL     1       2.569  -3.288   1.939  1.00  0.00     0.277 HD
ATOM     34  H32 UNL     1       3.937  -2.881   1.325  1.00  0.00     0.277 HD
ATOM     35  H31 UNL     1       3.596  -2.349   2.884  1.00  0.00     0.277 HD
ENDBRANCH  31  32
BRANCH  31  36
HETATM   36  C12 UNL     1       3.608  -0.170   1.403  1.00  0.00     0.290 C 
BRANCH  36  37
HETATM   37  O5  UNL     1       4.747  -0.483   0.640  1.00  0.00    -0.373 OA
ATOM     38  H5  UNL     1       5.363   0.240   0.646  1.00  0.00     0.212 HD
ENDBRANCH  36  37
BRANCH  36  39
HETATM   39  N4  UNL     1       4.076   0.104   2.748  1.00  0.00    -0.080 NA
BRANCH  39  40
HETATM   40  N5  UNL     1       5.323   0.693   2.640  1.00  0.00    -0.338 NA
ATOM     41  H52 UNL     1       5.929   0.046   2.136  1.00  0.00     0.173 HD
ATOM     42  H51 UNL     1       5.652   0.886   3.586  1.00  0.00     0.173 HD
ENDBRANCH  39  40
BRANCH  39  43
HETATM   43  O6  UNL     1       3.274   0.960   3.414  1.00  0.00    -0.292 OA
ATOM     44  H6  UNL     1       3.581   1.139   4.295  1.00  0.00     0.239 HD
ENDBRANCH  39  43
ENDBRANCH  36  39
ENDBRANCH  31  36
ENDBRANCH   3  31
TORSDOF 16
