REMARK  12 active torsions:
REMARK  status: ('A' for Active; 'I' for Inactive)
REMARK    1  A    between atoms: C2_2  and  C3_3 
REMARK    2  A    between atoms: C4_4  and  C5_5 
REMARK    3  A    between atoms: C5_5  and  C6_6 
REMARK    4  A    between atoms: C5_5  and  N1_10 
REMARK    5  A    between atoms: C6_6  and  C7_7 
REMARK    6  A    between atoms: C7_7  and  C8_8 
REMARK    7  A    between atoms: N1_10  and  C10_12 
REMARK    8  A    between atoms: C10_12  and  C11_13 
REMARK    9  A    between atoms: C13_16  and  N2_17 
REMARK   10  A    between atoms: N2_17  and  C14_19 
REMARK   11  A    between atoms: C14_19  and  C15_20 
REMARK   12  A    between atoms: C15_20  and  O1_21 
ROOT
HETATM    1  C10 UNL     1      -0.415   0.451  -1.711  1.00  0.00     0.154 C 
ENDROOT
BRANCH   1   2
HETATM    2  N1  UNL     1      -0.920   0.781  -0.405  1.00  0.00    -0.410 N 
ATOM      3  H1  UNL     1      -0.307   0.894   0.402  1.00  0.00     0.154 HD
BRANCH   2   4
HETATM    4  C5  UNL     1      -2.341   0.940  -0.314  1.00  0.00     0.099 C 
BRANCH   4   5
HETATM    5  C4  UNL     1      -2.650   1.381   1.078  1.00  0.00    -0.006 C 
HETATM    6  C3  UNL     1      -3.674   2.127   1.398  1.00  0.00    -0.029 C 
BRANCH   6   7
HETATM    7  C2  UNL     1      -4.690   2.657   0.450  1.00  0.00     0.022 C 
HETATM    8  C1  UNL     1      -4.722   4.177   0.465  1.00  0.00     0.009 C 
ENDBRANCH   6   7
ENDBRANCH   4   5
BRANCH   4   9
HETATM    9  C6  UNL     1      -3.017  -0.344  -0.665  1.00  0.00     0.029 C 
BRANCH   9  10
HETATM   10  C7  UNL     1      -2.548  -1.419   0.282  1.00  0.00     0.002 C 
BRANCH  10  11
HETATM   11  C8  UNL     1      -3.266  -2.701  -0.120  1.00  0.00    -0.004 C 
HETATM   12  C9  UNL     1      -2.794  -3.777   0.830  1.00  0.00     0.005 C 
ENDBRANCH  10  11
ENDBRANCH   9  10
ENDBRANCH   4   9
ENDBRANCH   2   4
ENDBRANCH   1   2
BRANCH   1  13
HETATM   13  C11 UNL     1       1.090   0.365  -1.526  1.00  0.00    -0.032 A 
HETATM   14  C12 UNL     1       1.862   1.478  -1.675  1.00  0.00     0.060 A 
HETATM   15  S1  UNL     1       3.437   0.899  -1.380  1.00  0.00    -0.084 SA
HETATM   16  C13 UNL     1       3.076  -0.738  -1.076  1.00  0.00     0.070 A 
HETATM   17  C17 UNL     1       1.717  -0.790  -1.215  1.00  0.00     0.046 A 
BRANCH  16  18
HETATM   18  N2  UNL     1       3.973  -1.821  -0.749  1.00  0.00    -0.382 N 
ATOM     19  H2  UNL     1       3.603  -2.760  -0.603  1.00  0.00     0.160 HD
BRANCH  18  20
HETATM   20  C14 UNL     1       5.372  -1.584  -0.630  1.00  0.00     0.146 C 
BRANCH  20  21
HETATM   21  C15 UNL     1       5.772  -0.662   0.480  1.00  0.00     0.186 C 
BRANCH  21  22
HETATM   22  O1  UNL     1       7.149  -0.487   0.525  1.00  0.00    -0.394 OA
HETATM   23  C16 UNL     1       7.484   0.370   1.561  1.00  0.00     0.201 C 
ENDBRANCH  21  22
ENDBRANCH  20  21
ENDBRANCH  18  20
ENDBRANCH  16  18
ENDBRANCH   1  13
TORSDOF 12
