REMARK  0 active torsions:
REMARK  status: ('A' for Active; 'I' for Inactive)
ROOT
HETATM    1  O1  UNL     1      -1.052   1.886   1.256  1.00  0.00    -0.265 OA
HETATM    2  C1  UNL     1      -0.834   0.861   0.574  1.00  0.00     0.278 A 
HETATM    3  N1  UNL     1      -1.887   0.139   0.097  1.00  0.00    -0.318 N 
ATOM      4  H1  UNL     1      -2.844   0.432   0.294  1.00  0.00     0.169 HD
HETATM    5  C2  UNL     1      -1.653  -0.960  -0.634  1.00  0.00     0.185 A 
HETATM    6  N2  UNL     1      -0.378  -1.357  -0.901  1.00  0.00    -0.335 N 
ATOM      7  H2  UNL     1      -0.220  -2.196  -1.459  1.00  0.00     0.168 HD
HETATM    8  C3  UNL     1       0.677  -0.659  -0.440  1.00  0.00     0.156 A 
HETATM    9  N3  UNL     1       2.027  -0.790  -0.529  1.00  0.00    -0.269 N 
ATOM     10  H3  UNL     1       2.509  -1.539  -1.026  1.00  0.00     0.190 HD
HETATM   11  N4  UNL     1       2.620   0.185   0.116  1.00  0.00    -0.240 N 
ATOM     12  H4  UNL     1       3.628   0.316   0.200  1.00  0.00     0.208 HD
HETATM   13  N5  UNL     1       1.693   0.970   0.640  1.00  0.00    -0.278 N 
ATOM     14  H5  UNL     1       1.871   1.807   1.196  1.00  0.00     0.189 HD
HETATM   15  C4  UNL     1       0.467   0.484   0.320  1.00  0.00     0.163 A 
ENDROOT
TORSDOF 0
