REMARK  4 active torsions:
REMARK  status: ('A' for Active; 'I' for Inactive)
REMARK    1  A    between atoms: N1_2  and  N2_4 
REMARK    2  A    between atoms: N2_4  and  C2_6 
REMARK    3  A    between atoms: C5_13  and  N5_14 
REMARK    4  A    between atoms: N5_14  and  N6_16 
ROOT
HETATM    1  C2  UNL     1       0.081  -0.138  -0.899  1.00  0.00     0.108 A 
HETATM    2  C3  UNL     1       0.591  -1.126  -1.724  1.00  0.00     0.123 A 
HETATM    3  N3  UNL     1       1.865  -1.516  -1.528  1.00  0.00    -0.360 N 
ATOM      4  H3  UNL     1       2.253  -2.244  -2.127  1.00  0.00     0.166 HD
HETATM    5  C4  UNL     1       2.644  -0.981  -0.572  1.00  0.00     0.182 A 
HETATM    6  N4  UNL     1       2.112  -0.024   0.202  1.00  0.00    -0.336 N 
ATOM      7  H4  UNL     1       2.702   0.386   0.927  1.00  0.00     0.168 HD
HETATM    8  C5  UNL     1       0.869   0.425   0.087  1.00  0.00     0.150 A 
ENDROOT
BRANCH   1   9
HETATM    9  N2  UNL     1      -1.286   0.242  -1.131  1.00  0.00    -0.301 N 
ATOM     10  H2  UNL     1      -1.563   0.432  -2.094  1.00  0.00     0.186 HD
BRANCH   9  11
HETATM   11  N1  UNL     1      -2.232   0.368  -0.177  1.00  0.00    -0.340 N 
HETATM   12  C1  UNL     1      -2.697  -0.789   0.462  1.00  0.00     0.167 C 
ATOM     13  H1  UNL     1      -2.601   1.286   0.073  1.00  0.00     0.179 HD
ENDBRANCH   9  11
ENDBRANCH   1   9
BRANCH   8  14
HETATM   14  N5  UNL     1       0.358   1.354   0.836  1.00  0.00    -0.290 N 
ATOM     15  H5  UNL     1      -0.607   1.646   0.683  1.00  0.00     0.188 HD
BRANCH  14  16
HETATM   16  N6  UNL     1       1.098   1.956   1.838  1.00  0.00    -0.344 N 
ATOM     17  H62 UNL     1       2.062   1.653   1.978  1.00  0.00     0.176 HD
ATOM     18  H61 UNL     1       0.696   2.686   2.427  1.00  0.00     0.176 HD
ENDBRANCH  14  16
ENDBRANCH   8  14
TORSDOF 4
