REMARK  6 active torsions:
REMARK  status: ('A' for Active; 'I' for Inactive)
REMARK    1  A    between atoms: N1_1  and  C1_4 
REMARK    2  A    between atoms: C2_7  and  C3_8 
REMARK    3  A    between atoms: C3_8  and  C4_9 
REMARK    4  A    between atoms: C4_9  and  N3_10 
REMARK    5  A    between atoms: C4_9  and  C5_14 
REMARK    6  A    between atoms: C5_14  and  N4_15 
ROOT
HETATM    1  C3  UNL     1      -0.227   0.136   0.840  1.00  0.00     0.121 C 
ENDROOT
BRANCH   1   2
HETATM    2  C2  UNL     1       1.179  -0.042   0.388  1.00  0.00     0.164 A 
HETATM    3  N2  UNL     1       1.979   0.908  -0.168  1.00  0.00    -0.171 N 
HETATM    4  C1  UNL     1       3.169   0.369  -0.441  1.00  0.00     0.697 A 
ATOM      5  H2  UNL     1       1.712   1.876  -0.347  1.00  0.00     0.186 HD
HETATM    6  N5  UNL     1       3.106  -0.916  -0.053  1.00  0.00    -0.090 N 
HETATM    7  O1  UNL     1       1.917  -1.120   0.430  1.00  0.00    -0.209 OA
ATOM      8  H5  UNL     1       3.855  -1.605  -0.125  1.00  0.00     0.213 HD
BRANCH   4   9
HETATM    9  N1  UNL     1       4.221   0.900  -0.968  1.00  0.00    -0.233 N 
ATOM     10  H12 UNL     1       4.269   1.875  -1.263  1.00  0.00     0.174 HD
ATOM     11  H11 UNL     1       5.130   0.488  -1.177  1.00  0.00     0.174 HD
ENDBRANCH   4   9
ENDBRANCH   1   2
BRANCH   1  12
HETATM   12  C4  UNL     1      -1.195  -0.166  -0.284  1.00  0.00     0.216 C 
BRANCH  12  13
HETATM   13  N3  UNL     1      -1.050  -1.531  -0.755  1.00  0.00    -0.073 N 
ATOM     14  H33 UNL     1      -0.088  -1.733  -1.026  1.00  0.00     0.274 HD
ATOM     15  H32 UNL     1      -1.142  -2.202   0.008  1.00  0.00     0.274 HD
ATOM     16  H31 UNL     1      -1.702  -1.734  -1.512  1.00  0.00     0.274 HD
ENDBRANCH  12  13
BRANCH  12  17
HETATM   17  C5  UNL     1      -2.628  -0.028   0.187  1.00  0.00     0.262 C 
BRANCH  17  18
HETATM   18  N4  UNL     1      -2.903   1.317   0.659  1.00  0.00    -0.077 N 
ATOM     19  H43 UNL     1      -2.243   1.602   1.382  1.00  0.00     0.274 HD
ATOM     20  H42 UNL     1      -2.673   2.016  -0.048  1.00  0.00     0.274 HD
ATOM     21  H41 UNL     1      -3.868   1.410   0.976  1.00  0.00     0.274 HD
ENDBRANCH  17  18
ENDBRANCH  12  17
ENDBRANCH   1  12
TORSDOF 6
