REMARK  10 active torsions:
REMARK  status: ('A' for Active; 'I' for Inactive)
REMARK    1  A    between atoms: C2_2  and  O1_3 
REMARK    2  A    between atoms: O1_3  and  C3_4 
REMARK    3  A    between atoms: C4_5  and  O2_6 
REMARK    4  A    between atoms: C7_9  and  C8_10 
REMARK    5  A    between atoms: C8_10  and  C9_11 
REMARK    6  A    between atoms: C10_12  and  C11_13 
REMARK    7  A    between atoms: C13_18  and  O4_19 
REMARK    8  A    between atoms: C14_21  and  C15_22 
REMARK    9  A    between atoms: C19_27  and  O5_28 
REMARK   10  A    between atoms: C21_31  and  O6_32 
ROOT
HETATM    1  C9  UNL     1       0.878  -1.192  -1.087  1.00  0.00     0.015 A 
HETATM    2  C10 UNL     1       1.161  -0.277  -2.058  1.00  0.00     0.057 A 
HETATM    3  C12 UNL     1       2.216   0.478  -1.580  1.00  0.00     0.130 A 
HETATM    4  N1  UNL     1       3.010   1.506  -1.917  1.00  0.00    -0.320 N 
ATOM      5  H1  UNL     1       2.968   2.031  -2.791  1.00  0.00     0.169 HD
HETATM    6  C13 UNL     1       3.860   1.724  -0.921  1.00  0.00     0.166 A 
HETATM    7  C14 UNL     1       3.610   0.794   0.113  1.00  0.00     0.079 A 
HETATM    8  N2  UNL     1       2.585   0.051  -0.348  1.00  0.00    -0.275 N 
HETATM    9  C19 UNL     1       1.781  -0.970  -0.024  1.00  0.00     0.156 A 
ENDROOT
BRANCH   1  10
HETATM   10  C8  UNL     1      -0.164  -2.225  -1.058  1.00  0.00     0.082 C 
BRANCH  10  11
HETATM   11  C7  UNL     1      -1.519  -1.732  -0.703  1.00  0.00    -0.048 A 
HETATM   12  C6  UNL     1      -2.449  -1.453  -1.670  1.00  0.00     0.047 A 
HETATM   13  C4  UNL     1      -3.692  -0.994  -1.278  1.00  0.00     0.104 A 
HETATM   14  C3  UNL     1      -4.030  -0.805   0.054  1.00  0.00     0.135 A 
HETATM   15  C21 UNL     1      -3.107  -1.080   1.031  1.00  0.00     0.104 A 
HETATM   16  C20 UNL     1      -1.877  -1.537   0.625  1.00  0.00     0.047 A 
BRANCH  13  17
HETATM   17  O2  UNL     1      -4.639  -0.711  -2.282  1.00  0.00    -0.353 OA
HETATM   18  C5  UNL     1      -4.274  -0.909  -3.616  1.00  0.00     0.210 C 
ENDBRANCH  13  17
BRANCH  14  19
HETATM   19  O1  UNL     1      -5.284  -0.346   0.342  1.00  0.00    -0.346 OA
BRANCH  19  20
HETATM   20  C2  UNL     1      -5.706   0.971   0.479  1.00  0.00     0.171 C 
HETATM   21  C1  UNL     1      -5.529   1.843  -0.716  1.00  0.00     0.034 C 
ENDBRANCH  19  20
ENDBRANCH  14  19
BRANCH  15  22
HETATM   22  O6  UNL     1      -3.411  -0.902   2.395  1.00  0.00    -0.353 OA
HETATM   23  C22 UNL     1      -2.435  -1.197   3.371  1.00  0.00     0.210 C 
ENDBRANCH  15  22
ENDBRANCH  10  11
ENDBRANCH   1  10
BRANCH   2  24
HETATM   24  C11 UNL     1       0.517  -0.113  -3.374  1.00  0.00     0.274 C 
HETATM   25  O3  UNL     1       0.937   0.810  -4.111  1.00  0.00    -0.301 OA
ENDBRANCH   2  24
BRANCH   9  26
HETATM   26  O5  UNL     1       1.792  -1.717   1.149  1.00  0.00    -0.345 OA
ATOM     27  H5  UNL     1       2.399  -1.568   1.864  1.00  0.00     0.219 HD
ENDBRANCH   9  26
BRANCH   7  28
HETATM   28  C15 UNL     1       4.401   0.812   1.346  1.00  0.00    -0.004 C 
HETATM   29  C16 UNL     1       4.203   2.157   2.028  1.00  0.00     0.021 C 
HETATM   30  C17 UNL     1       5.918   0.830   0.960  1.00  0.00     0.021 C 
HETATM   31  C18 UNL     1       4.268  -0.326   2.288  1.00  0.00     0.021 C 
ENDBRANCH   7  28
BRANCH   6  32
HETATM   32  O4  UNL     1       4.830   2.705  -0.909  1.00  0.00    -0.345 OA
ATOM     33  H4  UNL     1       5.438   2.861  -0.196  1.00  0.00     0.219 HD
ENDBRANCH   6  32
TORSDOF 10
