REMARK  4 active torsions:
REMARK  status: ('A' for Active; 'I' for Inactive)
REMARK    1  A    between atoms: C4_6  and  C5_7 
REMARK    2  A    between atoms: C5_7  and  N2_8 
REMARK    3  A    between atoms: N2_8  and  C6_10 
REMARK    4  A    between atoms: C12_16  and  N3_17 
REMARK       I    between atoms: N3_17  and  C13_19 
ROOT
HETATM    1  N1  UNL     1      -6.405  -0.903   0.774  1.00  0.00    -0.191 NA
HETATM    2  C1  UNL     1      -5.261  -1.004   0.905  1.00  0.00     0.109 C 
HETATM    3  C2  UNL     1      -3.825  -1.167   1.108  1.00  0.00     0.112 A 
HETATM    4  S1  UNL     1      -3.107  -2.179   2.319  1.00  0.00    -0.088 SA
HETATM    5  C3  UNL     1      -1.478  -1.877   1.961  1.00  0.00     0.062 A 
HETATM    6  C4  UNL     1      -1.532  -1.002   0.916  1.00  0.00    -0.005 A 
HETATM    7  C12 UNL     1      -2.758  -0.631   0.471  1.00  0.00     0.070 A 
ENDROOT
BRANCH   7   8
HETATM    8  N3  UNL     1      -2.917   0.306  -0.629  1.00  0.00    -0.329 N 
HETATM    9  C13 UNL     1      -4.113   0.805  -1.130  1.00  0.00     0.186 C 
HETATM   10  N4  UNL     1      -4.697   0.268  -2.138  1.00  0.00    -0.373 N 
HETATM   11  N5  UNL     1      -4.754   1.976  -0.581  1.00  0.00    -0.064 NA
ATOM     12  H42 UNL     1      -4.244  -0.559  -2.526  1.00  0.00     0.158 HD
ATOM     13  H41 UNL     1      -5.575   0.634  -2.506  1.00  0.00     0.158 HD
ATOM     14  H3  UNL     1      -2.062   0.631  -1.080  1.00  0.00     0.168 HD
ENDBRANCH   7   8
BRANCH   6  15
HETATM   15  C5  UNL     1      -0.241  -0.480   0.296  1.00  0.00     0.156 C 
BRANCH  15  16
HETATM   16  N2  UNL     1       0.885  -1.026   0.956  1.00  0.00    -0.413 N 
ATOM     17  H2  UNL     1       0.788  -1.678   1.735  1.00  0.00     0.153 HD
BRANCH  16  18
HETATM   18  C6  UNL     1       2.149  -0.620   0.479  1.00  0.00     0.076 C 
HETATM   19  C7  UNL     1       2.432  -1.015  -0.953  1.00  0.00     0.024 C 
HETATM   20  C8  UNL     1       3.913  -0.864  -1.224  1.00  0.00     0.002 C 
HETATM   21  C9  UNL     1       4.589   0.086  -0.263  1.00  0.00     0.000 C 
HETATM   22  C10 UNL     1       3.647   1.276  -0.094  1.00  0.00     0.002 C 
HETATM   23  C11 UNL     1       2.447   0.848   0.718  1.00  0.00     0.024 C 
ENDBRANCH  16  18
ENDBRANCH  15  16
ENDBRANCH   6  15
TORSDOF 4
