REMARK  3 active torsions:
REMARK  status: ('A' for Active; 'I' for Inactive)
REMARK    1  A    between atoms: C2_2  and  C3_6 
REMARK    2  A    between atoms: C3_6  and  N3_9 
REMARK       I    between atoms: N3_9  and  C5_11 
REMARK    3  A    between atoms: C5_11  and  C6_13 
ROOT
HETATM    1  C3  UNL     1       2.453   0.245  -0.592  1.00  0.00     0.237 C 
HETATM    2  C4  UNL     1       3.002  -0.665  -1.626  1.00  0.00     0.090 C 
HETATM    3  N2  UNL     1       3.427  -1.366  -2.443  1.00  0.00    -0.195 NA
ENDROOT
BRANCH   1   4
HETATM    4  C2  UNL     1       3.495   0.414   0.454  1.00  0.00     0.013 C 
HETATM    5  C1  UNL     1       4.843   0.968   0.162  1.00  0.00     0.066 C 
HETATM    6  N1  UNL     1       3.205   0.066   1.648  1.00  0.00    -0.403 N 
ATOM      7  H12 UNL     1       3.920   0.182   2.366  1.00  0.00     0.155 HD
ATOM      8  H11 UNL     1       2.280  -0.314   1.848  1.00  0.00     0.155 HD
ENDBRANCH   1   4
BRANCH   1   9
HETATM    9  N3  UNL     1       1.248  -0.327  -0.018  1.00  0.00    -0.339 N 
HETATM   10  C5  UNL     1      -0.012   0.325  -0.096  1.00  0.00     0.223 C 
HETATM   11  O1  UNL     1      -0.061   1.428  -0.685  1.00  0.00    -0.273 OA
ATOM     12  H3  UNL     1       1.308  -1.227   0.457  1.00  0.00     0.164 HD
BRANCH  10  13
HETATM   13  C6  UNL     1      -1.188  -0.321   0.512  1.00  0.00     0.085 C 
HETATM   14  C7  UNL     1      -1.407  -1.682  -0.150  1.00  0.00     0.015 C 
HETATM   15  C8  UNL     1      -2.517  -1.007  -0.963  1.00  0.00     0.010 C 
HETATM   16  C9  UNL     1      -2.539   0.108   0.064  1.00  0.00    -0.036 C 
HETATM   17  C10 UNL     1      -2.712   1.483  -0.484  1.00  0.00     0.015 C 
HETATM   18  C11 UNL     1      -3.631  -0.168   1.106  1.00  0.00     0.015 C 
ENDBRANCH  10  13
ENDBRANCH   1   9
TORSDOF 3
