REMARK  5 active torsions:
REMARK  status: ('A' for Active; 'I' for Inactive)
REMARK    1  A    between atoms: C1_2  and  C2_4 
REMARK    2  A    between atoms: C2_4  and  N2_5 
REMARK    3  A    between atoms: C2_4  and  C3_9 
REMARK    4  A    between atoms: C3_9  and  N3_10 
REMARK       I    between atoms: N3_10  and  C4_12 
REMARK       I    between atoms: C4_12  and  N4_14 
REMARK    5  A    between atoms: N4_14  and  C5_16 
ROOT
HETATM    1  N3  UNL     1      -0.247  -0.243  -0.702  1.00  0.00    -0.340 N 
ATOM      2  H3  UNL     1      -0.358  -1.257  -0.679  1.00  0.00     0.164 HD
HETATM    3  C4  UNL     1       1.042   0.300  -0.839  1.00  0.00     0.334 C 
HETATM    4  O2  UNL     1       1.172   1.539  -0.867  1.00  0.00    -0.247 OA
HETATM    5  N4  UNL     1       2.143  -0.558  -0.940  1.00  0.00    -0.140 N 
ATOM      6  H4  UNL     1       2.033  -1.391  -1.518  1.00  0.00     0.189 HD
ENDROOT
BRANCH   1   7
HETATM    7  C3  UNL     1      -1.442   0.609  -0.591  1.00  0.00     0.166 C 
BRANCH   7   8
HETATM    8  C2  UNL     1      -2.653  -0.306  -0.457  1.00  0.00     0.289 C 
BRANCH   8   9
HETATM    9  C1  UNL     1      -3.905   0.478  -0.340  1.00  0.00     0.263 C 
HETATM   10  N1  UNL     1      -4.703   0.273   0.801  1.00  0.00    -0.060 NA
HETATM   11  O1  UNL     1      -4.271   1.309  -1.216  1.00  0.00    -0.275 OA
ENDBRANCH   8   9
BRANCH   8  12
HETATM   12  N2  UNL     1      -2.466  -1.156   0.634  1.00  0.00    -0.065 N 
ATOM     13  H23 UNL     1      -2.500  -0.642   1.514  1.00  0.00     0.275 HD
ATOM     14  H22 UNL     1      -3.273  -1.765   0.772  1.00  0.00     0.275 HD
ATOM     15  H21 UNL     1      -1.604  -1.696   0.553  1.00  0.00     0.275 HD
ENDBRANCH   8  12
ENDBRANCH   7   8
ENDBRANCH   1   7
BRANCH   5  16
HETATM   16  C5  UNL     1       3.277  -0.388  -0.369  1.00  0.00     0.701 A 
HETATM   17  N5  UNL     1       4.331  -1.218  -0.470  1.00  0.00    -0.185 N 
HETATM   18  C6  UNL     1       5.344  -0.731   0.254  1.00  0.00     0.215 A 
ATOM     19  H5  UNL     1       4.354  -2.081  -1.013  1.00  0.00     0.185 HD
HETATM   20  N6  UNL     1       4.927   0.422   0.822  1.00  0.00    -0.281 N 
HETATM   21  N7  UNL     1       3.664   0.609   0.427  1.00  0.00    -0.131 N 
ATOM     22  H6  UNL     1       5.471   1.031   1.433  1.00  0.00     0.188 HD
ATOM     23  H7  UNL     1       3.080   1.401   0.696  1.00  0.00     0.205 HD
ENDBRANCH   5  16
TORSDOF 5
