REMARK  8 active torsions:
REMARK  status: ('A' for Active; 'I' for Inactive)
REMARK       I    between atoms: C1_4  and  N2_5 
REMARK       I    between atoms: C1_4  and  N5_18 
REMARK    1  A    between atoms: N2_5  and  N3_7 
REMARK       I    between atoms: N3_7  and  C2_8 
REMARK    2  A    between atoms: C2_8  and  C3_10 
REMARK    3  A    between atoms: C3_10  and  C4_11 
REMARK    4  A    between atoms: C4_11  and  C5_12 
REMARK    5  A    between atoms: C5_12  and  C6_13 
REMARK    6  A    between atoms: C6_13  and  C7_14 
REMARK    7  A    between atoms: C7_14  and  O2_16 
REMARK    8  A    between atoms: N5_18  and  N6_20 
ROOT
HETATM    1  N1  UNL     1      -4.279   0.381   1.201  1.00  0.00    -0.231 N 
ATOM      2  H11 UNL     1      -4.755   0.772   2.014  1.00  0.00     0.174 HD
ATOM      3  H12 UNL     1      -4.631  -0.414   0.667  1.00  0.00     0.174 HD
HETATM    4  C1  UNL     1      -3.179   0.999   0.878  1.00  0.00     0.720 C 
HETATM    5  N2  UNL     1      -2.497   0.439  -0.288  1.00  0.00    -0.060 N 
ATOM      6  H2  UNL     1      -2.686   0.881  -1.187  1.00  0.00     0.221 HD
HETATM    7  N5  UNL     1      -2.706   2.067   1.596  1.00  0.00    -0.070 N 
ATOM      8  H5  UNL     1      -2.118   1.874   2.407  1.00  0.00     0.212 HD
ENDROOT
BRANCH   5   9
HETATM    9  N3  UNL     1      -1.713  -0.519  -0.291  1.00  0.00    -0.267 NA
HETATM   10  C2  UNL     1      -0.763  -1.680  -0.294  1.00  0.00     0.343 C 
HETATM   11  O1  UNL     1      -1.232  -2.744  -0.245  1.00  0.00    -0.249 OA
BRANCH  10  12
HETATM   12  C3  UNL     1       0.581  -1.154  -0.330  1.00  0.00     0.147 C 
BRANCH  12  13
HETATM   13  C4  UNL     1       1.746  -1.655  -0.441  1.00  0.00    -0.121 C 
BRANCH  13  14
HETATM   14  C5  UNL     1       2.967  -2.262  -0.562  1.00  0.00     0.059 C 
BRANCH  14  15
HETATM   15  C6  UNL     1       4.129  -1.526  -0.505  1.00  0.00     0.060 C 
BRANCH  15  16
HETATM   16  C7  UNL     1       4.173  -0.110  -0.319  1.00  0.00     0.150 C 
HETATM   17  N4  UNL     1       3.186   0.842  -0.137  1.00  0.00    -0.075 NA
BRANCH  16  18
HETATM   18  O2  UNL     1       5.389   0.421  -0.308  1.00  0.00    -0.348 OA
ATOM     19  H2  UNL     1       5.418   1.362  -0.184  1.00  0.00     0.219 HD
ENDBRANCH  16  18
ENDBRANCH  15  16
ENDBRANCH  14  15
ENDBRANCH  13  14
ENDBRANCH  12  13
ENDBRANCH  10  12
ENDBRANCH   5   9
BRANCH   7  20
HETATM   20  N6  UNL     1      -2.972   3.382   1.294  1.00  0.00    -0.024 N 
HETATM   21  O3  UNL     1      -3.957   3.993   1.690  1.00  0.00    -0.516 OA
HETATM   22  O4  UNL     1      -2.031   4.059   0.511  1.00  0.00    -0.516 OA
ENDBRANCH   7  20
TORSDOF 8
