REMARK  1 active torsions:
REMARK  status: ('A' for Active; 'I' for Inactive)
REMARK    1  A    between atoms: N1_1  and  C1_4 
ROOT
HETATM    1  C1  UNL     1      -1.843   0.178  -0.146  1.00  0.00     0.146 A 
HETATM    2  N2  UNL     1      -2.101  -1.037   0.353  1.00  0.00    -0.282 N 
ATOM      3  H2  UNL     1      -3.037  -1.422   0.478  1.00  0.00     0.188 HD
HETATM    4  N3  UNL     1      -0.978  -1.675   0.664  1.00  0.00    -0.282 N 
ATOM      5  H3  UNL     1      -0.928  -2.614   1.060  1.00  0.00     0.188 HD
HETATM    6  C2  UNL     1       0.081  -0.900   0.380  1.00  0.00     0.156 A 
HETATM    7  N4  UNL     1       1.422  -0.976   0.464  1.00  0.00    -0.290 N 
ATOM      8  H4  UNL     1       1.845  -1.826   0.837  1.00  0.00     0.172 HD
HETATM    9  C3  UNL     1       2.224   0.034   0.072  1.00  0.00     0.340 A 
HETATM   10  O1  UNL     1       3.496  -0.066   0.164  1.00  0.00    -0.245 OA
HETATM   11  N5  UNL     1       1.691   1.164  -0.422  1.00  0.00    -0.251 N 
ATOM     12  H5  UNL     1       2.306   1.923  -0.716  1.00  0.00     0.191 HD
HETATM   13  N6  UNL     1       0.386   1.308  -0.533  1.00  0.00    -0.290 N 
ATOM     14  H6  UNL     1       0.013   2.178  -0.912  1.00  0.00     0.187 HD
HETATM   15  C4  UNL     1      -0.463   0.342  -0.161  1.00  0.00     0.139 A 
ENDROOT
BRANCH   1  16
HETATM   16  N1  UNL     1      -2.708   1.056  -0.547  1.00  0.00    -0.382 N 
ATOM     17  H12 UNL     1      -3.721   0.936  -0.536  1.00  0.00     0.157 HD
ATOM     18  H11 UNL     1      -2.511   1.982  -0.927  1.00  0.00     0.157 HD
ENDBRANCH   1  16
TORSDOF 1
