REMARK  7 active torsions:
REMARK  status: ('A' for Active; 'I' for Inactive)
REMARK    1  A    between atoms: O1_2  and  C2_3 
REMARK    2  A    between atoms: C2_3  and  C3_5 
REMARK    3  A    between atoms: N2_9  and  C5_11 
REMARK    4  A    between atoms: N3_15  and  C9_16 
REMARK    5  A    between atoms: N6_23  and  N7_24 
REMARK    6  A    between atoms: N7_24  and  O3_26 
REMARK    7  A    between atoms: C11_30  and  C12_31 
ROOT
HETATM    1  C3  UNL     1       1.039  -1.541  -0.389  1.00  0.00     0.159 A 
HETATM    2  N1  UNL     1      -0.279  -1.403  -0.003  1.00  0.00    -0.182 N 
ATOM      3  H1  UNL     1      -0.941  -2.163   0.150  1.00  0.00     0.184 HD
HETATM    4  C4  UNL     1      -0.535  -0.102   0.135  1.00  0.00     0.701 A 
HETATM    5  N2  UNL     1      -1.655   0.464   0.485  1.00  0.00    -0.217 N 
ATOM      6  H2  UNL     1      -1.696   1.481   0.547  1.00  0.00     0.178 HD
HETATM    7  N3  UNL     1       0.553   0.623  -0.142  1.00  0.00     0.034 N 
HETATM    8  C11 UNL     1       1.548  -0.277  -0.473  1.00  0.00     0.184 A 
ENDROOT
BRANCH   7   9
HETATM    9  C9  UNL     1       0.669   2.037  -0.105  1.00  0.00     0.735 A 
HETATM   10  N4  UNL     1       0.490   2.879  -1.165  1.00  0.00    -0.017 N 
HETATM   11  C10 UNL     1       0.675   4.148  -0.779  1.00  0.00     0.729 A 
ATOM     12  H4  UNL     1       0.251   2.585  -2.112  1.00  0.00     0.203 HD
HETATM   13  N5  UNL     1       0.594   5.236  -1.489  1.00  0.00    -0.231 N 
HETATM   14  N6  UNL     1       0.973   4.120   0.535  1.00  0.00     0.014 N 
ATOM     15  H52 UNL     1       0.368   5.257  -2.484  1.00  0.00     0.174 HD
ATOM     16  H51 UNL     1       0.735   6.202  -1.195  1.00  0.00     0.174 HD
HETATM   17  N8  UNL     1       0.964   2.857   0.915  1.00  0.00    -0.092 N 
ATOM     18  H8  UNL     1       1.157   2.543   1.866  1.00  0.00     0.208 HD
BRANCH  14  19
HETATM   19  N7  UNL     1       1.243   5.260   1.334  1.00  0.00    -0.173 N 
ATOM     20  H7  UNL     1       0.504   5.763   1.825  1.00  0.00     0.218 HD
BRANCH  19  21
HETATM   21  O3  UNL     1       2.448   5.613   1.400  1.00  0.00    -0.272 OA
ATOM     22  H3  UNL     1       2.629   6.377   1.935  1.00  0.00     0.246 HD
ENDBRANCH  19  21
ENDBRANCH  14  19
ENDBRANCH   7   9
BRANCH   8  23
HETATM   23  C12 UNL     1       2.865   0.128  -0.832  1.00  0.00     0.231 C 
HETATM   24  O4  UNL     1       3.140   1.380  -0.849  1.00  0.00    -0.643 OA
HETATM   25  O5  UNL     1       3.891  -0.692  -1.168  1.00  0.00    -0.643 OA
ENDBRANCH   8  23
BRANCH   5  26
HETATM   26  C5  UNL     1      -2.826  -0.294   0.784  1.00  0.00     0.036 C 
HETATM   27  C6  UNL     1      -2.632  -1.234   1.976  1.00  0.00     0.038 C 
HETATM   28  C7  UNL     1      -3.941   0.656   1.199  1.00  0.00     0.038 C 
HETATM   29  C8  UNL     1      -3.286  -1.050  -0.423  1.00  0.00     0.038 C 
ENDBRANCH   5  26
BRANCH   1  30
HETATM   30  C2  UNL     1       1.613  -2.847  -0.619  1.00  0.00     0.312 C 
HETATM   31  O2  UNL     1       0.881  -3.876  -0.459  1.00  0.00    -0.258 OA
BRANCH  30  32
HETATM   32  O1  UNL     1       2.900  -3.080  -1.001  1.00  0.00    -0.321 OA
HETATM   33  C1  UNL     1       3.437  -4.391  -1.221  1.00  0.00     0.213 C 
ENDBRANCH  30  32
ENDBRANCH   1  30
TORSDOF 7
