REMARK  2 active torsions:
REMARK  status: ('A' for Active; 'I' for Inactive)
REMARK    1  A    between atoms: C2_2  and  C3_3 
REMARK    2  A    between atoms: C2_2  and  C5_11 
ROOT
HETATM    1  C1  UNL     1       1.871  -1.848   1.091  1.00  0.00     0.017 C 
HETATM    2  C2  UNL     1       1.342  -0.454   0.725  1.00  0.00     0.039 C 
ENDROOT
BRANCH   2   3
HETATM    3  C3  UNL     1       2.276   0.251  -0.128  1.00  0.00     0.048 A 
HETATM    4  C4  UNL     1       2.933   1.412   0.197  1.00  0.00     0.135 A 
HETATM    5  N1  UNL     1       3.708   1.750  -0.854  1.00  0.00    -0.296 N 
HETATM    6  N2  UNL     1       3.547   0.850  -1.791  1.00  0.00    -0.243 N 
ATOM      7  H1  UNL     1       4.316   2.567  -0.909  1.00  0.00     0.187 HD
HETATM    8  N3  UNL     1       2.683  -0.063  -1.367  1.00  0.00    -0.289 N 
ATOM      9  H2  UNL     1       4.011   0.851  -2.700  1.00  0.00     0.208 HD
ATOM     10  H3  UNL     1       2.376  -0.877  -1.900  1.00  0.00     0.188 HD
ENDBRANCH   2   3
BRANCH   2  11
HETATM   11  C5  UNL     1      -0.024  -0.645   0.180  1.00  0.00    -0.000 C 
HETATM   12  C6  UNL     1      -0.136  -1.500  -1.030  1.00  0.00     0.006 C 
HETATM   13  C7  UNL     1      -1.636  -1.348  -1.339  1.00  0.00     0.005 C 
HETATM   14  C8  UNL     1      -1.980   0.036  -0.891  1.00  0.00    -0.010 C 
HETATM   15  C9  UNL     1      -2.952   0.040   0.273  1.00  0.00     0.005 C 
HETATM   16  C12 UNL     1      -0.728   0.611  -0.226  1.00  0.00    -0.006 C 
HETATM   17  C10 UNL     1      -2.724   1.436   0.831  1.00  0.00     0.001 C 
HETATM   18  C11 UNL     1      -1.198   1.449   0.920  1.00  0.00     0.005 C 
ENDBRANCH   2  11
TORSDOF 2
