REMARK  4 active torsions:
REMARK  status: ('A' for Active; 'I' for Inactive)
REMARK    1  A    between atoms: O1_1  and  N1_3 
REMARK    2  A    between atoms: C1_5  and  C2_6 
REMARK    3  A    between atoms: C1_5  and  C9_13 
REMARK    4  A    between atoms: C2_6  and  C3_7 
ROOT
HETATM    1  N1  UNL     1       2.073   1.560  -1.362  1.00  0.00    -0.272 N 
ATOM      2  H1  UNL     1       2.877   1.363  -1.958  1.00  0.00     0.194 HD
HETATM    3  C1  UNL     1       1.818   0.821  -0.337  1.00  0.00     0.050 C 
ENDROOT
BRANCH   3   4
HETATM    4  C2  UNL     1       0.665   1.117   0.504  1.00  0.00     0.065 C 
BRANCH   4   5
HETATM    5  C3  UNL     1      -0.423   0.078   0.526  1.00  0.00    -0.009 C 
HETATM    6  C4  UNL     1      -1.504   0.597   1.458  1.00  0.00     0.005 C 
HETATM    7  C5  UNL     1      -2.732  -0.279   1.438  1.00  0.00     0.000 C 
HETATM    8  C6  UNL     1      -3.307  -0.173   0.039  1.00  0.00     0.000 C 
HETATM    9  C7  UNL     1      -2.291  -0.832  -0.875  1.00  0.00     0.000 C 
HETATM   10  C8  UNL     1      -1.018  -0.022  -0.872  1.00  0.00     0.005 C 
ENDBRANCH   4   5
ENDBRANCH   3   4
BRANCH   3  11
HETATM   11  C9  UNL     1       2.747  -0.306  -0.133  1.00  0.00     0.045 A 
HETATM   12  C10 UNL     1       2.804  -1.249   0.861  1.00  0.00     0.109 A 
HETATM   13  N2  UNL     1       3.730  -2.150   0.795  1.00  0.00    -0.368 N 
HETATM   14  C11 UNL     1       4.590  -2.146  -0.209  1.00  0.00     0.138 A 
ATOM     15  H2  UNL     1       3.797  -2.865   1.519  1.00  0.00     0.165 HD
HETATM   16  S1  UNL     1       4.075  -0.799  -1.123  1.00  0.00    -0.082 SA
ENDBRANCH   3  11
BRANCH   1  17
HETATM   17  O1  UNL     1       1.244   2.615  -1.635  1.00  0.00    -0.290 OA
ATOM     18  H1  UNL     1       1.432   3.160  -2.390  1.00  0.00     0.244 HD
ENDBRANCH   1  17
TORSDOF 4
