REMARK  2 active torsions:
REMARK  status: ('A' for Active; 'I' for Inactive)
REMARK    1  A    between atoms: C2_7  and  N3_8 
REMARK    2  A    between atoms: N3_8  and  C3_10 
ROOT
HETATM    1  C3  UNL     1      -0.372   0.312  -0.469  1.00  0.00     0.131 A 
HETATM    2  C4  UNL     1      -1.409   0.846   0.155  1.00  0.00     0.053 A 
HETATM    3  C5  UNL     1      -1.572   1.997   0.896  1.00  0.00     0.124 A 
HETATM    4  N4  UNL     1      -2.857   2.049   1.303  1.00  0.00    -0.310 N 
ATOM      5  H4  UNL     1      -3.257   2.796   1.871  1.00  0.00     0.186 HD
HETATM    6  N5  UNL     1      -3.522   1.003   0.866  1.00  0.00    -0.300 N 
ATOM      7  H5  UNL     1      -4.508   0.801   1.032  1.00  0.00     0.187 HD
HETATM    8  C6  UNL     1      -2.650   0.237   0.150  1.00  0.00     0.061 A 
HETATM    9  C7  UNL     1      -2.855  -0.895  -0.472  1.00  0.00     0.024 A 
HETATM   10  C8  UNL     1      -1.781  -1.586  -1.202  1.00  0.00     0.151 A 
HETATM   11  N6  UNL     1      -0.531  -0.903  -1.155  1.00  0.00    -0.371 N 
ATOM     12  H6  UNL     1       0.273  -1.309  -1.634  1.00  0.00     0.161 HD
ENDROOT
BRANCH   1  13
HETATM   13  N3  UNL     1       0.874   0.949  -0.448  1.00  0.00    -0.174 N 
ATOM     14  H3  UNL     1       0.896   1.925  -0.742  1.00  0.00     0.186 HD
BRANCH  13  15
HETATM   15  C2  UNL     1       1.978   0.432  -0.099  1.00  0.00     0.702 A 
HETATM   16  N2  UNL     1       2.262  -0.810   0.330  1.00  0.00    -0.128 N 
HETATM   17  N1  UNL     1       3.557  -0.885   0.577  1.00  0.00    -0.237 N 
ATOM     18  H2  UNL     1       1.589  -1.568   0.445  1.00  0.00     0.205 HD
HETATM   19  C1  UNL     1       4.133   0.321   0.308  1.00  0.00     0.353 A 
ATOM     20  H1  UNL     1       4.048  -1.713   0.915  1.00  0.00     0.192 HD
HETATM   21  O1  UNL     1       5.363   0.565   0.446  1.00  0.00    -0.245 OA
HETATM   22  N7  UNL     1       3.148   1.137  -0.112  1.00  0.00    -0.139 N 
ATOM     23  H7  UNL     1       3.256   2.112  -0.391  1.00  0.00     0.189 HD
ENDBRANCH  13  15
ENDBRANCH   1  13
TORSDOF 2
