REMARK  8 active torsions:
REMARK  status: ('A' for Active; 'I' for Inactive)
REMARK    1  A    between atoms: C2_2  and  C5_5 
REMARK    2  A    between atoms: C8_8  and  C9_9 
REMARK    3  A    between atoms: C9_9  and  N1_10 
REMARK       I    between atoms: N1_10  and  C10_12 
REMARK    4  A    between atoms: C10_12  and  C11_14 
REMARK    5  A    between atoms: C11_14  and  S1_15 
REMARK    6  A    between atoms: S1_15  and  C12_16 
REMARK    7  A    between atoms: C14_20  and  N3_21 
REMARK    8  A    between atoms: N3_21  and  C15_23 
ROOT
HETATM    1  S1  UNL     1      -1.549  -3.748  -0.043  1.00  0.00    -0.114 SA
ENDROOT
BRANCH   1   2
HETATM    2  C11 UNL     1      -0.050  -3.089  -0.767  1.00  0.00     0.182 C 
BRANCH   2   3
HETATM    3  C10 UNL     1       0.508  -1.923  -0.042  1.00  0.00     0.227 C 
HETATM    4  N1  UNL     1       0.405  -0.594  -0.492  1.00  0.00    -0.360 N 
ATOM      5  H1  UNL     1      -0.101  -0.446  -1.365  1.00  0.00     0.162 HD
HETATM    6  O1  UNL     1       1.108  -2.224   1.054  1.00  0.00    -0.273 OA
BRANCH   4   7
HETATM    7  C9  UNL     1       0.940   0.580   0.151  1.00  0.00     0.127 C 
BRANCH   7   8
HETATM    8  C8  UNL     1       2.441   0.425   0.222  1.00  0.00     0.003 C 
HETATM    9  C7  UNL     1       3.133   1.601   0.866  1.00  0.00     0.006 C 
HETATM   10  C6  UNL     1       4.620   1.416   0.829  1.00  0.00     0.006 C 
HETATM   11  C5  UNL     1       5.099   0.167   0.215  1.00  0.00    -0.007 C 
HETATM   12  C22 UNL     1       4.397  -0.272  -1.032  1.00  0.00     0.006 C 
HETATM   13  C21 UNL     1       3.032   0.357  -1.194  1.00  0.00     0.006 C 
BRANCH  11  14
HETATM   14  C2  UNL     1       6.569   0.358  -0.168  1.00  0.00    -0.048 C 
HETATM   15  C1  UNL     1       6.764   1.485  -1.155  1.00  0.00     0.015 C 
HETATM   16  C3  UNL     1       7.334   0.706   1.094  1.00  0.00     0.015 C 
HETATM   17  C4  UNL     1       7.157  -0.924  -0.724  1.00  0.00     0.015 C 
ENDBRANCH  11  14
ENDBRANCH   7   8
ENDBRANCH   4   7
ENDBRANCH   2   3
ENDBRANCH   1   2
BRANCH   1  18
HETATM   18  C12 UNL     1      -2.951  -2.676  -0.136  1.00  0.00     0.085 A 
HETATM   19  C13 UNL     1      -3.800  -2.648  -1.245  1.00  0.00     0.130 A 
HETATM   20  N2  UNL     1      -4.870  -1.865  -1.241  1.00  0.00    -0.200 N 
HETATM   21  C14 UNL     1      -5.218  -1.057  -0.203  1.00  0.00     0.681 A 
ATOM     22  H2  UNL     1      -5.469  -1.869  -2.067  1.00  0.00     0.183 HD
HETATM   23  N4  UNL     1      -4.416  -1.072   0.863  1.00  0.00    -0.155 N 
HETATM   24  C20 UNL     1      -3.303  -1.862   0.905  1.00  0.00     0.277 A 
ATOM     25  H4  UNL     1      -4.639  -0.481   1.664  1.00  0.00     0.187 HD
HETATM   26  O2  UNL     1      -2.612  -1.812   1.942  1.00  0.00    -0.266 OA
BRANCH  21  27
HETATM   27  N3  UNL     1      -6.275  -0.346  -0.277  1.00  0.00    -0.221 N 
ATOM     28  H3  UNL     1      -6.817  -0.424  -1.138  1.00  0.00     0.178 HD
BRANCH  27  29
HETATM   29  C15 UNL     1      -6.774   0.534   0.701  1.00  0.00     0.099 C 
HETATM   30  C16 UNL     1      -8.288   0.269   0.819  1.00  0.00     0.026 C 
HETATM   31  C17 UNL     1      -8.970   1.389   0.097  1.00  0.00     0.002 C 
HETATM   32  C18 UNL     1      -7.896   2.096  -0.662  1.00  0.00     0.002 C 
HETATM   33  C19 UNL     1      -6.709   2.007   0.302  1.00  0.00     0.026 C 
ENDBRANCH  27  29
ENDBRANCH  21  27
ENDBRANCH   1  18
TORSDOF 8
