REMARK  10 active torsions:
REMARK  status: ('A' for Active; 'I' for Inactive)
REMARK    1  A    between atoms: C2_2  and  C3_3 
REMARK    2  A    between atoms: C2_2  and  C4_14 
REMARK    3  A    between atoms: C3_3  and  N3_9 
REMARK    4  A    between atoms: N1_4  and  N2_6 
REMARK    5  A    between atoms: N3_9  and  N4_11 
REMARK    6  A    between atoms: C6_16  and  C7_17 
REMARK    7  A    between atoms: C7_17  and  S1_18 
REMARK    8  A    between atoms: S1_18  and  C8_19 
REMARK    9  A    between atoms: C9_22  and  N6_23 
REMARK   10  A    between atoms: N6_23  and  C10_25 
ROOT
HETATM    1  S1  UNL     1       0.092  -3.597   0.034  1.00  0.00    -0.087 SA
ENDROOT
BRANCH   1   2
HETATM    2  C7  UNL     1      -1.569  -3.523  -0.613  1.00  0.00     0.141 C 
BRANCH   2   3
HETATM    3  C6  UNL     1      -2.473  -2.595   0.099  1.00  0.00     0.044 A 
HETATM    4  C5  UNL     1      -2.819  -1.294  -0.097  1.00  0.00     0.063 A 
HETATM    5  C4  UNL     1      -3.710  -0.926   0.895  1.00  0.00     0.089 A 
HETATM    6  O2  UNL     1      -3.869  -1.973   1.631  1.00  0.00    -0.241 OA
HETATM    7  N13 UNL     1      -3.166  -2.979   1.207  1.00  0.00    -0.264 N 
ATOM      8  H13 UNL     1      -3.137  -3.905   1.634  1.00  0.00     0.194 HD
BRANCH   5   9
HETATM    9  C2  UNL     1      -4.368   0.387   1.105  1.00  0.00     0.111 C 
HETATM   10  C1  UNL     1      -3.352   1.503   1.218  1.00  0.00     0.025 C 
BRANCH   9  11
HETATM   11  C3  UNL     1      -5.264   0.715  -0.045  1.00  0.00     0.119 C 
HETATM   12  N1  UNL     1      -5.115   1.771  -0.741  1.00  0.00    -0.294 N 
ATOM     13  H1  UNL     1      -4.356   2.408  -0.498  1.00  0.00     0.187 HD
BRANCH  12  14
HETATM   14  N2  UNL     1      -5.930   2.098  -1.810  1.00  0.00    -0.344 N 
ATOM     15  H22 UNL     1      -6.684   1.450  -2.039  1.00  0.00     0.176 HD
ATOM     16  H21 UNL     1      -5.811   2.944  -2.367  1.00  0.00     0.176 HD
ENDBRANCH  12  14
BRANCH  11  17
HETATM   17  N3  UNL     1      -6.311  -0.195  -0.354  1.00  0.00    -0.294 N 
ATOM     18  H3  UNL     1      -6.369  -0.593  -1.291  1.00  0.00     0.187 HD
BRANCH  17  19
HETATM   19  N4  UNL     1      -7.277  -0.559   0.620  1.00  0.00    -0.344 N 
ATOM     20  H42 UNL     1      -7.204  -0.152   1.552  1.00  0.00     0.176 HD
ATOM     21  H41 UNL     1      -8.028  -1.212   0.398  1.00  0.00     0.176 HD
ENDBRANCH  17  19
ENDBRANCH  11  17
ENDBRANCH   9  11
ENDBRANCH   5   9
ENDBRANCH   2   3
ENDBRANCH   1   2
BRANCH   1  22
HETATM   22  C8  UNL     1       0.998  -2.087  -0.207  1.00  0.00     0.163 A 
HETATM   23  N5  UNL     1       2.283  -1.978   0.241  1.00  0.00    -0.169 N 
HETATM   24  C9  UNL     1       2.997  -0.853   0.070  1.00  0.00     0.702 A 
ATOM     25  H5  UNL     1       2.712  -2.771   0.718  1.00  0.00     0.186 HD
HETATM   26  N11 UNL     1       2.483   0.224  -0.550  1.00  0.00    -0.140 N 
HETATM   27  C13 UNL     1       1.218   0.129  -0.996  1.00  0.00     0.340 A 
ATOM     28  H11 UNL     1       3.029   1.076  -0.676  1.00  0.00     0.189 HD
HETATM   29  O1  UNL     1       0.736   1.147  -1.580  1.00  0.00    -0.246 OA
HETATM   30  N12 UNL     1       0.509  -1.001  -0.821  1.00  0.00    -0.288 N 
ATOM     31  H12 UNL     1      -0.448  -1.033  -1.173  1.00  0.00     0.172 HD
BRANCH  24  32
HETATM   32  N6  UNL     1       4.346  -0.754   0.546  1.00  0.00    -0.021 N 
ATOM     33  H6  UNL     1       4.761  -1.556   1.021  1.00  0.00     0.203 HD
BRANCH  32  34
HETATM   34  C10 UNL     1       5.120   0.418   0.379  1.00  0.00     0.708 C 
HETATM   35  N7  UNL     1       4.937   1.461   1.131  1.00  0.00    -0.210 N 
HETATM   36  C11 UNL     1       5.663   2.687   1.044  1.00  0.00     0.271 C 
ATOM     37  H7  UNL     1       4.212   1.399   1.846  1.00  0.00     0.179 HD
HETATM   38  N8  UNL     1       6.807   2.609   0.158  1.00  0.00    -0.105 NA
HETATM   39  N9  UNL     1       6.547   1.819  -0.963  1.00  0.00    -0.013 NA
HETATM   40  N10 UNL     1       6.138   0.529  -0.612  1.00  0.00    -0.115 N 
HETATM   41  C12 UNL     1       6.691  -0.656  -1.198  1.00  0.00     0.194 C 
ENDBRANCH  32  34
ENDBRANCH  24  32
ENDBRANCH   1  22
TORSDOF 10
