REMARK  10 active torsions:
REMARK  status: ('A' for Active; 'I' for Inactive)
REMARK       I    between atoms: C1_4  and  N3_6 
REMARK    1  A    between atoms: N3_6  and  C2_8 
REMARK    2  A    between atoms: C4_10  and  C5_11 
REMARK    3  A    between atoms: C5_11  and  O2_13 
REMARK    4  A    between atoms: O2_13  and  C6_14 
REMARK    5  A    between atoms: C6_14  and  C7_15 
REMARK    6  A    between atoms: C7_15  and  O3_16 
REMARK    7  A    between atoms: O3_16  and  C8_17 
REMARK    8  A    between atoms: C8_17  and  C9_18 
REMARK    9  A    between atoms: C9_18  and  N4_19 
REMARK   10  A    between atoms: C10_25  and  N6_26 
ROOT
HETATM    1  C2  UNL     1       3.371   0.227  -0.343  1.00  0.00     0.125 A 
HETATM    2  C3  UNL     1       2.145   0.222   0.287  1.00  0.00     0.085 A 
HETATM    3  C4  UNL     1       1.344  -0.894   0.332  1.00  0.00     0.128 A 
HETATM    4  N5  UNL     1       1.817  -1.996  -0.276  1.00  0.00    -0.186 N 
ATOM      5  H5  UNL     1       1.252  -2.845  -0.265  1.00  0.00     0.184 HD
HETATM    6  C10 UNL     1       3.013  -2.019  -0.900  1.00  0.00     0.678 A 
HETATM    7  N7  UNL     1       3.776  -0.912  -0.928  1.00  0.00    -0.177 N 
ATOM      8  H7  UNL     1       4.679  -0.938  -1.402  1.00  0.00     0.185 HD
ENDROOT
BRANCH   3   9
HETATM    9  C5  UNL     1       0.052  -0.857   1.011  1.00  0.00     0.310 C 
HETATM   10  O1  UNL     1      -0.317   0.215   1.555  1.00  0.00    -0.258 OA
BRANCH   9  11
HETATM   11  O2  UNL     1      -0.792  -1.928   1.093  1.00  0.00    -0.314 OA
BRANCH  11  12
HETATM   12  C6  UNL     1      -2.035  -1.999   1.710  1.00  0.00     0.205 C 
BRANCH  12  13
HETATM   13  C7  UNL     1      -3.074  -1.041   1.148  1.00  0.00     0.194 C 
BRANCH  13  14
HETATM   14  O3  UNL     1      -3.284  -1.298  -0.184  1.00  0.00    -0.387 OA
BRANCH  14  15
HETATM   15  C8  UNL     1      -4.245  -0.489  -0.716  1.00  0.00     0.195 C 
BRANCH  15  16
HETATM   16  C9  UNL     1      -3.896   0.958  -0.640  1.00  0.00     0.255 C 
BRANCH  16  17
HETATM   17  N4  UNL     1      -2.662   1.172  -1.362  1.00  0.00    -0.077 N 
ATOM     18  H43 UNL     1      -1.907   0.570  -1.034  1.00  0.00     0.274 HD
ATOM     19  H42 UNL     1      -2.706   0.830  -2.322  1.00  0.00     0.274 HD
ATOM     20  H41 UNL     1      -2.423   2.162  -1.310  1.00  0.00     0.274 HD
ENDBRANCH  16  17
ENDBRANCH  15  16
ENDBRANCH  14  15
ENDBRANCH  13  14
ENDBRANCH  12  13
ENDBRANCH  11  12
ENDBRANCH   9  11
ENDBRANCH   3   9
BRANCH   1  21
HETATM   21  N3  UNL     1       4.113   1.269  -0.383  1.00  0.00    -0.317 N 
HETATM   22  C1  UNL     1       3.738   2.499   0.217  1.00  0.00     0.187 C 
HETATM   23  N1  UNL     1       3.824   2.580   1.494  1.00  0.00    -0.373 N 
HETATM   24  N2  UNL     1       3.283   3.609  -0.555  1.00  0.00    -0.064 NA
ATOM     25  H12 UNL     1       3.554   3.464   1.925  1.00  0.00     0.158 HD
ATOM     26  H11 UNL     1       4.149   1.786   2.046  1.00  0.00     0.158 HD
ATOM     27  H3  UNL     1       5.010   1.213  -0.866  1.00  0.00     0.170 HD
ENDBRANCH   1  21
BRANCH   6  28
HETATM   28  N6  UNL     1       3.481  -3.070  -1.488  1.00  0.00    -0.234 N 
ATOM     29  H62 UNL     1       2.902  -3.910  -1.467  1.00  0.00     0.174 HD
ATOM     30  H61 UNL     1       4.385  -3.087  -1.960  1.00  0.00     0.174 HD
ENDBRANCH   6  28
TORSDOF 10
