REMARK  7 active torsions:
REMARK  status: ('A' for Active; 'I' for Inactive)
REMARK    1  A    between atoms: N1_1  and  C1_4 
REMARK    2  A    between atoms: C5_14  and  N4_15 
REMARK    3  A    between atoms: N5_18  and  C6_19 
REMARK    4  A    between atoms: C6_19  and  C7_20 
REMARK    5  A    between atoms: C7_20  and  C8_22 
REMARK    6  A    between atoms: C8_22  and  C9_23 
REMARK    7  A    between atoms: C9_23  and  N6_24 
ROOT
HETATM    1  C1  UNL     1      -2.485   2.197   0.459  1.00  0.00     0.680 A 
HETATM    2  N2  UNL     1      -3.703   1.797   0.064  1.00  0.00    -0.155 N 
ATOM      3  H2  UNL     1      -4.484   2.451   0.008  1.00  0.00     0.187 HD
HETATM    4  C2  UNL     1      -3.855   0.492  -0.257  1.00  0.00     0.279 A 
HETATM    5  O1  UNL     1      -4.981   0.062  -0.635  1.00  0.00    -0.266 OA
HETATM    6  C3  UNL     1      -2.824  -0.410  -0.192  1.00  0.00     0.146 A 
HETATM    7  C4  UNL     1      -2.999  -1.725  -0.512  1.00  0.00     0.279 A 
HETATM    8  O2  UNL     1      -4.159  -2.072  -0.881  1.00  0.00    -0.266 OA
HETATM    9  N3  UNL     1      -1.987  -2.571  -0.431  1.00  0.00    -0.155 N 
ATOM     10  H3  UNL     1      -2.122  -3.553  -0.670  1.00  0.00     0.187 HD
HETATM   11  C5  UNL     1      -0.769  -2.131  -0.029  1.00  0.00     0.683 A 
HETATM   12  N5  UNL     1      -0.508  -0.852   0.305  1.00  0.00    -0.160 N 
HETATM   13  C10 UNL     1      -1.567   0.012   0.217  1.00  0.00     0.161 A 
HETATM   14  N7  UNL     1      -1.453   1.301   0.526  1.00  0.00    -0.175 N 
ATOM     15  H7  UNL     1      -0.541   1.642   0.831  1.00  0.00     0.186 HD
ENDROOT
BRANCH  12  16
HETATM   16  C6  UNL     1       0.753  -0.363   0.731  1.00  0.00     0.227 C 
BRANCH  16  17
HETATM   17  C7  UNL     1       1.679   0.082  -0.337  1.00  0.00     0.147 C 
HETATM   18  O3  UNL     1       1.453   1.073  -1.008  1.00  0.00    -0.296 OA
BRANCH  17  19
HETATM   19  C8  UNL     1       2.955  -0.612  -0.696  1.00  0.00     0.107 C 
BRANCH  19  20
HETATM   20  C9  UNL     1       4.143   0.078  -0.035  1.00  0.00     0.237 C 
BRANCH  20  21
HETATM   21  N6  UNL     1       4.267   1.453  -0.445  1.00  0.00    -0.079 N 
ATOM     22  H63 UNL     1       4.311   1.533  -1.461  1.00  0.00     0.274 HD
ATOM     23  H62 UNL     1       3.402   1.967  -0.280  1.00  0.00     0.274 HD
ATOM     24  H61 UNL     1       5.062   1.915  -0.003  1.00  0.00     0.274 HD
ENDBRANCH  20  21
ENDBRANCH  19  20
ENDBRANCH  17  19
ENDBRANCH  16  17
ENDBRANCH  12  16
BRANCH  11  25
HETATM   25  N4  UNL     1       0.127  -3.023   0.020  1.00  0.00    -0.234 N 
ATOM     26  H42 UNL     1      -0.071  -3.991  -0.233  1.00  0.00     0.174 HD
ATOM     27  H41 UNL     1       1.043  -2.692   0.322  1.00  0.00     0.174 HD
ENDBRANCH  11  25
BRANCH   1  28
HETATM   28  N1  UNL     1      -2.351   3.442   0.764  1.00  0.00    -0.234 N 
ATOM     29  H12 UNL     1      -3.120   4.110   0.714  1.00  0.00     0.174 HD
ATOM     30  H11 UNL     1      -1.425   3.746   1.064  1.00  0.00     0.174 HD
ENDBRANCH   1  28
TORSDOF 7
