REMARK  4 active torsions:
REMARK  status: ('A' for Active; 'I' for Inactive)
REMARK    1  A    between atoms: N1_1  and  C1_4 
REMARK    2  A    between atoms: C2_7  and  N3_8 
REMARK    3  A    between atoms: N4_11  and  S1_12 
REMARK    4  A    between atoms: S1_12  and  N5_15 
ROOT
HETATM    1  C1  UNL     1      -2.984   0.371  -1.251  1.00  0.00     0.706 A 
HETATM    2  N2  UNL     1      -3.154  -0.084   0.016  1.00  0.00    -0.019 N 
ATOM      3  H2  UNL     1      -4.024  -0.124   0.548  1.00  0.00     0.203 HD
HETATM    4  C2  UNL     1      -1.935  -0.470   0.420  1.00  0.00     0.723 A 
HETATM    5  N4  UNL     1      -1.021  -0.273  -0.541  1.00  0.00     0.026 N 
HETATM    6  N8  UNL     1      -1.681   0.243  -1.559  1.00  0.00    -0.100 N 
ATOM      7  H8  UNL     1      -1.264   0.507  -2.451  1.00  0.00     0.207 HD
ENDROOT
BRANCH   5   8
HETATM    8  S1  UNL     1       0.667  -0.645  -0.405  1.00  0.00     0.360 S 
HETATM    9  O1  UNL     1       0.756  -2.141  -0.139  1.00  0.00    -0.180 OA
HETATM   10  O2  UNL     1       1.355  -0.420  -1.721  1.00  0.00    -0.180 OA
BRANCH   8  11
HETATM   11  N5  UNL     1       1.366   0.269   0.846  1.00  0.00    -0.241 N 
HETATM   12  C3  UNL     1       2.637   0.361   0.967  1.00  0.00     0.211 C 
HETATM   13  N6  UNL     1       3.474  -0.307   0.047  1.00  0.00    -0.066 NA
HETATM   14  N7  UNL     1       3.208   1.120   2.007  1.00  0.00    -0.066 NA
ATOM     15  H5  UNL     1       0.763   0.752   1.511  1.00  0.00     0.182 HD
ENDBRANCH   8  11
ENDBRANCH   5   8
BRANCH   4  16
HETATM   16  N3  UNL     1      -1.661  -0.974   1.595  1.00  0.00    -0.232 N 
ATOM     17  H32 UNL     1      -2.356  -1.124   2.326  1.00  0.00     0.174 HD
ATOM     18  H31 UNL     1      -0.734  -1.268   1.902  1.00  0.00     0.174 HD
ENDBRANCH   4  16
BRANCH   1  19
HETATM   19  N1  UNL     1      -3.965   0.824  -1.947  1.00  0.00    -0.233 N 
ATOM     20  H12 UNL     1      -4.953   0.921  -1.713  1.00  0.00     0.174 HD
ATOM     21  H11 UNL     1      -3.837   1.166  -2.899  1.00  0.00     0.174 HD
ENDBRANCH   1  19
TORSDOF 4
