REMARK  3 active torsions:
REMARK  status: ('A' for Active; 'I' for Inactive)
REMARK    1  A    between atoms: N1_1  and  C1_4 
REMARK    2  A    between atoms: C3_8  and  C4_9 
REMARK    3  A    between atoms: N3_10  and  N4_12 
ROOT
HETATM    1  C1  UNL     1       2.615   0.984   0.159  1.00  0.00     0.141 C 
HETATM    2  N2  UNL     1       1.288   1.227   0.340  1.00  0.00    -0.349 N 
ATOM      3  H2  UNL     1       0.970   2.184   0.189  1.00  0.00     0.167 HD
HETATM    4  C2  UNL     1       0.355   0.324   0.699  1.00  0.00     0.108 C 
HETATM    5  C3  UNL     1       0.368  -1.036   0.501  1.00  0.00     0.064 C 
HETATM    6  C6  UNL     1       1.518  -1.825   0.691  1.00  0.00     0.259 C 
HETATM    7  O1  UNL     1       1.331  -3.031   0.989  1.00  0.00    -0.267 OA
HETATM    8  N7  UNL     1       2.805  -1.403   0.582  1.00  0.00    -0.308 N 
ATOM      9  H7  UNL     1       3.496  -2.146   0.684  1.00  0.00     0.170 HD
HETATM   10  C7  UNL     1       3.336  -0.188   0.365  1.00  0.00     0.163 C 
HETATM   11  N8  UNL     1       4.762  -0.081   0.342  1.00  0.00    -0.079 NA
ENDROOT
BRANCH   5  12
HETATM   12  C4  UNL     1      -0.796  -1.762   0.106  1.00  0.00     0.125 C 
HETATM   13  N3  UNL     1      -1.918  -1.305  -0.165  1.00  0.00    -0.309 N 
ATOM     14  H3  UNL     1      -2.624  -1.993  -0.427  1.00  0.00     0.186 HD
BRANCH  13  15
HETATM   15  N4  UNL     1      -2.331  -0.014  -0.160  1.00  0.00    -0.276 N 
HETATM   16  C5  UNL     1      -3.570   0.280  -0.002  1.00  0.00     0.215 C 
HETATM   17  N5  UNL     1      -3.930   1.657  -0.007  1.00  0.00    -0.065 NA
HETATM   18  N6  UNL     1      -4.540  -0.740   0.171  1.00  0.00    -0.065 NA
ATOM     19  H4  UNL     1      -1.648   0.733  -0.283  1.00  0.00     0.189 HD
ENDBRANCH  13  15
ENDBRANCH   5  12
BRANCH   1  20
HETATM   20  N1  UNL     1       3.352   1.955  -0.265  1.00  0.00    -0.383 N 
ATOM     21  H12 UNL     1       2.823   2.814  -0.416  1.00  0.00     0.157 HD
ATOM     22  H11 UNL     1       4.346   1.773  -0.401  1.00  0.00     0.157 HD
ENDBRANCH   1  20
TORSDOF 3
