REMARK  3 active torsions:
REMARK  status: ('A' for Active; 'I' for Inactive)
REMARK    1  A    between atoms: N4_10  and  N5_11 
REMARK    2  A    between atoms: C3_13  and  C4_14 
REMARK    3  A    between atoms: C5_15  and  O1_16 
ROOT
HETATM    1  N5  UNL     1       0.125   0.529   0.184  1.00  0.00    -0.275 N 
ATOM      2  H5  UNL     1      -0.435   1.305   0.536  1.00  0.00     0.188 HD
HETATM    3  C3  UNL     1      -0.482  -0.505  -0.276  1.00  0.00     0.128 C 
ENDROOT
BRANCH   1   4
HETATM    4  N4  UNL     1       1.518   0.639   0.224  1.00  0.00    -0.020 N 
HETATM    5  C1  UNL     1       2.347  -0.116   0.959  1.00  0.00     0.713 A 
HETATM    6  N1  UNL     1       1.977  -1.061   1.741  1.00  0.00    -0.231 N 
HETATM    7  N2  UNL     1       3.593   0.317   0.705  1.00  0.00    -0.184 N 
ATOM      8  H12 UNL     1       2.608  -1.635   2.300  1.00  0.00     0.174 HD
ATOM      9  H11 UNL     1       1.031  -1.390   1.934  1.00  0.00     0.174 HD
HETATM   10  C2  UNL     1       3.561   1.336  -0.181  1.00  0.00     0.217 A 
ATOM     11  H2  UNL     1       4.441  -0.068   1.121  1.00  0.00     0.185 HD
HETATM   12  N3  UNL     1       2.265   1.518  -0.465  1.00  0.00    -0.260 N 
ATOM     13  H3  UNL     1       1.899   2.220  -1.109  1.00  0.00     0.190 HD
ENDBRANCH   1   4
BRANCH   3  14
HETATM   14  C4  UNL     1      -1.942  -0.547  -0.285  1.00  0.00     0.072 A 
HETATM   15  C5  UNL     1      -2.937   0.321   0.111  1.00  0.00     0.136 A 
HETATM   16  C6  UNL     1      -3.901  -0.578  -0.285  1.00  0.00     0.256 A 
HETATM   17  O2  UNL     1      -5.177  -0.630  -0.299  1.00  0.00    -0.281 OA
HETATM   18  C7  UNL     1      -2.919  -1.453  -0.684  1.00  0.00     0.239 A 
HETATM   19  O3  UNL     1      -2.870  -2.607  -1.202  1.00  0.00    -0.283 OA
BRANCH  15  20
HETATM   20  O1  UNL     1      -2.991   1.605   0.687  1.00  0.00    -0.356 OA
ATOM     21  H1  UNL     1      -3.677   2.203   0.960  1.00  0.00     0.218 HD
ENDBRANCH  15  20
ENDBRANCH   3  14
TORSDOF 3
