REMARK  4 active torsions:
REMARK  status: ('A' for Active; 'I' for Inactive)
REMARK    1  A    between atoms: C1_2  and  C7_13 
REMARK    2  A    between atoms: C2_3  and  N2_4 
REMARK    3  A    between atoms: C7_13  and  N4_14 
REMARK    4  A    between atoms: C7_13  and  N5_18 
ROOT
HETATM    1  N1  UNL     1      -2.416  -1.655  -1.178  1.00  0.00    -0.102 NA
HETATM    2  C1  UNL     1      -1.397  -0.894  -0.512  1.00  0.00     0.097 C 
HETATM    3  C2  UNL     1      -0.175  -0.972  -0.940  1.00  0.00     0.127 C 
ENDROOT
BRANCH   2   4
HETATM    4  C7  UNL     1      -1.862  -0.080   0.618  1.00  0.00     0.426 C 
BRANCH   4   5
HETATM    5  N4  UNL     1      -2.829   0.905   0.109  1.00  0.00    -0.045 N 
ATOM      6  H43 UNL     1      -2.452   1.469  -0.653  1.00  0.00     0.277 HD
ATOM      7  H42 UNL     1      -3.596   0.473  -0.406  1.00  0.00     0.277 HD
ATOM      8  H41 UNL     1      -3.152   1.470   0.894  1.00  0.00     0.277 HD
ENDBRANCH   4   5
BRANCH   4   9
HETATM    9  N5  UNL     1      -0.876   0.576   1.396  1.00  0.00    -0.045 N 
ATOM     10  H53 UNL     1      -0.197  -0.109   1.729  1.00  0.00     0.277 HD
ATOM     11  H52 UNL     1      -0.289   1.146   0.787  1.00  0.00     0.277 HD
ATOM     12  H51 UNL     1      -1.199   1.141   2.181  1.00  0.00     0.277 HD
ENDBRANCH   4   9
ENDBRANCH   2   4
BRANCH   3  13
HETATM   13  N2  UNL     1       0.976  -0.317  -0.440  1.00  0.00    -0.284 N 
HETATM   14  C3  UNL     1       1.291   0.902  -0.896  1.00  0.00     0.106 A 
HETATM   15  C4  UNL     1       2.421   1.585  -0.450  1.00  0.00     0.092 A 
HETATM   16  C5  UNL     1       3.232   0.983   0.488  1.00  0.00     0.250 A 
HETATM   17  O1  UNL     1       4.252   1.611   0.885  1.00  0.00    -0.268 OA
HETATM   18  N3  UNL     1       2.895  -0.239   0.930  1.00  0.00    -0.275 N 
HETATM   19  C6  UNL     1       1.786  -0.876   0.473  1.00  0.00     0.333 A 
ATOM     20  H3  UNL     1       3.484  -0.699   1.624  1.00  0.00     0.173 HD
HETATM   21  O2  UNL     1       1.565  -2.020   0.956  1.00  0.00    -0.246 OA
ENDBRANCH   3  13
TORSDOF 4
