REMARK  7 active torsions:
REMARK  status: ('A' for Active; 'I' for Inactive)
REMARK    1  A    between atoms: O1_2  and  C2_3 
REMARK    2  A    between atoms: C5_8  and  N2_9 
REMARK    3  A    between atoms: C6_14  and  N4_15 
REMARK    4  A    between atoms: N4_15  and  O2_17 
REMARK    5  A    between atoms: O2_17  and  C7_18 
REMARK    6  A    between atoms: C9_24  and  O3_25 
REMARK    7  A    between atoms: C11_27  and  O4_28 
ROOT
HETATM    1  C2  UNL     1       2.684  -0.104  -0.350  1.00  0.00     0.106 A 
HETATM    2  C3  UNL     1       2.332   1.134   0.193  1.00  0.00     0.071 A 
HETATM    3  C4  UNL     1       1.015   1.384   0.543  1.00  0.00     0.069 A 
HETATM    4  N1  UNL     1       0.699   2.591   1.081  1.00  0.00    -0.191 N 
ATOM      5  H1  UNL     1       1.428   3.293   1.209  1.00  0.00     0.184 HD
HETATM    6  C5  UNL     1      -0.559   2.868   1.444  1.00  0.00     0.678 A 
HETATM    7  N3  UNL     1      -1.491   1.921   1.263  1.00  0.00    -0.174 N 
ATOM      8  H3  UNL     1      -2.449   2.131   1.542  1.00  0.00     0.186 HD
HETATM    9  C6  UNL     1      -1.235   0.707   0.734  1.00  0.00     0.156 A 
HETATM   10  C8  UNL     1       0.043   0.395   0.351  1.00  0.00     0.074 A 
HETATM   11  C9  UNL     1       0.407  -0.820  -0.187  1.00  0.00     0.120 A 
HETATM   12  C11 UNL     1       1.733  -1.074  -0.539  1.00  0.00     0.136 A 
ENDROOT
BRANCH   9  13
HETATM   13  N4  UNL     1      -2.185  -0.169   0.610  1.00  0.00    -0.240 N 
ATOM     14  H4  UNL     1      -1.988  -1.087   0.210  1.00  0.00     0.196 HD
BRANCH  13  15
HETATM   15  O2  UNL     1      -3.456   0.147   1.020  1.00  0.00    -0.203 OA
BRANCH  15  16
HETATM   16  C7  UNL     1      -4.525   0.065   0.133  1.00  0.00     0.249 C 
HETATM   17  N5  UNL     1      -4.250   0.247  -1.122  1.00  0.00    -0.366 N 
ATOM     18  H52 UNL     1      -3.296   0.439  -1.429  1.00  0.00     0.159 HD
ATOM     19  H51 UNL     1      -5.034   0.187  -1.772  1.00  0.00     0.159 HD
HETATM   20  N6  UNL     1      -5.853  -0.202   0.560  1.00  0.00    -0.055 NA
ENDBRANCH  15  16
ENDBRANCH  13  15
ENDBRANCH   9  13
BRANCH   6  21
HETATM   21  N2  UNL     1      -0.848   4.017   1.953  1.00  0.00    -0.234 N 
ATOM     22  H22 UNL     1      -0.139   4.737   2.091  1.00  0.00     0.174 HD
ATOM     23  H21 UNL     1      -1.807   4.228   2.230  1.00  0.00     0.174 HD
ENDBRANCH   6  21
BRANCH  11  24
HETATM   24  O3  UNL     1      -0.556  -1.816  -0.393  1.00  0.00    -0.352 OA
HETATM   25  C10 UNL     1      -1.202  -1.958  -1.656  1.00  0.00     0.210 C 
ENDBRANCH  11  24
BRANCH  12  26
HETATM   26  O4  UNL     1       2.061  -2.278  -1.064  1.00  0.00    -0.351 OA
HETATM   27  C12 UNL     1       2.462  -3.426  -0.384  1.00  0.00     0.210 C 
ENDBRANCH  12  26
BRANCH   1  28
HETATM   28  O1  UNL     1       3.979  -0.368  -0.700  1.00  0.00    -0.353 OA
HETATM   29  C1  UNL     1       5.048   0.546  -0.555  1.00  0.00     0.210 C 
ENDBRANCH   1  28
TORSDOF 7
