REMARK  3 active torsions:
REMARK  status: ('A' for Active; 'I' for Inactive)
REMARK    1  A    between atoms: C1_2  and  C2_4 
REMARK    2  A    between atoms: C2_4  and  C3_5 
REMARK    3  A    between atoms: C11_13  and  C12_14 
ROOT
HETATM    1  C3  UNL     1       0.564   0.022   0.255  1.00  0.00    -0.028 C 
HETATM    2  C4  UNL     1       0.177   0.846   1.428  1.00  0.00     0.015 C 
HETATM    3  C5  UNL     1      -0.905   1.828   1.019  1.00  0.00    -0.013 C 
HETATM    4  C6  UNL     1      -0.418   2.729  -0.072  1.00  0.00     0.009 C 
HETATM    5  C7  UNL     1      -0.061   1.876  -1.273  1.00  0.00    -0.013 C 
HETATM    6  C8  UNL     1      -1.256   1.097  -1.765  1.00  0.00     0.010 C 
HETATM    7  C9  UNL     1      -1.737   0.187  -0.639  1.00  0.00    -0.009 C 
HETATM    8  C10 UNL     1      -2.093   0.982   0.576  1.00  0.00     0.010 C 
HETATM    9  C11 UNL     1      -0.589  -0.757  -0.359  1.00  0.00     0.003 C 
HETATM   10  C15 UNL     1       1.062   0.962  -0.846  1.00  0.00     0.015 C 
ENDROOT
BRANCH   1  11
HETATM   11  C2  UNL     1       1.689  -0.934   0.551  1.00  0.00     0.109 C 
BRANCH  11  12
HETATM   12  C1  UNL     1       2.931  -0.257   0.987  1.00  0.00     0.231 C 
HETATM   13  N1  UNL     1       3.997  -0.016   0.074  1.00  0.00    -0.062 NA
HETATM   14  O1  UNL     1       3.106   0.135   2.168  1.00  0.00    -0.277 OA
ENDBRANCH  11  12
ENDBRANCH   1  11
BRANCH   9  15
HETATM   15  C12 UNL     1      -0.961  -1.951   0.424  1.00  0.00    -0.009 A 
HETATM   16  C13 UNL     1      -2.021  -2.888   0.086  1.00  0.00     0.005 A 
HETATM   17  C14 UNL     1      -0.651  -3.292  -0.244  1.00  0.00     0.005 A 
ENDBRANCH   9  15
TORSDOF 3
