REMARK  4 active torsions:
REMARK  status: ('A' for Active; 'I' for Inactive)
REMARK    1  A    between atoms: C2_2  and  C3_3 
REMARK    2  A    between atoms: C3_3  and  C4_4 
REMARK    3  A    between atoms: C13_13  and  O1_14 
REMARK    4  A    between atoms: C16_18  and  C17_19 
ROOT
HETATM    1  C4  UNL     1       1.814  -0.892  -0.091  1.00  0.00    -0.002 C 
HETATM    2  C5  UNL     1       0.657  -1.172  -1.032  1.00  0.00    -0.005 C 
HETATM    3  C6  UNL     1       1.032   0.165  -1.685  1.00  0.00     0.011 C 
HETATM    4  C7  UNL     1       1.413   0.580  -0.257  1.00  0.00    -0.005 C 
HETATM    5  C8  UNL     1       0.169   0.879   0.508  1.00  0.00    -0.000 C 
HETATM    6  C9  UNL     1      -0.518  -0.386   1.046  1.00  0.00    -0.000 C 
HETATM    7  C10 UNL     1      -1.846   0.225   1.508  1.00  0.00    -0.002 C 
HETATM    8  C11 UNL     1      -2.915  -0.746   0.981  1.00  0.00     0.013 C 
HETATM    9  C12 UNL     1      -2.965  -0.223  -0.452  1.00  0.00     0.020 C 
HETATM   10  C13 UNL     1      -3.322   1.234  -0.103  1.00  0.00     0.127 C 
HETATM   11  C14 UNL     1      -2.044   1.486   0.690  1.00  0.00     0.024 C 
HETATM   12  C15 UNL     1      -1.018   1.245  -0.404  1.00  0.00     0.002 C 
HETATM   13  C16 UNL     1      -1.552  -0.032  -0.971  1.00  0.00     0.002 C 
HETATM   14  C17 UNL     1      -0.653  -1.077  -0.290  1.00  0.00    -0.000 C 
ENDROOT
BRANCH   1  15
HETATM   15  C3  UNL     1       3.180  -1.235  -0.603  1.00  0.00     0.031 C 
BRANCH  15  16
HETATM   16  C2  UNL     1       4.144  -0.876   0.487  1.00  0.00    -0.037 C 
HETATM   17  C1  UNL     1       5.114   0.016   0.313  1.00  0.00     0.007 C 
ENDBRANCH  15  16
ENDBRANCH   1  15
BRANCH  10  18
HETATM   18  O1  UNL     1      -4.371   1.305   0.781  1.00  0.00    -0.395 OA
ATOM     19  H1  UNL     1      -4.591   2.204   0.996  1.00  0.00     0.210 HD
ENDBRANCH  10  18
TORSDOF 4
