REMARK  8 active torsions:
REMARK  status: ('A' for Active; 'I' for Inactive)
REMARK    1  A    between atoms: C2_2  and  N1_3 
REMARK    2  A    between atoms: C2_2  and  C19_30 
REMARK       I    between atoms: N1_3  and  C3_5 
REMARK    3  A    between atoms: C3_5  and  C4_7 
REMARK    4  A    between atoms: C4_7  and  C5_8 
REMARK    5  A    between atoms: C5_8  and  C6_9 
REMARK       I    between atoms: C6_9  and  N2_11 
REMARK    6  A    between atoms: N2_11  and  C7_13 
REMARK    7  A    between atoms: C7_13  and  C8_14 
REMARK    8  A    between atoms: C14_23  and  C15_24 
REMARK       I    between atoms: C19_30  and  N5_32 
ROOT
HETATM    1  C4  UNL     1       0.099   0.266   0.787  1.00  0.00     0.140 C 
HETATM    2  N3  UNL     1       0.533   1.323   1.644  1.00  0.00    -0.127 NA
HETATM    3  N4  UNL     1       0.078   0.963   2.909  1.00  0.00    -0.136 NA
HETATM    4  C14 UNL     1       0.258  -0.473   3.016  1.00  0.00     0.173 C 
HETATM    5  C17 UNL     1      -0.108  -0.953   1.613  1.00  0.00     0.044 C 
HETATM    6  C18 UNL     1       0.650  -2.175   1.307  1.00  0.00     0.014 C 
ENDROOT
BRANCH   1   7
HETATM    7  C3  UNL     1      -1.319   0.654   0.368  1.00  0.00     0.245 C 
HETATM    8  N1  UNL     1      -2.089  -0.141  -0.510  1.00  0.00    -0.346 N 
ATOM      9  H1  UNL     1      -1.689  -1.003  -0.880  1.00  0.00     0.163 HD
HETATM   10  O1  UNL     1      -1.850   1.719   0.805  1.00  0.00    -0.271 OA
BRANCH   8  11
HETATM   11  C2  UNL     1      -3.441   0.240  -0.900  1.00  0.00     0.172 C 
HETATM   12  C1  UNL     1      -3.477   0.459  -2.385  1.00  0.00     0.042 C 
BRANCH  11  13
HETATM   13  C19 UNL     1      -4.384  -0.812  -0.521  1.00  0.00     0.242 C 
HETATM   14  O4  UNL     1      -3.916  -1.870   0.022  1.00  0.00    -0.271 OA
HETATM   15  N5  UNL     1      -5.787  -0.752  -0.706  1.00  0.00    -0.350 N 
HETATM   16  C20 UNL     1      -6.610  -1.850  -0.301  1.00  0.00     0.126 C 
HETATM   17  C24 UNL     1      -6.345   0.454  -1.309  1.00  0.00     0.126 C 
HETATM   18  C21 UNL     1      -7.986  -1.437   0.185  1.00  0.00     0.020 C 
HETATM   19  C22 UNL     1      -8.549  -0.442  -0.782  1.00  0.00     0.003 C 
HETATM   20  C23 UNL     1      -7.684   0.817  -0.672  1.00  0.00     0.020 C 
ENDBRANCH  11  13
ENDBRANCH   8  11
ENDBRANCH   1   7
BRANCH   1  21
HETATM   21  C5  UNL     1       0.841   0.142  -0.479  1.00  0.00     0.141 C 
BRANCH  21  22
HETATM   22  C6  UNL     1       2.260  -0.177  -0.439  1.00  0.00     0.220 C 
HETATM   23  O2  UNL     1       2.862  -0.206   0.655  1.00  0.00    -0.274 OA
HETATM   24  N2  UNL     1       3.018  -0.462  -1.600  1.00  0.00    -0.359 N 
ATOM     25  H2  UNL     1       2.515  -0.442  -2.487  1.00  0.00     0.162 HD
BRANCH  24  26
HETATM   26  C7  UNL     1       4.410  -0.775  -1.665  1.00  0.00     0.155 C 
BRANCH  26  27
HETATM   27  C8  UNL     1       5.240   0.356  -1.151  1.00  0.00     0.156 C 
HETATM   28  C9  UNL     1       6.682  -0.093  -1.186  1.00  0.00     0.035 C 
HETATM   29  C10 UNL     1       7.768   0.738  -0.723  1.00  0.00     0.004 C 
HETATM   30  C11 UNL     1       8.434   1.765  -1.625  1.00  0.00     0.013 C 
HETATM   31  C12 UNL     1       7.386   2.806  -2.141  1.00  0.00     0.112 C 
HETATM   32  C13 UNL     1       6.134   2.187  -2.023  1.00  0.00    -0.027 C 
HETATM   33  O3  UNL     1       5.009   1.559  -1.904  1.00  0.00    -0.308 OA
ENDBRANCH  26  27
ENDBRANCH  24  26
ENDBRANCH  21  22
ENDBRANCH   1  21
BRANCH   4  34
HETATM   34  C15 UNL     1      -0.713  -1.012   4.039  1.00  0.00     0.259 C 
HETATM   35  C16 UNL     1      -0.466  -0.376   5.390  1.00  0.00     0.092 C 
HETATM   36  F1  UNL     1      -2.019  -0.760   3.657  1.00  0.00    -0.205 F 
HETATM   37  F2  UNL     1      -0.577  -2.379   4.175  1.00  0.00    -0.205 F 
ENDBRANCH   4  34
TORSDOF 8
