REMARK  6 active torsions:
REMARK  status: ('A' for Active; 'I' for Inactive)
REMARK    1  A    between atoms: O1_2  and  C2_3 
REMARK    2  A    between atoms: C3_4  and  C4_5 
REMARK       I    between atoms: C4_5  and  N1_7 
REMARK    3  A    between atoms: N1_7  and  C5_9 
REMARK    4  A    between atoms: C5_9  and  C6_10 
REMARK       I    between atoms: C6_10  and  N2_12 
REMARK    5  A    between atoms: N2_12  and  C7_14 
REMARK    6  A    between atoms: C11_19  and  C12_20 
ROOT
HETATM    1  C7  UNL     1       6.292  -0.047  -0.208  1.00  0.00     0.122 A 
HETATM    2  C8  UNL     1       7.617  -0.363   0.390  1.00  0.00     0.091 C 
HETATM    3  N3  UNL     1       8.645  -0.611   0.854  1.00  0.00    -0.195 NA
HETATM    4  C9  UNL     1       6.279  -0.069  -1.720  1.00  0.00     0.050 A 
HETATM    5  C10 UNL     1       6.249   1.227  -0.945  1.00  0.00     0.050 A 
ENDROOT
BRANCH   1   6
HETATM    6  N2  UNL     1       5.178  -0.587   0.518  1.00  0.00    -0.338 N 
HETATM    7  C6  UNL     1       3.812  -0.431   0.190  1.00  0.00     0.236 C 
HETATM    8  O3  UNL     1       3.500   0.236  -0.822  1.00  0.00    -0.272 OA
ATOM      9  H2  UNL     1       5.393  -1.136   1.350  1.00  0.00     0.164 HD
BRANCH   7  10
HETATM   10  C5  UNL     1       2.784  -1.051   1.038  1.00  0.00     0.225 C 
BRANCH  10  11
HETATM   11  N1  UNL     1       1.436  -0.833   0.639  1.00  0.00    -0.352 N 
HETATM   12  C4  UNL     1       0.811   0.446   0.551  1.00  0.00     0.227 C 
HETATM   13  O2  UNL     1       1.531   1.422   0.858  1.00  0.00    -0.273 OA
ATOM     14  H1  UNL     1       0.876  -1.651   0.398  1.00  0.00     0.162 HD
BRANCH  12  15
HETATM   15  C3  UNL     1      -0.608   0.531   0.113  1.00  0.00     0.140 C 
HETATM   16  C2  UNL     1      -1.450  -0.245   1.042  1.00  0.00     0.141 C 
HETATM   17  C20 UNL     1      -2.782  -0.662   0.560  1.00  0.00     0.027 C 
HETATM   18  C16 UNL     1      -2.892  -1.779  -0.409  1.00  0.00     0.007 C 
HETATM   19  C19 UNL     1      -3.639   0.373  -0.069  1.00  0.00     0.016 C 
HETATM   20  C15 UNL     1      -2.557  -1.502  -1.821  1.00  0.00     0.008 C 
HETATM   21  C17 UNL     1      -4.427  -1.925  -0.346  1.00  0.00     0.062 C 
HETATM   22  C14 UNL     1      -2.799  -0.152  -2.351  1.00  0.00     0.025 C 
HETATM   23  C13 UNL     1      -3.080   0.937  -1.353  1.00  0.00     0.082 C 
HETATM   24  N4  UNL     1      -2.113   1.930  -1.226  1.00  0.00    -0.403 N 
HETATM   25  C11 UNL     1      -1.067   1.885  -0.281  1.00  0.00     0.194 C 
ATOM     26  H4  UNL     1      -2.164   2.735  -1.851  1.00  0.00     0.154 HD
HETATM   27 BR1  UNL     1      -5.135  -3.109  -1.623  1.00  0.00    -0.091 Br
HETATM   28  C18 UNL     1      -4.846  -0.483  -0.502  1.00  0.00     0.023 C 
BRANCH  16  29
HETATM   29  O1  UNL     1      -1.657   0.472   2.213  1.00  0.00    -0.389 OA
HETATM   30  C1  UNL     1      -1.163  -0.176   3.335  1.00  0.00     0.202 C 
ENDBRANCH  16  29
BRANCH  25  31
HETATM   31  C12 UNL     1      -1.373   2.839   0.801  1.00  0.00     0.197 C 
HETATM   32  O4  UNL     1      -2.447   3.532   0.836  1.00  0.00    -0.646 OA
HETATM   33  O5  UNL     1      -0.539   3.080   1.875  1.00  0.00    -0.646 OA
ENDBRANCH  25  31
ENDBRANCH  12  15
ENDBRANCH  10  11
ENDBRANCH   7  10
ENDBRANCH   1   6
TORSDOF 6
