REMARK  8 active torsions:
REMARK  status: ('A' for Active; 'I' for Inactive)
REMARK    1  A    between atoms: C3_3  and  C4_4 
REMARK    2  A    between atoms: C4_4  and  N1_5 
REMARK    3  A    between atoms: C5_9  and  N2_10 
REMARK    4  A    between atoms: C11_20  and  N5_21 
REMARK    5  A    between atoms: N5_21  and  C12_23 
REMARK    6  A    between atoms: C12_23  and  C13_24 
REMARK       I    between atoms: C13_24  and  N6_26 
REMARK    7  A    between atoms: N6_26  and  C14_28 
REMARK    8  A    between atoms: C14_28  and  C15_29 
ROOT
HETATM    1  C1  UNL     1       0.868  -2.646   0.768  1.00  0.00     0.053 C 
HETATM    2  C2  UNL     1       0.168  -1.414   0.413  1.00  0.00    -0.005 A 
HETATM    3  C3  UNL     1      -1.248  -1.405   0.440  1.00  0.00     0.022 A 
HETATM    4  C5  UNL     1      -1.861  -0.248   0.110  1.00  0.00     0.126 A 
HETATM    5  N3  UNL     1      -1.081   0.850  -0.235  1.00  0.00    -0.283 N 
ATOM      6  H3  UNL     1      -1.542   1.725  -0.486  1.00  0.00     0.188 HD
HETATM    7  N4  UNL     1       0.233   0.795  -0.247  1.00  0.00    -0.284 N 
ATOM      8  H4  UNL     1       0.758   1.630  -0.508  1.00  0.00     0.188 HD
HETATM    9  C11 UNL     1       0.907  -0.321   0.072  1.00  0.00     0.122 A 
ENDROOT
BRANCH   9  10
HETATM   10  N5  UNL     1       2.160  -0.352   0.056  1.00  0.00    -0.366 N 
ATOM     11  H5  UNL     1       2.579  -1.245   0.314  1.00  0.00     0.161 HD
BRANCH  10  12
HETATM   12  C12 UNL     1       3.075   0.677  -0.270  1.00  0.00     0.224 C 
BRANCH  12  13
HETATM   13  C13 UNL     1       4.462   0.152  -0.207  1.00  0.00     0.235 C 
HETATM   14  O1  UNL     1       4.676  -1.048   0.101  1.00  0.00    -0.272 OA
HETATM   15  N6  UNL     1       5.591   0.964  -0.487  1.00  0.00    -0.356 N 
ATOM     16  H6  UNL     1       5.443   1.941  -0.740  1.00  0.00     0.162 HD
BRANCH  15  17
HETATM   17  C14 UNL     1       6.931   0.461  -0.427  1.00  0.00     0.172 C 
BRANCH  17  18
HETATM   18  C15 UNL     1       7.963   1.497  -0.761  1.00  0.00     0.167 C 
HETATM   19 CL1  UNL     1       7.718   2.125  -2.408  1.00  0.00    -0.092 Cl
HETATM   20 BR1  UNL     1       9.704   0.626  -0.643  1.00  0.00    -0.053 Br
HETATM   21 BR2  UNL     1       7.965   2.974   0.455  1.00  0.00    -0.053 Br
ENDBRANCH  17  18
ENDBRANCH  15  17
ENDBRANCH  12  13
ENDBRANCH  10  12
ENDBRANCH   9  10
BRANCH   3  22
HETATM   22  C4  UNL     1      -1.929  -2.663   0.799  1.00  0.00     0.272 C 
BRANCH  22  23
HETATM   23  N1  UNL     1      -3.348  -2.613   0.783  1.00  0.00    -0.075 N 
ATOM     24  H13 UNL     1      -3.678  -1.854   1.379  1.00  0.00     0.274 HD
ATOM     25  H12 UNL     1      -3.676  -2.284  -0.125  1.00  0.00     0.274 HD
ATOM     26  H11 UNL     1      -3.819  -3.483   1.031  1.00  0.00     0.274 HD
ENDBRANCH  22  23
ENDBRANCH   3  22
BRANCH   4  27
HETATM   27  N2  UNL     1      -3.230   0.052   0.111  1.00  0.00    -0.366 N 
HETATM   28  C6  UNL     1      -3.927   0.359   1.349  1.00  0.00     0.124 C 
HETATM   29  C7  UNL     1      -4.332   1.846   1.168  1.00  0.00     0.020 C 
HETATM   30  C8  UNL     1      -5.367   1.812   0.044  1.00  0.00     0.003 C 
HETATM   31  C9  UNL     1      -4.757   1.385  -1.247  1.00  0.00     0.020 C 
HETATM   32  C10 UNL     1      -3.946   0.103  -1.151  1.00  0.00     0.124 C 
ENDBRANCH   4  27
TORSDOF 8
