REMARK  7 active torsions:
REMARK  status: ('A' for Active; 'I' for Inactive)
REMARK    1  A    between atoms: C4_4  and  O1_5 
REMARK    2  A    between atoms: O1_5  and  C5_6 
REMARK    3  A    between atoms: C8_15  and  N2_16 
REMARK    4  A    between atoms: C13_24  and  C14_25 
REMARK    5  A    between atoms: C14_25  and  N4_26 
REMARK    6  A    between atoms: N4_26  and  S1_28 
REMARK    7  A    between atoms: S1_28  and  C15_31 
ROOT
HETATM    1  N2  UNL     1      -2.044  -1.115   0.888  1.00  0.00    -0.262 N 
HETATM    2  C9  UNL     1      -1.323  -2.269   1.330  1.00  0.00     0.326 C 
HETATM    3  O2  UNL     1      -1.819  -3.212   2.036  1.00  0.00    -0.247 OA
HETATM    4  N3  UNL     1       0.012  -2.214   0.876  1.00  0.00    -0.324 N 
ATOM      5  H3  UNL     1       0.669  -2.993   0.840  1.00  0.00     0.165 HD
HETATM    6  C10 UNL     1       0.276  -0.868   0.476  1.00  0.00     0.116 C 
HETATM    7  C11 UNL     1       1.210  -0.749  -0.687  1.00  0.00     0.041 C 
HETATM    8  C12 UNL     1       1.821   0.634  -0.664  1.00  0.00     0.009 C 
HETATM    9  C13 UNL     1       2.716   0.804   0.517  1.00  0.00     0.004 C 
HETATM   10  C18 UNL     1       2.315  -0.181   1.613  1.00  0.00     0.009 C 
HETATM   11  C19 UNL     1       0.806  -0.118   1.705  1.00  0.00     0.041 C 
HETATM   12  C20 UNL     1      -1.102  -0.358   0.152  1.00  0.00     0.256 C 
HETATM   13  O5  UNL     1      -1.289   0.573  -0.638  1.00  0.00    -0.270 OA
ENDROOT
BRANCH   1  14
HETATM   14  C8  UNL     1      -3.433  -0.770   1.165  1.00  0.00     0.111 C 
HETATM   15  C2  UNL     1      -4.335  -0.923  -0.028  1.00  0.00     0.026 C 
HETATM   16  C1  UNL     1      -5.660  -1.591   0.431  1.00  0.00     0.021 C 
HETATM   17  C3  UNL     1      -3.774  -1.875  -1.056  1.00  0.00     0.021 C 
HETATM   18  C4  UNL     1      -4.752   0.333  -0.702  1.00  0.00     0.339 C 
HETATM   19  N1  UNL     1      -5.230   1.245   0.329  1.00  0.00    -0.048 N 
HETATM   20  C6  UNL     1      -4.197   1.632   1.242  1.00  0.00     0.237 C 
ATOM     21  H12 UNL     1      -5.680   2.062  -0.084  1.00  0.00     0.280 HD
ATOM     22  H11 UNL     1      -6.029   0.851   0.825  1.00  0.00     0.280 HD
HETATM   23  C7  UNL     1      -3.510   0.491   1.915  1.00  0.00     0.054 C 
BRANCH  18  24
HETATM   24  O1  UNL     1      -5.880   0.063  -1.493  1.00  0.00    -0.263 OA
BRANCH  24  25
HETATM   25  C5  UNL     1      -5.770   0.558  -2.782  1.00  0.00     0.526 C 
HETATM   26  F1  UNL     1      -4.708   0.050  -3.496  1.00  0.00    -0.144 F 
HETATM   27  F2  UNL     1      -5.571   1.927  -2.717  1.00  0.00    -0.144 F 
HETATM   28  F3  UNL     1      -6.908   0.277  -3.526  1.00  0.00    -0.144 F 
ENDBRANCH  24  25
ENDBRANCH  18  24
ENDBRANCH   1  14
BRANCH   9  29
HETATM   29  C14 UNL     1       4.156   0.521   0.075  1.00  0.00     0.136 C 
BRANCH  29  30
HETATM   30  N4  UNL     1       4.478   1.461  -0.957  1.00  0.00    -0.319 N 
ATOM     31  H4  UNL     1       3.816   2.164  -1.286  1.00  0.00     0.172 HD
BRANCH  30  32
HETATM   32  S1  UNL     1       6.055   1.315  -1.595  1.00  0.00     0.230 S 
HETATM   33  O3  UNL     1       6.299  -0.015  -2.217  1.00  0.00    -0.206 OA
HETATM   34  O4  UNL     1       6.250   2.439  -2.598  1.00  0.00    -0.206 OA
BRANCH  32  35
HETATM   35  C15 UNL     1       7.227   1.601  -0.293  1.00  0.00     0.129 A 
HETATM   36  C16 UNL     1       8.532   0.893  -0.308  1.00  0.00     0.023 A 
HETATM   37  C17 UNL     1       7.445   0.440   0.631  1.00  0.00     0.023 A 
ENDBRANCH  32  35
ENDBRANCH  30  32
ENDBRANCH  29  30
ENDBRANCH   9  29
TORSDOF 7
