REMARK  6 active torsions:
REMARK  status: ('A' for Active; 'I' for Inactive)
REMARK    1  A    between atoms: C2_2  and  C3_3 
REMARK    2  A    between atoms: C3_3  and  N1_4 
REMARK    3  A    between atoms: N1_4  and  C4_7 
REMARK    4  A    between atoms: C4_7  and  C5_8 
REMARK    5  A    between atoms: N3_12  and  N4_14 
REMARK    6  A    between atoms: N4_14  and  N5_16 
ROOT
HETATM    1  C5  UNL     1       1.492   1.115   0.789  1.00  0.00     0.177 A 
HETATM    2  N2  UNL     1       2.522   2.021   0.234  1.00  0.00    -0.364 N 
ATOM      3  H2  UNL     1       2.846   2.968   0.037  1.00  0.00     0.161 HD
HETATM    4  C6  UNL     1       2.736   0.592   0.174  1.00  0.00     0.118 A 
HETATM    5  N3  UNL     1       3.549  -0.326  -0.208  1.00  0.00    -0.273 N 
ATOM      6  H3  UNL     1       4.430  -0.090  -0.665  1.00  0.00     0.190 HD
ENDROOT
BRANCH   1   7
HETATM    7  C4  UNL     1       0.242   1.049  -0.047  1.00  0.00     0.265 C 
BRANCH   7   8
HETATM    8  N1  UNL     1      -0.750   0.156   0.520  1.00  0.00    -0.070 N 
ATOM      9  H12 UNL     1      -0.987   0.382   1.486  1.00  0.00     0.277 HD
ATOM     10  H11 UNL     1      -0.392  -0.784   0.690  1.00  0.00     0.277 HD
BRANCH   8  11
HETATM   11  C3  UNL     1      -1.894   0.177  -0.365  1.00  0.00     0.259 C 
BRANCH  11  12
HETATM   12  C2  UNL     1      -2.995  -0.683   0.072  1.00  0.00    -0.010 C 
HETATM   13  C1  UNL     1      -3.417  -1.670  -0.698  1.00  0.00     0.008 C 
ENDBRANCH  11  12
ENDBRANCH   8  11
ENDBRANCH   7   8
ENDBRANCH   1   7
BRANCH   5  14
HETATM   14  N4  UNL     1       3.190  -1.663   0.021  1.00  0.00    -0.248 N 
ATOM     15  H4  UNL     1       2.309  -2.057  -0.309  1.00  0.00     0.207 HD
BRANCH  14  16
HETATM   16  N5  UNL     1       4.053  -2.355   0.677  1.00  0.00    -0.331 N 
ATOM     17  H52 UNL     1       4.930  -1.947   1.000  1.00  0.00     0.178 HD
ATOM     18  H51 UNL     1       3.792  -3.327   0.843  1.00  0.00     0.178 HD
ENDBRANCH  14  16
ENDBRANCH   5  14
TORSDOF 6
