REMARK  7 active torsions:
REMARK  status: ('A' for Active; 'I' for Inactive)
REMARK    1  A    between atoms: C2_2  and  C3_3 
REMARK    2  A    between atoms: C3_3  and  N1_4 
REMARK    3  A    between atoms: N1_4  and  C4_6 
REMARK    4  A    between atoms: C5_9  and  C6_10 
REMARK    5  A    between atoms: C6_10  and  O1_11 
REMARK    6  A    between atoms: C8_14  and  N3_15 
REMARK    7  A    between atoms: C9_19  and  N4_20 
ROOT
HETATM    1  C4  UNL     1       0.276   0.310  -0.128  1.00  0.00     0.206 C 
HETATM    2  N2  UNL     1      -0.558   1.470   0.109  1.00  0.00    -0.394 N 
ATOM      3  H2  UNL     1      -0.154   2.371   0.363  1.00  0.00     0.155 HD
HETATM    4  C5  UNL     1      -1.954   1.303  -0.026  1.00  0.00     0.104 C 
HETATM    5  C7  UNL     1      -2.476  -0.071  -0.159  1.00  0.00     0.061 C 
HETATM    6  C8  UNL     1      -1.654  -1.026  -0.968  1.00  0.00     0.219 C 
HETATM    7  C9  UNL     1      -0.222  -0.581  -1.193  1.00  0.00     0.255 C 
ENDROOT
BRANCH   1   8
HETATM    8  N1  UNL     1       1.607   0.787  -0.254  1.00  0.00    -0.397 N 
ATOM      9  H1  UNL     1       1.811   1.783  -0.336  1.00  0.00     0.155 HD
BRANCH   8  10
HETATM   10  C3  UNL     1       2.643  -0.188  -0.260  1.00  0.00     0.142 C 
BRANCH  10  11
HETATM   11  C2  UNL     1       3.991   0.465   0.018  1.00  0.00    -0.018 C 
HETATM   12  C1  UNL     1       4.717   0.096   1.049  1.00  0.00     0.008 C 
ENDBRANCH  10  11
ENDBRANCH   8  10
ENDBRANCH   1   8
BRANCH   7  13
HETATM   13  N4  UNL     1       0.561  -1.798  -1.207  1.00  0.00    -0.069 N 
ATOM     14  H43 UNL     1       1.560  -1.613  -1.294  1.00  0.00     0.275 HD
ATOM     15  H42 UNL     1       0.577  -2.257  -0.296  1.00  0.00     0.275 HD
ATOM     16  H41 UNL     1       0.217  -2.414  -1.943  1.00  0.00     0.275 HD
ENDBRANCH   7  13
BRANCH   4  17
HETATM   17  C6  UNL     1      -2.600   2.015   1.177  1.00  0.00     0.189 C 
BRANCH  17  18
HETATM   18  O1  UNL     1      -2.171   1.506   2.386  1.00  0.00    -0.399 OA
ATOM     19  H1  UNL     1      -2.570   1.945   3.128  1.00  0.00     0.209 HD
ENDBRANCH  17  18
ENDBRANCH   4  17
BRANCH   6  20
HETATM   20  N3  UNL     1      -1.609  -2.333  -0.322  1.00  0.00    -0.073 N 
ATOM     21  H33 UNL     1      -1.279  -2.269   0.641  1.00  0.00     0.274 HD
ATOM     22  H32 UNL     1      -2.544  -2.698  -0.138  1.00  0.00     0.274 HD
ATOM     23  H31 UNL     1      -1.049  -2.984  -0.873  1.00  0.00     0.274 HD
ENDBRANCH   6  20
TORSDOF 7
