REMARK  7 active torsions:
REMARK  status: ('A' for Active; 'I' for Inactive)
REMARK    1  A    between atoms: C2_7  and  C3_8 
REMARK    2  A    between atoms: C3_8  and  C4_9 
REMARK    3  A    between atoms: C4_9  and  O1_10 
REMARK    4  A    between atoms: C5_14  and  N4_15 
REMARK    5  A    between atoms: N4_15  and  C6_17 
REMARK    6  A    between atoms: C6_17  and  C7_18 
REMARK    7  A    between atoms: C7_18  and  N5_19 
ROOT
HETATM    1  N1  UNL     1       1.210   3.527   0.801  1.00  0.00    -0.234 N 
ATOM      2  H11 UNL     1       0.546   4.274   0.597  1.00  0.00     0.174 HD
ATOM      3  H12 UNL     1       2.128   3.752   1.185  1.00  0.00     0.174 HD
HETATM    4  C1  UNL     1       0.903   2.296   0.580  1.00  0.00     0.691 A 
HETATM    5  N2  UNL     1       1.793   1.294   0.854  1.00  0.00    -0.180 N 
ATOM      6  H2  UNL     1       2.706   1.540   1.237  1.00  0.00     0.185 HD
HETATM    7  C2  UNL     1       1.511  -0.002   0.638  1.00  0.00     0.115 A 
HETATM    8  N3  UNL     1       0.290  -0.260   0.131  1.00  0.00    -0.180 N 
ATOM      9  H3  UNL     1       0.029  -1.229  -0.050  1.00  0.00     0.185 HD
HETATM   10  C5  UNL     1      -0.600   0.712  -0.146  1.00  0.00     0.694 A 
HETATM   11  N6  UNL     1      -0.304   2.000   0.075  1.00  0.00    -0.023 N 
ATOM     12  H6  UNL     1      -0.978   2.736  -0.135  1.00  0.00     0.203 HD
ENDROOT
BRANCH  10  13
HETATM   13  N4  UNL     1      -1.781   0.442  -0.639  1.00  0.00    -0.224 N 
ATOM     14  H4  UNL     1      -2.433   1.201  -0.839  1.00  0.00     0.177 HD
BRANCH  13  15
HETATM   15  C6  UNL     1      -2.167  -0.925  -0.902  1.00  0.00     0.165 C 
BRANCH  15  16
HETATM   16  C7  UNL     1      -3.501  -1.261  -0.273  1.00  0.00     0.249 C 
BRANCH  16  17
HETATM   17  N5  UNL     1      -4.564  -0.414  -0.778  1.00  0.00    -0.078 N 
ATOM     18  H53 UNL     1      -4.338   0.574  -0.663  1.00  0.00     0.274 HD
ATOM     19  H52 UNL     1      -4.614  -0.449  -1.796  1.00  0.00     0.274 HD
ATOM     20  H51 UNL     1      -5.464  -0.641  -0.354  1.00  0.00     0.274 HD
ENDBRANCH  16  17
ENDBRANCH  15  16
ENDBRANCH  13  15
ENDBRANCH  10  13
BRANCH   7  21
HETATM   21  C3  UNL     1       2.467  -1.094   0.932  1.00  0.00     0.103 C 
BRANCH  21  22
HETATM   22  C4  UNL     1       3.367  -1.447  -0.206  1.00  0.00     0.171 C 
BRANCH  22  23
HETATM   23  O1  UNL     1       4.164  -0.426  -0.653  1.00  0.00    -0.400 OA
ATOM     24  H1  UNL     1       4.737  -0.651  -1.377  1.00  0.00     0.209 HD
ENDBRANCH  22  23
ENDBRANCH  21  22
ENDBRANCH   7  21
TORSDOF 7
