REMARK  8 active torsions:
REMARK  status: ('A' for Active; 'I' for Inactive)
REMARK    1  A    between atoms: N1_1  and  C1_4 
REMARK    2  A    between atoms: C4_9  and  N3_10 
REMARK       I    between atoms: N5_16  and  C6_17 
REMARK    3  A    between atoms: C6_17  and  C7_19 
REMARK    4  A    between atoms: C7_19  and  N6_20 
REMARK    5  A    between atoms: C8_23  and  C9_24 
REMARK    6  A    between atoms: C9_24  and  N8_25 
REMARK    7  A    between atoms: N9_28  and  N10_29 
REMARK    8  A    between atoms: C10_32  and  O4_33 
ROOT
HETATM    1  C1  UNL     1      -6.176   0.384   0.118  1.00  0.00     0.677 A 
HETATM    2  N2  UNL     1      -5.247  -0.237  -0.653  1.00  0.00    -0.195 N 
ATOM      3  H2  UNL     1      -5.559  -0.755  -1.474  1.00  0.00     0.184 HD
HETATM    4  C2  UNL     1      -3.940  -0.197  -0.379  1.00  0.00     0.040 A 
HETATM    5  C3  UNL     1      -3.506   0.493   0.718  1.00  0.00     0.027 A 
HETATM    6  C4  UNL     1      -4.464   1.127   1.502  1.00  0.00     0.124 A 
HETATM    7  N4  UNL     1      -5.773   1.076   1.213  1.00  0.00    -0.177 N 
ATOM      8  H4  UNL     1      -6.454   1.550   1.807  1.00  0.00     0.185 HD
HETATM    9  C5  UNL     1      -2.084   0.552   1.045  1.00  0.00     0.170 C 
HETATM   10  N5  UNL     1      -1.211   0.174  -0.038  1.00  0.00    -0.346 N 
HETATM   11  C6  UNL     1       0.185   0.209   0.227  1.00  0.00     0.239 C 
HETATM   12  O1  UNL     1       0.607   0.566   1.386  1.00  0.00    -0.271 OA
HETATM   13  C11 UNL     1      -1.662  -0.225  -1.339  1.00  0.00     0.132 C 
HETATM   14  C12 UNL     1      -3.014  -0.909  -1.301  1.00  0.00     0.078 C 
ENDROOT
BRANCH  11  15
HETATM   15  C7  UNL     1       1.128  -0.167  -0.840  1.00  0.00     0.250 C 
BRANCH  15  16
HETATM   16  N6  UNL     1       2.516  -0.065  -0.372  1.00  0.00    -0.270 N 
HETATM   17  N7  UNL     1       3.505   0.806  -0.729  1.00  0.00    -0.284 N 
HETATM   18  C8  UNL     1       4.639   0.539  -0.171  1.00  0.00     0.141 C 
ATOM     19  H7  UNL     1       3.363   1.587  -1.370  1.00  0.00     0.188 HD
HETATM   20  N9  UNL     1       4.437  -0.604   0.638  1.00  0.00    -0.235 N 
HETATM   21  C10 UNL     1       3.022  -0.983   0.624  1.00  0.00     0.367 C 
BRANCH  18  22
HETATM   22  C9  UNL     1       5.919   1.292  -0.348  1.00  0.00     0.280 C 
BRANCH  22  23
HETATM   23  N8  UNL     1       6.906   0.592  -1.084  1.00  0.00    -0.148 N 
HETATM   24  O2  UNL     1       7.378   1.030  -2.172  1.00  0.00    -0.536 OA
HETATM   25  O3  UNL     1       7.401  -0.601  -0.650  1.00  0.00    -0.536 OA
ENDBRANCH  22  23
ENDBRANCH  18  22
BRANCH  20  26
HETATM   26  N10 UNL     1       5.387  -1.325   1.383  1.00  0.00    -0.338 N 
ATOM     27 2H10 UNL     1       6.372  -1.061   1.393  1.00  0.00     0.177 HD
ATOM     28 1H10 UNL     1       5.241  -2.149   1.966  1.00  0.00     0.177 HD
ENDBRANCH  20  26
BRANCH  21  29
HETATM   29  O4  UNL     1       2.867  -2.298   0.186  1.00  0.00    -0.357 OA
ATOM     30  H4  UNL     1       3.199  -2.901   0.840  1.00  0.00     0.214 HD
ENDBRANCH  21  29
ENDBRANCH  15  16
ENDBRANCH  11  15
BRANCH   6  31
HETATM   31  N3  UNL     1      -4.086   1.786   2.544  1.00  0.00    -0.385 N 
ATOM     32  H32 UNL     1      -3.091   1.825   2.764  1.00  0.00     0.157 HD
ATOM     33  H31 UNL     1      -4.789   2.251   3.119  1.00  0.00     0.157 HD
ENDBRANCH   6  31
BRANCH   1  34
HETATM   34  N1  UNL     1      -7.435   0.333  -0.161  1.00  0.00    -0.234 N 
ATOM     35  H12 UNL     1      -7.738  -0.187  -0.984  1.00  0.00     0.174 HD
ATOM     36  H11 UNL     1      -8.133   0.800   0.418  1.00  0.00     0.174 HD
ENDBRANCH   1  34
TORSDOF 8
