REMARK  3 active torsions:
REMARK  status: ('A' for Active; 'I' for Inactive)
REMARK    1  A    between atoms: N1_1  and  N2_4 
REMARK    2  A    between atoms: N2_4  and  N3_6 
REMARK    3  A    between atoms: N3_6  and  C1_8 
ROOT
HETATM    1  C1  UNL     1       0.830   0.355  -0.208  1.00  0.00     0.194 C 
HETATM    2  N4  UNL     1       0.054   1.461  -0.385  1.00  0.00    -0.289 N 
ATOM      3  H4  UNL     1       0.530   2.303  -0.709  1.00  0.00     0.172 HD
HETATM    4  C2  UNL     1      -1.273   1.563  -0.178  1.00  0.00     0.330 C 
HETATM    5  O1  UNL     1      -1.803   2.703  -0.347  1.00  0.00    -0.246 OA
HETATM    6  N5  UNL     1      -2.157   0.600   0.196  1.00  0.00    -0.260 N 
ATOM      7  H5  UNL     1      -3.074   0.944   0.482  1.00  0.00     0.175 HD
HETATM    8  C3  UNL     1      -2.010  -0.737   0.247  1.00  0.00     0.331 C 
HETATM    9  O2  UNL     1      -3.070  -1.397   0.403  1.00  0.00    -0.246 OA
HETATM   10  N6  UNL     1      -0.841  -1.394   0.144  1.00  0.00    -0.272 N 
ATOM     11  H6  UNL     1      -0.907  -2.400   0.297  1.00  0.00     0.174 HD
HETATM   12  C4  UNL     1       0.401  -0.952  -0.126  1.00  0.00     0.295 C 
HETATM   13  O3  UNL     1       1.271  -1.834  -0.327  1.00  0.00    -0.264 OA
ENDROOT
BRANCH   1  14
HETATM   14  N3  UNL     1       2.074   0.583  -0.111  1.00  0.00    -0.267 N 
ATOM     15  H3  UNL     1       2.364   1.559  -0.175  1.00  0.00     0.190 HD
BRANCH  14  16
HETATM   16  N2  UNL     1       3.081  -0.350   0.072  1.00  0.00    -0.248 N 
ATOM     17  H2  UNL     1       3.484  -0.848  -0.722  1.00  0.00     0.207 HD
BRANCH  16  18
HETATM   18  N1  UNL     1       3.494  -0.571   1.269  1.00  0.00    -0.331 N 
ATOM     19  H12 UNL     1       3.081  -0.064   2.052  1.00  0.00     0.178 HD
ATOM     20  H11 UNL     1       4.236  -1.258   1.404  1.00  0.00     0.178 HD
ENDBRANCH  16  18
ENDBRANCH  14  16
ENDBRANCH   1  14
TORSDOF 3
