REMARK  6 active torsions:
REMARK  status: ('A' for Active; 'I' for Inactive)
REMARK    1  A    between atoms: C3_6  and  C4_7 
REMARK    2  A    between atoms: N2_8  and  N3_10 
REMARK       I    between atoms: N3_10  and  C5_12 
REMARK    3  A    between atoms: C5_12  and  C6_14 
REMARK    4  A    between atoms: C6_14  and  S1_15 
REMARK    5  A    between atoms: S1_15  and  C7_16 
REMARK    6  A    between atoms: C7_16  and  C8_20 
ROOT
HETATM    1  C1  UNL     1       7.298  -0.325  -0.202  1.00  0.00     0.072 C 
HETATM    2  C2  UNL     1       5.959  -0.328  -0.852  1.00  0.00     0.052 A 
HETATM    3  N1  UNL     1       5.719  -0.577  -2.159  1.00  0.00    -0.264 N 
ATOM      4  H1  UNL     1       6.427  -0.794  -2.861  1.00  0.00     0.194 HD
HETATM    5  O1  UNL     1       4.439  -0.495  -2.377  1.00  0.00    -0.235 OA
HETATM    6  C3  UNL     1       3.801  -0.203  -1.283  1.00  0.00     0.138 A 
HETATM    7  C11 UNL     1       4.733  -0.088  -0.287  1.00  0.00     0.105 A 
HETATM    8  C12 UNL     1       4.541   0.220   1.098  1.00  0.00     0.104 C 
HETATM    9  N5  UNL     1       4.369   0.471   2.201  1.00  0.00    -0.191 NA
ENDROOT
BRANCH   6  10
HETATM   10  C4  UNL     1       2.367  -0.017  -1.074  1.00  0.00     0.148 C 
HETATM   11  N2  UNL     1       1.857   0.269   0.056  1.00  0.00    -0.306 N 
ATOM     12  H2  UNL     1       2.462   0.378   0.870  1.00  0.00     0.186 HD
BRANCH  11  13
HETATM   13  N3  UNL     1       0.480   0.435   0.193  1.00  0.00    -0.270 N 
HETATM   14  C5  UNL     1      -0.402  -0.552  -0.283  1.00  0.00     0.245 C 
HETATM   15  O2  UNL     1       0.051  -1.585  -0.833  1.00  0.00    -0.271 OA
ATOM     16  H3  UNL     1       0.111   1.274   0.640  1.00  0.00     0.190 HD
BRANCH  14  17
HETATM   17  C6  UNL     1      -1.882  -0.457  -0.179  1.00  0.00     0.185 C 
BRANCH  17  18
HETATM   18  S1  UNL     1      -2.397   1.077   0.632  1.00  0.00    -0.107 SA
BRANCH  18  19
HETATM   19  C7  UNL     1      -4.171   1.114   0.717  1.00  0.00     0.044 C 
HETATM   20  N4  UNL     1      -4.712   2.134   1.264  1.00  0.00    -0.397 N 
ATOM     21  H42 UNL     1      -4.118   2.879   1.627  1.00  0.00     0.156 HD
ATOM     22  H41 UNL     1      -5.731   2.155   1.313  1.00  0.00     0.156 HD
BRANCH  19  23
HETATM   23  C8  UNL     1      -5.033   0.033   0.191  1.00  0.00     0.042 A 
HETATM   24  C9  UNL     1      -6.551   0.242   0.356  1.00  0.00     0.012 A 
HETATM   25  C10 UNL     1      -5.811  -0.848   1.073  1.00  0.00     0.012 A 
ENDBRANCH  19  23
ENDBRANCH  18  19
ENDBRANCH  17  18
ENDBRANCH  14  17
ENDBRANCH  11  13
ENDBRANCH   6  10
TORSDOF 6
