REMARK  10 active torsions:
REMARK  status: ('A' for Active; 'I' for Inactive)
REMARK    1  A    between atoms: C2_2  and  C4_4 
REMARK    2  A    between atoms: C4_4  and  C5_5 
REMARK    3  A    between atoms: C5_5  and  O1_6 
REMARK    4  A    between atoms: C5_5  and  C17_30 
REMARK    5  A    between atoms: O1_6  and  C6_7 
REMARK    6  A    between atoms: C9_10  and  N1_11 
REMARK       I    between atoms: N1_11  and  C10_13 
REMARK       I    between atoms: C10_13  and  N2_15 
REMARK    7  A    between atoms: N2_15  and  C11_17 
REMARK    8  A    between atoms: C11_17  and  O3_18 
REMARK    9  A    between atoms: C11_17  and  C12_20 
REMARK   10  A    between atoms: C12_20  and  N3_21 
ROOT
HETATM    1  C6  UNL     1      -1.073  -0.654  -0.362  1.00  0.00     0.124 C 
HETATM    2  C7  UNL     1      -0.085  -1.736  -0.702  1.00  0.00     0.034 C 
HETATM    3  C8  UNL     1       1.340  -1.397  -0.560  1.00  0.00     0.029 C 
HETATM    4  C9  UNL     1       1.664  -0.418   0.534  1.00  0.00     0.108 C 
HETATM    5  C13 UNL     1       0.808   0.800   0.443  1.00  0.00     0.068 C 
HETATM    6  C14 UNL     1       0.847   1.474  -0.890  1.00  0.00     0.033 C 
HETATM    7  C15 UNL     1       1.114   1.718   1.540  1.00  0.00     0.071 C 
HETATM    8  N4  UNL     1       1.372   2.451   2.398  1.00  0.00    -0.196 NA
HETATM    9  C16 UNL     1      -0.618   0.288   0.684  1.00  0.00     0.058 C 
ENDROOT
BRANCH   4  10
HETATM   10  N1  UNL     1       3.097  -0.121   0.498  1.00  0.00    -0.337 N 
HETATM   11  C10 UNL     1       3.960  -0.448   1.550  1.00  0.00     0.322 C 
HETATM   12  O2  UNL     1       3.386  -1.030   2.547  1.00  0.00    -0.247 OA
HETATM   13  N2  UNL     1       5.321  -0.220   1.631  1.00  0.00    -0.291 N 
ATOM     14  H2  UNL     1       5.738  -0.548   2.502  1.00  0.00     0.172 HD
ATOM     15  H1  UNL     1       3.481   0.342  -0.326  1.00  0.00     0.164 HD
BRANCH  13  16
HETATM   16  C11 UNL     1       6.238   0.369   0.761  1.00  0.00     0.145 C 
BRANCH  16  17
HETATM   17  O3  UNL     1       7.484   0.438   1.127  1.00  0.00    -0.348 OA
ATOM     18  H3  UNL     1       8.109   0.839   0.534  1.00  0.00     0.219 HD
ENDBRANCH  16  17
BRANCH  16  19
HETATM   19  C12 UNL     1       5.990   0.949  -0.568  1.00  0.00     0.313 C 
BRANCH  19  20
HETATM   20  N3  UNL     1       7.217   1.475  -1.182  1.00  0.00    -0.072 N 
ATOM     21  H33 UNL     1       7.679   2.145  -0.567  1.00  0.00     0.274 HD
ATOM     22  H32 UNL     1       7.945   0.762  -1.221  1.00  0.00     0.274 HD
ATOM     23  H31 UNL     1       7.045   1.877  -2.103  1.00  0.00     0.274 HD
ENDBRANCH  19  20
ENDBRANCH  16  19
ENDBRANCH  13  16
ENDBRANCH   4  10
BRANCH   1  24
HETATM   24  O1  UNL     1      -2.271  -1.238   0.047  1.00  0.00    -0.371 OA
BRANCH  24  25
HETATM   25  C5  UNL     1      -3.323  -0.999  -0.815  1.00  0.00     0.211 C 
BRANCH  25  26
HETATM   26  C4  UNL     1      -4.526  -0.473  -0.125  1.00  0.00     0.045 C 
BRANCH  26  27
HETATM   27  C2  UNL     1      -4.369   0.836   0.586  1.00  0.00    -0.020 C 
HETATM   28  C1  UNL     1      -3.979   1.928  -0.408  1.00  0.00     0.009 C 
HETATM   29  C3  UNL     1      -5.692   1.276   1.207  1.00  0.00     0.009 C 
ENDBRANCH  26  27
ENDBRANCH  25  26
BRANCH  25  30
HETATM   30  C17 UNL     1      -3.727  -2.345  -1.378  1.00  0.00     0.260 C 
HETATM   31  N5  UNL     1      -3.055  -3.522  -0.983  1.00  0.00    -0.060 NA
HETATM   32  O4  UNL     1      -4.681  -2.311  -2.198  1.00  0.00    -0.274 OA
ENDBRANCH  25  30
ENDBRANCH  24  25
ENDBRANCH   1  24
TORSDOF 10
