REMARK  7 active torsions:
REMARK  status: ('A' for Active; 'I' for Inactive)
REMARK    1  A    between atoms: C2_2  and  O1_3 
REMARK    2  A    between atoms: N1_5  and  C3_7 
REMARK    3  A    between atoms: N3_11  and  C5_13 
REMARK    4  A    between atoms: C5_13  and  C6_14 
REMARK    5  A    between atoms: C10_20  and  N4_21 
REMARK    6  A    between atoms: N4_21  and  C11_23 
REMARK    7  A    between atoms: C16_28  and  C17_29 
ROOT
HETATM    1  C3  UNL     1      -1.624   1.535  -1.020  1.00  0.00     0.124 A 
HETATM    2  N2  UNL     1      -0.395   1.105  -0.687  1.00  0.00    -0.326 N 
ATOM      3  H2  UNL     1       0.392   1.723  -0.885  1.00  0.00     0.169 HD
HETATM    4  C4  UNL     1      -0.124  -0.102  -0.102  1.00  0.00     0.130 A 
HETATM    5  N3  UNL     1       1.059  -0.490   0.204  1.00  0.00    -0.372 N 
ATOM      6  H3  UNL     1       1.189  -1.404   0.638  1.00  0.00     0.161 HD
HETATM    7  C10 UNL     1      -1.135  -0.981   0.193  1.00  0.00     0.080 A 
HETATM    8  C14 UNL     1      -2.414  -0.591  -0.127  1.00  0.00    -0.013 A 
HETATM    9  C15 UNL     1      -3.510  -1.524   0.262  1.00  0.00     0.052 C 
HETATM   10  C16 UNL     1      -2.673   0.651  -0.733  1.00  0.00     0.081 A 
ENDROOT
BRANCH   5  11
HETATM   11  C5  UNL     1       2.202   0.336  -0.053  1.00  0.00     0.155 C 
BRANCH  11  12
HETATM   12  C6  UNL     1       2.478   1.346   1.035  1.00  0.00     0.163 C 
HETATM   13  C7  UNL     1       3.625   2.200   0.597  1.00  0.00     0.201 C 
HETATM   14  O2  UNL     1       4.835   1.510   0.624  1.00  0.00    -0.386 OA
HETATM   15  C8  UNL     1       5.041   1.077   1.911  1.00  0.00     0.193 C 
HETATM   16  C9  UNL     1       3.968   0.117   2.324  1.00  0.00     0.194 C 
HETATM   17  O3  UNL     1       2.713   0.680   2.240  1.00  0.00    -0.380 OA
ENDBRANCH  11  12
ENDBRANCH   5  11
BRANCH   7  18
HETATM   18  N4  UNL     1      -0.835  -2.240   0.807  1.00  0.00    -0.383 N 
ATOM     19  H4  UNL     1      -0.962  -2.308   1.817  1.00  0.00     0.160 HD
BRANCH  18  20
HETATM   20  C11 UNL     1      -0.379  -3.394   0.134  1.00  0.00     0.073 C 
HETATM   21  C12 UNL     1      -1.171  -3.953  -0.974  1.00  0.00     0.031 C 
HETATM   22  C13 UNL     1      -0.161  -4.500   1.177  1.00  0.00     0.031 C 
ENDBRANCH  18  20
ENDBRANCH   7  18
BRANCH   1  23
HETATM   23  N1  UNL     1      -1.845   2.872  -1.465  1.00  0.00    -0.326 N 
HETATM   24  C2  UNL     1      -1.011   3.857  -1.912  1.00  0.00     0.112 C 
HETATM   25  C1  UNL     1       0.405   3.788  -2.225  1.00  0.00     0.097 C 
ATOM     26  H1  UNL     1      -2.826   3.149  -1.445  1.00  0.00     0.169 HD
BRANCH  24  27
HETATM   27  O1  UNL     1      -1.534   5.033  -2.099  1.00  0.00    -0.350 OA
ATOM     28  H1  UNL     1      -2.461   5.078  -1.894  1.00  0.00     0.219 HD
ENDBRANCH  24  27
ENDBRANCH   1  23
BRANCH  10  29
HETATM   29  C17 UNL     1      -3.989   0.942  -1.207  1.00  0.00     0.269 C 
HETATM   30  N5  UNL     1      -5.194   0.222  -0.944  1.00  0.00    -0.057 NA
HETATM   31  O4  UNL     1      -4.200   1.947  -1.961  1.00  0.00    -0.271 OA
ENDBRANCH  10  29
TORSDOF 7
