REMARK  8 active torsions:
REMARK  status: ('A' for Active; 'I' for Inactive)
REMARK    1  A    between atoms: C2_5  and  N3_6 
REMARK    2  A    between atoms: C2_5  and  C12_25 
REMARK    3  A    between atoms: N3_6  and  C3_8 
REMARK    4  A    between atoms: C3_8  and  C4_9 
REMARK    5  A    between atoms: C3_8  and  C6_16 
REMARK    6  A    between atoms: C4_9  and  S1_10 
REMARK    7  A    between atoms: S1_10  and  C5_11 
REMARK       I    between atoms: C6_16  and  N6_18 
REMARK    8  A    between atoms: N6_18  and  C7_20 
ROOT
HETATM    1  N1  UNL     1       3.999   1.067   3.390  1.00  0.00    -0.172 NA
HETATM    2  C1  UNL     1       3.137   0.798   2.695  1.00  0.00     0.183 C 
HETATM    3  N2  UNL     1       2.100   0.499   1.914  1.00  0.00    -0.281 N 
ATOM      4  H2  UNL     1       1.245   0.680   2.440  1.00  0.00     0.179 HD
HETATM    5  C2  UNL     1       1.780   0.086   0.796  1.00  0.00     0.116 C 
ENDROOT
BRANCH   5   6
HETATM    6  N3  UNL     1       0.346  -0.022   0.531  1.00  0.00    -0.363 N 
ATOM      7  H3  UNL     1      -0.142  -0.911   0.639  1.00  0.00     0.161 HD
BRANCH   6   8
HETATM    8  C3  UNL     1      -0.365   1.178   0.108  1.00  0.00     0.184 C 
BRANCH   8   9
HETATM    9  C4  UNL     1       0.131   1.885  -1.061  1.00  0.00     0.116 C 
BRANCH   9  10
HETATM   10  S1  UNL     1      -0.771   3.389  -1.401  1.00  0.00    -0.095 SA
BRANCH  10  11
HETATM   11  C5  UNL     1      -0.452   4.709  -0.229  1.00  0.00     0.147 C 
HETATM   12  N4  UNL     1      -1.096   5.766  -0.398  1.00  0.00    -0.382 N 
ATOM     13  H42 UNL     1      -1.801   5.834  -1.132  1.00  0.00     0.157 HD
ATOM     14  H41 UNL     1      -0.915   6.517   0.268  1.00  0.00     0.157 HD
HETATM   15  N5  UNL     1       0.521   4.615   0.783  1.00  0.00    -0.075 NA
ENDBRANCH  10  11
ENDBRANCH   9  10
ENDBRANCH   8   9
BRANCH   8  16
HETATM   16  C6  UNL     1      -1.789   0.806   0.113  1.00  0.00     0.241 C 
HETATM   17  O1  UNL     1      -2.593   1.340   0.950  1.00  0.00    -0.271 OA
HETATM   18  N6  UNL     1      -2.346  -0.154  -0.757  1.00  0.00    -0.355 N 
ATOM     19  H6  UNL     1      -1.751  -0.599  -1.455  1.00  0.00     0.162 HD
BRANCH  18  20
HETATM   20  C7  UNL     1      -3.755  -0.524  -0.680  1.00  0.00     0.084 C 
HETATM   21  C8  UNL     1      -4.130  -1.684  -1.531  1.00  0.00     0.025 C 
HETATM   22  C9  UNL     1      -4.773  -2.742  -0.632  1.00  0.00     0.002 C 
HETATM   23  C10 UNL     1      -5.080  -2.033   0.664  1.00  0.00     0.002 C 
HETATM   24  C11 UNL     1      -3.954  -1.002   0.777  1.00  0.00     0.025 C 
ENDBRANCH  18  20
ENDBRANCH   8  16
ENDBRANCH   6   8
ENDBRANCH   5   6
BRANCH   5  25
HETATM   25  C12 UNL     1       2.753  -0.280  -0.248  1.00  0.00     0.189 C 
HETATM   26  C13 UNL     1       2.770  -1.760  -0.583  1.00  0.00     0.040 C 
HETATM   27  C14 UNL     1       3.813  -2.506   0.169  1.00  0.00     0.005 C 
HETATM   28  C15 UNL     1       5.188  -1.870   0.016  1.00  0.00     0.026 C 
HETATM   29  C16 UNL     1       5.000  -0.508  -0.628  1.00  0.00     0.168 C 
HETATM   30  O2  UNL     1       3.992   0.215   0.029  1.00  0.00    -0.378 OA
ENDBRANCH   5  25
TORSDOF 8
