REMARK  5 active torsions:
REMARK  status: ('A' for Active; 'I' for Inactive)
REMARK    1  A    between atoms: C3_3  and  C4_4 
REMARK    2  A    between atoms: N1_5  and  N2_7 
REMARK    3  A    between atoms: N6_16  and  C6_17 
REMARK    4  A    between atoms: C6_17  and  C7_18 
REMARK       I    between atoms: C7_18  and  N7_20 
REMARK    5  A    between atoms: N7_20  and  C8_22 
ROOT
HETATM    1  C1  UNL     1       0.386  -1.926   0.529  1.00  0.00     0.072 C 
HETATM    2  C2  UNL     1       1.108  -0.617   0.708  1.00  0.00     0.056 A 
HETATM    3  C3  UNL     1       2.027  -0.069  -0.125  1.00  0.00     0.090 A 
HETATM    4  N4  UNL     1       2.377   1.101   0.465  1.00  0.00    -0.283 N 
ATOM      5  H4  UNL     1       3.050   1.768   0.087  1.00  0.00     0.188 HD
HETATM    6  N5  UNL     1       1.734   1.246   1.575  1.00  0.00    -0.239 N 
ATOM      7  H5  UNL     1       1.828   2.038   2.211  1.00  0.00     0.208 HD
HETATM    8  N6  UNL     1       0.940   0.215   1.758  1.00  0.00    -0.271 N 
ENDROOT
BRANCH   8   9
HETATM    9  C6  UNL     1       0.096  -0.052   2.879  1.00  0.00     0.253 C 
BRANCH   9  10
HETATM   10  C7  UNL     1      -1.249   0.559   2.709  1.00  0.00     0.255 C 
HETATM   11  O1  UNL     1      -2.102   0.237   3.591  1.00  0.00    -0.271 OA
HETATM   12  N7  UNL     1      -1.458   1.420   1.636  1.00  0.00    -0.157 N 
ATOM     13  H7  UNL     1      -0.762   1.409   0.891  1.00  0.00     0.187 HD
BRANCH  12  14
HETATM   14  C8  UNL     1      -2.459   2.236   1.497  1.00  0.00     0.700 A 
HETATM   15  N8  UNL     1      -2.636   3.073   0.425  1.00  0.00    -0.185 N 
HETATM   16  C9  UNL     1      -3.804   3.763   0.629  1.00  0.00     0.215 A 
ATOM     17  H8  UNL     1      -2.013   3.166  -0.377  1.00  0.00     0.185 HD
HETATM   18  N9  UNL     1      -4.332   3.341   1.814  1.00  0.00    -0.281 N 
HETATM   19  N10 UNL     1      -3.501   2.452   2.266  1.00  0.00    -0.131 N 
ATOM     20  H9  UNL     1      -5.197   3.657   2.252  1.00  0.00     0.188 HD
ATOM     21  H10 UNL     1      -3.646   1.961   3.148  1.00  0.00     0.205 HD
ENDBRANCH  12  14
ENDBRANCH   9  10
ENDBRANCH   8   9
BRANCH   3  22
HETATM   22  C4  UNL     1       2.590  -0.621  -1.345  1.00  0.00     0.140 C 
HETATM   23  N1  UNL     1       2.347  -1.739  -1.897  1.00  0.00    -0.308 N 
ATOM     24  H1  UNL     1       1.683  -2.404  -1.501  1.00  0.00     0.186 HD
BRANCH  23  25
HETATM   25  N2  UNL     1       3.061  -2.010  -3.110  1.00  0.00    -0.279 N 
HETATM   26  C5  UNL     1       2.599  -2.436  -4.264  1.00  0.00     0.199 C 
HETATM   27  N3  UNL     1       1.333  -2.723  -4.792  1.00  0.00    -0.068 NA
HETATM   28  S1  UNL     1       3.802  -2.806  -5.450  1.00  0.00    -0.043 SA
ATOM     29  H2  UNL     1       4.068  -1.850  -3.072  1.00  0.00     0.189 HD
ENDBRANCH  23  25
ENDBRANCH   3  22
TORSDOF 5
