REMARK  2 active torsions:
REMARK  status: ('A' for Active; 'I' for Inactive)
REMARK    1  A    between atoms: C7_8  and  O1_9 
REMARK    2  A    between atoms: C7_8  and  C8_11 
ROOT
HETATM    1  C1  UNL     1      -1.194   1.971  -0.769  1.00  0.00     0.015 C 
HETATM    2  C2  UNL     1      -0.488   1.105   0.215  1.00  0.00     0.052 C 
HETATM    3  C3  UNL     1       0.941   0.795  -0.159  1.00  0.00     0.232 C 
HETATM    4  C4  UNL     1       0.854  -0.278  -1.199  1.00  0.00     0.075 C 
HETATM    5  C5  UNL     1       0.275  -1.052  -0.010  1.00  0.00     0.260 C 
HETATM    6  N1  UNL     1       1.236  -0.294   0.789  1.00  0.00     0.097 N 
HETATM    7  C6  UNL     1       2.593  -0.773   0.668  1.00  0.00     0.311 C 
HETATM    8  C7  UNL     1      -1.023  -0.340   0.203  1.00  0.00     0.106 C 
ENDROOT
BRANCH   8   9
HETATM    9  O1  UNL     1      -1.875  -0.463  -0.864  1.00  0.00    -0.386 OA
ATOM     10  H1  UNL     1      -2.205  -1.354  -0.871  1.00  0.00     0.210 HD
ENDBRANCH   8   9
BRANCH   8  11
HETATM   11  C8  UNL     1      -1.675  -0.670   1.523  1.00  0.00     0.155 C 
HETATM   12 CL1  UNL     1      -2.257  -2.348   1.412  1.00  0.00    -0.127 Cl
ENDBRANCH   8  11
TORSDOF 2
