REMARK  2 active torsions:
REMARK  status: ('A' for Active; 'I' for Inactive)
REMARK    1  A    between atoms: C1_2  and  O1_3 
REMARK    2  A    between atoms: O1_3  and  C2_4 
ROOT
HETATM    1  C2  UNL     1       0.325  -0.040  -0.016  1.00  0.00     0.149 C 
HETATM    2  C3  UNL     1      -0.790  -0.185  -1.060  1.00  0.00     0.061 C 
HETATM    3  C4  UNL     1      -1.924   0.507  -0.311  1.00  0.00     0.235 C 
HETATM    4  N1  UNL     1      -1.748   0.137   1.076  1.00  0.00    -0.073 N 
ATOM      5  H11 UNL     1      -2.497  -0.462   1.424  1.00  0.00     0.277 HD
ATOM      6  H12 UNL     1      -1.892   0.919   1.716  1.00  0.00     0.277 HD
HETATM    7  C5  UNL     1      -0.450  -0.460   1.209  1.00  0.00     0.264 C 
ENDROOT
BRANCH   1   8
HETATM    8  O1  UNL     1       1.377  -0.889  -0.258  1.00  0.00    -0.374 OA
BRANCH   8   9
HETATM    9  C1  UNL     1       2.579  -0.228  -0.457  1.00  0.00     0.253 C 
HETATM   10 BR1  UNL     1       3.056   0.809   1.075  1.00  0.00    -0.068 Br
ENDBRANCH   8   9
ENDBRANCH   1   8
TORSDOF 2
