REMARK  1 active torsions:
REMARK  status: ('A' for Active; 'I' for Inactive)
REMARK    1  A    between atoms: N1_7  and  C5_8 
ROOT
HETATM    1  C5  UNL     1       0.552  -0.514  -0.592  1.00  0.00     0.230 C 
HETATM    2  C6  UNL     1       1.029   0.769  -1.221  1.00  0.00     0.063 C 
HETATM    3  C7  UNL     1       2.510   1.000  -0.985  1.00  0.00     0.234 C 
HETATM    4  N2  UNL     1       2.841   0.996   0.415  1.00  0.00    -0.075 N 
ATOM      5  H21 UNL     1       2.473   1.830   0.873  1.00  0.00     0.277 HD
ATOM      6  H22 UNL     1       3.840   1.154   0.548  1.00  0.00     0.277 HD
HETATM    7  C8  UNL     1       2.424  -0.179   1.104  1.00  0.00     0.234 C 
HETATM    8  C9  UNL     1       1.498  -1.091   0.401  1.00  0.00     0.063 C 
ENDROOT
BRANCH   1   9
HETATM    9  N1  UNL     1      -0.780  -0.511  -0.116  1.00  0.00     0.131 N 
HETATM   10  C1  UNL     1      -1.796  -0.320  -1.114  1.00  0.00     0.428 C 
HETATM   11  F1  UNL     1      -1.709   0.970  -1.601  1.00  0.00    -0.214 F 
HETATM   12  C2  UNL     1      -3.173  -0.578  -0.616  1.00  0.00     0.237 C 
HETATM   13  O1  UNL     1      -3.391  -0.474   0.703  1.00  0.00    -0.385 OA
HETATM   14  C3  UNL     1      -2.411  -0.148   1.553  1.00  0.00     0.198 C 
HETATM   15  C4  UNL     1      -1.093   0.283   1.014  1.00  0.00     0.303 C 
ENDBRANCH   1   9
TORSDOF 1
