REMARK  1 active torsions:
REMARK  status: ('A' for Active; 'I' for Inactive)
REMARK    1  A    between atoms: C10_17  and  O3_18 
ROOT
HETATM    1  N1  UNL     1       1.856   2.340   1.804  1.00  0.00    -0.074 NA
HETATM    2  C1  UNL     1       2.356   1.538   0.747  1.00  0.00     0.165 C 
HETATM    3  N2  UNL     1       3.330   0.710   0.895  1.00  0.00    -0.267 N 
ATOM      4  H2  UNL     1       3.755   0.635   1.819  1.00  0.00     0.180 HD
HETATM    5  S1  UNL     1       3.961  -0.275  -0.357  1.00  0.00     0.232 S 
HETATM    6  O1  UNL     1       5.171  -0.998   0.214  1.00  0.00    -0.206 OA
HETATM    7  O2  UNL     1       4.360   0.514  -1.570  1.00  0.00    -0.206 OA
HETATM    8  C2  UNL     1       2.819  -1.533  -0.873  1.00  0.00     0.173 C 
HETATM    9  C3  UNL     1       2.313  -2.340   0.279  1.00  0.00     0.090 C 
HETATM   10  S2  UNL     1       0.647  -1.855   0.782  1.00  0.00    -0.168 SA
HETATM   11  C4  UNL     1      -0.569  -3.045   0.174  1.00  0.00     0.074 C 
HETATM   12  C5  UNL     1      -1.926  -2.432  -0.027  1.00  0.00     0.010 C 
HETATM   13  C6  UNL     1      -2.256  -1.363   0.959  1.00  0.00     0.001 C 
HETATM   14  C7  UNL     1      -2.938  -0.169   0.385  1.00  0.00     0.000 C 
HETATM   15  C8  UNL     1      -2.412   0.293  -0.921  1.00  0.00     0.002 C 
HETATM   16  C9  UNL     1      -2.174   1.809  -0.961  1.00  0.00     0.034 C 
HETATM   17  C10 UNL     1      -0.993   2.150  -0.125  1.00  0.00     0.146 C 
HETATM   18  C11 UNL     1       0.161   2.733  -0.862  1.00  0.00     0.179 C 
HETATM   19 CL1  UNL     1      -0.207   3.128  -2.552  1.00  0.00    -0.111 Cl
HETATM   20  S3  UNL     1       1.621   1.665  -0.859  1.00  0.00    -0.073 SA
ENDROOT
BRANCH  17  21
HETATM   21  O3  UNL     1      -1.446   2.993   0.915  1.00  0.00    -0.393 OA
ATOM     22  H3  UNL     1      -0.691   3.211   1.449  1.00  0.00     0.210 HD
ENDBRANCH  17  21
TORSDOF 1
