REMARK  0 active torsions:
REMARK  status: ('A' for Active; 'I' for Inactive)
ROOT
HETATM    1  N1  UNL     1       0.927   3.570   2.192  1.00  0.00    -0.191 NA
HETATM    2  C1  UNL     1       0.322   3.157   1.300  1.00  0.00     0.100 C 
HETATM    3  C2  UNL     1      -0.420   2.671   0.174  1.00  0.00     0.057 A 
HETATM    4  C3  UNL     1      -1.046   3.669  -0.585  1.00  0.00     0.065 A 
HETATM    5  C4  UNL     1      -1.796   3.290  -1.675  1.00  0.00     0.118 A 
HETATM    6  F1  UNL     1      -2.399   4.270  -2.405  1.00  0.00    -0.206 F 
HETATM    7  C5  UNL     1      -1.936   1.962  -2.022  1.00  0.00     0.050 A 
HETATM    8  C6  UNL     1      -1.317   1.007  -1.268  1.00  0.00    -0.044 A 
HETATM    9  C7  UNL     1      -0.546   1.331  -0.158  1.00  0.00     0.002 A 
HETATM   10  C8  UNL     1       0.010   0.074   0.456  1.00  0.00     0.108 A 
HETATM   11  N2  UNL     1      -0.232   0.154   1.873  1.00  0.00    -0.316 N 
ATOM     12  H2  UNL     1      -1.197   0.289   2.175  1.00  0.00     0.181 HD
HETATM   13  N3  UNL     1       0.632   0.073   2.754  1.00  0.00    -0.277 N 
ATOM     14  H3  UNL     1       0.375   0.137   3.739  1.00  0.00     0.189 HD
HETATM   15  C9  UNL     1       1.978  -0.109   2.375  1.00  0.00     0.203 A 
HETATM   16  N4  UNL     1       3.025  -0.207   3.378  1.00  0.00    -0.062 NA
HETATM   17  N5  UNL     1       2.283  -0.188   1.173  1.00  0.00    -0.351 N 
ATOM     18  H5  UNL     1       3.272  -0.318   0.959  1.00  0.00     0.163 HD
HETATM   19  C10 UNL     1       1.385  -0.115   0.056  1.00  0.00     0.064 A 
HETATM   20  C11 UNL     1       1.995   0.971  -0.829  1.00  0.00     0.034 C 
HETATM   21  C12 UNL     1       3.099   0.320  -1.650  1.00  0.00     0.003 C 
HETATM   22  C13 UNL     1       3.208  -1.062  -1.043  1.00  0.00     0.003 C 
HETATM   23  C14 UNL     1       1.717  -1.375  -0.719  1.00  0.00     0.034 C 
HETATM   24  C15 UNL     1      -1.025  -0.905  -0.034  1.00  0.00     0.001 C 
HETATM   25  C16 UNL     1      -2.294  -0.533   0.779  1.00  0.00     0.039 C 
HETATM   26  C17 UNL     1      -3.521  -1.188   0.226  1.00  0.00     0.168 C 
HETATM   27  O1  UNL     1      -3.191  -2.482  -0.168  1.00  0.00    -0.391 OA
HETATM   28  C18 UNL     1      -2.161  -2.961   0.604  1.00  0.00     0.168 C 
HETATM   29  C19 UNL     1      -0.803  -2.327   0.244  1.00  0.00     0.039 C 
HETATM   30  C20 UNL     1      -1.341  -0.489  -1.411  1.00  0.00     0.052 C 
ENDROOT
TORSDOF 0
