REMARK  12 active torsions:
REMARK  status: ('A' for Active; 'I' for Inactive)
REMARK    1  A    between atoms: C4_6  and  N2_7 
REMARK    2  A    between atoms: N2_7  and  C5_9 
REMARK    3  A    between atoms: C7_11  and  C8_12 
REMARK    4  A    between atoms: C8_12  and  O1_13 
REMARK    5  A    between atoms: C9_16  and  O3_17 
REMARK    6  A    between atoms: O3_17  and  C10_18 
REMARK    7  A    between atoms: C10_18  and  C11_19 
REMARK    8  A    between atoms: C11_19  and  O4_20 
REMARK    9  A    between atoms: C11_19  and  C12_22 
REMARK   10  A    between atoms: C12_22  and  O5_23 
REMARK   11  A    between atoms: C13_28  and  O7_29 
REMARK   12  A    between atoms: N5_37  and  O9_39 
ROOT
HETATM    1  C1  UNL     1       3.575   1.663  -2.265  1.00  0.00     0.024 C 
HETATM    2  C2  UNL     1       3.941   1.097  -1.140  1.00  0.00     0.016 C 
HETATM    3  C3  UNL     1       3.170   0.199  -0.298  1.00  0.00     0.192 C 
HETATM    4  N1  UNL     1       1.752   0.161  -0.442  1.00  0.00    -0.213 N 
ATOM      5  H1  UNL     1       1.182   0.385  -1.258  1.00  0.00     0.178 HD
HETATM    6  C4  UNL     1       1.331  -0.280   0.876  1.00  0.00     0.675 C 
HETATM    7  N3  UNL     1       2.187   0.142   1.744  1.00  0.00    -0.190 N 
ATOM      8  H3  UNL     1       2.137  -0.025   2.749  1.00  0.00     0.181 HD
HETATM    9  C13 UNL     1       3.195   0.865   1.095  1.00  0.00     0.194 C 
HETATM   10  C14 UNL     1       4.604   0.761   1.536  1.00  0.00     0.237 C 
HETATM   11  O8  UNL     1       5.323   1.691   0.746  1.00  0.00    -0.335 OA
HETATM   12  C15 UNL     1       5.315   1.358  -0.588  1.00  0.00     0.248 A 
HETATM   13  N4  UNL     1       6.203   2.036  -1.442  1.00  0.00    -0.307 N 
ATOM     14  H4  UNL     1       6.251   2.980  -1.825  1.00  0.00     0.167 HD
HETATM   15  C16 UNL     1       6.999   0.880  -1.552  1.00  0.00     0.203 A 
HETATM   16  N5  UNL     1       8.122   0.563  -2.125  1.00  0.00    -0.239 N 
ATOM     17  H5  UNL     1       8.615   1.285  -2.650  1.00  0.00     0.197 HD
HETATM   18  N6  UNL     1       6.098   0.127  -0.773  1.00  0.00    -0.307 N 
ATOM     19  H6  UNL     1       6.022  -0.844  -0.471  1.00  0.00     0.167 HD
ENDROOT
BRANCH   6  20
HETATM   20  N2  UNL     1       0.177  -1.046   1.222  1.00  0.00    -0.200 N 
ATOM     21  H2  UNL     1       0.295  -2.025   1.484  1.00  0.00     0.180 HD
BRANCH  20  22
HETATM   22  C5  UNL     1      -1.157  -0.480   1.214  1.00  0.00     0.245 C 
HETATM   23  C6  UNL     1      -2.190  -1.507   1.620  1.00  0.00     0.088 C 
HETATM   24  C7  UNL     1      -2.459  -2.388   0.440  1.00  0.00     0.154 C 
HETATM   25  O2  UNL     1      -2.638  -1.712  -0.743  1.00  0.00    -0.331 OA
HETATM   26  C9  UNL     1      -2.583  -0.322  -0.601  1.00  0.00     0.415 C 
HETATM   27  O6  UNL     1      -1.379   0.056  -0.033  1.00  0.00    -0.313 OA
BRANCH  24  28
HETATM   28  C8  UNL     1      -3.630  -3.315   0.635  1.00  0.00     0.196 C 
BRANCH  28  29
HETATM   29  O1  UNL     1      -3.626  -4.193  -0.474  1.00  0.00    -0.398 OA
ATOM     30  H1  UNL     1      -4.365  -4.778  -0.351  1.00  0.00     0.209 HD
ENDBRANCH  28  29
ENDBRANCH  24  28
BRANCH  26  31
HETATM   31  O3  UNL     1      -3.681   0.186   0.052  1.00  0.00    -0.336 OA
BRANCH  31  32
HETATM   32  C10 UNL     1      -4.447   1.028  -0.755  1.00  0.00     0.207 C 
BRANCH  32  33
HETATM   33  C11 UNL     1      -5.623   1.535   0.044  1.00  0.00     0.165 C 
BRANCH  33  34
HETATM   34  O4  UNL     1      -6.403   2.376  -0.736  1.00  0.00    -0.391 OA
ATOM     35  H4  UNL     1      -7.143   2.695  -0.233  1.00  0.00     0.210 HD
ENDBRANCH  33  34
BRANCH  33  36
HETATM   36  C12 UNL     1      -6.481   0.391   0.546  1.00  0.00     0.198 C 
BRANCH  36  37
HETATM   37  O5  UNL     1      -7.542   0.838   1.311  1.00  0.00    -0.398 OA
ATOM     38  H5  UNL     1      -8.080   0.121   1.626  1.00  0.00     0.209 HD
ENDBRANCH  36  37
ENDBRANCH  33  36
ENDBRANCH  32  33
ENDBRANCH  31  32
ENDBRANCH  26  31
ENDBRANCH  20  22
ENDBRANCH   6  20
BRANCH   9  39
HETATM   39  O7  UNL     1       2.898   2.212   0.880  1.00  0.00    -0.366 OA
ATOM     40  H7  UNL     1       2.913   2.622   1.737  1.00  0.00     0.212 HD
ENDBRANCH   9  39
BRANCH  16  41
HETATM   41  O9  UNL     1       8.672  -0.670  -2.063  1.00  0.00    -0.287 OA
ATOM     42  H9  UNL     1       9.493  -0.902  -2.482  1.00  0.00     0.244 HD
ENDBRANCH  16  41
TORSDOF 12
