REMARK  1 active torsions:
REMARK  status: ('A' for Active; 'I' for Inactive)
REMARK    1  A    between atoms: C10_13  and  O2_14 
ROOT
HETATM    1  C1  UNL     1      -1.847   0.354  -1.398  1.00  0.00     0.272 C 
HETATM    2  N1  UNL     1      -1.490   0.050  -0.014  1.00  0.00    -0.070 N 
HETATM    3  C2  UNL     1      -2.820  -0.039   0.669  1.00  0.00     0.272 C 
HETATM    4  C3  UNL     1      -0.946   1.166   0.672  1.00  0.00     0.237 C 
HETATM    5  C4  UNL     1       0.322   1.763   0.237  1.00  0.00     0.039 C 
HETATM    6  C5  UNL     1       1.495   0.900   0.578  1.00  0.00     0.060 C 
HETATM    7  C6  UNL     1       2.418   0.683  -0.628  1.00  0.00     0.223 C 
HETATM    8 CL1  UNL     1       4.075   1.163  -0.335  1.00  0.00    -0.095 Cl
HETATM    9  O1  UNL     1       2.393  -0.689  -0.864  1.00  0.00    -0.370 OA
HETATM   10  C7  UNL     1       1.163  -0.909  -1.534  1.00  0.00     0.177 C 
HETATM   11  C8  UNL     1       0.307  -1.701  -0.613  1.00  0.00     0.050 A 
HETATM   12  C9  UNL     1       0.362  -1.395   0.803  1.00  0.00     0.054 A 
HETATM   13  C10 UNL     1       1.198  -0.334   1.313  1.00  0.00     0.132 C 
HETATM   14  C11 UNL     1      -0.875  -1.206   0.118  1.00  0.00     0.203 A 
ENDROOT
BRANCH  13  15
HETATM   15  O2  UNL     1       2.462  -0.903   1.649  1.00  0.00    -0.395 OA
ATOM     16  H2  UNL     1       2.270  -1.702   2.125  1.00  0.00     0.210 HD
ENDBRANCH  13  15
TORSDOF 1
