REMARK  14 active torsions:
REMARK  status: ('A' for Active; 'I' for Inactive)
REMARK    1  A    between atoms: N1_2  and  C2_4 
REMARK    2  A    between atoms: C3_7  and  N3_8 
REMARK    3  A    between atoms: N3_8  and  C4_10 
REMARK    4  A    between atoms: C5_11  and  N4_12 
REMARK    5  A    between atoms: N6_27  and  C10_28 
REMARK    6  A    between atoms: C11_29  and  C12_30 
REMARK    7  A    between atoms: C14_36  and  C15_37 
REMARK    8  A    between atoms: C15_37  and  O7_38 
REMARK    9  A    between atoms: C15_37  and  C16_40 
REMARK   10  A    between atoms: C16_40  and  O8_41 
REMARK   11  A    between atoms: C16_40  and  C17_43 
REMARK   12  A    between atoms: C17_43  and  O9_44 
REMARK   13  A    between atoms: C17_43  and  C18_46 
REMARK   14  A    between atoms: C18_46  and  O10_47 
ROOT
HETATM    1  C2  UNL     1      -4.069  -2.439   0.264  1.00  0.00     0.139 A 
HETATM    2  N2  UNL     1      -4.769  -1.292   0.495  1.00  0.00    -0.175 N 
ATOM      3  H2  UNL     1      -5.788  -1.311   0.538  1.00  0.00     0.186 HD
HETATM    4  C3  UNL     1      -4.105  -0.137   0.665  1.00  0.00     0.682 A 
HETATM    5  N5  UNL     1      -2.765  -0.090   0.614  1.00  0.00    -0.174 N 
ATOM      6  H5  UNL     1      -2.295   0.805   0.749  1.00  0.00     0.186 HD
HETATM    7  C8  UNL     1      -2.011  -1.207   0.386  1.00  0.00     0.156 A 
HETATM    8  C9  UNL     1      -2.709  -2.378   0.214  1.00  0.00     0.112 A 
HETATM    9  S2  UNL     1      -1.234  -3.157   0.013  1.00  0.00     0.002 SA
HETATM   10  N6  UNL     1      -0.708  -1.582   0.263  1.00  0.00    -0.266 N 
ENDROOT
BRANCH  10  11
HETATM   11  C10 UNL     1       0.583  -0.972   0.311  1.00  0.00     0.062 A 
HETATM   12  C11 UNL     1       1.287  -0.444  -0.702  1.00  0.00     0.139 A 
HETATM   13  N7  UNL     1       2.513   0.067  -0.209  1.00  0.00    -0.294 N 
HETATM   14  C13 UNL     1       3.649   0.701  -0.783  1.00  0.00     0.251 C 
HETATM   15  C20 UNL     1       2.560  -0.140   1.237  1.00  0.00     0.191 A 
HETATM   16  O6  UNL     1       3.482   1.345  -1.833  1.00  0.00    -0.271 OA
HETATM   17  C14 UNL     1       4.988   0.562  -0.094  1.00  0.00     0.208 C 
HETATM   18  N8  UNL     1       4.920  -0.724   0.552  1.00  0.00    -0.343 N 
HETATM   19  C19 UNL     1       3.826  -0.892   1.461  1.00  0.00     0.242 C 
ATOM     20  H8  UNL     1       5.602  -1.462   0.375  1.00  0.00     0.163 HD
HETATM   21  O11 UNL     1       3.906  -1.658   2.443  1.00  0.00    -0.271 OA
HETATM   22  C21 UNL     1       1.325  -0.869   1.586  1.00  0.00     0.096 A 
BRANCH  12  23
HETATM   23  C12 UNL     1       0.790  -0.427  -2.070  1.00  0.00     0.229 C 
HETATM   24  O4  UNL     1      -0.371  -0.932  -2.286  1.00  0.00    -0.643 OA
HETATM   25  O5  UNL     1       1.499   0.099  -3.141  1.00  0.00    -0.643 OA
ENDBRANCH  12  23
BRANCH  17  26
HETATM   26  C15 UNL     1       6.084   0.791  -1.051  1.00  0.00     0.181 C 
BRANCH  26  27
HETATM   27  O7  UNL     1       6.162  -0.105  -2.106  1.00  0.00    -0.390 OA
ATOM     28  H7  UNL     1       6.869   0.043  -2.723  1.00  0.00     0.210 HD
ENDBRANCH  26  27
BRANCH  26  29
HETATM   29  C16 UNL     1       7.400   1.231  -0.552  1.00  0.00     0.180 C 
BRANCH  29  30
HETATM   30  O8  UNL     1       7.389   2.111   0.520  1.00  0.00    -0.390 OA
ATOM     31  H8  UNL     1       8.237   2.394   0.841  1.00  0.00     0.210 HD
ENDBRANCH  29  30
BRANCH  29  32
HETATM   32  C17 UNL     1       8.371   0.114  -0.304  1.00  0.00     0.173 C 
BRANCH  32  33
HETATM   33  O9  UNL     1       8.161  -0.624   0.827  1.00  0.00    -0.391 OA
ATOM     34  H9  UNL     1       8.776  -1.331   0.984  1.00  0.00     0.210 HD
ENDBRANCH  32  33
BRANCH  32  35
HETATM   35  C18 UNL     1       9.806   0.661  -0.220  1.00  0.00     0.198 C 
BRANCH  35  36
HETATM   36  O10 UNL     1       9.915   1.446   0.916  1.00  0.00    -0.398 OA
ATOM     37  H10 UNL     1      10.801   1.784   0.968  1.00  0.00     0.209 HD
ENDBRANCH  35  36
ENDBRANCH  32  35
ENDBRANCH  29  32
ENDBRANCH  26  29
ENDBRANCH  17  26
ENDBRANCH  10  11
BRANCH   4  38
HETATM   38  N3  UNL     1      -4.782   0.946   0.884  1.00  0.00    -0.203 N 
ATOM     39  H3  UNL     1      -4.277   1.822   1.014  1.00  0.00     0.179 HD
BRANCH  38  40
HETATM   40  C4  UNL     1      -6.227   0.960   0.951  1.00  0.00     0.280 C 
HETATM   41  C5  UNL     1      -6.779   0.836  -0.450  1.00  0.00     0.225 C 
HETATM   42  C6  UNL     1      -7.479   2.114  -0.880  1.00  0.00     0.063 C 
HETATM   43  C7  UNL     1      -8.630   2.366   0.071  1.00  0.00     0.192 C 
HETATM   44  O1  UNL     1      -8.147   3.084   1.163  1.00  0.00    -0.274 OA
HETATM   45  S1  UNL     1      -6.695   2.496   1.706  1.00  0.00     0.289 S 
HETATM   46  O2  UNL     1      -5.579   3.514   1.547  1.00  0.00    -0.196 OA
HETATM   47  O3  UNL     1      -6.825   2.244   3.199  1.00  0.00    -0.196 OA
BRANCH  41  48
HETATM   48  N4  UNL     1      -7.735  -0.263  -0.518  1.00  0.00    -0.072 N 
ATOM     49  H43 UNL     1      -7.332  -1.140  -0.188  1.00  0.00     0.274 HD
ATOM     50  H42 UNL     1      -8.476  -0.168   0.177  1.00  0.00     0.274 HD
ATOM     51  H41 UNL     1      -8.108  -0.347  -1.464  1.00  0.00     0.274 HD
ENDBRANCH  41  48
ENDBRANCH  38  40
ENDBRANCH   4  38
BRANCH   1  52
HETATM   52  N1  UNL     1      -4.791  -3.651   0.086  1.00  0.00    -0.379 N 
HETATM   53  C1  UNL     1      -6.223  -3.683   0.145  1.00  0.00     0.147 C 
ATOM     54  H1  UNL     1      -4.279  -4.516  -0.087  1.00  0.00     0.160 HD
ENDBRANCH   1  52
TORSDOF 14
