REMARK  6 active torsions:
REMARK  status: ('A' for Active; 'I' for Inactive)
REMARK    1  A    between atoms: C2_2  and  C3_3 
REMARK    2  A    between atoms: C7_7  and  O1_8 
REMARK    3  A    between atoms: C8_10  and  O2_11 
REMARK    4  A    between atoms: C9_13  and  C10_14 
REMARK    5  A    between atoms: C10_14  and  C11_15 
REMARK    6  A    between atoms: C15_19  and  O3_20 
ROOT
HETATM    1  C3  UNL     1       3.788   0.233   0.350  1.00  0.00     0.005 A 
HETATM    2  C4  UNL     1       3.206  -0.717  -0.519  1.00  0.00    -0.035 A 
HETATM    3  C5  UNL     1       3.801  -1.852  -1.238  1.00  0.00     0.050 C 
HETATM    4  C6  UNL     1       1.870  -0.391  -0.601  1.00  0.00     0.023 A 
HETATM    5  C7  UNL     1       0.812  -0.972  -1.307  1.00  0.00     0.111 C 
HETATM    6  C8  UNL     1      -0.508  -0.495  -1.298  1.00  0.00     0.109 C 
HETATM    7  C9  UNL     1      -1.052   0.549  -0.531  1.00  0.00     0.017 C 
HETATM    8  C15 UNL     1      -0.462   1.509   0.270  1.00  0.00     0.110 C 
HETATM    9  C16 UNL     1       0.886   1.599   0.673  1.00  0.00     0.123 A 
HETATM   10  O4  UNL     1       1.946   2.061   1.289  1.00  0.00    -0.305 OA
HETATM   11  C17 UNL     1       2.826   1.142   0.806  1.00  0.00     0.101 A 
HETATM   12  C18 UNL     1       1.733   0.676   0.179  1.00  0.00     0.049 A 
ENDROOT
BRANCH   7  13
HETATM   13  C10 UNL     1      -2.557   0.618  -0.625  1.00  0.00     0.072 C 
BRANCH  13  14
HETATM   14  C11 UNL     1      -3.224  -0.436   0.142  1.00  0.00    -0.020 C 
HETATM   15  C12 UNL     1      -4.103  -0.151   1.072  1.00  0.00    -0.091 C 
HETATM   16  C13 UNL     1      -4.749  -1.273   1.821  1.00  0.00     0.042 C 
HETATM   17  C14 UNL     1      -4.514   1.229   1.425  1.00  0.00     0.042 C 
ENDBRANCH  13  14
ENDBRANCH   7  13
BRANCH   6  18
HETATM   18  O2  UNL     1      -1.376  -1.138  -2.157  1.00  0.00    -0.357 OA
ATOM     19  H2  UNL     1      -2.269  -0.815  -2.151  1.00  0.00     0.217 HD
ENDBRANCH   6  18
BRANCH   8  20
HETATM   20  O3  UNL     1      -1.218   2.523   0.764  1.00  0.00    -0.357 OA
ATOM     21  H3  UNL     1      -0.813   3.183   1.314  1.00  0.00     0.217 HD
ENDBRANCH   8  20
BRANCH   5  22
HETATM   22  O1  UNL     1       1.195  -2.057  -2.009  1.00  0.00    -0.357 OA
ATOM     23  H1  UNL     1       0.476  -2.452  -2.489  1.00  0.00     0.217 HD
ENDBRANCH   5  22
BRANCH   1  24
HETATM   24  C2  UNL     1       5.176   0.293   0.738  1.00  0.00     0.004 C 
HETATM   25  C1  UNL     1       5.658   1.204   1.545  1.00  0.00     0.012 C 
ENDBRANCH   1  24
TORSDOF 6
