REMARK  6 active torsions:
REMARK  status: ('A' for Active; 'I' for Inactive)
REMARK    1  A    between atoms: C2_2  and  O1_3 
REMARK    2  A    between atoms: C2_2  and  C3_5 
REMARK    3  A    between atoms: C3_5  and  O2_7 
REMARK    4  A    between atoms: C3_5  and  C5_9 
REMARK    5  A    between atoms: C5_9  and  O3_10 
REMARK    6  A    between atoms: C5_9  and  C6_12 
ROOT
HETATM    1  C6  UNL     1      -2.588  -0.727   0.249  1.00  0.00     0.140 C 
HETATM    2  C7  UNL     1      -1.656  -1.636  -0.522  1.00  0.00     0.195 C 
HETATM    3  O4  UNL     1      -0.744  -2.194   0.402  1.00  0.00    -0.387 OA
HETATM    4  C8  UNL     1      -0.247  -3.352  -0.189  1.00  0.00     0.195 C 
HETATM    5  C9  UNL     1       0.881  -3.965   0.588  1.00  0.00     0.258 C 
HETATM    6  N1  UNL     1       2.082  -4.135  -0.219  1.00  0.00    -0.073 N 
ATOM      7  H11 UNL     1       1.980  -4.906  -0.879  1.00  0.00     0.277 HD
ATOM      8  H12 UNL     1       2.855  -4.502   0.337  1.00  0.00     0.277 HD
HETATM    9  C10 UNL     1       2.454  -2.905  -0.895  1.00  0.00     0.234 C 
HETATM   10  C11 UNL     1       3.903  -2.555  -0.680  1.00  0.00     0.047 C 
HETATM   11  C12 UNL     1       3.979  -1.144  -0.117  1.00  0.00     0.124 C 
HETATM   12  N2  UNL     1       5.308  -0.869   0.385  1.00  0.00    -0.360 N 
ATOM     13  H2  UNL     1       5.917  -1.667   0.567  1.00  0.00     0.162 HD
HETATM   14  C13 UNL     1       5.826   0.413   0.642  1.00  0.00     0.229 C 
HETATM   15  O5  UNL     1       6.628   0.635   1.602  1.00  0.00    -0.273 OA
HETATM   16  C14 UNL     1       5.447   1.559  -0.211  1.00  0.00     0.211 C 
HETATM   17  S1  UNL     1       4.574   2.744   0.813  1.00  0.00     0.023 S 
HETATM   18  O6  UNL     1       5.657   3.526   1.831  1.00  0.00    -0.258 OA
HETATM   19  C15 UNL     1       3.682   3.900  -0.198  1.00  0.00     0.109 C 
HETATM   20  C16 UNL     1       2.559   3.155  -0.882  1.00  0.00     0.013 C 
HETATM   21  C17 UNL     1       1.310   3.115  -0.057  1.00  0.00     0.001 C 
HETATM   22  C18 UNL     1       1.240   1.867   0.781  1.00  0.00     0.009 C 
HETATM   23  C19 UNL     1       0.248   0.862   0.195  1.00  0.00     0.103 C 
HETATM   24  C20 UNL     1      -0.507   0.269   1.326  1.00  0.00     0.218 C 
HETATM   25  O7  UNL     1       0.160   0.079   2.392  1.00  0.00    -0.274 OA
HETATM   26  N3  UNL     1      -1.866  -0.092   1.318  1.00  0.00    -0.352 N 
ATOM     27  H3  UNL     1      -2.397   0.120   2.162  1.00  0.00     0.163 HD
ENDROOT
BRANCH   1  28
HETATM   28  C5  UNL     1      -3.320   0.193  -0.667  1.00  0.00     0.179 C 
BRANCH  28  29
HETATM   29  C3  UNL     1      -4.372   1.012   0.025  1.00  0.00     0.107 C 
HETATM   30  C4  UNL     1      -5.144   1.893  -0.896  1.00  0.00     0.051 C 
BRANCH  29  31
HETATM   31  C2  UNL     1      -5.353   0.178   0.826  1.00  0.00     0.150 C 
HETATM   32  C1  UNL     1      -6.223  -0.703  -0.035  1.00  0.00     0.042 C 
BRANCH  31  33
HETATM   33  O1  UNL     1      -6.211   1.115   1.450  1.00  0.00    -0.393 OA
ATOM     34  H1  UNL     1      -5.663   1.670   1.992  1.00  0.00     0.210 HD
ENDBRANCH  31  33
ENDBRANCH  29  31
BRANCH  29  35
HETATM   35  O2  UNL     1      -3.725   1.828   0.981  1.00  0.00    -0.385 OA
ATOM     36  H2  UNL     1      -3.110   2.350   0.479  1.00  0.00     0.210 HD
ENDBRANCH  29  35
ENDBRANCH  28  29
BRANCH  28  37
HETATM   37  O3  UNL     1      -3.955  -0.616  -1.627  1.00  0.00    -0.390 OA
ATOM     38  H3  UNL     1      -3.290  -1.134  -2.065  1.00  0.00     0.210 HD
ENDBRANCH  28  37
ENDBRANCH   1  28
TORSDOF 6
