REMARK  2 active torsions:
REMARK  status: ('A' for Active; 'I' for Inactive)
REMARK       I    between atoms: N5_21  and  C11_22 
REMARK    1  A    between atoms: C11_22  and  C12_24 
REMARK    2  A    between atoms: C12_24  and  N6_25 
ROOT
HETATM    1  C1  UNL     1       2.195  -4.295   1.277  1.00  0.00     0.221 C 
HETATM    2  N1  UNL     1       2.607  -3.234   1.080  1.00  0.00    -0.465 NA
HETATM    3  C2  UNL     1       3.123  -1.918   0.858  1.00  0.00     0.180 C 
HETATM    4  C3  UNL     1       4.424  -1.850   1.606  1.00  0.00     0.068 C 
HETATM    5  C4  UNL     1       5.614  -2.310   0.844  1.00  0.00     0.235 C 
HETATM    6  N2  UNL     1       6.206  -1.389  -0.055  1.00  0.00    -0.073 N 
ATOM      7  H21 UNL     1       5.489  -0.857  -0.547  1.00  0.00     0.277 HD
ATOM      8  H22 UNL     1       6.628  -1.879  -0.844  1.00  0.00     0.277 HD
HETATM    9  C5  UNL     1       7.176  -0.489   0.572  1.00  0.00     0.259 C 
HETATM   10  C6  UNL     1       7.694   0.525  -0.384  1.00  0.00     0.259 C 
HETATM   11  N3  UNL     1       6.968   1.808  -0.335  1.00  0.00    -0.072 N 
ATOM     12  H31 UNL     1       7.252   2.473  -1.054  1.00  0.00     0.277 HD
ATOM     13  H32 UNL     1       7.212   2.392   0.465  1.00  0.00     0.277 HD
HETATM   14  C7  UNL     1       5.581   1.444  -0.391  1.00  0.00     0.259 C 
HETATM   15  C8  UNL     1       4.602   2.555  -0.543  1.00  0.00     0.259 C 
HETATM   16  N4  UNL     1       3.463   2.358   0.361  1.00  0.00    -0.072 N 
ATOM     17  H41 UNL     1       3.313   3.182   0.943  1.00  0.00     0.277 HD
ATOM     18  H42 UNL     1       3.688   1.679   1.088  1.00  0.00     0.277 HD
HETATM   19  C9  UNL     1       2.247   1.988  -0.334  1.00  0.00     0.252 C 
HETATM   20  C10 UNL     1       2.232   0.526  -0.564  1.00  0.00     0.153 C 
HETATM   21  N5  UNL     1       1.389  -0.253   0.322  1.00  0.00    -0.346 N 
HETATM   22  C11 UNL     1      -0.004  -0.346   0.210  1.00  0.00     0.237 C 
HETATM   23  O1  UNL     1      -0.635  -1.056   1.053  1.00  0.00    -0.272 OA
HETATM   24  C22 UNL     1       2.079  -0.971   1.376  1.00  0.00     0.165 C 
ENDROOT
BRANCH  22  25
HETATM   25  C12 UNL     1      -0.759   0.361  -0.864  1.00  0.00     0.224 C 
BRANCH  25  26
HETATM   26  N6  UNL     1      -2.143   0.079  -0.722  1.00  0.00    -0.382 N 
HETATM   27  C13 UNL     1      -2.572  -1.224  -0.972  1.00  0.00     0.077 C 
HETATM   28  C14 UNL     1      -3.837  -1.403  -1.765  1.00  0.00     0.158 C 
HETATM   29  N7  UNL     1      -4.938  -1.468  -0.845  1.00  0.00    -0.417 N 
HETATM   30  C15 UNL     1      -6.154  -1.980  -1.380  1.00  0.00     0.115 C 
ATOM     31  H7  UNL     1      -4.854  -1.168   0.126  1.00  0.00     0.153 HD
HETATM   32  C16 UNL     1      -7.295  -1.001  -1.326  1.00  0.00     0.046 C 
HETATM   33  C17 UNL     1      -7.513  -0.388   0.016  1.00  0.00     0.234 C 
HETATM   34  N8  UNL     1      -6.337   0.104   0.658  1.00  0.00    -0.073 N 
HETATM   35  C18 UNL     1      -6.465   1.478   1.103  1.00  0.00     0.259 C 
ATOM     36  H82 UNL     1      -6.062  -0.504   1.430  1.00  0.00     0.277 HD
ATOM     37  H81 UNL     1      -5.520  -0.009   0.057  1.00  0.00     0.277 HD
HETATM   38  C19 UNL     1      -5.117   2.082   1.435  1.00  0.00     0.259 C 
HETATM   39  N9  UNL     1      -4.451   2.616   0.279  1.00  0.00    -0.072 N 
HETATM   40  C20 UNL     1      -3.100   2.086   0.147  1.00  0.00     0.252 C 
ATOM     41  H92 UNL     1      -4.996   2.463  -0.569  1.00  0.00     0.277 HD
ATOM     42  H91 UNL     1      -4.452   3.636   0.286  1.00  0.00     0.277 HD
HETATM   43  C21 UNL     1      -3.019   1.154  -1.047  1.00  0.00     0.150 C 
ENDBRANCH  25  26
ENDBRANCH  22  25
TORSDOF 2
