REMARK  10 active torsions:
REMARK  status: ('A' for Active; 'I' for Inactive)
REMARK    1  A    between atoms: C5_6  and  C6_7 
REMARK    2  A    between atoms: C7_17  and  C8_18 
REMARK    3  A    between atoms: C8_18  and  N7_19 
REMARK    4  A    between atoms: N7_19  and  N8_20 
REMARK       I    between atoms: N8_20  and  C9_22 
REMARK       I    between atoms: C9_22  and  N9_24 
REMARK    5  A    between atoms: N9_24  and  N10_26 
REMARK    6  A    between atoms: N10_26  and  C10_28 
REMARK    7  A    between atoms: C10_28  and  C11_29 
REMARK    8  A    between atoms: C11_29  and  C12_30 
REMARK    9  A    between atoms: C12_30  and  O2_33 
REMARK   10  A    between atoms: N11_36  and  O3_37 
ROOT
HETATM    1  C1  UNL     1      -4.323  -1.397  -2.375  1.00  0.00     0.072 C 
HETATM    2  C2  UNL     1      -4.486  -0.533  -1.176  1.00  0.00     0.062 A 
HETATM    3  C3  UNL     1      -5.645   0.210  -0.995  1.00  0.00     0.101 A 
HETATM    4  C4  UNL     1      -6.684   0.119  -2.005  1.00  0.00     0.104 C 
HETATM    5  N1  UNL     1      -7.489   0.028  -2.820  1.00  0.00    -0.191 NA
HETATM    6  C5  UNL     1      -5.758   0.994   0.116  1.00  0.00     0.123 A 
HETATM    7  N4  UNL     1      -4.737   1.002   0.974  1.00  0.00    -0.216 N 
HETATM    8  N5  UNL     1      -4.596   1.659   2.104  1.00  0.00    -0.233 N 
ATOM      9  H5  UNL     1      -5.292   2.292   2.498  1.00  0.00     0.209 HD
HETATM   10  N6  UNL     1      -3.449   1.391   2.648  1.00  0.00    -0.280 N 
ATOM     11  H6  UNL     1      -3.109   1.778   3.528  1.00  0.00     0.189 HD
HETATM   12  C7  UNL     1      -2.750   0.486   1.835  1.00  0.00     0.128 A 
HETATM   13  C15 UNL     1      -3.597   0.272   0.799  1.00  0.00     0.186 A 
HETATM   14  N11 UNL     1      -3.466  -0.508  -0.291  1.00  0.00    -0.207 N 
ENDROOT
BRANCH   6  15
HETATM   15  C6  UNL     1      -6.925   1.782   0.384  1.00  0.00     0.140 C 
HETATM   16  N2  UNL     1      -6.985   2.521   1.456  1.00  0.00    -0.386 N 
ATOM     17  H22 UNL     1      -6.168   2.501   2.067  1.00  0.00     0.157 HD
ATOM     18  H21 UNL     1      -7.815   3.082   1.647  1.00  0.00     0.157 HD
HETATM   19  N3  UNL     1      -8.044   1.809  -0.453  1.00  0.00    -0.081 NA
ENDBRANCH   6  15
BRANCH  14  20
HETATM   20  O3  UNL     1      -2.344  -1.259  -0.517  1.00  0.00    -0.281 OA
ATOM     21  H3  UNL     1      -1.627  -1.241   0.105  1.00  0.00     0.245 HD
ENDBRANCH  14  20
BRANCH  12  22
HETATM   22  C8  UNL     1      -1.443  -0.004   2.194  1.00  0.00     0.244 C 
BRANCH  22  23
HETATM   23  N7  UNL     1      -0.647  -0.739   1.758  1.00  0.00    -0.332 NA
BRANCH  23  24
HETATM   24  N8  UNL     1       0.240  -1.563   1.262  1.00  0.00    -0.184 N 
HETATM   25  C9  UNL     1       1.626  -1.296   1.275  1.00  0.00     0.363 C 
HETATM   26  O1  UNL     1       2.037  -0.229   1.781  1.00  0.00    -0.243 OA
HETATM   27  N9  UNL     1       2.536  -2.214   0.728  1.00  0.00    -0.254 N 
ATOM     28  H9  UNL     1       2.164  -3.074   0.326  1.00  0.00     0.191 HD
ATOM     29  H8  UNL     1      -0.084  -2.437   0.848  1.00  0.00     0.207 HD
BRANCH  27  30
HETATM   30  N10 UNL     1       3.914  -2.024   0.700  1.00  0.00    -0.332 N 
ATOM     31  H10 UNL     1       4.564  -2.648   1.179  1.00  0.00     0.180 HD
BRANCH  30  32
HETATM   32  C10 UNL     1       4.351  -0.886  -0.052  1.00  0.00     0.142 C 
BRANCH  32  33
HETATM   33  C11 UNL     1       5.870  -0.872   0.013  1.00  0.00     0.058 C 
BRANCH  33  34
HETATM   34  C12 UNL     1       6.449   0.298  -0.748  1.00  0.00     0.052 C 
HETATM   35  C13 UNL     1       7.953   0.229  -0.636  1.00  0.00     0.045 C 
HETATM   36  C14 UNL     1       5.939   1.557  -0.024  1.00  0.00     0.045 C 
BRANCH  34  37
HETATM   37  O2  UNL     1       6.021   0.388  -2.054  1.00  0.00    -0.391 OA
ATOM     38  H2  UNL     1       6.385   1.124  -2.532  1.00  0.00     0.210 HD
ENDBRANCH  34  37
ENDBRANCH  33  34
ENDBRANCH  32  33
ENDBRANCH  30  32
ENDBRANCH  27  30
ENDBRANCH  23  24
ENDBRANCH  22  23
ENDBRANCH  12  22
TORSDOF 10
