REMARK  7 active torsions:
REMARK  status: ('A' for Active; 'I' for Inactive)
REMARK    1  A    between atoms: S1_2  and  C1_4 
REMARK    2  A    between atoms: S1_2  and  N2_12 
REMARK    3  A    between atoms: C1_4  and  C2_5 
REMARK    4  A    between atoms: N2_12  and  C7_14 
REMARK    5  A    between atoms: C7_14  and  C8_15 
REMARK    6  A    between atoms: C8_15  and  C9_16 
REMARK    7  A    between atoms: C12_21  and  C13_22 
ROOT
HETATM    1  C8  UNL     1       0.095   0.655  -0.319  1.00  0.00     0.103 C 
ENDROOT
BRANCH   1   2
HETATM    2  C7  UNL     1       1.446   0.046   0.012  1.00  0.00     0.079 C 
BRANCH   2   3
HETATM    3  N2  UNL     1       1.517  -1.280  -0.400  1.00  0.00    -0.298 N 
ATOM      4  H2  UNL     1       0.707  -1.690  -0.866  1.00  0.00     0.177 HD
BRANCH   3   5
HETATM    5  S1  UNL     1       2.860  -2.225  -0.168  1.00  0.00     0.234 S 
HETATM    6  O1  UNL     1       2.569  -3.673  -0.625  1.00  0.00    -0.205 OA
HETATM    7  O2  UNL     1       3.128  -2.372   1.354  1.00  0.00    -0.205 OA
BRANCH   5   8
HETATM    8  C1  UNL     1       4.336  -1.741  -0.950  1.00  0.00     0.202 C 
BRANCH   8   9
HETATM    9  C2  UNL     1       4.930  -0.439  -0.619  1.00  0.00    -0.040 A 
HETATM   10  C3  UNL     1       4.889   0.675  -1.424  1.00  0.00     0.025 A 
HETATM   11  C4  UNL     1       5.451   1.880  -1.097  1.00  0.00     0.088 A 
HETATM   12  N1  UNL     1       6.090   2.018   0.074  1.00  0.00    -0.375 N 
HETATM   13  C5  UNL     1       6.164   0.962   0.907  1.00  0.00     0.088 A 
ATOM     14  H1  UNL     1       6.514   2.910   0.330  1.00  0.00     0.164 HD
HETATM   15  C6  UNL     1       5.609  -0.254   0.599  1.00  0.00     0.025 A 
ENDBRANCH   8   9
ENDBRANCH   5   8
ENDBRANCH   3   5
ENDBRANCH   2   3
ENDBRANCH   1   2
BRANCH   1  16
HETATM   16  C9  UNL     1      -1.038  -0.002   0.344  1.00  0.00     0.030 A 
HETATM   17  C10 UNL     1      -0.993  -1.004   1.261  1.00  0.00     0.113 A 
HETATM   18  N3  UNL     1      -2.100  -1.553   1.802  1.00  0.00    -0.371 N 
HETATM   19  C11 UNL     1      -3.305  -1.084   1.415  1.00  0.00     0.117 A 
ATOM     20  H3  UNL     1      -2.028  -2.305   2.487  1.00  0.00     0.164 HD
HETATM   21  C12 UNL     1      -3.425  -0.072   0.493  1.00  0.00     0.058 A 
HETATM   22  N4  UNL     1      -2.278   0.425  -0.003  1.00  0.00    -0.356 N 
ATOM     23  H4  UNL     1      -2.345   1.177  -0.689  1.00  0.00     0.166 HD
BRANCH  21  24
HETATM   24  C13 UNL     1      -4.722   0.432   0.079  1.00  0.00    -0.008 A 
HETATM   25  C14 UNL     1      -5.883  -0.073   0.579  1.00  0.00     0.014 A 
HETATM   26  C15 UNL     1      -7.138   0.417   0.177  1.00  0.00     0.001 A 
HETATM   27  C16 UNL     1      -7.199   1.434  -0.746  1.00  0.00     0.000 A 
HETATM   28  C17 UNL     1      -6.034   1.956  -1.262  1.00  0.00     0.001 A 
HETATM   29  C18 UNL     1      -4.809   1.453  -0.847  1.00  0.00     0.014 A 
ENDBRANCH  21  24
ENDBRANCH   1  16
TORSDOF 7
