REMARK  8 active torsions:
REMARK  status: ('A' for Active; 'I' for Inactive)
REMARK    1  A    between atoms: O1_2  and  N1_3 
REMARK    2  A    between atoms: C2_5  and  C3_6 
REMARK    3  A    between atoms: C2_5  and  C8_15 
REMARK    4  A    between atoms: C3_6  and  C4_7 
REMARK       I    between atoms: C8_15  and  N3_17 
REMARK    5  A    between atoms: N3_17  and  C9_19 
REMARK    6  A    between atoms: C9_19  and  C10_20 
REMARK    7  A    between atoms: C10_20  and  C11_21 
REMARK    8  A    between atoms: C11_21  and  N4_22 
ROOT
HETATM    1  N1  UNL     1       2.860  -1.993   0.138  1.00  0.00    -0.266 N 
ATOM      2  H1  UNL     1       3.830  -2.078  -0.167  1.00  0.00     0.194 HD
HETATM    3  C2  UNL     1       2.290  -1.046  -0.444  1.00  0.00     0.105 C 
ENDROOT
BRANCH   3   4
HETATM    4  C3  UNL     1       3.119  -0.259  -1.435  1.00  0.00     0.122 C 
BRANCH   4   5
HETATM    5  C4  UNL     1       3.295   1.144  -1.043  1.00  0.00     0.017 A 
HETATM    6  C5  UNL     1       4.213   1.536  -0.074  1.00  0.00     0.047 A 
HETATM    7  C6  UNL     1       4.154   2.912   0.053  1.00  0.00     0.046 A 
HETATM    8 BR1  UNL     1       5.166   4.043   1.215  1.00  0.00    -0.048 Br
HETATM    9  C7  UNL     1       3.205   3.322  -0.837  1.00  0.00     0.097 A 
HETATM   10 BR2  UNL     1       2.658   5.107  -1.141  1.00  0.00    -0.030 Br
HETATM   11  N2  UNL     1       2.687   2.246  -1.500  1.00  0.00    -0.352 N 
ATOM     12  H2  UNL     1       1.963   2.277  -2.218  1.00  0.00     0.166 HD
ENDBRANCH   4   5
ENDBRANCH   3   4
BRANCH   3  13
HETATM   13  C8  UNL     1       0.938  -0.645  -0.229  1.00  0.00     0.266 C 
HETATM   14  O2  UNL     1       0.454   0.312  -0.884  1.00  0.00    -0.266 OA
HETATM   15  N3  UNL     1       0.089  -1.276   0.699  1.00  0.00    -0.356 N 
ATOM     16  H3  UNL     1       0.472  -2.047   1.246  1.00  0.00     0.162 HD
BRANCH  15  17
HETATM   17  C9  UNL     1      -1.307  -0.902   0.933  1.00  0.00     0.124 C 
BRANCH  17  18
HETATM   18  C10 UNL     1      -2.153  -1.090  -0.275  1.00  0.00     0.039 C 
BRANCH  18  19
HETATM   19  C11 UNL     1      -3.597  -0.798  -0.155  1.00  0.00     0.127 C 
BRANCH  19  20
HETATM   20  N4  UNL     1      -4.024   0.512   0.198  1.00  0.00    -0.353 N 
HETATM   21  C12 UNL     1      -3.925   1.226   1.431  1.00  0.00     0.169 A 
HETATM   22  C13 UNL     1      -4.601   2.546   1.126  1.00  0.00     0.083 A 
HETATM   23  N5  UNL     1      -5.002   2.573  -0.069  1.00  0.00    -0.345 N 
HETATM   24  C14 UNL     1      -4.695   1.380  -0.717  1.00  0.00     0.173 A 
ATOM     25  H5  UNL     1      -5.485   3.361  -0.501  1.00  0.00     0.167 HD
HETATM   26  S1  UNL     1      -5.044   1.018  -2.292  1.00  0.00    -0.041 SA
ENDBRANCH  19  20
ENDBRANCH  18  19
ENDBRANCH  17  18
ENDBRANCH  15  17
ENDBRANCH   3  13
BRANCH   1  27
HETATM   27  O1  UNL     1       2.566  -2.914   1.034  1.00  0.00    -0.285 OA
HETATM   28  C1  UNL     1       2.484  -4.287   0.622  1.00  0.00     0.237 C 
ENDBRANCH   1  27
TORSDOF 8
