REMARK  12 active torsions:
REMARK  status: ('A' for Active; 'I' for Inactive)
REMARK    1  A    between atoms: N1_1  and  C1_4 
REMARK    2  A    between atoms: C5_14  and  C6_15 
REMARK    3  A    between atoms: N6_18  and  C7_19 
REMARK    4  A    between atoms: C7_19  and  N7_20 
REMARK    5  A    between atoms: N7_20  and  O1_21 
REMARK    6  A    between atoms: N9_25  and  C8_26 
REMARK    7  A    between atoms: C8_26  and  N10_27 
REMARK    8  A    between atoms: C12_32  and  O3_33 
REMARK    9  A    between atoms: C12_32  and  C13_35 
REMARK   10  A    between atoms: C13_35  and  O4_36 
REMARK   11  A    between atoms: C13_35  and  C14_38 
REMARK   12  A    between atoms: C14_38  and  O5_39 
ROOT
HETATM    1  C1  UNL     1       1.855  -4.714   0.027  1.00  0.00     0.131 A 
HETATM    2  N2  UNL     1       0.823  -5.490  -0.329  1.00  0.00    -0.337 N 
ATOM      3  H2  UNL     1       0.880  -6.505  -0.246  1.00  0.00     0.168 HD
HETATM    4  C2  UNL     1      -0.288  -4.900  -0.798  1.00  0.00     0.183 A 
HETATM    5  N3  UNL     1      -0.417  -3.580  -0.928  1.00  0.00    -0.336 N 
ATOM      6  H3  UNL     1      -1.284  -3.182  -1.290  1.00  0.00     0.168 HD
HETATM    7  C3  UNL     1       0.598  -2.780  -0.581  1.00  0.00     0.146 A 
HETATM    8  C4  UNL     1       1.763  -3.329  -0.093  1.00  0.00     0.123 A 
HETATM    9  N4  UNL     1       2.602  -2.323   0.173  1.00  0.00    -0.333 N 
ATOM     10  H4  UNL     1       3.545  -2.428   0.548  1.00  0.00     0.168 HD
HETATM   11  C5  UNL     1       2.007  -1.134  -0.132  1.00  0.00     0.162 A 
HETATM   12  N9  UNL     1       0.798  -1.423  -0.584  1.00  0.00    -0.279 N 
ENDROOT
BRANCH  12  13
HETATM   13  C8  UNL     1      -0.236  -0.523  -1.066  1.00  0.00     0.165 C 
BRANCH  13  14
HETATM   14  N10 UNL     1      -1.216  -0.211  -0.124  1.00  0.00    -0.238 NA
HETATM   15  C9  UNL     1      -0.956   0.413   1.126  1.00  0.00     0.144 C 
HETATM   16  C10 UNL     1      -2.376   0.924   1.052  1.00  0.00     0.142 A 
HETATM   17  C11 UNL     1      -3.332   1.060   1.957  1.00  0.00     0.213 A 
HETATM   18  O2  UNL     1      -3.268  -0.235   1.429  1.00  0.00    -0.369 OA
HETATM   19  C12 UNL     1      -2.145   0.886  -0.394  1.00  0.00     0.182 C 
BRANCH  19  20
HETATM   20  O3  UNL     1      -1.436   1.999  -0.839  1.00  0.00    -0.369 OA
ATOM     21  H3  UNL     1      -2.039   2.712  -1.014  1.00  0.00     0.212 HD
ENDBRANCH  19  20
BRANCH  19  22
HETATM   22  C13 UNL     1      -3.261   0.525  -1.326  1.00  0.00     0.195 C 
BRANCH  22  23
HETATM   23  O4  UNL     1      -4.090  -0.479  -0.897  1.00  0.00    -0.389 OA
ATOM     24  H4  UNL     1      -4.798  -0.708  -1.488  1.00  0.00     0.210 HD
ENDBRANCH  22  23
BRANCH  22  25
HETATM   25  C14 UNL     1      -4.056   1.680  -1.810  1.00  0.00     0.200 C 
BRANCH  25  26
HETATM   26  O5  UNL     1      -4.901   2.264  -0.896  1.00  0.00    -0.398 OA
ATOM     27  H5  UNL     1      -5.410   3.004  -1.206  1.00  0.00     0.209 HD
ENDBRANCH  25  26
ENDBRANCH  22  25
ENDBRANCH  19  22
ENDBRANCH  13  14
ENDBRANCH  12  13
BRANCH  11  28
HETATM   28  C6  UNL     1       2.651   0.186   0.002  1.00  0.00     0.183 A 
HETATM   29  N5  UNL     1       3.891   0.576   0.424  1.00  0.00    -0.263 N 
HETATM   30  N6  UNL     1       3.610   1.846   0.222  1.00  0.00    -0.214 N 
ATOM     31  H5  UNL     1       4.714   0.077   0.763  1.00  0.00     0.190 HD
HETATM   32  N8  UNL     1       2.411   1.477  -0.186  1.00  0.00    -0.263 N 
ATOM     33  H8  UNL     1       1.599   1.994  -0.522  1.00  0.00     0.190 HD
BRANCH  30  34
HETATM   34  C7  UNL     1       4.308   3.132   0.376  1.00  0.00     0.311 C 
BRANCH  34  35
HETATM   35  N7  UNL     1       4.028   3.586   1.714  1.00  0.00    -0.081 NA
BRANCH  35  36
HETATM   36  O1  UNL     1       4.631   4.761   1.940  1.00  0.00    -0.294 OA
ATOM     37  H1  UNL     1       4.446   5.060   2.822  1.00  0.00     0.238 HD
ENDBRANCH  35  36
ENDBRANCH  34  35
ENDBRANCH  30  34
ENDBRANCH  11  28
BRANCH   1  38
HETATM   38  N1  UNL     1       2.920  -5.257   0.475  1.00  0.00    -0.383 N 
ATOM     39  H12 UNL     1       2.987  -6.271   0.563  1.00  0.00     0.157 HD
ATOM     40  H11 UNL     1       3.706  -4.666   0.746  1.00  0.00     0.157 HD
ENDBRANCH   1  38
TORSDOF 12
