REMARK  5 active torsions:
REMARK  status: ('A' for Active; 'I' for Inactive)
REMARK    1  A    between atoms: C4_4  and  C5_5 
REMARK    2  A    between atoms: C8_8  and  C9_9 
REMARK    3  A    between atoms: C12_12  and  C13_13 
REMARK    4  A    between atoms: C13_13  and  O1_14 
REMARK    5  A    between atoms: O1_14  and  C14_15 
ROOT
HETATM    1  C9  UNL     1      -1.445  -0.317  -0.260  1.00  0.00    -0.026 A 
HETATM    2  C10 UNL     1      -0.876  -1.570  -0.246  1.00  0.00     0.013 A 
HETATM    3  C11 UNL     1       0.490  -1.707  -0.175  1.00  0.00     0.010 A 
HETATM    4  C12 UNL     1       1.342  -0.628  -0.116  1.00  0.00    -0.034 A 
HETATM    5  C24 UNL     1       0.729   0.618  -0.133  1.00  0.00     0.010 A 
HETATM    6  C25 UNL     1      -0.630   0.780  -0.203  1.00  0.00     0.013 A 
ENDROOT
BRANCH   1   7
HETATM    7  C8  UNL     1      -2.915  -0.176  -0.334  1.00  0.00    -0.026 A 
HETATM    8  C7  UNL     1      -3.661  -1.159   0.265  1.00  0.00     0.013 A 
HETATM    9  C6  UNL     1      -5.048  -1.046   0.206  1.00  0.00     0.013 A 
HETATM   10  C5  UNL     1      -5.669   0.011  -0.429  1.00  0.00    -0.026 A 
HETATM   11  C27 UNL     1      -4.889   0.972  -1.015  1.00  0.00     0.013 A 
HETATM   12  C26 UNL     1      -3.489   0.894  -0.977  1.00  0.00     0.013 A 
BRANCH  10  13
HETATM   13  C4  UNL     1      -7.123   0.030  -0.431  1.00  0.00    -0.026 A 
HETATM   14  C3  UNL     1      -7.821   0.596  -1.494  1.00  0.00     0.012 A 
HETATM   15  C2  UNL     1      -9.195   0.582  -1.436  1.00  0.00     0.001 A 
HETATM   16  C1  UNL     1      -9.905   0.041  -0.392  1.00  0.00     0.000 A 
HETATM   17  C29 UNL     1      -9.210  -0.526   0.672  1.00  0.00     0.001 A 
HETATM   18  C28 UNL     1      -7.847  -0.514   0.620  1.00  0.00     0.012 A 
ENDBRANCH  10  13
ENDBRANCH   1   7
BRANCH   4  19
HETATM   19  C13 UNL     1       2.819  -0.775  -0.038  1.00  0.00     0.214 C 
BRANCH  19  20
HETATM   20  O1  UNL     1       3.370   0.537   0.053  1.00  0.00    -0.347 OA
BRANCH  20  21
HETATM   21  C14 UNL     1       4.757   0.717   0.142  1.00  0.00     0.070 A 
HETATM   22  C15 UNL     1       5.285   1.986   0.230  1.00  0.00     0.037 A 
HETATM   23  C16 UNL     1       6.649   2.173   0.318  1.00  0.00     0.015 A 
HETATM   24  C17 UNL     1       7.539   1.113   0.323  1.00  0.00    -0.026 A 
HETATM   25  C18 UNL     1       8.898   1.337   0.414  1.00  0.00     0.012 A 
HETATM   26  C22 UNL     1       6.991  -0.160   0.234  1.00  0.00    -0.023 A 
HETATM   27  C19 UNL     1       9.744   0.253   0.415  1.00  0.00     0.001 A 
HETATM   28  C20 UNL     1       9.242  -1.044   0.328  1.00  0.00     0.001 A 
HETATM   29  C21 UNL     1       7.880  -1.220   0.240  1.00  0.00     0.012 A 
HETATM   30  C23 UNL     1       5.628  -0.349   0.146  1.00  0.00     0.049 A 
ENDBRANCH  20  21
ENDBRANCH  19  20
ENDBRANCH   4  19
TORSDOF 5
