REMARK  5 active torsions:
REMARK  status: ('A' for Active; 'I' for Inactive)
REMARK       I    between atoms: C1_2  and  N1_3 
REMARK    1  A    between atoms: C1_2  and  C11_17 
REMARK    2  A    between atoms: N1_3  and  C2_5 
REMARK    3  A    between atoms: C4_9  and  C5_10 
REMARK    4  A    between atoms: C15_21  and  N3_22 
REMARK       I    between atoms: N3_22  and  C16_24 
REMARK    5  A    between atoms: C16_24  and  C17_26 
ROOT
HETATM    1  C11 UNL     1       1.520  -0.600   0.504  1.00  0.00     0.102 A 
HETATM    2  C12 UNL     1       1.650  -0.977  -0.818  1.00  0.00     0.035 A 
HETATM    3  C13 UNL     1       2.793  -0.653  -1.530  1.00  0.00     0.006 A 
HETATM    4  C14 UNL     1       3.771   0.047  -0.878  1.00  0.00     0.049 A 
HETATM    5  C15 UNL     1       3.620   0.412   0.437  1.00  0.00     0.108 A 
HETATM    6  N5  UNL     1       2.506   0.085   1.098  1.00  0.00    -0.338 N 
ATOM      7  H5  UNL     1       2.404   0.362   2.074  1.00  0.00     0.167 HD
ENDROOT
BRANCH   1   8
HETATM    8  C1  UNL     1       0.335  -0.927   1.270  1.00  0.00     0.274 C 
HETATM    9  O1  UNL     1       0.264  -0.561   2.468  1.00  0.00    -0.266 OA
HETATM   10  N1  UNL     1      -0.697  -1.651   0.621  1.00  0.00    -0.302 N 
ATOM     11  H1  UNL     1      -0.549  -2.600   0.277  1.00  0.00     0.171 HD
BRANCH  10  12
HETATM   12  C2  UNL     1      -1.853  -1.042   0.483  1.00  0.00     0.152 A 
HETATM   13  N2  UNL     1      -2.211   0.177   0.868  1.00  0.00    -0.345 N 
HETATM   14  C3  UNL     1      -3.429   0.584   0.625  1.00  0.00     0.110 A 
ATOM     15  H2  UNL     1      -1.546   0.786   1.346  1.00  0.00     0.167 HD
HETATM   16  C4  UNL     1      -4.273  -0.279  -0.018  1.00  0.00     0.034 A 
HETATM   17  S1  UNL     1      -3.277  -1.647  -0.249  1.00  0.00    -0.052 SA
BRANCH  16  18
HETATM   18  C5  UNL     1      -5.668  -0.087  -0.410  1.00  0.00    -0.018 A 
HETATM   19  C6  UNL     1      -6.294   1.100  -0.129  1.00  0.00     0.013 A 
HETATM   20  C7  UNL     1      -7.612   1.272  -0.503  1.00  0.00     0.001 A 
HETATM   21  C8  UNL     1      -8.313   0.267  -1.156  1.00  0.00     0.000 A 
HETATM   22  C9  UNL     1      -7.684  -0.925  -1.438  1.00  0.00     0.001 A 
HETATM   23  C10 UNL     1      -6.356  -1.090  -1.058  1.00  0.00     0.013 A 
ENDBRANCH  16  18
ENDBRANCH  10  12
ENDBRANCH   1   8
BRANCH   5  24
HETATM   24  N3  UNL     1       4.545   1.073   1.055  1.00  0.00    -0.307 N 
HETATM   25  C16 UNL     1       5.747   1.458   0.436  1.00  0.00     0.283 C 
HETATM   26  O2  UNL     1       5.808   2.617  -0.050  1.00  0.00    -0.265 OA
ATOM     27  H3  UNL     1       4.396   1.325   2.032  1.00  0.00     0.170 HD
BRANCH  25  28
HETATM   28  C17 UNL     1       6.853   0.526   0.381  1.00  0.00     0.168 A 
HETATM   29  C18 UNL     1       8.105   0.733  -0.186  1.00  0.00     0.064 A 
HETATM   30  C19 UNL     1       8.804  -0.438   0.012  1.00  0.00     0.117 A 
HETATM   31  N4  UNL     1       7.990  -1.270   0.659  1.00  0.00    -0.272 N 
HETATM   32  O3  UNL     1       6.869  -0.686   0.859  1.00  0.00    -0.233 OA
ATOM     33  H4  UNL     1       8.223  -2.220   0.949  1.00  0.00     0.194 HD
ENDBRANCH  25  28
ENDBRANCH   5  24
TORSDOF 5
