REMARK  14 active torsions:
REMARK  status: ('A' for Active; 'I' for Inactive)
REMARK    1  A    between atoms: C3_3  and  C4_4 
REMARK    2  A    between atoms: C4_4  and  C5_5 
REMARK    3  A    between atoms: C5_5  and  C6_6 
REMARK    4  A    between atoms: C6_6  and  C7_7 
REMARK       I    between atoms: C7_7  and  N1_9 
REMARK    5  A    between atoms: C9_14  and  N3_15 
REMARK       I    between atoms: N3_15  and  C10_17 
REMARK    6  A    between atoms: N5_19  and  C11_21 
REMARK    7  A    between atoms: C11_21  and  C12_22 
REMARK    8  A    between atoms: C12_22  and  C13_23 
REMARK    9  A    between atoms: C13_23  and  C14_24 
REMARK   10  A    between atoms: C14_24  and  C15_25 
REMARK   11  A    between atoms: C15_25  and  N6_26 
REMARK   12  A    between atoms: C16_30  and  C17_31 
REMARK   13  A    between atoms: C17_31  and  C18_32 
REMARK   14  A    between atoms: C18_32  and  C19_33 
ROOT
HETATM    1  C1  UNL     1       4.541  -1.401  -0.027  1.00  0.00     0.045 C 
HETATM    2  C2  UNL     1       3.236  -1.406   0.163  1.00  0.00     0.051 A 
HETATM    3  C3  UNL     1       2.500  -0.265   0.070  1.00  0.00     0.056 A 
HETATM    4  N2  UNL     1       1.161  -0.363   0.279  1.00  0.00    -0.339 N 
ATOM      5  H2  UNL     1       0.585   0.476   0.215  1.00  0.00     0.167 HD
HETATM    6  C9  UNL     1       0.582  -1.526   0.565  1.00  0.00     0.131 A 
HETATM    7  C16 UNL     1       1.338  -2.715   0.662  1.00  0.00     0.056 A 
HETATM    8  N7  UNL     1       2.651  -2.633   0.461  1.00  0.00    -0.350 N 
HETATM    9  C21 UNL     1       3.564  -3.753   0.570  1.00  0.00     0.156 C 
ENDROOT
BRANCH   6  10
HETATM   10  N3  UNL     1      -0.704  -1.577   0.768  1.00  0.00    -0.315 N 
HETATM   11  C10 UNL     1      -1.482  -0.411   0.687  1.00  0.00     0.189 C 
HETATM   12  N4  UNL     1      -1.514   0.621   1.665  1.00  0.00    -0.063 NA
HETATM   13  N5  UNL     1      -2.233  -0.254  -0.355  1.00  0.00    -0.364 N 
ATOM     14  H5  UNL     1      -2.221  -0.987  -1.064  1.00  0.00     0.162 HD
ATOM     15  H3  UNL     1      -1.148  -2.469   0.987  1.00  0.00     0.170 HD
BRANCH  13  16
HETATM   16  C11 UNL     1      -3.084   0.884  -0.581  1.00  0.00     0.122 C 
BRANCH  16  17
HETATM   17  C12 UNL     1      -4.504   0.629  -0.113  1.00  0.00     0.020 C 
BRANCH  17  18
HETATM   18  C13 UNL     1      -5.321   1.872  -0.390  1.00  0.00     0.003 C 
BRANCH  18  19
HETATM   19  C14 UNL     1      -6.757   1.704   0.048  1.00  0.00     0.027 C 
BRANCH  19  20
HETATM   20  C15 UNL     1      -7.503   2.980  -0.261  1.00  0.00     0.229 C 
BRANCH  20  21
HETATM   21  N6  UNL     1      -6.968   4.128   0.406  1.00  0.00    -0.079 N 
ATOM     22  H63 UNL     1      -6.921   3.972   1.413  1.00  0.00     0.274 HD
ATOM     23  H62 UNL     1      -5.974   4.233   0.204  1.00  0.00     0.274 HD
ATOM     24  H61 UNL     1      -7.472   4.990   0.197  1.00  0.00     0.274 HD
ENDBRANCH  20  21
ENDBRANCH  19  20
ENDBRANCH  18  19
ENDBRANCH  17  18
ENDBRANCH  16  17
ENDBRANCH  13  16
ENDBRANCH   6  10
BRANCH   7  25
HETATM   25  C17 UNL     1       0.642  -3.957   1.005  1.00  0.00     0.061 C 
BRANCH  25  26
HETATM   26  C18 UNL     1      -0.259  -4.524  -0.031  1.00  0.00     0.006 C 
BRANCH  26  27
HETATM   27  C19 UNL     1       0.323  -4.942  -1.333  1.00  0.00    -0.004 C 
HETATM   28  C20 UNL     1       1.305  -6.062  -1.295  1.00  0.00     0.005 C 
ENDBRANCH  26  27
ENDBRANCH  25  26
ENDBRANCH   7  25
BRANCH   3  29
HETATM   29  C4  UNL     1       3.028   0.899  -0.208  1.00  0.00     0.006 C 
BRANCH  29  30
HETATM   30  C5  UNL     1       2.137   2.124  -0.294  1.00  0.00     0.039 C 
BRANCH  30  31
HETATM   31  C6  UNL     1       2.932   3.325  -0.699  1.00  0.00     0.106 C 
BRANCH  31  32
HETATM   32  C7  UNL     1       4.018   3.643   0.250  1.00  0.00     0.217 C 
HETATM   33  O1  UNL     1       4.183   2.937   1.256  1.00  0.00    -0.274 OA
HETATM   34  N1  UNL     1       4.847   4.747  -0.009  1.00  0.00    -0.365 N 
HETATM   35  C8  UNL     1       5.925   5.088   0.905  1.00  0.00     0.149 C 
ATOM     36  H1  UNL     1       4.692   5.313  -0.843  1.00  0.00     0.161 HD
ENDBRANCH  31  32
ENDBRANCH  30  31
ENDBRANCH  29  30
ENDBRANCH   3  29
TORSDOF 14
