REMARK  4 active torsions:
REMARK  status: ('A' for Active; 'I' for Inactive)
REMARK    1  A    between atoms: C9_9  and  C10_10 
REMARK    2  A    between atoms: C13_15  and  C14_16 
REMARK    3  A    between atoms: C14_16  and  N2_17 
REMARK    4  A    between atoms: N2_17  and  O1_19 
ROOT
HETATM    1  C1  UNL     1      -4.169   0.204   0.193  1.00  0.00     0.011 C 
HETATM    2  C2  UNL     1      -2.742   0.351  -0.179  1.00  0.00    -0.010 C 
HETATM    3  C3  UNL     1      -1.824   0.646   0.980  1.00  0.00    -0.009 C 
HETATM    4  C4  UNL     1      -1.602  -0.509   1.897  1.00  0.00     0.010 C 
HETATM    5  C5  UNL     1      -1.047  -1.671   1.146  1.00  0.00    -0.013 C 
HETATM    6  C6  UNL     1      -2.077  -2.048   0.072  1.00  0.00     0.010 C 
HETATM    7  C7  UNL     1      -2.155  -0.875  -0.854  1.00  0.00    -0.009 C 
HETATM    8  C8  UNL     1      -0.839  -0.492  -1.410  1.00  0.00     0.019 C 
HETATM    9  C9  UNL     1       0.164  -0.111  -0.279  1.00  0.00    -0.011 C 
HETATM   10  C15 UNL     1       0.275  -1.378   0.476  1.00  0.00     0.019 C 
HETATM   11  C16 UNL     1      -0.496   1.049   0.378  1.00  0.00     0.019 C 
ENDROOT
BRANCH   9  12
HETATM   12  C10 UNL     1       1.455   0.281  -0.984  1.00  0.00    -0.029 A 
HETATM   13  C11 UNL     1       1.527   0.251  -2.351  1.00  0.00     0.060 A 
HETATM   14  S1  UNL     1       3.106   0.757  -2.729  1.00  0.00    -0.086 SA
HETATM   15  C12 UNL     1       3.664   1.004  -1.127  1.00  0.00     0.099 A 
HETATM   16  N1  UNL     1       5.000   1.459  -0.781  1.00  0.00    -0.093 NA
HETATM   17  C13 UNL     1       2.602   0.685  -0.338  1.00  0.00     0.020 A 
BRANCH  17  18
HETATM   18  C14 UNL     1       2.707   0.769   1.155  1.00  0.00     0.128 C 
BRANCH  18  19
HETATM   19  N2  UNL     1       3.626   1.100   1.845  1.00  0.00    -0.280 N 
ATOM     20  H2  UNL     1       3.268   1.013   2.796  1.00  0.00     0.193 HD
BRANCH  19  21
HETATM   21  O1  UNL     1       4.810   1.501   1.996  1.00  0.00    -0.290 OA
ATOM     22  H1  UNL     1       5.540   1.764   2.544  1.00  0.00     0.244 HD
ENDBRANCH  19  21
ENDBRANCH  18  19
ENDBRANCH  17  18
ENDBRANCH   9  12
TORSDOF 4
