REMARK  7 active torsions:
REMARK  status: ('A' for Active; 'I' for Inactive)
REMARK    1  A    between atoms: C2_2  and  C3_3 
REMARK    2  A    between atoms: C3_3  and  C5_5 
REMARK    3  A    between atoms: C7_10  and  C8_11 
REMARK    4  A    between atoms: C11_16  and  O2_17 
REMARK    5  A    between atoms: C12_19  and  C13_20 
REMARK    6  A    between atoms: C13_20  and  C14_22 
REMARK    7  A    between atoms: C14_22  and  C15_24 
ROOT
HETATM    1  C5  UNL     1       3.536   0.033   0.230  1.00  0.00     0.061 C 
HETATM    2  N1  UNL     1       3.173   0.992   0.954  1.00  0.00    -0.325 N 
ATOM      3  H1  UNL     1       3.922   1.666   1.113  1.00  0.00     0.168 HD
HETATM    4  C6  UNL     1       2.002   1.349   1.584  1.00  0.00     0.244 C 
HETATM    5  O1  UNL     1       1.754   1.275   2.840  1.00  0.00    -0.271 OA
HETATM    6  C7  UNL     1       0.870   1.882   0.776  1.00  0.00     0.175 C 
HETATM    7  N2  UNL     1      -0.357   1.391   1.349  1.00  0.00    -0.382 N 
ATOM      8  H2  UNL     1      -0.409   1.054   2.310  1.00  0.00     0.156 HD
HETATM    9  C11 UNL     1      -1.489   1.405   0.493  1.00  0.00     0.244 C 
HETATM   10  C12 UNL     1      -1.554   0.196  -0.456  1.00  0.00     0.204 C 
HETATM   11  N3  UNL     1      -1.644  -0.971   0.266  1.00  0.00    -0.347 N 
HETATM   12  C18 UNL     1      -2.702  -1.193   1.162  1.00  0.00     0.100 C 
HETATM   13  C19 UNL     1      -2.998  -2.676   1.387  1.00  0.00     0.234 C 
HETATM   14  F1  UNL     1      -3.981  -2.705   2.382  1.00  0.00    -0.242 F 
HETATM   15  C20 UNL     1      -1.782  -3.353   1.919  1.00  0.00     0.277 C 
HETATM   16  N4  UNL     1      -0.609  -2.633   1.477  1.00  0.00    -0.051 N 
ATOM     17  H41 UNL     1       0.232  -3.208   1.526  1.00  0.00     0.279 HD
ATOM     18  H42 UNL     1      -0.335  -1.908   2.140  1.00  0.00     0.279 HD
HETATM   19  C21 UNL     1      -0.826  -2.084   0.115  1.00  0.00     0.287 C 
HETATM   20  C22 UNL     1       0.515  -1.967  -0.485  1.00  0.00     0.062 C 
HETATM   21  C23 UNL     1       1.633  -1.726   0.504  1.00  0.00     0.089 C 
HETATM   22  C24 UNL     1       2.743  -1.098  -0.199  1.00  0.00     0.172 C 
HETATM   23  O4  UNL     1       3.033  -1.625  -1.329  1.00  0.00    -0.291 OA
ENDROOT
BRANCH  10  24
HETATM   24  C13 UNL     1      -2.607   0.499  -1.462  1.00  0.00     0.168 C 
HETATM   25  O3  UNL     1      -2.751   1.633  -1.889  1.00  0.00    -0.294 OA
BRANCH  24  26
HETATM   26  C14 UNL     1      -3.515  -0.530  -1.998  1.00  0.00     0.133 C 
HETATM   27 BR1  UNL     1      -2.401  -1.562  -3.260  1.00  0.00    -0.083 Br
BRANCH  26  28
HETATM   28  C15 UNL     1      -4.578   0.095  -2.890  1.00  0.00    -0.001 C 
HETATM   29  C16 UNL     1      -5.414   1.088  -2.153  1.00  0.00     0.011 C 
HETATM   30  C17 UNL     1      -5.408  -1.051  -3.465  1.00  0.00     0.011 C 
ENDBRANCH  26  28
ENDBRANCH  24  26
ENDBRANCH  10  24
BRANCH   9  31
HETATM   31  O2  UNL     1      -2.656   1.412   1.229  1.00  0.00    -0.375 OA
ATOM     32  H2  UNL     1      -3.414   1.421   0.656  1.00  0.00     0.212 HD
ENDBRANCH   9  31
BRANCH   6  33
HETATM   33  C8  UNL     1       0.861   3.398   0.780  1.00  0.00     0.009 C 
HETATM   34  C9  UNL     1       0.718   3.937   2.187  1.00  0.00     0.012 C 
HETATM   35  C10 UNL     1       2.053   4.008   0.117  1.00  0.00     0.012 C 
ENDBRANCH   6  33
BRANCH   1  36
HETATM   36  C3  UNL     1       4.968   0.049  -0.258  1.00  0.00     0.035 C 
HETATM   37  C4  UNL     1       5.031   0.022  -1.763  1.00  0.00     0.016 C 
BRANCH  36  38
HETATM   38  C2  UNL     1       5.701  -1.180   0.240  1.00  0.00     0.006 C 
HETATM   39  C1  UNL     1       5.692  -1.241   1.753  1.00  0.00     0.006 C 
ENDBRANCH  36  38
ENDBRANCH   1  36
TORSDOF 7
