REMARK  10 active torsions:
REMARK  status: ('A' for Active; 'I' for Inactive)
REMARK    1  A    between atoms: C3_3  and  C4_4 
REMARK    2  A    between atoms: C4_4  and  N1_5 
REMARK    3  A    between atoms: C6_8  and  C7_9 
REMARK    4  A    between atoms: C7_9  and  N2_10 
REMARK    5  A    between atoms: N2_10  and  C9_12 
REMARK    6  A    between atoms: C9_12  and  C10_13 
REMARK    7  A    between atoms: C10_13  and  N3_14 
REMARK    8  A    between atoms: C18_24  and  C19_25 
REMARK    9  A    between atoms: C19_25  and  O4_26 
REMARK   10  A    between atoms: C22_31  and  O5_32 
ROOT
HETATM    1  N1  UNL     1      -1.909  -0.541   0.770  1.00  0.00    -0.336 N 
HETATM    2  C5  UNL     1      -0.489  -0.268   0.678  1.00  0.00     0.261 C 
HETATM    3  O1  UNL     1      -0.036   0.573   1.444  1.00  0.00    -0.269 OA
HETATM    4  C6  UNL     1       0.493  -0.933  -0.287  1.00  0.00     0.175 C 
HETATM    5  C13 UNL     1       1.289  -1.844   0.519  1.00  0.00     0.080 C 
HETATM    6  C14 UNL     1       1.718  -3.133  -0.056  1.00  0.00     0.171 C 
HETATM    7  O2  UNL     1       1.145  -3.405  -1.297  1.00  0.00    -0.391 OA
HETATM    8  C15 UNL     1       0.108  -4.303  -1.225  1.00  0.00     0.170 C 
HETATM    9  C16 UNL     1      -1.289  -3.632  -1.162  1.00  0.00     0.060 C 
HETATM   10  C17 UNL     1      -1.168  -2.432  -0.343  1.00  0.00     0.150 C 
HETATM   11  O3  UNL     1      -0.513  -1.478  -1.120  1.00  0.00    -0.357 OA
HETATM   12  C18 UNL     1      -2.429  -1.726   0.135  1.00  0.00     0.140 C 
ENDROOT
BRANCH   1  13
HETATM   13  C4  UNL     1      -2.674   0.499   1.411  1.00  0.00     0.165 C 
BRANCH  13  14
HETATM   14  C3  UNL     1      -3.530   1.357   0.595  1.00  0.00    -0.031 A 
HETATM   15  C2  UNL     1      -3.536   2.705   0.480  1.00  0.00    -0.029 A 
HETATM   16  C1  UNL     1      -2.177   3.351   0.740  1.00  0.00     0.050 C 
HETATM   17  C23 UNL     1      -4.586   3.460   0.075  1.00  0.00     0.075 A 
HETATM   18  C22 UNL     1      -5.751   2.889  -0.244  1.00  0.00     0.105 A 
HETATM   19 CL1  UNL     1      -4.397   5.223  -0.072  1.00  0.00    -0.081 Cl
HETATM   20  C21 UNL     1      -5.869   1.502  -0.175  1.00  0.00     0.046 A 
HETATM   21  C20 UNL     1      -4.788   0.725   0.227  1.00  0.00     0.031 A 
HETATM   22 BR1  UNL     1      -7.551   0.694  -0.617  1.00  0.00    -0.048 Br
BRANCH  18  23
HETATM   23  O5  UNL     1      -6.893   3.657  -0.655  1.00  0.00    -0.358 OA
ATOM     24  H5  UNL     1      -6.813   4.602  -0.702  1.00  0.00     0.217 HD
ENDBRANCH  18  23
ENDBRANCH  13  14
ENDBRANCH   1  13
BRANCH  12  25
HETATM   25  C19 UNL     1      -3.170  -2.618   1.052  1.00  0.00     0.192 C 
BRANCH  25  26
HETATM   26  O4  UNL     1      -3.752  -3.643   0.288  1.00  0.00    -0.399 OA
ATOM     27  H4  UNL     1      -4.228  -4.216   0.877  1.00  0.00     0.209 HD
ENDBRANCH  25  26
ENDBRANCH  12  25
BRANCH   4  28
HETATM   28  C7  UNL     1       1.223   0.120  -1.077  1.00  0.00     0.110 C 
BRANCH  28  29
HETATM   29  N2  UNL     1       2.487   0.548  -0.712  1.00  0.00    -0.370 N 
HETATM   30  C8  UNL     1       3.583  -0.291  -1.092  1.00  0.00     0.154 C 
BRANCH  29  31
HETATM   31  C9  UNL     1       2.808   1.565   0.158  1.00  0.00     0.101 C 
BRANCH  31  32
HETATM   32  C10 UNL     1       4.285   1.587   0.540  1.00  0.00     0.076 C 
BRANCH  32  33
HETATM   33  N3  UNL     1       5.245   1.845  -0.416  1.00  0.00    -0.300 NA
HETATM   34  C11 UNL     1       5.319   3.214  -0.872  1.00  0.00     0.115 C 
HETATM   35  C12 UNL     1       6.538   1.424   0.027  1.00  0.00     0.115 C 
ENDBRANCH  32  33
ENDBRANCH  31  32
ENDBRANCH  29  31
ENDBRANCH  28  29
ENDBRANCH   4  28
TORSDOF 10
