REMARK  8 active torsions:
REMARK  status: ('A' for Active; 'I' for Inactive)
REMARK    1  A    between atoms: C2_2  and  C4_4 
REMARK    2  A    between atoms: C6_9  and  C7_10 
REMARK    3  A    between atoms: C14_20  and  C15_21 
REMARK    4  A    between atoms: C17_25  and  C18_26 
REMARK    5  A    between atoms: C18_26  and  O4_27 
REMARK    6  A    between atoms: C18_26  and  C19_29 
REMARK    7  A    between atoms: C19_29  and  S1_30 
REMARK    8  A    between atoms: S1_30  and  C20_31 
ROOT
HETATM    1  C4  UNL     1      -1.364  -2.164   0.596  1.00  0.00     0.083 C 
HETATM    2  N1  UNL     1      -2.291  -2.029  -0.276  1.00  0.00    -0.315 N 
ATOM      3  H1  UNL     1      -2.855  -2.872  -0.386  1.00  0.00     0.170 HD
HETATM    4  C5  UNL     1      -2.699  -1.008  -1.097  1.00  0.00     0.246 C 
HETATM    5  O1  UNL     1      -2.513  -1.042  -2.363  1.00  0.00    -0.271 OA
HETATM    6  C6  UNL     1      -3.395   0.239  -0.640  1.00  0.00     0.180 C 
HETATM    7  N2  UNL     1      -2.720   1.348  -1.252  1.00  0.00    -0.347 N 
ATOM      8  H2  UNL     1      -3.217   1.926  -1.930  1.00  0.00     0.163 HD
HETATM    9  C10 UNL     1      -1.388   1.649  -0.932  1.00  0.00     0.225 C 
HETATM   10  O2  UNL     1      -0.573   2.096  -1.773  1.00  0.00    -0.273 OA
HETATM   11  C11 UNL     1      -0.889   1.440   0.451  1.00  0.00     0.109 C 
HETATM   12  C12 UNL     1      -1.092   2.700   1.192  1.00  0.00     0.019 C 
HETATM   13  C13 UNL     1       0.076   3.313   1.870  1.00  0.00     0.034 C 
HETATM   14  C14 UNL     1       1.351   2.836   1.215  1.00  0.00     0.135 C 
HETATM   15  O3  UNL     1       1.346   1.462   1.383  1.00  0.00    -0.377 OA
HETATM   16  C16 UNL     1       0.532   0.940   0.347  1.00  0.00     0.160 C 
HETATM   17  C17 UNL     1       0.660  -0.543   0.335  1.00  0.00     0.142 C 
HETATM   18  N4  UNL     1      -0.415  -1.220   1.014  1.00  0.00    -0.370 N 
ATOM     19  H4  UNL     1      -0.504  -0.961   1.996  1.00  0.00     0.161 HD
ENDROOT
BRANCH  17  20
HETATM   20  C18 UNL     1       1.038  -1.109  -0.991  1.00  0.00     0.153 C 
BRANCH  20  21
HETATM   21  O4  UNL     1       1.397  -2.465  -0.889  1.00  0.00    -0.393 OA
ATOM     22  H4  UNL     1       1.638  -2.826  -1.734  1.00  0.00     0.210 HD
ENDBRANCH  20  21
BRANCH  20  23
HETATM   23  C19 UNL     1       2.329  -0.453  -1.502  1.00  0.00     0.114 C 
BRANCH  23  24
HETATM   24  S1  UNL     1       3.694  -0.696  -0.385  1.00  0.00    -0.108 SA
BRANCH  24  25
HETATM   25  C20 UNL     1       5.200   0.030  -0.911  1.00  0.00     0.091 A 
HETATM   26  N3  UNL     1       5.291   0.707  -2.063  1.00  0.00    -0.359 N 
HETATM   27  C21 UNL     1       6.457   1.272  -2.475  1.00  0.00     0.089 A 
ATOM     28  H3  UNL     1       4.461   0.802  -2.648  1.00  0.00     0.166 HD
HETATM   29  C22 UNL     1       7.593   1.168  -1.720  1.00  0.00     0.019 A 
HETATM   30  C23 UNL     1       7.537   0.475  -0.524  1.00  0.00     0.028 A 
HETATM   31  C24 UNL     1       6.321  -0.096  -0.125  1.00  0.00     0.067 A 
HETATM   32 CL2  UNL     1       6.338  -0.955   1.402  1.00  0.00    -0.081 Cl
ENDBRANCH  24  25
ENDBRANCH  23  24
ENDBRANCH  20  23
ENDBRANCH  17  20
BRANCH   1  33
HETATM   33  C2  UNL     1      -1.319  -3.535   1.263  1.00  0.00     0.045 C 
HETATM   34  C1  UNL     1      -1.376  -3.291   2.767  1.00  0.00     0.017 C 
HETATM   35  C3  UNL     1      -2.495  -4.392   0.854  1.00  0.00     0.017 C 
ENDBRANCH   1  33
BRANCH  14  36
HETATM   36  C15 UNL     1       2.572   3.487   1.820  1.00  0.00     0.146 C 
HETATM   37 CL1  UNL     1       2.739   3.153   3.542  1.00  0.00    -0.128 Cl
ENDBRANCH  14  36
BRANCH   6  38
HETATM   38  C7  UNL     1      -4.868   0.191  -0.993  1.00  0.00     0.009 C 
HETATM   39  C8  UNL     1      -5.137   0.065  -2.457  1.00  0.00     0.012 C 
HETATM   40  C9  UNL     1      -5.573  -0.832  -0.160  1.00  0.00     0.012 C 
ENDBRANCH   6  38
TORSDOF 8
