REMARK  2 active torsions:
REMARK  status: ('A' for Active; 'I' for Inactive)
REMARK    1  A    between atoms: S1_2  and  C2_3 
REMARK    2  A    between atoms: C2_3  and  C3_4 
ROOT
HETATM    1  C3  UNL     1       0.253  -0.249  -0.348  1.00  0.00     0.043 C 
HETATM    2 CL1  UNL     1       0.840  -1.874  -0.572  1.00  0.00    -0.086 Cl
HETATM    3  C4  UNL     1      -0.988  -0.052  -0.029  1.00  0.00     0.094 C 
HETATM    4  S2  UNL     1      -1.721   1.590   0.231  1.00  0.00    -0.054 SA
HETATM    5  C5  UNL     1      -3.407   1.035   0.092  1.00  0.00     0.146 C 
HETATM    6  S3  UNL     1      -4.665   1.997  -0.178  1.00  0.00    -0.052 SA
HETATM    7  N1  UNL     1      -3.363  -0.363   0.266  1.00  0.00    -0.307 N 
ATOM      8  H1  UNL     1      -4.206  -0.914   0.428  1.00  0.00     0.170 HD
HETATM    9  C6  UNL     1      -2.097  -0.948   0.204  1.00  0.00     0.265 C 
HETATM   10  O1  UNL     1      -1.937  -2.218   0.350  1.00  0.00    -0.267 OA
ENDROOT
BRANCH   1  11
HETATM   11  C2  UNL     1       1.169   0.899  -0.524  1.00  0.00     0.126 C 
BRANCH  11  12
HETATM   12  S1  UNL     1       2.575   0.897   0.583  1.00  0.00    -0.168 SA
HETATM   13  C1  UNL     1       3.691  -0.470   0.234  1.00  0.00     0.090 C 
ENDBRANCH  11  12
ENDBRANCH   1  11
TORSDOF 2
