REMARK  3 active torsions:
REMARK  status: ('A' for Active; 'I' for Inactive)
REMARK    1  A    between atoms: C2_2  and  C3_3 
REMARK    2  A    between atoms: C3_3  and  N1_4 
REMARK    3  A    between atoms: C14_16  and  O2_17 
ROOT
HETATM    1  N1  UNL     1       2.335  -0.526   0.178  1.00  0.00    -0.185 NA
HETATM    2  O1  UNL     1       2.228  -1.833   0.508  1.00  0.00    -0.296 OA
HETATM    3  C4  UNL     1       1.312  -2.064  -0.517  1.00  0.00     0.167 C 
HETATM    4  C5  UNL     1       0.033  -2.564   0.139  1.00  0.00     0.041 C 
HETATM    5  C6  UNL     1      -0.145  -1.454   1.195  1.00  0.00     0.001 C 
HETATM    6  C7  UNL     1      -1.571  -1.620   1.653  1.00  0.00     0.006 C 
HETATM    7  C8  UNL     1      -2.339  -1.159   0.463  1.00  0.00     0.006 C 
HETATM    8  C9  UNL     1      -1.406  -0.331  -0.403  1.00  0.00     0.002 C 
HETATM    9  C10 UNL     1      -2.072   0.992  -0.621  1.00  0.00    -0.014 C 
HETATM   10  C11 UNL     1      -3.517   0.691  -1.053  1.00  0.00     0.010 C 
HETATM   11  C12 UNL     1      -2.177   1.833   0.623  1.00  0.00     0.007 C 
HETATM   12  C13 UNL     1      -1.083   1.646   1.614  1.00  0.00     0.033 C 
HETATM   13  C14 UNL     1       0.137   1.054   0.937  1.00  0.00     0.129 C 
HETATM   14  C15 UNL     1      -0.080  -0.261   0.298  1.00  0.00     0.014 C 
HETATM   15  C16 UNL     1       1.103  -0.583  -0.573  1.00  0.00     0.129 C 
ENDROOT
BRANCH   1  16
HETATM   16  C3  UNL     1       3.557  -0.331  -0.543  1.00  0.00     0.147 C 
BRANCH  16  17
HETATM   17  C2  UNL     1       3.739   0.996  -1.156  1.00  0.00    -0.020 C 
HETATM   18  C1  UNL     1       4.745   1.769  -0.841  1.00  0.00     0.008 C 
ENDBRANCH  16  17
ENDBRANCH   1  16
BRANCH  13  19
HETATM   19  O2  UNL     1       0.412   1.966  -0.117  1.00  0.00    -0.395 OA
ATOM     20  H2  UNL     1       1.177   1.595  -0.541  1.00  0.00     0.210 HD
ENDBRANCH  13  19
TORSDOF 3
