REMARK  6 active torsions:
REMARK  status: ('A' for Active; 'I' for Inactive)
REMARK    1  A    between atoms: C2_2  and  C5_5 
REMARK    2  A    between atoms: C5_5  and  N1_6 
REMARK    3  A    between atoms: C5_5  and  C6_10 
REMARK       I    between atoms: C6_10  and  N2_12 
REMARK    4  A    between atoms: C10_16  and  C11_17 
REMARK       I    between atoms: C11_17  and  N3_19 
REMARK    5  A    between atoms: N3_19  and  N4_21 
REMARK       I    between atoms: N4_21  and  C12_23 
REMARK       I    between atoms: N6_25  and  C13_27 
REMARK    6  A    between atoms: C13_27  and  C14_29 
ROOT
HETATM    1  C11 UNL     1      -0.464  -1.715   0.833  1.00  0.00     0.259 C 
HETATM    2  O2  UNL     1       0.007  -2.472   1.730  1.00  0.00    -0.269 OA
HETATM    3  N3  UNL     1       0.361  -0.690   0.330  1.00  0.00    -0.266 N 
ATOM      4  H3  UNL     1       0.006  -0.065  -0.393  1.00  0.00     0.190 HD
ENDROOT
BRANCH   1   5
HETATM    5  C10 UNL     1      -1.866  -1.976   0.385  1.00  0.00     0.181 C 
HETATM    6  N2  UNL     1      -2.317  -1.113  -0.653  1.00  0.00    -0.337 N 
HETATM    7  C6  UNL     1      -3.076   0.069  -0.652  1.00  0.00     0.252 C 
HETATM    8  C7  UNL     1      -1.754  -1.750  -1.892  1.00  0.00     0.127 C 
HETATM    9  O1  UNL     1      -3.232   0.607  -1.804  1.00  0.00    -0.271 OA
HETATM   10  C8  UNL     1      -2.211  -3.166  -1.704  1.00  0.00     0.022 C 
HETATM   11  C9  UNL     1      -1.945  -3.393  -0.237  1.00  0.00     0.037 C 
BRANCH   7  12
HETATM   12  C5  UNL     1      -3.681   0.722   0.476  1.00  0.00     0.282 C 
BRANCH  12  13
HETATM   13  C2  UNL     1      -5.074   1.260   0.305  1.00  0.00    -0.014 C 
HETATM   14  C1  UNL     1      -6.154   0.248   0.178  1.00  0.00     0.017 C 
HETATM   15  C3  UNL     1      -5.417   2.003   1.649  1.00  0.00     0.017 C 
HETATM   16  C4  UNL     1      -5.211   2.327  -0.725  1.00  0.00     0.017 C 
ENDBRANCH  12  13
BRANCH  12  17
HETATM   17  N1  UNL     1      -3.691  -0.028   1.719  1.00  0.00    -0.066 N 
ATOM     18  H13 UNL     1      -4.019   0.514   2.519  1.00  0.00     0.275 HD
ATOM     19  H12 UNL     1      -4.412  -0.748   1.754  1.00  0.00     0.275 HD
ATOM     20  H11 UNL     1      -2.746  -0.393   1.835  1.00  0.00     0.275 HD
ENDBRANCH  12  17
ENDBRANCH   7  12
ENDBRANCH   1   5
BRANCH   3  21
HETATM   21  N4  UNL     1       1.657  -0.522   0.811  1.00  0.00    -0.271 N 
HETATM   22  C12 UNL     1       2.625   0.351   0.222  1.00  0.00     0.209 C 
HETATM   23  N5  UNL     1       2.252   1.682  -0.102  1.00  0.00    -0.062 NA
HETATM   24  N6  UNL     1       3.824  -0.033  -0.020  1.00  0.00    -0.298 N 
HETATM   25  C13 UNL     1       4.775   0.829  -0.598  1.00  0.00     0.255 C 
ATOM     26  H6  UNL     1       4.096  -0.988   0.212  1.00  0.00     0.171 HD
HETATM   27  O3  UNL     1       4.519   2.036  -0.835  1.00  0.00    -0.271 OA
ATOM     28  H4  UNL     1       1.933  -1.055   1.635  1.00  0.00     0.189 HD
BRANCH  25  29
HETATM   29  C14 UNL     1       6.118   0.248  -0.921  1.00  0.00     0.277 C 
HETATM   30  C15 UNL     1       6.759  -0.190   0.364  1.00  0.00     0.044 C 
HETATM   31  C16 UNL     1       8.147   0.396   0.341  1.00  0.00     0.030 C 
HETATM   32  C17 UNL     1       8.331   0.834  -1.078  1.00  0.00     0.233 C 
HETATM   33  N7  UNL     1       6.997   1.257  -1.479  1.00  0.00    -0.062 N 
ATOM     34  H72 UNL     1       6.888   1.397  -2.483  1.00  0.00     0.278 HD
ATOM     35  H71 UNL     1       6.762   2.212  -1.207  1.00  0.00     0.278 HD
ENDBRANCH  25  29
ENDBRANCH   3  21
TORSDOF 6
