REMARK  6 active torsions:
REMARK  status: ('A' for Active; 'I' for Inactive)
REMARK    1  A    between atoms: C2_2  and  C4_4 
REMARK    2  A    between atoms: C4_4  and  N1_5 
REMARK    3  A    between atoms: C4_4  and  C6_10 
REMARK       I    between atoms: N1_5  and  C5_7 
REMARK    4  A    between atoms: C6_10  and  N4_15 
REMARK    5  A    between atoms: N3_11  and  C7_13 
REMARK    6  A    between atoms: N4_15  and  C8_17 
ROOT
HETATM    1  C6  UNL     1      -1.062   0.039   0.894  1.00  0.00     0.103 C 
HETATM    2  N3  UNL     1      -0.994  -0.379   2.081  1.00  0.00    -0.322 N 
ATOM      3  H3  UNL     1      -1.781  -0.968   2.352  1.00  0.00     0.169 HD
ENDROOT
BRANCH   1   4
HETATM    4  C4  UNL     1      -2.266  -0.397   0.111  1.00  0.00     0.156 C 
BRANCH   4   5
HETATM    5  C2  UNL     1      -1.944  -1.199  -1.100  1.00  0.00     0.008 C 
HETATM    6  C1  UNL     1      -1.233  -2.497  -0.808  1.00  0.00     0.012 C 
HETATM    7  C3  UNL     1      -3.282  -1.563  -1.752  1.00  0.00     0.012 C 
ENDBRANCH   4   5
BRANCH   4   8
HETATM    8  N1  UNL     1      -2.954   0.820  -0.296  1.00  0.00    -0.334 N 
HETATM    9  C5  UNL     1      -4.261   1.144   0.114  1.00  0.00     0.329 C 
HETATM   10  N2  UNL     1      -4.860   2.338  -0.321  1.00  0.00    -0.040 NA
HETATM   11  O1  UNL     1      -4.877   0.358   0.866  1.00  0.00    -0.251 OA
ATOM     12  H1  UNL     1      -2.464   1.471  -0.910  1.00  0.00     0.164 HD
ENDBRANCH   4   8
ENDBRANCH   1   4
BRANCH   1  13
HETATM   13  N4  UNL     1      -0.083   0.878   0.313  1.00  0.00    -0.372 N 
ATOM     14  H4  UNL     1      -0.433   1.572  -0.348  1.00  0.00     0.161 HD
BRANCH  13  15
HETATM   15  C8  UNL     1       1.323   0.885   0.525  1.00  0.00     0.098 C 
HETATM   16  C9  UNL     1       1.975  -0.443   0.233  1.00  0.00     0.046 C 
HETATM   17  C10 UNL     1       3.290  -0.659   0.912  1.00  0.00     0.013 C 
HETATM   18  C11 UNL     1       4.347  -0.770  -0.196  1.00  0.00     0.027 C 
HETATM   19  C12 UNL     1       3.356  -1.927   1.698  1.00  0.00     0.027 C 
HETATM   20  S1  UNL     1       3.799   0.793   1.909  1.00  0.00    -0.088 SA
HETATM   21  S2  UNL     1       3.469   2.466   0.584  1.00  0.00    -0.090 SA
HETATM   22  C13 UNL     1       2.017   1.928  -0.380  1.00  0.00     0.077 C 
HETATM   23  C14 UNL     1       1.125   3.074  -0.728  1.00  0.00     0.024 C 
ENDBRANCH  13  15
ENDBRANCH   1  13
BRANCH   2  24
HETATM   24  C7  UNL     1      -0.063  -0.198   3.093  1.00  0.00     0.354 C 
HETATM   25  O2  UNL     1      -0.299   0.679   3.986  1.00  0.00    -0.283 OA
ENDBRANCH   2  24
TORSDOF 6
