REMARK  7 active torsions:
REMARK  status: ('A' for Active; 'I' for Inactive)
REMARK    1  A    between atoms: S1_2  and  C2_3 
REMARK    2  A    between atoms: C2_3  and  C3_4 
REMARK    3  A    between atoms: C3_4  and  C4_5 
REMARK    4  A    between atoms: C5_6  and  C6_7 
REMARK    5  A    between atoms: C7_8  and  O1_9 
REMARK    6  A    between atoms: N2_18  and  C12_19 
REMARK    7  A    between atoms: C12_19  and  C13_20 
REMARK       I    between atoms: C13_20  and  N3_22 
ROOT
HETATM    1  C6  UNL     1       0.374  -0.711  -0.371  1.00  0.00     0.198 C 
HETATM    2  C7  UNL     1       0.713  -2.156  -0.403  1.00  0.00     0.180 C 
HETATM    3  C8  UNL     1      -0.377  -3.140  -0.251  1.00  0.00     0.054 C 
HETATM    4  C9  UNL     1      -1.005  -3.606  -1.543  1.00  0.00     0.041 C 
HETATM    5  C10 UNL     1       0.242  -4.403   0.377  1.00  0.00     0.041 C 
HETATM    6  N1  UNL     1      -1.427  -2.753   0.680  1.00  0.00    -0.356 N 
ATOM      7  H1  UNL     1      -2.106  -3.441   1.006  1.00  0.00     0.162 HD
HETATM    8  C11 UNL     1      -1.498  -1.404   1.132  1.00  0.00     0.172 C 
HETATM    9  S2  UNL     1      -2.127  -1.024   2.566  1.00  0.00    -0.041 SA
HETATM   10  N2  UNL     1      -0.925  -0.440   0.257  1.00  0.00    -0.332 N 
ENDROOT
BRANCH   1  11
HETATM   11  C5  UNL     1       1.392   0.061   0.347  1.00  0.00    -0.078 C 
HETATM   12  C4  UNL     1       2.250   0.682   0.941  1.00  0.00    -0.104 C 
BRANCH  12  13
HETATM   13  C3  UNL     1       3.271   1.449   1.658  1.00  0.00     0.104 C 
BRANCH  13  14
HETATM   14  C2  UNL     1       3.281   2.837   1.059  1.00  0.00     0.085 C 
BRANCH  14  15
HETATM   15  S1  UNL     1       3.676   2.642  -0.717  1.00  0.00    -0.173 SA
HETATM   16  C1  UNL     1       5.353   2.012  -0.936  1.00  0.00     0.089 C 
ENDBRANCH  14  15
ENDBRANCH  13  14
ENDBRANCH  12  13
ENDBRANCH   1  11
BRANCH   2  17
HETATM   17  O1  UNL     1       1.406  -2.443  -1.598  1.00  0.00    -0.390 OA
ATOM     18  H1  UNL     1       1.623  -3.368  -1.618  1.00  0.00     0.210 HD
ENDBRANCH   2  17
BRANCH  10  19
HETATM   19  C12 UNL     1      -1.515   0.838   0.029  1.00  0.00     0.229 C 
BRANCH  19  20
HETATM   20  C13 UNL     1      -2.955   0.990   0.189  1.00  0.00     0.237 C 
HETATM   21  O2  UNL     1      -3.718   0.050   0.445  1.00  0.00    -0.272 OA
HETATM   22  N3  UNL     1      -3.539   2.275   0.050  1.00  0.00    -0.359 N 
HETATM   23  C14 UNL     1      -4.978   2.490   0.203  1.00  0.00     0.152 C 
HETATM   24  C15 UNL     1      -2.696   3.407  -0.249  1.00  0.00     0.152 C 
ENDBRANCH  19  20
ENDBRANCH  10  19
TORSDOF 7
