REMARK  8 active torsions:
REMARK  status: ('A' for Active; 'I' for Inactive)
REMARK    1  A    between atoms: N1_2  and  C2_4 
REMARK    2  A    between atoms: C3_7  and  N3_8 
REMARK    3  A    between atoms: N3_8  and  C4_10 
REMARK    4  A    between atoms: C4_10  and  C5_11 
REMARK    5  A    between atoms: C5_11  and  O1_12 
REMARK    6  A    between atoms: C6_16  and  N5_17 
REMARK    7  A    between atoms: N5_17  and  C7_19 
REMARK    8  A    between atoms: C7_19  and  N6_21 
ROOT
HETATM    1  C2  UNL     1      -0.208  -1.286  -0.140  1.00  0.00     0.706 A 
HETATM    2  N2  UNL     1       1.028  -0.761  -0.097  1.00  0.00    -0.022 N 
ATOM      3  H2  UNL     1       1.856  -1.352  -0.166  1.00  0.00     0.203 HD
HETATM    4  C3  UNL     1       1.133   0.579   0.041  1.00  0.00     0.707 A 
HETATM    5  N4  UNL     1       0.038   1.373   0.134  1.00  0.00    -0.021 N 
ATOM      6  H4  UNL     1       0.145   2.382   0.237  1.00  0.00     0.203 HD
HETATM    7  C6  UNL     1      -1.184   0.827   0.090  1.00  0.00     0.709 A 
HETATM    8  N7  UNL     1      -1.297  -0.501  -0.047  1.00  0.00    -0.021 N 
ATOM      9  H7  UNL     1      -2.224  -0.924  -0.081  1.00  0.00     0.203 HD
ENDROOT
BRANCH   7  10
HETATM   10  N5  UNL     1      -2.204   1.565   0.176  1.00  0.00    -0.196 N 
ATOM     11  H5  UNL     1      -2.018   2.563   0.276  1.00  0.00     0.180 HD
BRANCH  10  12
HETATM   12  C7  UNL     1      -3.578   1.196   0.152  1.00  0.00     0.293 C 
HETATM   13  C8  UNL     1      -4.018   0.375   1.339  1.00  0.00     0.063 C 
BRANCH  12  14
HETATM   14  N6  UNL     1      -3.991   0.590  -1.114  1.00  0.00    -0.058 N 
ATOM     15  H63 UNL     1      -3.766   1.201  -1.899  1.00  0.00     0.276 HD
ATOM     16  H62 UNL     1      -3.397  -0.207  -1.345  1.00  0.00     0.276 HD
ATOM     17  H61 UNL     1      -4.976   0.325  -1.131  1.00  0.00     0.276 HD
ENDBRANCH  12  14
ENDBRANCH  10  12
ENDBRANCH   7  10
BRANCH   4  18
HETATM   18  N3  UNL     1       2.296   1.154   0.089  1.00  0.00    -0.223 N 
ATOM     19  H3  UNL     1       2.379   2.165   0.193  1.00  0.00     0.177 HD
BRANCH  18  20
HETATM   20  C4  UNL     1       3.467   0.316  -0.009  1.00  0.00     0.164 C 
BRANCH  20  21
HETATM   21  C5  UNL     1       4.676   1.221   0.084  1.00  0.00     0.184 C 
BRANCH  21  22
HETATM   22  O1  UNL     1       4.675   2.148  -0.936  1.00  0.00    -0.399 OA
ATOM     23  H1  UNL     1       5.434   2.716  -0.878  1.00  0.00     0.209 HD
ENDBRANCH  21  22
ENDBRANCH  20  21
ENDBRANCH  18  20
ENDBRANCH   4  18
BRANCH   1  24
HETATM   24  N1  UNL     1      -0.323  -2.563  -0.271  1.00  0.00    -0.229 N 
HETATM   25  C1  UNL     1       0.820  -3.425  -0.372  1.00  0.00     0.165 C 
ATOM     26  H1  UNL     1      -1.256  -2.974  -0.304  1.00  0.00     0.177 HD
ENDBRANCH   1  24
TORSDOF 8
