REMARK  5 active torsions:
REMARK  status: ('A' for Active; 'I' for Inactive)
REMARK    1  A    between atoms: C2_2  and  C3_3 
REMARK    2  A    between atoms: C3_3  and  O1_4 
REMARK    3  A    between atoms: C8_10  and  C9_11 
REMARK    4  A    between atoms: C9_11  and  C10_12 
REMARK    5  A    between atoms: C11_13  and  O2_15 
ROOT
HETATM    1  C3  UNL     1      -1.925   0.699  -0.279  1.00  0.00     0.079 C 
HETATM    2  C4  UNL     1      -1.622  -0.587  -0.961  1.00  0.00     0.051 C 
HETATM    3  C5  UNL     1      -0.393  -1.300  -0.575  1.00  0.00    -0.041 C 
HETATM    4  C6  UNL     1       0.212  -1.930  -1.839  1.00  0.00     0.015 C 
HETATM    5  C7  UNL     1      -0.704  -2.490   0.330  1.00  0.00     0.015 C 
HETATM    6  C8  UNL     1       0.673  -0.491   0.110  1.00  0.00    -0.003 C 
HETATM    7  C13 UNL     1       0.118   0.347   1.193  1.00  0.00     0.013 C 
HETATM    8  C14 UNL     1      -1.226   0.956   0.990  1.00  0.00     0.020 C 
HETATM    9  C15 UNL     1      -2.155   0.637   2.174  1.00  0.00     0.013 C 
ENDROOT
BRANCH   6  10
HETATM   10  C9  UNL     1       1.591   0.207  -0.840  1.00  0.00     0.035 C 
BRANCH  10  11
HETATM   11  C10 UNL     1       2.659   1.014  -0.190  1.00  0.00     0.005 C 
HETATM   12  C11 UNL     1       3.943   0.766  -0.354  1.00  0.00     0.035 C 
HETATM   13  C12 UNL     1       4.936   1.617   0.330  1.00  0.00     0.075 C 
BRANCH  12  14
HETATM   14  O2  UNL     1       4.374  -0.272  -1.151  1.00  0.00    -0.366 OA
ATOM     15  H2  UNL     1       5.300  -0.451  -1.269  1.00  0.00     0.217 HD
ENDBRANCH  12  14
ENDBRANCH  10  11
ENDBRANCH   6  10
BRANCH   1  16
HETATM   16  C2  UNL     1      -3.401   0.749  -0.038  1.00  0.00     0.001 C 
HETATM   17  C1  UNL     1      -4.227   0.234  -0.938  1.00  0.00     0.010 C 
ENDBRANCH   1  16
BRANCH   1  18
HETATM   18  O1  UNL     1      -1.725   1.788  -1.171  1.00  0.00    -0.385 OA
ATOM     19  H1  UNL     1      -0.788   1.756  -1.324  1.00  0.00     0.211 HD
ENDBRANCH   1  18
TORSDOF 5
