REMARK  17 active torsions:
REMARK  status: ('A' for Active; 'I' for Inactive)
REMARK    1  A    between atoms: C2_2  and  O2_4 
REMARK    2  A    between atoms: O2_4  and  C3_5 
REMARK    3  A    between atoms: C4_7  and  C5_8 
REMARK    4  A    between atoms: C5_8  and  O4_9 
REMARK    5  A    between atoms: O4_9  and  C6_10 
REMARK    6  A    between atoms: C7_11  and  O5_12 
REMARK    7  A    between atoms: C8_14  and  O6_15 
REMARK    8  A    between atoms: C9_17  and  O7_18 
REMARK    9  A    between atoms: O7_18  and  C10_19 
REMARK   10  A    between atoms: C15_26  and  O10_27 
REMARK   11  A    between atoms: C16_29  and  O11_30 
REMARK   12  A    between atoms: C17_32  and  O12_33 
REMARK   13  A    between atoms: C18_35  and  O13_36 
REMARK   14  A    between atoms: O13_36  and  C19_37 
REMARK   15  A    between atoms: C22_41  and  O15_42 
REMARK   16  A    between atoms: C23_44  and  O16_45 
REMARK   17  A    between atoms: C24_47  and  O17_48 
ROOT
HETATM    1  C3  UNL     1      -2.539  -1.429   0.224  1.00  0.00     0.301 C 
HETATM    2  O3  UNL     1      -1.216  -1.367   0.554  1.00  0.00    -0.348 OA
HETATM    3  C4  UNL     1      -0.874  -0.052   0.835  1.00  0.00     0.180 C 
HETATM    4  C17 UNL     1      -2.161   0.635   1.255  1.00  0.00     0.183 C 
HETATM    5  C18 UNL     1      -3.154  -0.070   0.356  1.00  0.00     0.211 C 
ENDROOT
BRANCH   3   6
HETATM    6  C5  UNL     1       0.055   0.056   2.018  1.00  0.00     0.203 C 
BRANCH   6   7
HETATM    7  O4  UNL     1       1.189  -0.630   1.774  1.00  0.00    -0.378 OA
BRANCH   7   8
HETATM    8  C6  UNL     1       1.990  -0.252   0.730  1.00  0.00     0.184 C 
HETATM    9  C7  UNL     1       2.088  -1.261  -0.368  1.00  0.00     0.181 C 
HETATM   10  C8  UNL     1       3.330  -0.801  -1.117  1.00  0.00     0.181 C 
HETATM   11  C9  UNL     1       4.271  -0.432   0.044  1.00  0.00     0.184 C 
HETATM   12  C16 UNL     1       3.377   0.118   1.105  1.00  0.00     0.181 C 
BRANCH   9  13
HETATM   13  O5  UNL     1       2.309  -2.552   0.052  1.00  0.00    -0.390 OA
ATOM     14  H5  UNL     1       2.371  -3.193  -0.646  1.00  0.00     0.210 HD
ENDBRANCH   9  13
BRANCH  10  15
HETATM   15  O6  UNL     1       3.874  -1.782  -1.909  1.00  0.00    -0.390 OA
ATOM     16  H6  UNL     1       4.649  -1.495  -2.377  1.00  0.00     0.210 HD
ENDBRANCH  10  15
BRANCH  11  17
HETATM   17  O7  UNL     1       5.244   0.407  -0.421  1.00  0.00    -0.367 OA
BRANCH  17  18
HETATM   18  C10 UNL     1       6.493  -0.144  -0.415  1.00  0.00     0.211 C 
HETATM   19  C11 UNL     1       7.158  -0.186  -1.794  1.00  0.00     0.206 C 
HETATM   20  O8  UNL     1       8.502  -0.321  -1.526  1.00  0.00    -0.375 OA
HETATM   21  C12 UNL     1       8.789   0.135  -0.270  1.00  0.00     0.215 C 
HETATM   22  C13 UNL     1       9.173   1.579  -0.123  1.00  0.00     0.155 C 
HETATM   23  C15 UNL     1       7.511   0.704   0.312  1.00  0.00     0.220 C 
HETATM   24  C14 UNL     1      10.131   2.066  -1.179  1.00  0.00     0.042 C 
HETATM   25  O9  UNL     1       7.834   1.904  -0.319  1.00  0.00    -0.343 OA
BRANCH  23  26
HETATM   26  O10 UNL     1       7.439   0.719   1.676  1.00  0.00    -0.361 OA
ATOM     27  H10 UNL     1       8.079   1.252   2.133  1.00  0.00     0.213 HD
ENDBRANCH  23  26
ENDBRANCH  17  18
ENDBRANCH  11  17
BRANCH  12  28
HETATM   28  O11 UNL     1       3.466   1.504   1.222  1.00  0.00    -0.390 OA
ATOM     29  H11 UNL     1       4.354   1.741   1.462  1.00  0.00     0.210 HD
ENDBRANCH  12  28
ENDBRANCH   7   8
ENDBRANCH   6   7
ENDBRANCH   3   6
BRANCH   4  30
HETATM   30  O12 UNL     1      -2.071   1.985   0.990  1.00  0.00    -0.390 OA
ATOM     31  H12 UNL     1      -2.876   2.415   1.253  1.00  0.00     0.210 HD
ENDBRANCH   4  30
BRANCH   1  32
HETATM   32  O2  UNL     1      -2.785  -2.022  -1.034  1.00  0.00    -0.287 OA
BRANCH  32  33
HETATM   33  C2  UNL     1      -3.487  -3.200  -1.197  1.00  0.00     0.257 C 
HETATM   34  C1  UNL     1      -3.695  -3.749  -2.579  1.00  0.00     0.126 C 
HETATM   35  O1  UNL     1      -3.927  -3.769  -0.169  1.00  0.00    -0.266 OA
ENDBRANCH  32  33
ENDBRANCH   1  32
BRANCH   5  36
HETATM   36  O13 UNL     1      -4.417  -0.142   0.935  1.00  0.00    -0.346 OA
BRANCH  36  37
HETATM   37  C19 UNL     1      -5.422   0.424   0.153  1.00  0.00     0.292 C 
HETATM   38  O14 UNL     1      -5.918   1.502   0.846  1.00  0.00    -0.351 OA
HETATM   39  C20 UNL     1      -7.280   1.551   0.957  1.00  0.00     0.152 C 
HETATM   40  C21 UNL     1      -7.688   2.884   1.538  1.00  0.00     0.042 C 
HETATM   41  C22 UNL     1      -7.908   1.428  -0.420  1.00  0.00     0.178 C 
HETATM   42  C23 UNL     1      -7.635   0.023  -0.885  1.00  0.00     0.183 C 
HETATM   43  C24 UNL     1      -6.442  -0.602  -0.244  1.00  0.00     0.204 C 
BRANCH  41  44
HETATM   44  O15 UNL     1      -7.312   2.334  -1.292  1.00  0.00    -0.390 OA
ATOM     45  H15 UNL     1      -7.705   2.257  -2.154  1.00  0.00     0.210 HD
ENDBRANCH  41  44
BRANCH  42  46
HETATM   46  O16 UNL     1      -8.764  -0.793  -0.640  1.00  0.00    -0.390 OA
ATOM     47  H16 UNL     1      -8.592  -1.680  -0.934  1.00  0.00     0.210 HD
ENDBRANCH  42  46
BRANCH  43  48
HETATM   48  O17 UNL     1      -6.785  -1.444   0.823  1.00  0.00    -0.388 OA
ATOM     49  H17 UNL     1      -7.431  -2.094   0.572  1.00  0.00     0.210 HD
ENDBRANCH  43  48
ENDBRANCH  36  37
ENDBRANCH   5  36
TORSDOF 17
