REMARK  16 active torsions:
REMARK  status: ('A' for Active; 'I' for Inactive)
REMARK    1  A    between atoms: C3_4  and  O2_5 
REMARK    2  A    between atoms: O2_5  and  C4_6 
REMARK    3  A    between atoms: C5_7  and  O3_8 
REMARK    4  A    between atoms: O3_8  and  C6_9 
REMARK    5  A    between atoms: C8_13  and  O6_14 
REMARK    6  A    between atoms: O6_14  and  C9_15 
REMARK    7  A    between atoms: C10_16  and  O7_17 
REMARK    8  A    between atoms: C11_19  and  O8_20 
REMARK    9  A    between atoms: C12_22  and  O9_23 
REMARK   10  A    between atoms: C14_27  and  O11_28 
REMARK   11  A    between atoms: O11_28  and  C15_29 
REMARK   12  A    between atoms: C19_35  and  O14_36 
REMARK   13  A    between atoms: C20_38  and  O15_39 
REMARK   14  A    between atoms: C21_41  and  O16_42 
REMARK   15  A    between atoms: C22_44  and  O17_45 
REMARK   16  A    between atoms: C23_47  and  O18_48 
ROOT
HETATM    1  C4  UNL     1      -2.145  -0.855   0.327  1.00  0.00     0.211 C 
HETATM    2  C5  UNL     1      -0.641  -0.677   0.050  1.00  0.00     0.295 C 
HETATM    3  O13 UNL     1      -0.335  -0.584  -1.272  1.00  0.00    -0.351 OA
HETATM    4  C17 UNL     1      -0.711  -1.705  -1.969  1.00  0.00     0.152 C 
HETATM    5  C18 UNL     1       0.216  -2.851  -1.599  1.00  0.00     0.042 C 
HETATM    6  C19 UNL     1      -2.163  -2.073  -1.808  1.00  0.00     0.178 C 
HETATM    7  C20 UNL     1      -2.520  -2.163  -0.344  1.00  0.00     0.183 C 
ENDROOT
BRANCH   2   8
HETATM    8  O3  UNL     1       0.122  -1.508   0.820  1.00  0.00    -0.324 OA
BRANCH   8   9
HETATM    9  C6  UNL     1       0.822  -0.913   1.832  1.00  0.00     0.320 C 
HETATM   10  O4  UNL     1       0.542  -1.442   3.091  1.00  0.00    -0.332 OA
HETATM   11  C7  UNL     1       1.267  -2.626   3.084  1.00  0.00     0.344 C 
HETATM   12  O5  UNL     1       2.347  -2.487   2.232  1.00  0.00    -0.332 OA
HETATM   13  C8  UNL     1       2.318  -1.139   1.796  1.00  0.00     0.318 C 
BRANCH  13  14
HETATM   14  O6  UNL     1       2.888  -1.099   0.554  1.00  0.00    -0.348 OA
BRANCH  14  15
HETATM   15  C9  UNL     1       4.011  -0.287   0.551  1.00  0.00     0.167 C 
HETATM   16  C10 UNL     1       5.256  -1.119   0.321  1.00  0.00     0.179 C 
HETATM   17  C11 UNL     1       6.483  -0.305   0.524  1.00  0.00     0.180 C 
HETATM   18  C12 UNL     1       6.310   1.168   0.295  1.00  0.00     0.179 C 
HETATM   19  C13 UNL     1       5.238   1.495  -0.702  1.00  0.00     0.167 C 
HETATM   20  O10 UNL     1       5.308   0.858  -1.911  1.00  0.00    -0.352 OA
HETATM   21  C16 UNL     1       3.905   0.885  -0.358  1.00  0.00     0.105 C 
HETATM   22  C14 UNL     1       3.934   0.612  -1.829  1.00  0.00     0.278 C 
BRANCH  16  23
HETATM   23  O7  UNL     1       5.218  -1.830  -0.870  1.00  0.00    -0.390 OA
ATOM     24  H7  UNL     1       5.999  -2.352  -1.014  1.00  0.00     0.210 HD
ENDBRANCH  16  23
BRANCH  17  25
HETATM   25  O8  UNL     1       7.509  -0.848  -0.278  1.00  0.00    -0.390 OA
ATOM     26  H8  UNL     1       8.293  -0.328  -0.148  1.00  0.00     0.210 HD
ENDBRANCH  17  25
BRANCH  18  27
HETATM   27  O9  UNL     1       6.043   1.871   1.468  1.00  0.00    -0.390 OA
ATOM     28  H9  UNL     1       5.933   2.803   1.323  1.00  0.00     0.210 HD
ENDBRANCH  18  27
BRANCH  22  29
HETATM   29  O11 UNL     1       3.143   1.562  -2.520  1.00  0.00    -0.296 OA
BRANCH  29  30
HETATM   30  C15 UNL     1       2.192   1.184  -3.445  1.00  0.00     0.400 C 
HETATM   31  O12 UNL     1       2.067  -0.058  -3.645  1.00  0.00    -0.276 OA
ENDBRANCH  29  30
ENDBRANCH  22  29
ENDBRANCH  14  15
ENDBRANCH  13  14
ENDBRANCH   8   9
ENDBRANCH   2   8
BRANCH   1  32
HETATM   32  O2  UNL     1      -2.878   0.135  -0.295  1.00  0.00    -0.346 OA
BRANCH  32  33
HETATM   33  C3  UNL     1      -3.628   0.928   0.539  1.00  0.00     0.292 C 
HETATM   34  O1  UNL     1      -4.994   0.830   0.220  1.00  0.00    -0.351 OA
HETATM   35  C2  UNL     1      -5.793   1.494   1.123  1.00  0.00     0.152 C 
HETATM   36  C1  UNL     1      -7.227   1.080   0.888  1.00  0.00     0.042 C 
HETATM   37  C23 UNL     1      -5.598   2.985   0.953  1.00  0.00     0.178 C 
HETATM   38  C22 UNL     1      -4.400   3.288   0.083  1.00  0.00     0.183 C 
HETATM   39  C21 UNL     1      -3.241   2.379   0.358  1.00  0.00     0.204 C 
BRANCH  37  40
HETATM   40  O18 UNL     1      -6.726   3.470   0.287  1.00  0.00    -0.390 OA
ATOM     41  H18 UNL     1      -6.604   4.406   0.180  1.00  0.00     0.210 HD
ENDBRANCH  37  40
BRANCH  38  42
HETATM   42  O17 UNL     1      -4.013   4.602   0.352  1.00  0.00    -0.390 OA
ATOM     43  H17 UNL     1      -4.748   5.178   0.178  1.00  0.00     0.210 HD
ENDBRANCH  38  42
BRANCH  39  44
HETATM   44  O16 UNL     1      -2.347   2.521  -0.729  1.00  0.00    -0.388 OA
ATOM     45  H16 UNL     1      -2.104   3.432  -0.843  1.00  0.00     0.210 HD
ENDBRANCH  39  44
ENDBRANCH  32  33
ENDBRANCH   1  32
BRANCH   7  46
HETATM   46  O15 UNL     1      -3.874  -2.451  -0.178  1.00  0.00    -0.390 OA
ATOM     47  H15 UNL     1      -4.109  -3.270  -0.598  1.00  0.00     0.210 HD
ENDBRANCH   7  46
BRANCH   6  48
HETATM   48  O14 UNL     1      -2.336  -3.315  -2.419  1.00  0.00    -0.390 OA
ATOM     49  H14 UNL     1      -3.252  -3.547  -2.317  1.00  0.00     0.210 HD
ENDBRANCH   6  48
TORSDOF 16
