REMARK  2 active torsions:
REMARK  status: ('A' for Active; 'I' for Inactive)
REMARK    1  A    between atoms: C3_3  and  C4_4 
REMARK    2  A    between atoms: C5_7  and  C6_8 
ROOT
HETATM    1  C1  UNL     1      -2.911   2.101   0.302  1.00  0.00     0.030 C 
HETATM    2  C2  UNL     1      -2.225   1.324   1.167  1.00  0.00     0.035 A 
HETATM    3  C3  UNL     1      -1.395   0.392   0.686  1.00  0.00     0.074 A 
HETATM    4  N3  UNL     1      -1.098  -0.607   1.613  1.00  0.00    -0.339 N 
ATOM      5  H3  UNL     1      -0.478  -1.365   1.329  1.00  0.00     0.167 HD
HETATM    6  C13 UNL     1      -1.580  -0.617   2.836  1.00  0.00     0.120 A 
HETATM    7  C14 UNL     1      -2.419   0.352   3.318  1.00  0.00     0.059 A 
HETATM    8  C15 UNL     1      -2.763   1.371   2.454  1.00  0.00     0.197 A 
HETATM    9  O1  UNL     1      -3.519   2.288   2.813  1.00  0.00    -0.286 OA
HETATM   10  C16 UNL     1      -2.935   0.307   4.694  1.00  0.00     0.021 A 
HETATM   11  C17 UNL     1      -2.582  -0.687   5.483  1.00  0.00     0.018 A 
HETATM   12  C18 UNL     1      -1.689  -1.710   4.955  1.00  0.00     0.090 A 
HETATM   13  N4  UNL     1      -1.239  -1.668   3.749  1.00  0.00    -0.351 N 
ATOM     14  H4  UNL     1      -0.616  -2.411   3.432  1.00  0.00     0.166 HD
ENDROOT
BRANCH   3  15
HETATM   15  C4  UNL     1      -0.577   0.502  -0.363  1.00  0.00     0.066 A 
HETATM   16  N1  UNL     1       0.179  -0.577  -0.768  1.00  0.00    -0.352 N 
HETATM   17  C5  UNL     1       1.076  -0.271  -1.675  1.00  0.00     0.057 A 
ATOM     18  H1  UNL     1       0.053  -1.520  -0.399  1.00  0.00     0.166 HD
HETATM   19  C10 UNL     1       0.968   1.059  -1.933  1.00  0.00     0.040 A 
HETATM   20  C11 UNL     1      -0.074   1.537  -1.097  1.00  0.00    -0.031 A 
HETATM   21  C12 UNL     1      -0.296   3.000  -1.062  1.00  0.00     0.050 C 
BRANCH  17  22
HETATM   22  C6  UNL     1       1.957  -1.111  -2.263  1.00  0.00     0.046 C 
HETATM   23  C7  UNL     1       1.991  -2.564  -1.905  1.00  0.00     0.140 C 
HETATM   24  S1  UNL     1       3.823  -2.751  -2.091  1.00  0.00    -0.111 SA
HETATM   25  C8  UNL     1       3.954  -1.445  -3.334  1.00  0.00     0.043 C 
HETATM   26  C9  UNL     1       5.124  -1.286  -4.272  1.00  0.00     0.076 C 
HETATM   27  N2  UNL     1       2.911  -0.758  -3.228  1.00  0.00    -0.355 N 
ATOM     28  H2  UNL     1       2.758   0.047  -3.836  1.00  0.00     0.166 HD
ENDBRANCH  17  22
ENDBRANCH   3  15
TORSDOF 2
