REMARK  5 active torsions:
REMARK  status: ('A' for Active; 'I' for Inactive)
REMARK    1  A    between atoms: C3_3  and  C5_5 
REMARK       I    between atoms: N1_20  and  C19_21 
REMARK    2  A    between atoms: C19_21  and  O3_23 
REMARK    3  A    between atoms: O3_23  and  C20_24 
REMARK    4  A    between atoms: C24_28  and  O4_29 
REMARK    5  A    between atoms: C26_32  and  O5_33 
ROOT
HETATM    1  C1  UNL     1       8.423   0.936   2.169  1.00  0.00     0.017 C 
HETATM    2  C2  UNL     1       7.620   0.349   2.871  1.00  0.00    -0.081 C 
HETATM    3  C3  UNL     1       6.683  -0.328   3.719  1.00  0.00     0.016 C 
HETATM    4  C4  UNL     1       6.969  -0.538   5.016  1.00  0.00     0.030 C 
ENDROOT
BRANCH   3   5
HETATM    5  C5  UNL     1       5.375  -0.827   3.225  1.00  0.00     0.227 C 
HETATM    6  C6  UNL     1       4.570   0.343   2.676  1.00  0.00     0.048 C 
HETATM    7  C7  UNL     1       4.149  -0.171   1.305  1.00  0.00     0.048 C 
HETATM    8  C8  UNL     1       5.227  -1.094   0.934  1.00  0.00     0.193 C 
HETATM    9  C16 UNL     1       3.792   0.947   0.428  1.00  0.00     0.059 C 
HETATM   10  C9  UNL     1       4.829  -2.173  -0.059  1.00  0.00     0.037 C 
HETATM   11  N2  UNL     1       5.516  -1.782   2.178  1.00  0.00    -0.062 N 
HETATM   12  C10 UNL     1       5.849  -2.264  -1.190  1.00  0.00     0.029 C 
HETATM   13  C11 UNL     1       5.164  -2.388  -2.494  1.00  0.00    -0.031 C 
HETATM   14  C12 UNL     1       4.829  -1.363  -3.270  1.00  0.00    -0.031 C 
HETATM   15  C13 UNL     1       5.098   0.060  -2.927  1.00  0.00     0.027 C 
HETATM   16  C14 UNL     1       4.017   0.644  -2.053  1.00  0.00     0.006 C 
HETATM   17  C15 UNL     1       4.651   1.192  -0.774  1.00  0.00     0.033 C 
ATOM     18  H22 UNL     1       6.425  -2.245   2.178  1.00  0.00     0.278 HD
ATOM     19  H21 UNL     1       4.945  -2.616   2.317  1.00  0.00     0.278 HD
HETATM   20  C17 UNL     1       3.682   2.265   1.222  1.00  0.00     0.135 C 
HETATM   21  N1  UNL     1       2.393   1.160   0.192  1.00  0.00    -0.253 N 
HETATM   22  C18 UNL     1       2.667   2.549   0.142  1.00  0.00     0.231 C 
HETATM   23  O1  UNL     1       2.252   3.525  -0.501  1.00  0.00    -0.273 OA
HETATM   24  C19 UNL     1       1.204   0.426   0.052  1.00  0.00     0.370 C 
HETATM   25  O2  UNL     1       1.201  -0.833   0.133  1.00  0.00    -0.238 OA
BRANCH  24  26
HETATM   26  O3  UNL     1      -0.035   1.008  -0.181  1.00  0.00    -0.297 OA
BRANCH  26  27
HETATM   27  C20 UNL     1      -1.243   0.245  -0.321  1.00  0.00     0.142 C 
HETATM   28  C21 UNL     1      -2.083   0.706   0.881  1.00  0.00     0.034 C 
HETATM   29  C22 UNL     1      -3.372   0.026   1.021  1.00  0.00     0.016 C 
HETATM   30  C23 UNL     1      -4.518   0.300   0.143  1.00  0.00    -0.003 C 
HETATM   31  C24 UNL     1      -5.517   1.128   0.971  1.00  0.00     0.130 C 
HETATM   32  C29 UNL     1      -5.243  -1.022  -0.088  1.00  0.00     0.003 C 
HETATM   33  C37 UNL     1      -4.203   0.946  -1.168  1.00  0.00    -0.029 C 
HETATM   34  C25 UNL     1      -6.249   0.208   1.965  1.00  0.00     0.064 C 
HETATM   35  C26 UNL     1      -7.274  -0.638   1.293  1.00  0.00     0.124 C 
HETATM   36  C27 UNL     1      -6.731  -0.944  -0.109  1.00  0.00     0.015 C 
HETATM   37  C28 UNL     1      -7.208  -2.370  -0.420  1.00  0.00     0.013 C 
HETATM   38  C30 UNL     1      -4.628  -1.867  -1.152  1.00  0.00     0.006 C 
HETATM   39  C31 UNL     1      -3.346  -1.358  -1.735  1.00  0.00     0.007 C 
HETATM   40  C32 UNL     1      -3.210   0.096  -1.907  1.00  0.00     0.005 C 
HETATM   41  C33 UNL     1      -1.854   0.661  -1.596  1.00  0.00    -0.013 C 
HETATM   42  C34 UNL     1      -0.916   0.346  -2.730  1.00  0.00     0.018 C 
HETATM   43  C35 UNL     1      -2.117   2.166  -1.472  1.00  0.00     0.013 C 
HETATM   44  C36 UNL     1      -3.580   2.297  -1.109  1.00  0.00     0.011 C 
HETATM   45  C38 UNL     1      -5.407   1.103  -2.075  1.00  0.00     0.016 C 
BRANCH  31  46
HETATM   46  O4  UNL     1      -4.812   1.998   1.841  1.00  0.00    -0.395 OA
ATOM     47  H4  UNL     1      -5.429   2.509   2.352  1.00  0.00     0.210 HD
ENDBRANCH  31  46
BRANCH  35  48
HETATM   48  O5  UNL     1      -8.482   0.086   1.172  1.00  0.00    -0.395 OA
ATOM     49  H5  UNL     1      -9.136  -0.454   0.743  1.00  0.00     0.210 HD
ENDBRANCH  35  48
ENDBRANCH  26  27
ENDBRANCH  24  26
ENDBRANCH   3   5
TORSDOF 5
