REMARK  8 active torsions:
REMARK  status: ('A' for Active; 'I' for Inactive)
REMARK    1  A    between atoms: N1_2  and  C2_3 
REMARK    2  A    between atoms: C2_3  and  C3_4 
REMARK    3  A    between atoms: C3_4  and  O2_6 
REMARK    4  A    between atoms: O2_6  and  C4_7 
REMARK    5  A    between atoms: C4_7  and  C5_8 
REMARK    6  A    between atoms: C12_15  and  C13_16 
REMARK       I    between atoms: C13_16  and  N2_18 
REMARK    7  A    between atoms: N2_18  and  C14_20 
REMARK    8  A    between atoms: C23_30  and  C24_31 
ROOT
HETATM    1  C1  UNL     1      -1.782  -0.794   1.078  1.00  0.00     0.279 C 
HETATM    2  N1  UNL     1      -1.527  -0.933  -0.326  1.00  0.00    -0.035 N 
HETATM    3  C9  UNL     1      -1.232   0.238  -1.049  1.00  0.00     0.196 C 
HETATM    4  C10 UNL     1      -0.410   1.286  -0.416  1.00  0.00     0.035 C 
HETATM    5  C11 UNL     1       0.995   1.069  -0.103  1.00  0.00     0.022 C 
HETATM    6  C12 UNL     1       1.564  -0.313  -0.236  1.00  0.00     0.055 C 
HETATM    7  C19 UNL     1       1.626  -0.797  -1.650  1.00  0.00     0.027 C 
HETATM    8  C20 UNL     1       0.238  -1.359  -1.872  1.00  0.00     0.021 C 
HETATM    9  C21 UNL     1      -0.572  -0.163  -2.347  1.00  0.00     0.040 C 
HETATM   10  C22 UNL     1      -0.299  -1.705  -0.500  1.00  0.00     0.213 C 
HETATM   11  C23 UNL     1       0.781  -1.345   0.480  1.00  0.00     0.122 C 
ENDROOT
BRANCH   2  12
HETATM   12  C2  UNL     1      -2.612  -1.722  -0.841  1.00  0.00     0.284 C 
BRANCH  12  13
HETATM   13  C3  UNL     1      -3.938  -1.146  -0.867  1.00  0.00     0.306 C 
HETATM   14  O1  UNL     1      -4.876  -1.890  -1.331  1.00  0.00    -0.259 OA
BRANCH  13  15
HETATM   15  O2  UNL     1      -4.345   0.105  -0.460  1.00  0.00    -0.317 OA
BRANCH  15  16
HETATM   16  C4  UNL     1      -5.640   0.639  -0.494  1.00  0.00     0.183 C 
BRANCH  16  17
HETATM   17  C5  UNL     1      -6.532  -0.207   0.386  1.00  0.00     0.010 C 
HETATM   18  C6  UNL     1      -5.987  -0.186   1.820  1.00  0.00     0.007 C 
HETATM   19  C7  UNL     1      -6.971   0.901   2.190  1.00  0.00     0.001 C 
HETATM   20  C8  UNL     1      -7.736   0.549   0.934  1.00  0.00     0.007 C 
ENDBRANCH  16  17
ENDBRANCH  15  16
ENDBRANCH  13  15
ENDBRANCH  12  13
ENDBRANCH   2  12
BRANCH  11  21
HETATM   21  C24 UNL     1       1.461  -2.565   0.902  1.00  0.00     0.226 C 
HETATM   22  O5  UNL     1       1.547  -2.902   2.100  1.00  0.00    -0.279 OA
HETATM   23 CL1  UNL     1       2.231  -3.699  -0.188  1.00  0.00    -0.043 Cl
ENDBRANCH  11  21
BRANCH   6  24
HETATM   24  C13 UNL     1       2.975  -0.208   0.219  1.00  0.00     0.227 C 
HETATM   25  O3  UNL     1       3.332  -0.874   1.199  1.00  0.00    -0.273 OA
HETATM   26  N2  UNL     1       3.925   0.636  -0.440  1.00  0.00    -0.356 N 
ATOM     27  H2  UNL     1       3.608   1.175  -1.246  1.00  0.00     0.162 HD
BRANCH  26  28
HETATM   28  C14 UNL     1       5.283   0.770  -0.042  1.00  0.00     0.088 C 
HETATM   29  C15 UNL     1       5.630   2.169   0.450  1.00  0.00     0.051 C 
HETATM   30  C16 UNL     1       6.943   2.037   1.199  1.00  0.00     0.169 C 
HETATM   31  O4  UNL     1       7.568   0.820   0.938  1.00  0.00    -0.391 OA
HETATM   32  C17 UNL     1       7.674   0.595  -0.446  1.00  0.00     0.169 C 
HETATM   33  C18 UNL     1       6.294   0.386  -1.068  1.00  0.00     0.051 C 
ENDBRANCH  26  28
ENDBRANCH   6  24
TORSDOF 8
