REMARK  5 active torsions:
REMARK  status: ('A' for Active; 'I' for Inactive)
REMARK    1  A    between atoms: C6_11  and  C7_12 
REMARK       I    between atoms: C7_12  and  N3_14 
REMARK    2  A    between atoms: C11_20  and  O3_21 
REMARK    3  A    between atoms: C12_23  and  C13_24 
REMARK    4  A    between atoms: C13_24  and  C14_25 
REMARK    5  A    between atoms: C14_25  and  C15_26 
ROOT
HETATM    1  C7  UNL     1      -0.822  -0.198   0.107  1.00  0.00     0.238 C 
HETATM    2  O1  UNL     1      -0.653   0.950   0.662  1.00  0.00    -0.272 OA
HETATM    3  N3  UNL     1       0.250  -0.782  -0.559  1.00  0.00    -0.277 N 
HETATM    4  C8  UNL     1       0.082  -2.077  -1.147  1.00  0.00     0.251 C 
HETATM    5  O2  UNL     1      -0.994  -2.525  -1.587  1.00  0.00    -0.268 OA
HETATM    6  C9  UNL     1       1.250  -2.973  -1.255  1.00  0.00     0.092 C 
HETATM    7  C10 UNL     1       2.406  -2.558  -0.811  1.00  0.00     0.024 C 
HETATM    8 BR1  UNL     1       3.917  -3.707  -0.945  1.00  0.00    -0.053 Br
HETATM    9  C11 UNL     1       2.603  -1.216  -0.207  1.00  0.00     0.181 C 
HETATM   10  C12 UNL     1       1.567  -0.209  -0.711  1.00  0.00     0.130 C 
ENDROOT
BRANCH   1  11
HETATM   11  C6  UNL     1      -2.193  -0.711   0.285  1.00  0.00     0.146 C 
HETATM   12  C2  UNL     1      -2.624  -0.271   1.660  1.00  0.00     0.000 C 
HETATM   13  C1  UNL     1      -1.721  -0.669   2.815  1.00  0.00     0.064 C 
HETATM   14  N1  UNL     1      -3.671   0.399   1.900  1.00  0.00    -0.340 N 
HETATM   15  C3  UNL     1      -4.565   0.810   0.891  1.00  0.00     0.172 C 
ATOM     16  H1  UNL     1      -3.877   0.653   2.866  1.00  0.00     0.167 HD
HETATM   17  S1  UNL     1      -5.919   1.686   1.270  1.00  0.00    -0.041 SA
HETATM   18  N2  UNL     1      -4.273   0.456  -0.435  1.00  0.00    -0.362 N 
HETATM   19  C4  UNL     1      -3.025  -0.139  -0.809  1.00  0.00     0.098 C 
ATOM     20  H2  UNL     1      -4.973   0.628  -1.157  1.00  0.00     0.162 HD
HETATM   21  C5  UNL     1      -2.274   0.948  -1.594  1.00  0.00     0.033 C 
ENDBRANCH   1  11
BRANCH  10  22
HETATM   22  C13 UNL     1       1.794   1.108  -0.083  1.00  0.00     0.029 C 
BRANCH  22  23
HETATM   23  C14 UNL     1       3.243   1.558  -0.350  1.00  0.00     0.013 C 
BRANCH  23  24
HETATM   24  C15 UNL     1       3.374   2.934   0.327  1.00  0.00     0.085 C 
HETATM   25 BR2  UNL     1       5.147   3.611   0.066  1.00  0.00    -0.097 Br
ENDBRANCH  23  24
ENDBRANCH  22  23
ENDBRANCH  10  22
BRANCH   9  26
HETATM   26  O3  UNL     1       2.561  -1.361   1.166  1.00  0.00    -0.388 OA
ATOM     27  H3  UNL     1       2.687  -0.502   1.552  1.00  0.00     0.210 HD
ENDBRANCH   9  26
TORSDOF 5
