REMARK  7 active torsions:
REMARK  status: ('A' for Active; 'I' for Inactive)
REMARK    1  A    between atoms: C2_2  and  C3_3 
REMARK    2  A    between atoms: C3_3  and  C4_5 
REMARK    3  A    between atoms: C4_5  and  N1_6 
REMARK    4  A    between atoms: C4_5  and  C6_10 
REMARK       I    between atoms: C6_10  and  N2_12 
REMARK       I    between atoms: N2_12  and  C7_14 
REMARK    5  A    between atoms: C7_14  and  C8_16 
REMARK    6  A    between atoms: C8_16  and  C9_17 
REMARK    7  A    between atoms: C10_18  and  C11_19 
ROOT
HETATM    1  C6  UNL     1      -3.791   0.108   0.550  1.00  0.00     0.256 C 
HETATM    2  O1  UNL     1      -3.378  -0.513   1.559  1.00  0.00    -0.271 OA
HETATM    3  N2  UNL     1      -2.900   0.600  -0.427  1.00  0.00    -0.295 N 
ATOM      4  H2  UNL     1      -3.269   1.100  -1.236  1.00  0.00     0.171 HD
HETATM    5  C7  UNL     1      -1.520   0.414  -0.305  1.00  0.00     0.235 C 
HETATM    6  O2  UNL     1      -0.788   0.898  -1.243  1.00  0.00    -0.272 OA
ENDROOT
BRANCH   5   7
HETATM    7  C8  UNL     1      -0.839  -0.295   0.817  1.00  0.00     0.197 C 
BRANCH   7   8
HETATM    8  C9  UNL     1       0.629  -0.276   0.579  1.00  0.00    -0.095 C 
HETATM    9  C10 UNL     1       1.818  -0.279   0.378  1.00  0.00    -0.074 C 
BRANCH   9  10
HETATM   10  C11 UNL     1       3.258  -0.304   0.117  1.00  0.00     0.202 C 
HETATM   11  C12 UNL     1       3.747  -1.727  -0.191  1.00  0.00     0.061 C 
HETATM   12  C13 UNL     1       4.411  -1.731  -1.551  1.00  0.00     0.071 C 
HETATM   13 BR2  UNL     1       3.101  -1.491  -2.946  1.00  0.00    -0.090 Br
HETATM   14  C14 UNL     1       5.456  -0.621  -1.610  1.00  0.00     0.055 A 
HETATM   15  C15 UNL     1       6.612  -1.115  -0.833  1.00  0.00    -0.018 A 
HETATM   16  C20 UNL     1       4.898   0.681  -1.172  1.00  0.00     0.155 A 
HETATM   17  C16 UNL     1       7.115  -0.454   0.178  1.00  0.00     0.003 A 
HETATM   18  C17 UNL     1       6.572   0.824   0.614  1.00  0.00    -0.064 A 
HETATM   19  C18 UNL     1       7.193   1.541   1.786  1.00  0.00     0.048 C 
HETATM   20  C19 UNL     1       5.547   1.322  -0.030  1.00  0.00     0.012 A 
HETATM   21  O3  UNL     1       3.520   0.529  -0.970  1.00  0.00    -0.364 OA
ENDBRANCH   9  10
ENDBRANCH   7   8
ENDBRANCH   5   7
BRANCH   1  22
HETATM   22  C4  UNL     1      -5.280   0.310   0.416  1.00  0.00     0.291 C 
BRANCH  22  23
HETATM   23  C3  UNL     1      -5.743  -0.372  -0.857  1.00  0.00     0.097 C 
HETATM   24 BR1  UNL     1      -5.341  -2.267  -0.656  1.00  0.00    -0.088 Br
BRANCH  23  25
HETATM   25  C2  UNL     1      -7.218  -0.238  -1.065  1.00  0.00     0.014 C 
HETATM   26  C1  UNL     1      -7.631   1.210  -1.233  1.00  0.00     0.006 C 
ENDBRANCH  23  25
ENDBRANCH  22  23
BRANCH  22  27
HETATM   27  N1  UNL     1      -5.948  -0.284   1.536  1.00  0.00    -0.065 N 
HETATM   28  C5  UNL     1      -5.504   0.375   2.760  1.00  0.00     0.267 C 
ATOM     29  H12 UNL     1      -6.963  -0.271   1.434  1.00  0.00     0.277 HD
ATOM     30  H11 UNL     1      -5.821  -1.295   1.572  1.00  0.00     0.277 HD
ENDBRANCH  22  27
ENDBRANCH   1  22
TORSDOF 7
