REMARK  13 active torsions:
REMARK  status: ('A' for Active; 'I' for Inactive)
REMARK    1  A    between atoms: C2_2  and  O1_3 
REMARK    2  A    between atoms: O1_3  and  C3_4 
REMARK       I    between atoms: C3_4  and  N1_6 
REMARK    3  A    between atoms: C6_9  and  C7_10 
REMARK    4  A    between atoms: C7_10  and  C8_11 
REMARK    5  A    between atoms: C8_11  and  N2_12 
REMARK    6  A    between atoms: C8_11  and  C21_33 
REMARK       I    between atoms: N2_12  and  C9_14 
REMARK    7  A    between atoms: C9_14  and  C10_16 
REMARK       I    between atoms: N3_20  and  C14_21 
REMARK       I    between atoms: C14_21  and  N4_23 
REMARK    8  A    between atoms: N4_23  and  C15_25 
REMARK    9  A    between atoms: C15_25  and  C16_26 
REMARK   10  A    between atoms: C15_25  and  C17_29 
REMARK   11  A    between atoms: C17_29  and  C19_31 
REMARK   12  A    between atoms: C21_33  and  C22_35 
REMARK   13  A    between atoms: C22_35  and  C23_36 
ROOT
HETATM    1  N2  UNL     1       0.534   2.282  -0.339  1.00  0.00    -0.348 N 
ATOM      2  H2  UNL     1       0.417   3.004  -1.050  1.00  0.00     0.163 HD
HETATM    3  C9  UNL     1      -0.614   1.803   0.371  1.00  0.00     0.241 C 
HETATM    4  O3  UNL     1      -0.400   0.915   1.207  1.00  0.00    -0.271 OA
ENDROOT
BRANCH   1   5
HETATM    5  C8  UNL     1       1.897   1.746  -0.058  1.00  0.00     0.154 C 
BRANCH   5   6
HETATM    6  C7  UNL     1       2.066   0.670  -1.066  1.00  0.00     0.039 C 
BRANCH   6   7
HETATM    7  C6  UNL     1       3.299  -0.136  -1.087  1.00  0.00     0.007 C 
HETATM    8  C5  UNL     1       3.557  -0.881   0.211  1.00  0.00     0.026 C 
HETATM    9  C4  UNL     1       4.608  -1.886  -0.295  1.00  0.00     0.128 C 
HETATM   10  N1  UNL     1       4.075  -2.263  -1.594  1.00  0.00    -0.328 N 
HETATM   11  C3  UNL     1       4.518  -3.407  -2.316  1.00  0.00     0.362 C 
HETATM   12  C26 UNL     1       3.061  -1.356  -2.026  1.00  0.00     0.132 C 
HETATM   13  O2  UNL     1       4.034  -3.697  -3.448  1.00  0.00    -0.238 OA
BRANCH  11  14
HETATM   14  O1  UNL     1       5.495  -4.279  -1.849  1.00  0.00    -0.304 OA
BRANCH  14  15
HETATM   15  C2  UNL     1       5.893  -5.419  -2.633  1.00  0.00     0.176 C 
HETATM   16  C1  UNL     1       4.656  -6.259  -2.832  1.00  0.00     0.034 C 
ENDBRANCH  14  15
ENDBRANCH  11  14
ENDBRANCH   6   7
ENDBRANCH   5   6
BRANCH   5  17
HETATM   17  C21 UNL     1       2.845   2.846  -0.028  1.00  0.00     0.149 C 
HETATM   18  O7  UNL     1       2.418   3.996  -0.289  1.00  0.00    -0.296 OA
BRANCH  17  19
HETATM   19  C22 UNL     1       4.272   2.773   0.283  1.00  0.00     0.084 C 
BRANCH  19  20
HETATM   20  C23 UNL     1       4.915   4.177   0.322  1.00  0.00    -0.016 C 
HETATM   21  C24 UNL     1       4.255   5.041   1.378  1.00  0.00     0.010 C 
HETATM   22  C25 UNL     1       6.380   4.035   0.697  1.00  0.00     0.010 C 
ENDBRANCH  19  20
ENDBRANCH  17  19
ENDBRANCH   5  17
ENDBRANCH   1   5
BRANCH   3  23
HETATM   23  C10 UNL     1      -1.921   2.366   0.076  1.00  0.00     0.181 C 
HETATM   24  C11 UNL     1      -1.844   2.982  -1.326  1.00  0.00     0.037 C 
HETATM   25  C12 UNL     1      -3.316   3.265  -1.561  1.00  0.00     0.022 C 
HETATM   26  C13 UNL     1      -4.015   2.121  -0.919  1.00  0.00     0.129 C 
HETATM   27  N3  UNL     1      -3.083   1.592   0.130  1.00  0.00    -0.321 N 
HETATM   28  C14 UNL     1      -3.513   0.520   0.918  1.00  0.00     0.319 C 
HETATM   29  O4  UNL     1      -2.830   0.050   1.836  1.00  0.00    -0.247 OA
HETATM   30  N4  UNL     1      -4.787  -0.105   0.701  1.00  0.00    -0.328 N 
ATOM     31  H4  UNL     1      -5.414   0.231  -0.029  1.00  0.00     0.165 HD
BRANCH  30  32
HETATM   32  C15 UNL     1      -5.172  -1.251   1.562  1.00  0.00     0.191 C 
BRANCH  32  33
HETATM   33  C16 UNL     1      -5.170  -2.453   0.691  1.00  0.00     0.197 C 
HETATM   34  O5  UNL     1      -5.616  -2.373  -0.504  1.00  0.00    -0.646 OA
HETATM   35  O6  UNL     1      -4.709  -3.697   1.058  1.00  0.00    -0.646 OA
ENDBRANCH  32  33
BRANCH  32  36
HETATM   36  C17 UNL     1      -6.469  -0.948   2.235  1.00  0.00     0.014 C 
HETATM   37  C18 UNL     1      -7.597  -0.720   1.247  1.00  0.00     0.012 C 
BRANCH  36  38
HETATM   38  C19 UNL     1      -6.918  -1.808   3.341  1.00  0.00     0.002 C 
HETATM   39  C20 UNL     1      -7.162  -3.260   3.035  1.00  0.00     0.005 C 
ENDBRANCH  36  38
ENDBRANCH  32  36
ENDBRANCH  30  32
ENDBRANCH   3  23
TORSDOF 13
