REMARK  9 active torsions:
REMARK  status: ('A' for Active; 'I' for Inactive)
REMARK    1  A    between atoms: C3_4  and  N2_5 
REMARK    2  A    between atoms: N2_5  and  C4_7 
REMARK    3  A    between atoms: C4_7  and  C5_8 
REMARK    4  A    between atoms: C5_8  and  C6_9 
REMARK    5  A    between atoms: C12_17  and  N4_18 
REMARK    6  A    between atoms: N4_18  and  C13_20 
REMARK    7  A    between atoms: C13_20  and  C14_21 
REMARK    8  A    between atoms: C14_21  and  C15_22 
REMARK    9  A    between atoms: C15_22  and  O1_23 
ROOT
HETATM    1  C1  UNL     1       2.135  -2.918   0.502  1.00  0.00     0.177 C 
HETATM    2  N1  UNL     1       1.502  -1.746  -0.071  1.00  0.00    -0.290 N 
HETATM    3  C2  UNL     1       0.209  -1.788  -0.510  1.00  0.00     0.158 A 
HETATM    4  C3  UNL     1      -0.405  -0.685  -1.056  1.00  0.00     0.134 A 
HETATM    5  N3  UNL     1       0.304   0.475  -1.157  1.00  0.00    -0.174 N 
ATOM      6  H3  UNL     1      -0.124   1.310  -1.557  1.00  0.00     0.186 HD
HETATM    7  C12 UNL     1       1.566   0.501  -0.724  1.00  0.00     0.694 A 
HETATM    8  N5  UNL     1       2.129  -0.596  -0.198  1.00  0.00    -0.131 N 
ATOM      9  H5  UNL     1       3.096  -0.536   0.121  1.00  0.00     0.205 HD
ENDROOT
BRANCH   4  10
HETATM   10  N2  UNL     1      -1.609  -0.763  -1.454  1.00  0.00    -0.374 N 
ATOM     11  H2  UNL     1      -2.032   0.075  -1.853  1.00  0.00     0.161 HD
BRANCH  10  12
HETATM   12  C4  UNL     1      -2.415  -1.947  -1.381  1.00  0.00     0.126 C 
BRANCH  12  13
HETATM   13  C5  UNL     1      -3.060  -2.078   0.004  1.00  0.00     0.058 C 
BRANCH  13  14
HETATM   14  C6  UNL     1      -3.918  -0.905   0.265  1.00  0.00    -0.057 A 
HETATM   15  C7  UNL     1      -5.256  -0.964  -0.126  1.00  0.00     0.007 A 
HETATM   16  C8  UNL     1      -6.092   0.133   0.110  1.00  0.00     0.001 A 
HETATM   17  C9  UNL     1      -5.593   1.261   0.725  1.00  0.00     0.000 A 
HETATM   18  C10 UNL     1      -4.281   1.344   1.119  1.00  0.00     0.001 A 
HETATM   19  C11 UNL     1      -3.464   0.242   0.876  1.00  0.00     0.007 A 
ENDBRANCH  13  14
ENDBRANCH  12  13
ENDBRANCH  10  12
ENDBRANCH   4  10
BRANCH   7  20
HETATM   20  N4  UNL     1       2.196   1.630  -0.843  1.00  0.00    -0.225 N 
ATOM     21  H4  UNL     1       1.747   2.452  -1.247  1.00  0.00     0.177 HD
BRANCH  20  22
HETATM   22  C13 UNL     1       3.568   1.667  -0.375  1.00  0.00     0.140 C 
BRANCH  22  23
HETATM   23  C14 UNL     1       4.144   3.059  -0.446  1.00  0.00     0.046 C 
BRANCH  23  24
HETATM   24  C15 UNL     1       5.579   2.961   0.071  1.00  0.00     0.165 C 
BRANCH  24  25
HETATM   25  O1  UNL     1       5.612   2.496   1.375  1.00  0.00    -0.401 OA
ATOM     26  H1  UNL     1       6.504   2.435   1.696  1.00  0.00     0.209 HD
ENDBRANCH  24  25
ENDBRANCH  23  24
ENDBRANCH  22  23
ENDBRANCH  20  22
ENDBRANCH   7  20
TORSDOF 9
