REMARK  8 active torsions:
REMARK  status: ('A' for Active; 'I' for Inactive)
REMARK    1  A    between atoms: O1_2  and  C2_3 
REMARK       I    between atoms: C2_3  and  N1_5 
REMARK    2  A    between atoms: N1_5  and  C3_7 
REMARK    3  A    between atoms: C4_11  and  O3_12 
REMARK    4  A    between atoms: C4_11  and  C5_14 
REMARK    5  A    between atoms: C5_14  and  O5_16 
REMARK    6  A    between atoms: C7_18  and  O6_19 
REMARK    7  A    between atoms: C7_18  and  O7_21 
REMARK    8  A    between atoms: C10_25  and  N4_26 
ROOT
HETATM    1  C3  UNL     1       1.041  -0.478  -0.309  1.00  0.00     0.343 C 
HETATM    2  N2  UNL     1       0.048   0.513  -0.492  1.00  0.00    -0.001 N 
ATOM      3  H21 UNL     1      -0.300   0.497  -1.451  1.00  0.00     0.284 HD
ATOM      4  H22 UNL     1       0.465   1.444  -0.475  1.00  0.00     0.284 HD
HETATM    5  C4  UNL     1      -1.056   0.433   0.451  1.00  0.00     0.392 C 
HETATM    6  C7  UNL     1      -1.601  -0.924   0.609  1.00  0.00     0.317 C 
HETATM    7  N3  UNL     1      -0.587  -1.924   0.653  1.00  0.00    -0.334 N 
ATOM      8  H3  UNL     1      -0.797  -2.920   0.586  1.00  0.00     0.160 HD
HETATM    9  C10 UNL     1       0.723  -1.437   0.795  1.00  0.00     0.332 C 
ENDROOT
BRANCH   1  10
HETATM   10  N1  UNL     1       2.386   0.068  -0.200  1.00  0.00    -0.305 N 
HETATM   11  C2  UNL     1       3.410  -0.209  -1.144  1.00  0.00     0.361 C 
HETATM   12  O2  UNL     1       3.119  -0.966  -2.114  1.00  0.00    -0.238 OA
ATOM     13  H1  UNL     1       2.602   0.677   0.589  1.00  0.00     0.167 HD
BRANCH  11  14
HETATM   14  O1  UNL     1       4.687   0.308  -1.042  1.00  0.00    -0.309 OA
HETATM   15  C1  UNL     1       5.628  -0.033  -2.037  1.00  0.00     0.215 C 
ENDBRANCH  11  14
ENDBRANCH   1  10
BRANCH   9  16
HETATM   16  N4  UNL     1       1.681  -2.583   0.725  1.00  0.00    -0.055 N 
ATOM     17  H43 UNL     1       1.687  -3.031  -0.191  1.00  0.00     0.276 HD
ATOM     18  H42 UNL     1       2.655  -2.279   0.740  1.00  0.00     0.276 HD
ATOM     19  H41 UNL     1       1.464  -3.237   1.477  1.00  0.00     0.276 HD
ENDBRANCH   9  16
BRANCH   5  20
HETATM   20  O3  UNL     1      -0.454   0.814   1.691  1.00  0.00    -0.351 OA
ATOM     21  H3  UNL     1      -1.175   0.762   2.307  1.00  0.00     0.213 HD
ENDBRANCH   5  20
BRANCH   5  22
HETATM   22  C5  UNL     1      -1.968   1.534   0.127  1.00  0.00     0.331 C 
HETATM   23  O4  UNL     1      -2.883   1.566  -0.725  1.00  0.00    -0.259 OA
BRANCH  22  24
HETATM   24  O5  UNL     1      -1.845   2.757   0.841  1.00  0.00    -0.322 OA
HETATM   25  C6  UNL     1      -2.707   3.830   0.546  1.00  0.00     0.213 C 
ENDBRANCH  22  24
ENDBRANCH   5  22
BRANCH   6  26
HETATM   26  O6  UNL     1      -2.478  -1.353  -0.398  1.00  0.00    -0.339 OA
HETATM   27  C8  UNL     1      -2.024  -1.353  -1.665  1.00  0.00     0.207 C 
ENDBRANCH   6  26
BRANCH   6  28
HETATM   28  O7  UNL     1      -2.258  -1.070   1.860  1.00  0.00    -0.339 OA
HETATM   29  C9  UNL     1      -3.402  -0.406   2.053  1.00  0.00     0.207 C 
ENDBRANCH   6  28
TORSDOF 8
