REMARK  10 active torsions:
REMARK  status: ('A' for Active; 'I' for Inactive)
REMARK    1  A    between atoms: C2_2  and  C3_3 
REMARK       I    between atoms: C3_3  and  N1_5 
REMARK    2  A    between atoms: N1_5  and  C4_6 
REMARK    3  A    between atoms: C9_11  and  C10_12 
REMARK    4  A    between atoms: C10_12  and  O2_13 
REMARK    5  A    between atoms: C10_12  and  C11_15 
REMARK    6  A    between atoms: C12_17  and  N2_18 
REMARK    7  A    between atoms: C13_20  and  O3_21 
REMARK    8  A    between atoms: C13_20  and  C14_23 
REMARK    9  A    between atoms: C17_26  and  C18_27 
REMARK   10  A    between atoms: C21_35  and  O4_36 
ROOT
HETATM    1  C11 UNL     1      -1.380  -0.039   0.232  1.00  0.00     0.093 A 
HETATM    2  S1  UNL     1      -0.296  -0.775  -0.882  1.00  0.00    -0.047 SA
HETATM    3  C12 UNL     1       1.146  -0.793   0.207  1.00  0.00     0.153 A 
HETATM    4  N3  UNL     1       0.627  -0.273   1.208  1.00  0.00    -0.316 N 
ATOM      5  H3  UNL     1       1.244  -0.161   2.012  1.00  0.00     0.170 HD
HETATM    6  C21 UNL     1      -0.569   0.142   1.374  1.00  0.00     0.162 A 
ENDROOT
BRANCH   3   7
HETATM    7  N2  UNL     1       2.281  -1.264  -0.185  1.00  0.00    -0.317 N 
HETATM    8  C13 UNL     1       3.462  -1.458   0.231  1.00  0.00     0.152 C 
ATOM      9  H2  UNL     1       2.202  -1.587  -1.149  1.00  0.00     0.170 HD
BRANCH   8  10
HETATM   10  O3  UNL     1       3.327  -2.447   1.305  1.00  0.00    -0.345 OA
ATOM     11  H3  UNL     1       4.212  -2.592   1.617  1.00  0.00     0.219 HD
ENDBRANCH   8  10
BRANCH   8  12
HETATM   12  C14 UNL     1       4.831  -1.155   0.174  1.00  0.00     0.015 A 
HETATM   13  C15 UNL     1       5.307  -0.427  -0.948  1.00  0.00     0.016 A 
HETATM   14  C16 UNL     1       6.598  -0.008  -1.062  1.00  0.00     0.017 A 
HETATM   15  C17 UNL     1       7.503  -0.295  -0.055  1.00  0.00     0.048 A 
HETATM   16  C19 UNL     1       7.102  -1.003   1.054  1.00  0.00     0.017 A 
HETATM   17  C20 UNL     1       5.784  -1.412   1.136  1.00  0.00     0.016 A 
BRANCH  15  18
HETATM   18  C18 UNL     1       8.906   0.179  -0.150  1.00  0.00     0.417 C 
HETATM   19  F1  UNL     1       9.717  -0.534   0.701  1.00  0.00    -0.166 F 
HETATM   20  F2  UNL     1       8.925   1.527   0.137  1.00  0.00    -0.166 F 
HETATM   21  F3  UNL     1       9.318   0.058  -1.474  1.00  0.00    -0.166 F 
ENDBRANCH  15  18
ENDBRANCH   8  12
ENDBRANCH   3   7
BRANCH   1  22
HETATM   22  C10 UNL     1      -2.735   0.378   0.053  1.00  0.00     0.100 C 
BRANCH  22  23
HETATM   23  C9  UNL     1      -3.645   0.438  -1.054  1.00  0.00     0.039 A 
HETATM   24  C4  UNL     1      -4.913   1.017  -0.888  1.00  0.00     0.124 A 
HETATM   25  C5  UNL     1      -5.678   1.251  -2.059  1.00  0.00     0.046 A 
HETATM   26  C6  UNL     1      -5.239   0.931  -3.312  1.00  0.00     0.003 A 
HETATM   27  C7  UNL     1      -4.012   0.365  -3.460  1.00  0.00     0.001 A 
HETATM   28  C8  UNL     1      -3.233   0.129  -2.318  1.00  0.00     0.018 A 
BRANCH  24  29
HETATM   29  N1  UNL     1      -5.558   1.140   0.277  1.00  0.00    -0.366 NA
HETATM   30  C3  UNL     1      -6.221   1.282   1.470  1.00  0.00     0.315 C 
HETATM   31  O1  UNL     1      -6.595   2.364   1.967  1.00  0.00    -0.252 OA
BRANCH  30  32
HETATM   32  C2  UNL     1      -6.551   0.071   2.295  1.00  0.00     0.080 C 
HETATM   33  C1  UNL     1      -6.212  -1.098   1.821  1.00  0.00     0.018 C 
ENDBRANCH  30  32
ENDBRANCH  24  29
ENDBRANCH  22  23
BRANCH  22  34
HETATM   34  O2  UNL     1      -3.271   0.852   1.182  1.00  0.00    -0.358 OA
ATOM     35  H2  UNL     1      -2.668   0.812   1.915  1.00  0.00     0.217 HD
ENDBRANCH  22  34
ENDBRANCH   1  22
BRANCH   6  36
HETATM   36  O4  UNL     1      -1.141   0.720   2.514  1.00  0.00    -0.345 OA
ATOM     37  H4  UNL     1      -0.595   0.842   3.282  1.00  0.00     0.219 HD
ENDBRANCH   6  36
TORSDOF 10
