REMARK  5 active torsions:
REMARK  status: ('A' for Active; 'I' for Inactive)
REMARK    1  A    between atoms: C4_7  and  N3_8 
REMARK       I    between atoms: N3_8  and  C5_10 
REMARK       I    between atoms: C5_10  and  N4_12 
REMARK    2  A    between atoms: N4_12  and  C6_14 
REMARK    3  A    between atoms: C9_17  and  C10_18 
REMARK    4  A    between atoms: C11_21  and  N6_22 
REMARK    5  A    between atoms: C16_30  and  N8_31 
ROOT
HETATM    1  N1  UNL     1      10.880  -3.337   1.060  1.00  0.00    -0.191 NA
HETATM    2  C1  UNL     1      10.031  -2.544   1.071  1.00  0.00     0.101 C 
HETATM    3  C2  UNL     1       8.977  -1.573   1.069  1.00  0.00     0.071 A 
HETATM    4  C3  UNL     1       7.641  -1.900   0.989  1.00  0.00     0.113 A 
HETATM    5  N2  UNL     1       6.661  -0.968   0.988  1.00  0.00    -0.350 N 
ATOM      6  H2  UNL     1       5.692  -1.281   0.928  1.00  0.00     0.166 HD
HETATM    7  C4  UNL     1       6.906   0.350   1.062  1.00  0.00     0.120 A 
HETATM    8  C25 UNL     1       8.266   0.714   1.145  1.00  0.00     0.020 A 
HETATM    9  C26 UNL     1       8.539   2.072   1.223  1.00  0.00     0.016 A 
HETATM   10  C27 UNL     1       9.870   2.466   1.306  1.00  0.00     0.001 A 
HETATM   11  C28 UNL     1      10.864   1.510   1.308  1.00  0.00     0.001 A 
HETATM   12  C29 UNL     1      10.610   0.156   1.230  1.00  0.00     0.014 A 
HETATM   13  C30 UNL     1       9.265  -0.222   1.148  1.00  0.00    -0.000 A 
ENDROOT
BRANCH   7  14
HETATM   14  N3  UNL     1       6.027   1.272   1.044  1.00  0.00    -0.294 N 
HETATM   15  C5  UNL     1       4.660   1.288   0.952  1.00  0.00     0.326 C 
HETATM   16  O1  UNL     1       4.026   2.057   1.774  1.00  0.00    -0.247 OA
HETATM   17  N4  UNL     1       3.947   0.513   0.010  1.00  0.00    -0.309 N 
ATOM     18  H4  UNL     1       4.468  -0.094  -0.623  1.00  0.00     0.170 HD
ATOM     19  H3  UNL     1       6.431   2.206   1.114  1.00  0.00     0.172 HD
BRANCH  17  20
HETATM   20  C6  UNL     1       2.537   0.550  -0.085  1.00  0.00     0.036 A 
HETATM   21  C7  UNL     1       1.893  -0.650  -0.441  1.00  0.00     0.030 A 
HETATM   22  C8  UNL     1       0.522  -0.711  -0.587  1.00  0.00     0.017 A 
HETATM   23  C9  UNL     1      -0.260   0.384  -0.394  1.00  0.00     0.009 A 
HETATM   24  C23 UNL     1       0.356   1.561  -0.047  1.00  0.00     0.017 A 
HETATM   25  C24 UNL     1       1.747   1.637   0.105  1.00  0.00     0.030 A 
BRANCH  23  26
HETATM   26  C10 UNL     1      -1.694   0.339  -0.519  1.00  0.00     0.146 A 
HETATM   27  N5  UNL     1      -2.445   1.473  -0.394  1.00  0.00    -0.175 N 
HETATM   28  C11 UNL     1      -3.774   1.479  -0.486  1.00  0.00     0.696 A 
ATOM     29  H5  UNL     1      -1.966   2.357  -0.222  1.00  0.00     0.186 HD
HETATM   30  N7  UNL     1      -4.416   0.329  -0.710  1.00  0.00    -0.022 N 
HETATM   31  C16 UNL     1      -3.735  -0.846  -0.844  1.00  0.00     0.696 A 
ATOM     32  H7  UNL     1      -5.433   0.329  -0.782  1.00  0.00     0.203 HD
HETATM   33  N9  UNL     1      -2.401  -0.799  -0.745  1.00  0.00    -0.175 N 
ATOM     34  H9  UNL     1      -1.883  -1.672  -0.845  1.00  0.00     0.186 HD
BRANCH  28  35
HETATM   35  N6  UNL     1      -4.496   2.670  -0.347  1.00  0.00    -0.213 N 
HETATM   36  C12 UNL     1      -5.927   2.777  -0.557  1.00  0.00     0.167 C 
HETATM   37  C13 UNL     1      -6.393   4.131  -0.130  1.00  0.00     0.188 C 
HETATM   38  O2  UNL     1      -5.717   5.184  -0.692  1.00  0.00    -0.388 OA
HETATM   39  C14 UNL     1      -4.354   5.004  -0.817  1.00  0.00     0.188 C 
HETATM   40  C15 UNL     1      -3.814   3.890   0.033  1.00  0.00     0.167 C 
ENDBRANCH  28  35
BRANCH  31  41
HETATM   41  N8  UNL     1      -4.424  -2.064  -1.056  1.00  0.00    -0.214 N 
HETATM   42  C17 UNL     1      -3.958  -3.427  -1.190  1.00  0.00     0.144 C 
HETATM   43  C18 UNL     1      -4.892  -4.099  -0.161  1.00  0.00     0.060 C 
HETATM   44  C19 UNL     1      -6.226  -3.551  -0.650  1.00  0.00     0.081 C 
HETATM   45  C20 UNL     1      -6.937  -4.463  -1.590  1.00  0.00     0.066 C 
HETATM   46  O3  UNL     1      -7.262  -3.553   0.246  1.00  0.00    -0.378 OA
HETATM   47  C22 UNL     1      -5.877  -2.169  -1.172  1.00  0.00     0.179 C 
HETATM   48  C21 UNL     1      -7.807  -4.659  -0.381  1.00  0.00     0.172 C 
ENDBRANCH  31  41
ENDBRANCH  23  26
ENDBRANCH  17  20
ENDBRANCH   7  14
TORSDOF 5
