REMARK  4 active torsions:
REMARK  status: ('A' for Active; 'I' for Inactive)
REMARK    1  A    between atoms: C2_2  and  N1_3 
REMARK       I    between atoms: N1_3  and  C3_5 
REMARK    2  A    between atoms: C3_5  and  C4_7 
REMARK    3  A    between atoms: C22_31  and  N3_32 
REMARK    4  A    between atoms: C24_34  and  O5_35 
ROOT
HETATM    1  C4  UNL     1      -3.762   3.508   0.283  1.00  0.00     0.034 A 
HETATM    2  C5  UNL     1      -2.552   3.788   0.878  1.00  0.00     0.020 A 
HETATM    3  C6  UNL     1      -1.466   2.999   0.583  1.00  0.00     0.040 A 
HETATM    4  C7  UNL     1      -1.496   1.920  -0.287  1.00  0.00     0.102 A 
HETATM    5  C8  UNL     1      -2.713   1.627  -0.892  1.00  0.00     0.103 A 
HETATM    6  C9  UNL     1      -3.796   2.427  -0.589  1.00  0.00     0.056 A 
HETATM    7  O2  UNL     1      -2.846   0.567  -1.772  1.00  0.00    -0.348 OA
HETATM    8  C10 UNL     1      -2.687  -0.809  -1.537  1.00  0.00     0.178 C 
HETATM    9  C11 UNL     1      -2.517  -1.227  -0.123  1.00  0.00     0.053 C 
HETATM   10  C12 UNL     1      -3.132  -2.631   0.015  1.00  0.00     0.170 C 
HETATM   11  O3  UNL     1      -2.213  -3.475  -0.646  1.00  0.00    -0.387 OA
HETATM   12  C13 UNL     1      -2.731  -4.734  -0.888  1.00  0.00     0.194 C 
HETATM   13  C14 UNL     1      -2.673  -5.610   0.314  1.00  0.00    -0.003 C 
HETATM   14  C15 UNL     1      -1.529  -5.890   0.911  1.00  0.00    -0.003 C 
HETATM   15  C16 UNL     1      -0.242  -5.350   0.421  1.00  0.00     0.194 C 
HETATM   16  O4  UNL     1      -0.000  -4.165   1.108  1.00  0.00    -0.386 OA
HETATM   17  C17 UNL     1       1.020  -4.274   2.024  1.00  0.00     0.195 C 
HETATM   18  C18 UNL     1       1.220  -2.932   2.695  1.00  0.00     0.258 C 
HETATM   19  N2  UNL     1       2.252  -2.192   1.956  1.00  0.00    -0.068 N 
ATOM     20  H21 UNL     1       3.035  -2.784   1.680  1.00  0.00     0.277 HD
ATOM     21  H22 UNL     1       2.768  -1.543   2.550  1.00  0.00     0.277 HD
HETATM   22  C19 UNL     1       1.633  -1.536   0.830  1.00  0.00     0.289 C 
HETATM   23  C20 UNL     1       2.624  -0.652   0.161  1.00  0.00     0.039 A 
HETATM   24  C21 UNL     1       3.882  -0.234   0.541  1.00  0.00     0.057 A 
HETATM   25  C22 UNL     1       4.411   0.587  -0.426  1.00  0.00     0.048 A 
HETATM   26  C28 UNL     1       3.423   0.652  -1.413  1.00  0.00     0.120 A 
HETATM   27  N4  UNL     1       2.366  -0.094  -1.043  1.00  0.00    -0.354 N 
HETATM   28  C29 UNL     1       1.124  -0.314  -1.758  1.00  0.00     0.155 C 
HETATM   29  C30 UNL     1       0.260   0.947  -1.781  1.00  0.00     0.196 C 
HETATM   30  O6  UNL     1      -0.351   1.167  -0.543  1.00  0.00    -0.347 OA
ENDROOT
BRANCH  25  31
HETATM   31  N3  UNL     1       5.672   1.232  -0.441  1.00  0.00    -0.372 N 
HETATM   32  C23 UNL     1       6.263   2.108  -1.444  1.00  0.00     0.161 C 
HETATM   33  C24 UNL     1       7.587   2.350  -0.765  1.00  0.00     0.077 C 
HETATM   34  C25 UNL     1       7.154   2.599   0.673  1.00  0.00     0.065 C 
HETATM   35  C27 UNL     1       7.928   0.938  -0.280  1.00  0.00     0.065 C 
HETATM   36  C26 UNL     1       6.666   1.148   0.570  1.00  0.00     0.090 C 
BRANCH  33  37
HETATM   37  O5  UNL     1       8.522   3.093  -1.319  1.00  0.00    -0.388 OA
ATOM     38  H5  UNL     1       9.356   3.246  -0.891  1.00  0.00     0.210 HD
ENDBRANCH  33  37
ENDBRANCH  25  31
BRANCH   1  39
HETATM   39  C3  UNL     1      -4.946   4.313   0.554  1.00  0.00     0.251 C 
HETATM   40  N1  UNL     1      -6.264   3.971   0.159  1.00  0.00    -0.357 N 
ATOM     41  H1  UNL     1      -6.424   3.104  -0.354  1.00  0.00     0.162 HD
HETATM   42  O1  UNL     1      -4.785   5.389   1.186  1.00  0.00    -0.268 OA
BRANCH  40  43
HETATM   43  C2  UNL     1      -7.396   4.836   0.472  1.00  0.00     0.118 C 
HETATM   44  C1  UNL     1      -8.650   4.205  -0.075  1.00  0.00     0.026 C 
ENDBRANCH  40  43
ENDBRANCH   1  39
TORSDOF 4
