REMARK  7 active torsions:
REMARK  status: ('A' for Active; 'I' for Inactive)
REMARK    1  A    between atoms: C5_5  and  C6_6 
REMARK    2  A    between atoms: C6_6  and  O1_7 
REMARK    3  A    between atoms: C11_15  and  C12_16 
REMARK    4  A    between atoms: C12_16  and  C13_18 
REMARK    5  A    between atoms: C13_18  and  C14_19 
REMARK    6  A    between atoms: C14_19  and  C15_20 
REMARK    7  A    between atoms: C15_20  and  C16_21 
ROOT
HETATM    1  C1  UNL     1      -3.075  -2.940  -0.353  1.00  0.00     0.017 C 
HETATM    2  C2  UNL     1      -2.677  -1.369  -0.534  1.00  0.00    -0.023 C 
HETATM    3  C3  UNL     1      -3.776  -0.616   0.021  1.00  0.00     0.011 C 
HETATM    4  C4  UNL     1      -3.703   0.392   1.169  1.00  0.00     0.012 C 
HETATM    5  C5  UNL     1      -2.988   1.763   0.686  1.00  0.00     0.039 C 
HETATM    6  C7  UNL     1      -2.485   1.164  -0.597  1.00  0.00    -0.066 C 
HETATM    7  C8  UNL     1      -3.135   1.046  -1.753  1.00  0.00     0.049 C 
HETATM    8  S1  UNL     1      -2.105   0.046  -3.037  1.00  0.00    -0.128 SA
HETATM    9  C9  UNL     1      -2.034  -1.463  -1.870  1.00  0.00     0.130 C 
HETATM   10  C10 UNL     1      -0.520  -1.387  -1.584  1.00  0.00     0.158 C 
HETATM   11  O2  UNL     1       0.302  -1.936  -2.223  1.00  0.00    -0.295 OA
HETATM   12  C11 UNL     1      -0.518  -0.491  -0.375  1.00  0.00     0.086 C 
HETATM   13  C19 UNL     1      -0.957   0.863  -0.627  1.00  0.00     0.060 C 
HETATM   14  C20 UNL     1      -1.463  -1.344   0.454  1.00  0.00     0.036 C 
ENDROOT
BRANCH  12  15
HETATM   15  C12 UNL     1       0.827  -0.508   0.198  1.00  0.00     0.143 C 
HETATM   16  O3  UNL     1       0.997  -0.913   1.332  1.00  0.00    -0.297 OA
BRANCH  15  17
HETATM   17  C13 UNL     1       1.991  -0.043  -0.573  1.00  0.00     0.080 C 
BRANCH  17  18
HETATM   18  C14 UNL     1       3.285  -0.153   0.243  1.00  0.00     0.013 C 
BRANCH  18  19
HETATM   19  C15 UNL     1       4.398   0.348  -0.641  1.00  0.00     0.059 C 
BRANCH  19  20
HETATM   20  C16 UNL     1       5.710   0.294   0.032  1.00  0.00     0.025 A 
HETATM   21  C17 UNL     1       6.609  -0.759   0.029  1.00  0.00     0.113 A 
HETATM   22  N1  UNL     1       7.693  -0.430   0.756  1.00  0.00    -0.360 N 
HETATM   23  C18 UNL     1       7.476   0.821   1.210  1.00  0.00     0.180 A 
ATOM     24  H1  UNL     1       8.514  -1.010   0.929  1.00  0.00     0.166 HD
HETATM   25  N2  UNL     1       6.277   1.254   0.771  1.00  0.00    -0.355 N 
ATOM     26  H2  UNL     1       5.868   2.167   0.970  1.00  0.00     0.166 HD
ENDBRANCH  19  20
ENDBRANCH  18  19
ENDBRANCH  17  18
ENDBRANCH  15  17
ENDBRANCH  12  15
BRANCH   5  27
HETATM   27  C6  UNL     1      -3.908   2.879   0.792  1.00  0.00     0.173 C 
BRANCH  27  28
HETATM   28  O1  UNL     1      -3.406   4.118   0.405  1.00  0.00    -0.400 OA
ATOM     29  H1  UNL     1      -4.009   4.849   0.474  1.00  0.00     0.209 HD
ENDBRANCH  27  28
ENDBRANCH   5  27
TORSDOF 7
