REMARK  5 active torsions:
REMARK  status: ('A' for Active; 'I' for Inactive)
REMARK    1  A    between atoms: C3_3  and  C4_4 
REMARK    2  A    between atoms: C5_5  and  C6_6 
REMARK    3  A    between atoms: C6_6  and  C7_7 
REMARK    4  A    between atoms: C7_7  and  O1_8 
REMARK    5  A    between atoms: N1_10  and  O2_12 
ROOT
HETATM    1  C1  UNL     1       5.238   0.726   0.770  1.00  0.00     0.113 C 
HETATM    2  C2  UNL     1       3.841   0.480   0.405  1.00  0.00    -0.097 C 
HETATM    3  C3  UNL     1       2.688   0.261   0.115  1.00  0.00    -0.015 C 
ENDROOT
BRANCH   3   4
HETATM    4  C4  UNL     1       1.337  -0.016  -0.221  1.00  0.00    -0.015 C 
HETATM    5  C5  UNL     1       0.193  -0.267  -0.513  1.00  0.00    -0.084 C 
BRANCH   5   6
HETATM    6  C6  UNL     1      -1.203  -0.595  -0.888  1.00  0.00     0.180 C 
BRANCH   6   7
HETATM    7  C7  UNL     1      -1.920  -0.900   0.356  1.00  0.00     0.148 C 
HETATM    8  N1  UNL     1      -2.933  -0.200   0.691  1.00  0.00    -0.246 N 
HETATM    9  C8  UNL     1      -3.409   0.905  -0.127  1.00  0.00     0.187 C 
BRANCH   7  10
HETATM   10  O1  UNL     1      -1.500  -1.935   1.156  1.00  0.00    -0.347 OA
ATOM     11  H1  UNL     1      -1.964  -2.132   1.961  1.00  0.00     0.219 HD
ENDBRANCH   7  10
BRANCH   8  12
HETATM   12  O2  UNL     1      -3.591  -0.492   1.849  1.00  0.00    -0.286 OA
ATOM     13  H2  UNL     1      -4.345   0.029   2.098  1.00  0.00     0.244 HD
ENDBRANCH   8  12
ENDBRANCH   6   7
ENDBRANCH   5   6
ENDBRANCH   3   4
TORSDOF 5
