REMARK  1 active torsions:
REMARK  status: ('A' for Active; 'I' for Inactive)
REMARK    1  A    between atoms: C2_2  and  N1_3 
REMARK       I    between atoms: N1_3  and  C3_5 
REMARK       I    between atoms: C3_5  and  N3_11 
REMARK       I    between atoms: N2_6  and  C4_8 
ROOT
HETATM    1  N1  UNL     1      -1.393  -0.168   0.962  1.00  0.00    -0.226 N 
ATOM      2  H1  UNL     1      -1.398  -0.658   1.856  1.00  0.00     0.177 HD
HETATM    3  C3  UNL     1      -0.152  -0.011   0.320  1.00  0.00     0.677 C 
HETATM    4  N2  UNL     1       0.449   1.094   0.348  1.00  0.00    -0.160 N 
ATOM      5  H2  UNL     1      -0.043   1.825   0.862  1.00  0.00     0.187 HD
HETATM    6  C4  UNL     1       1.659   1.495  -0.194  1.00  0.00     0.231 C 
HETATM    7  C5  UNL     1       2.955   0.932   0.219  1.00  0.00     0.118 C 
HETATM    8  O1  UNL     1       1.660   2.387  -1.090  1.00  0.00    -0.273 OA
HETATM    9  N3  UNL     1       0.413  -1.098  -0.361  1.00  0.00    -0.227 N 
HETATM   10  C6  UNL     1       0.655  -2.323   0.413  1.00  0.00     0.168 C 
HETATM   11  C7  UNL     1       0.782  -1.142  -1.756  1.00  0.00     0.168 C 
ENDROOT
BRANCH   1  12
HETATM   12  C2  UNL     1      -2.652   0.303   0.465  1.00  0.00     0.133 C 
HETATM   13  C1  UNL     1      -2.786   1.794   0.453  1.00  0.00     0.027 C 
ENDBRANCH   1  12
TORSDOF 1
