REMARK  4 active torsions:
REMARK  status: ('A' for Active; 'I' for Inactive)
REMARK    1  A    between atoms: N1_2  and  C2_4 
REMARK    2  A    between atoms: C3_7  and  O1_8 
REMARK    3  A    between atoms: C4_10  and  C5_11 
REMARK    4  A    between atoms: C5_11  and  C6_12 
ROOT
HETATM    1  C5  UNL     1      -0.122  -1.494  -0.502  1.00  0.00     0.088 C 
ENDROOT
BRANCH   1   2
HETATM    2  C4  UNL     1       1.269  -1.121  -0.175  1.00  0.00    -0.002 A 
HETATM    3  C3  UNL     1       1.621  -0.466   0.982  1.00  0.00     0.148 A 
HETATM    4  N2  UNL     1       2.915  -0.167   1.190  1.00  0.00    -0.323 N 
HETATM    5  C2  UNL     1       3.892  -0.485   0.302  1.00  0.00     0.108 A 
ATOM      6  H2  UNL     1       3.173   0.318   2.049  1.00  0.00     0.169 HD
HETATM    7  C17 UNL     1       3.588  -1.145  -0.880  1.00  0.00    -0.018 A 
HETATM    8  C16 UNL     1       2.257  -1.447  -1.081  1.00  0.00     0.022 A 
HETATM    9  C18 UNL     1       4.669  -1.479  -1.826  1.00  0.00     0.052 C 
BRANCH   3  10
HETATM   10  O1  UNL     1       0.650  -0.119   1.926  1.00  0.00    -0.346 OA
ATOM     11  H1  UNL     1      -0.264  -0.330   1.779  1.00  0.00     0.219 HD
ENDBRANCH   3  10
BRANCH   5  12
HETATM   12  N1  UNL     1       5.135  -0.187   0.521  1.00  0.00    -0.380 N 
HETATM   13  C1  UNL     1       5.478   0.502   1.747  1.00  0.00     0.147 C 
ATOM     14  H1  UNL     1       5.856  -0.433  -0.157  1.00  0.00     0.160 HD
ENDBRANCH   5  12
ENDBRANCH   1   2
BRANCH   1  15
HETATM   15  C6  UNL     1      -0.955  -0.376  -0.961  1.00  0.00     0.027 A 
HETATM   16  C7  UNL     1      -2.078   0.025  -0.391  1.00  0.00     0.004 A 
HETATM   17  C8  UNL     1      -2.761  -0.457   0.733  1.00  0.00     0.021 A 
HETATM   18  C14 UNL     1      -2.589   1.095  -1.091  1.00  0.00     0.052 A 
HETATM   19  C9  UNL     1      -3.939   0.099   1.179  1.00  0.00    -0.061 A 
HETATM   20  C10 UNL     1      -4.649  -0.437   2.384  1.00  0.00     0.048 C 
HETATM   21  C11 UNL     1      -4.437   1.169   0.468  1.00  0.00     0.015 A 
HETATM   22  C12 UNL     1      -3.773   1.649  -0.638  1.00  0.00    -0.034 A 
HETATM   23  C13 UNL     1      -4.353   2.808  -1.371  1.00  0.00     0.050 C 
HETATM   24  N3  UNL     1      -1.839   1.411  -2.103  1.00  0.00    -0.322 N 
HETATM   25  C15 UNL     1      -0.741   0.499  -2.098  1.00  0.00     0.253 A 
ATOM     26  H3  UNL     1      -2.003   2.164  -2.771  1.00  0.00     0.169 HD
HETATM   27  O2  UNL     1       0.241   0.409  -2.878  1.00  0.00    -0.268 OA
ENDBRANCH   1  15
TORSDOF 4
