REMARK  2 active torsions:
REMARK  status: ('A' for Active; 'I' for Inactive)
REMARK       I    between atoms: N2_7  and  C4_9 
REMARK    1  A    between atoms: C4_9  and  C5_11 
REMARK    2  A    between atoms: C5_11  and  N3_12 
ROOT
HETATM    1  N3  UNL     1      -0.636   0.148   1.410  1.00  0.00    -0.259 N 
HETATM    2  C6  UNL     1      -0.970  -1.256   1.377  1.00  0.00     0.326 C 
HETATM    3  O3  UNL     1      -0.672  -2.049   2.312  1.00  0.00    -0.247 OA
HETATM    4  N4  UNL     1      -1.656  -1.551   0.165  1.00  0.00    -0.323 N 
ATOM      5  H4  UNL     1      -1.796  -2.467  -0.261  1.00  0.00     0.165 HD
HETATM    6  C7  UNL     1      -2.108  -0.283  -0.328  1.00  0.00     0.127 A 
HETATM    7  C8  UNL     1      -1.139   0.673   0.190  1.00  0.00     0.258 C 
HETATM    8  O4  UNL     1      -0.787   1.782  -0.328  1.00  0.00    -0.270 OA
HETATM    9  C9  UNL     1      -2.945  -0.097  -1.490  1.00  0.00     0.031 A 
HETATM   10  C10 UNL     1      -3.478  -1.290  -2.248  1.00  0.00     0.014 C 
HETATM   11  C11 UNL     1      -3.557   0.113  -0.144  1.00  0.00    -0.007 A 
HETATM   12  C12 UNL     1      -4.401  -0.967   0.489  1.00  0.00     0.018 C 
HETATM   13  C13 UNL     1      -3.838   1.513   0.343  1.00  0.00     0.018 C 
ENDROOT
BRANCH   1  14
HETATM   14  C5  UNL     1       0.069   0.845   2.476  1.00  0.00     0.240 C 
BRANCH  14  15
HETATM   15  C4  UNL     1       1.510   0.792   2.193  1.00  0.00     0.242 C 
HETATM   16  N2  UNL     1       1.982   0.138   1.040  1.00  0.00    -0.304 N 
HETATM   17  C3  UNL     1       3.102   0.533   0.532  1.00  0.00     0.180 A 
ATOM     18  H2  UNL     1       1.455  -0.626   0.617  1.00  0.00     0.171 HD
HETATM   19  O1  UNL     1       3.909   1.486   0.933  1.00  0.00    -0.219 OA
HETATM   20  C14 UNL     1       3.661  -0.028  -0.589  1.00  0.00     0.015 A 
HETATM   21  N1  UNL     1       4.936   1.578   0.158  1.00  0.00    -0.263 N 
HETATM   22  C2  UNL     1       4.838   0.655  -0.815  1.00  0.00     0.039 A 
ATOM     23  H1  UNL     1       5.701   2.245   0.266  1.00  0.00     0.194 HD
HETATM   24  C1  UNL     1       5.761   0.362  -1.942  1.00  0.00     0.071 C 
HETATM   25  C15 UNL     1       3.098  -1.147  -1.390  1.00  0.00     0.055 C 
HETATM   26  O2  UNL     1       2.308   1.330   2.983  1.00  0.00    -0.271 OA
ENDBRANCH  14  15
ENDBRANCH   1  14
TORSDOF 2
