REMARK  6 active torsions:
REMARK  status: ('A' for Active; 'I' for Inactive)
REMARK    1  A    between atoms: O1_2  and  C2_3 
REMARK    2  A    between atoms: C2_3  and  C3_5 
REMARK    3  A    between atoms: C3_5  and  O3_7 
REMARK    4  A    between atoms: C3_5  and  C5_9 
REMARK    5  A    between atoms: C6_10  and  C7_11 
REMARK    6  A    between atoms: N3_21  and  C11_22 
ROOT
HETATM    1  C7  UNL     1       0.362  -0.985   0.827  1.00  0.00     0.164 A 
HETATM    2  N1  UNL     1      -0.141  -1.475   1.967  1.00  0.00    -0.328 N 
ATOM      3  H1  UNL     1       0.370  -2.006   2.672  1.00  0.00     0.168 HD
HETATM    4  C8  UNL     1      -1.460  -1.136   2.015  1.00  0.00     0.148 A 
HETATM    5  C9  UNL     1      -2.446  -1.380   2.951  1.00  0.00     0.280 A 
HETATM    6  O4  UNL     1      -2.186  -2.031   3.999  1.00  0.00    -0.265 OA
HETATM    7  N2  UNL     1      -3.683  -0.922   2.742  1.00  0.00    -0.273 N 
ATOM      8  H2  UNL     1      -4.419  -1.096   3.426  1.00  0.00     0.173 HD
HETATM    9  C10 UNL     1      -3.952  -0.219   1.605  1.00  0.00     0.331 A 
HETATM   10  O5  UNL     1      -5.149   0.154   1.529  1.00  0.00    -0.246 OA
HETATM   11  N3  UNL     1      -3.013   0.028   0.688  1.00  0.00    -0.274 N 
HETATM   12  C15 UNL     1      -1.719  -0.434   0.874  1.00  0.00     0.147 A 
HETATM   13  N4  UNL     1      -0.602  -0.333   0.131  1.00  0.00    -0.319 N 
ATOM     14  H4  UNL     1      -0.501   0.136  -0.769  1.00  0.00     0.169 HD
ENDROOT
BRANCH   1  15
HETATM   15  C6  UNL     1       1.708  -1.085   0.333  1.00  0.00    -0.026 C 
HETATM   16  C5  UNL     1       2.844  -1.168  -0.065  1.00  0.00    -0.050 C 
BRANCH  16  17
HETATM   17  C3  UNL     1       4.236  -1.259  -0.549  1.00  0.00     0.206 C 
HETATM   18  C4  UNL     1       5.149  -1.800   0.538  1.00  0.00     0.072 C 
BRANCH  17  19
HETATM   19  C2  UNL     1       4.630   0.087  -0.985  1.00  0.00     0.305 C 
HETATM   20  O2  UNL     1       4.930   0.275  -2.190  1.00  0.00    -0.261 OA
BRANCH  19  21
HETATM   21  O1  UNL     1       4.687   1.173  -0.113  1.00  0.00    -0.323 OA
HETATM   22  C1  UNL     1       5.077   2.438  -0.609  1.00  0.00     0.213 C 
ENDBRANCH  19  21
ENDBRANCH  17  19
BRANCH  17  23
HETATM   23  O3  UNL     1       4.267  -2.135  -1.614  1.00  0.00    -0.369 OA
ATOM     24  H3  UNL     1       4.012  -3.006  -1.332  1.00  0.00     0.212 HD
ENDBRANCH  17  23
ENDBRANCH  16  17
ENDBRANCH   1  15
BRANCH  11  25
HETATM   25  C11 UNL     1      -3.247   0.757  -0.511  1.00  0.00     0.032 C 
HETATM   26  C12 UNL     1      -2.380   2.001  -0.625  1.00  0.00     0.038 C 
HETATM   27  C13 UNL     1      -2.997  -0.199  -1.671  1.00  0.00     0.038 C 
HETATM   28  C14 UNL     1      -4.667   1.230  -0.625  1.00  0.00     0.038 C 
ENDBRANCH  11  25
TORSDOF 6
