REMARK  4 active torsions:
REMARK  status: ('A' for Active; 'I' for Inactive)
REMARK    1  A    between atoms: C3_6  and  C4_7 
REMARK    2  A    between atoms: C4_7  and  N2_8 
REMARK    3  A    between atoms: N2_8  and  C6_10 
REMARK    4  A    between atoms: C9_13  and  C10_14 
ROOT
HETATM    1  C10 UNL     1      -0.411  -0.526  -0.049  1.00  0.00     0.119 C 
HETATM    2  N3  UNL     1      -1.418  -1.512  -0.065  1.00  0.00    -0.408 N 
ATOM      3  H3  UNL     1      -1.351  -2.312   0.564  1.00  0.00     0.154 HD
HETATM    4  C11 UNL     1      -2.497  -1.406  -0.926  1.00  0.00     0.078 C 
HETATM    5  C12 UNL     1      -2.564  -0.388  -1.988  1.00  0.00     0.029 C 
HETATM    6  C13 UNL     1      -3.123   0.943  -1.567  1.00  0.00    -0.012 C 
HETATM    7  C14 UNL     1      -4.427   0.828  -0.842  1.00  0.00     0.009 C 
HETATM    8  C15 UNL     1      -4.142  -0.024   0.385  1.00  0.00    -0.012 C 
HETATM    9  C16 UNL     1      -3.774  -1.384  -0.101  1.00  0.00     0.029 C 
HETATM   10  C17 UNL     1      -3.138   0.597   1.301  1.00  0.00     0.010 C 
HETATM   11  C18 UNL     1      -2.008   1.290   0.649  1.00  0.00    -0.008 C 
HETATM   12  C19 UNL     1      -2.176   1.755  -0.738  1.00  0.00     0.010 C 
HETATM   13  C20 UNL     1      -0.636   0.574   0.890  1.00  0.00     0.013 C 
HETATM   14  C21 UNL     1      -0.665   0.135   2.348  1.00  0.00     0.012 C 
ENDROOT
BRANCH   1  15
HETATM   15  C9  UNL     1       0.914  -1.167   0.046  1.00  0.00     0.022 A 
HETATM   16  C2  UNL     1       1.166  -2.527  -0.289  1.00  0.00     0.083 A 
HETATM   17  C1  UNL     1       0.164  -3.543  -0.668  1.00  0.00     0.079 C 
HETATM   18  O1  UNL     1       2.454  -2.669  -0.186  1.00  0.00    -0.242 OA
HETATM   19  N1  UNL     1       3.037  -1.598   0.164  1.00  0.00    -0.263 N 
HETATM   20  C3  UNL     1       2.130  -0.590   0.333  1.00  0.00     0.060 A 
ATOM     21  H1  UNL     1       4.043  -1.503   0.300  1.00  0.00     0.194 HD
BRANCH  20  22
HETATM   22  C4  UNL     1       2.552   0.752   0.704  1.00  0.00     0.176 C 
BRANCH  22  23
HETATM   23  N2  UNL     1       3.961   0.915   0.862  1.00  0.00    -0.407 N 
HETATM   24  C5  UNL     1       4.319   2.252   1.208  1.00  0.00     0.144 C 
BRANCH  23  25
HETATM   25  C6  UNL     1       4.858   0.275   0.004  1.00  0.00     0.079 A 
HETATM   26  C7  UNL     1       4.856   0.523  -1.439  1.00  0.00     0.027 A 
HETATM   27  C8  UNL     1       5.993   1.042  -0.630  1.00  0.00     0.027 A 
ENDBRANCH  23  25
ENDBRANCH  22  23
ENDBRANCH  20  22
ENDBRANCH   1  15
TORSDOF 4
