REMARK  8 active torsions:
REMARK  status: ('A' for Active; 'I' for Inactive)
REMARK    1  A    between atoms: C2_2  and  C3_3 
REMARK    2  A    between atoms: C3_3  and  C4_4 
REMARK    3  A    between atoms: C4_4  and  C5_5 
REMARK    4  A    between atoms: C6_6  and  C7_7 
REMARK    5  A    between atoms: C7_7  and  C8_8 
REMARK    6  A    between atoms: C8_8  and  C9_9 
REMARK    7  A    between atoms: C11_12  and  S1_13 
REMARK    8  A    between atoms: S1_13  and  N1_14 
ROOT
HETATM    1  C5  UNL     1       0.610   0.071  -0.029  1.00  0.00    -0.002 A 
HETATM    2  C6  UNL     1      -0.117   1.244  -0.112  1.00  0.00    -0.026 A 
HETATM    3  C10 UNL     1      -1.490   1.157  -0.109  1.00  0.00     0.038 A 
HETATM    4  C11 UNL     1      -2.224  -0.012  -0.028  1.00  0.00     0.093 A 
HETATM    5  C12 UNL     1      -1.489  -1.183   0.057  1.00  0.00     0.022 A 
HETATM    6  C13 UNL     1      -1.890  -2.490   0.158  1.00  0.00    -0.033 A 
HETATM    7  C14 UNL     1      -3.246  -3.053   0.212  1.00  0.00     0.050 C 
HETATM    8  C15 UNL     1      -0.702  -3.239   0.217  1.00  0.00     0.096 A 
HETATM    9  N2  UNL     1       0.342  -2.408   0.154  1.00  0.00    -0.364 N 
ATOM     10  H2  UNL     1       1.319  -2.699   0.177  1.00  0.00     0.165 HD
HETATM   11  C16 UNL     1      -0.079  -1.130   0.055  1.00  0.00     0.055 A 
ENDROOT
BRANCH   4  12
HETATM   12  S1  UNL     1      -3.940  -0.019  -0.061  1.00  0.00     0.257 S 
HETATM   13  O1  UNL     1      -4.630  -0.071   1.272  1.00  0.00    -0.201 OA
HETATM   14  O2  UNL     1      -4.291   1.467  -0.408  1.00  0.00    -0.201 OA
BRANCH  12  15
HETATM   15  N1  UNL     1      -4.729  -0.773  -1.346  1.00  0.00    -0.324 N 
ATOM     16  H12 UNL     1      -4.180  -1.214  -2.084  1.00  0.00     0.169 HD
ATOM     17  H11 UNL     1      -5.749  -0.777  -1.366  1.00  0.00     0.169 HD
ENDBRANCH  12  15
ENDBRANCH   4  12
BRANCH   2  18
HETATM   18  C7  UNL     1       0.389   2.461  -0.197  1.00  0.00    -0.014 C 
BRANCH  18  19
HETATM   19  C8  UNL     1      -0.504   3.656  -0.283  1.00  0.00     0.039 C 
BRANCH  19  20
HETATM   20  C9  UNL     1       0.289   4.938  -0.245  1.00  0.00     0.089 C 
HETATM   21 BR1  UNL     1       1.541   5.081  -1.686  1.00  0.00    -0.096 Br
ENDBRANCH  19  20
ENDBRANCH  18  19
ENDBRANCH   2  18
BRANCH   1  22
HETATM   22  C4  UNL     1       1.912   0.144  -0.033  1.00  0.00    -0.012 C 
BRANCH  22  23
HETATM   23  C3  UNL     1       2.945  -0.888   0.041  1.00  0.00     0.028 C 
BRANCH  23  24
HETATM   24  C2  UNL     1       4.350  -0.268   0.036  1.00  0.00    -0.001 C 
HETATM   25  C1  UNL     1       5.337  -1.410   0.115  1.00  0.00     0.005 C 
ENDBRANCH  23  24
ENDBRANCH  22  23
ENDBRANCH   1  22
TORSDOF 8
