REMARK  13 active torsions:
REMARK  status: ('A' for Active; 'I' for Inactive)
REMARK    1  A    between atoms: C3_6  and  O1_7 
REMARK    2  A    between atoms: C4_9  and  N3_10 
REMARK    3  A    between atoms: N3_10  and  C5_12 
REMARK    4  A    between atoms: C5_12  and  C6_16 
REMARK    5  A    between atoms: C6_16  and  C7_17 
REMARK    6  A    between atoms: C7_17  and  C8_18 
REMARK    7  A    between atoms: C8_18  and  C9_19 
REMARK    8  A    between atoms: C9_19  and  C10_20 
REMARK    9  A    between atoms: C10_20  and  C11_21 
REMARK   10  A    between atoms: C11_21  and  C12_22 
REMARK   11  A    between atoms: C12_22  and  C13_23 
REMARK   12  A    between atoms: C19_29  and  N5_30 
REMARK   13  A    between atoms: N5_30  and  C20_32 
ROOT
HETATM    1  N1  UNL     1      -5.056  -1.954   4.097  1.00  0.00    -0.190 NA
HETATM    2  C1  UNL     1      -4.699  -1.974   2.994  1.00  0.00     0.120 C 
HETATM    3  C2  UNL     1      -4.280  -1.994   1.631  1.00  0.00     0.145 A 
HETATM    4  N2  UNL     1      -4.029  -3.130   0.927  1.00  0.00    -0.325 N 
ATOM      5  H2  UNL     1      -4.113  -4.083   1.282  1.00  0.00     0.169 HD
HETATM    6  C3  UNL     1      -3.653  -2.785  -0.311  1.00  0.00     0.171 A 
HETATM    7  C4  UNL     1      -3.665  -1.408  -0.396  1.00  0.00     0.115 A 
HETATM    8  C19 UNL     1      -4.060  -0.907   0.826  1.00  0.00     0.117 A 
ENDROOT
BRANCH   8   9
HETATM    9  N5  UNL     1      -4.208   0.460   1.158  1.00  0.00    -0.187 N 
ATOM     10  H5  UNL     1      -3.402   0.930   1.570  1.00  0.00     0.184 HD
BRANCH   9  11
HETATM   11  C20 UNL     1      -5.382   1.232   0.967  1.00  0.00     0.674 C 
HETATM   12  N6  UNL     1      -5.292   2.508   0.726  1.00  0.00    -0.226 N 
HETATM   13  C21 UNL     1      -6.518   3.245   0.539  1.00  0.00     0.139 C 
ATOM     14  H6  UNL     1      -4.385   2.971   0.671  1.00  0.00     0.177 HD
HETATM   15  C22 UNL     1      -7.478   2.514  -0.377  1.00  0.00     0.040 C 
HETATM   16  C23 UNL     1      -7.779   1.123   0.159  1.00  0.00     0.139 C 
HETATM   17  N7  UNL     1      -6.684   0.672   1.024  1.00  0.00    -0.226 N 
ATOM     18  H7  UNL     1      -6.866  -0.075   1.694  1.00  0.00     0.177 HD
ENDBRANCH   9  11
ENDBRANCH   8   9
BRANCH   6  19
HETATM   19  O1  UNL     1      -3.310  -3.655  -1.336  1.00  0.00    -0.344 OA
ATOM     20  H1  UNL     1      -3.043  -3.410  -2.214  1.00  0.00     0.219 HD
ENDBRANCH   6  19
BRANCH   7  21
HETATM   21  N3  UNL     1      -3.343  -0.586  -1.514  1.00  0.00    -0.341 N 
ATOM     22  H3  UNL     1      -4.075  -0.309  -2.168  1.00  0.00     0.167 HD
BRANCH  21  23
HETATM   23  C5  UNL     1      -1.984  -0.143  -1.726  1.00  0.00     0.075 C 
HETATM   24  N4  UNL     1      -1.677   0.275  -2.903  1.00  0.00    -0.389 N 
ATOM     25  H42 UNL     1      -2.316   0.298  -3.697  1.00  0.00     0.157 HD
ATOM     26  H41 UNL     1      -0.718   0.588  -3.053  1.00  0.00     0.157 HD
BRANCH  23  27
HETATM   27  C6  UNL     1      -1.059  -0.176  -0.577  1.00  0.00     0.076 C 
BRANCH  27  28
HETATM   28  C7  UNL     1       0.389  -0.132  -0.914  1.00  0.00     0.007 C 
BRANCH  28  29
HETATM   29  C8  UNL     1       0.835  -1.312  -1.709  1.00  0.00     0.000 C 
BRANCH  29  30
HETATM   30  C9  UNL     1       2.297  -1.292  -2.095  1.00  0.00     0.000 C 
BRANCH  30  31
HETATM   31  C10 UNL     1       3.130  -1.264  -0.835  1.00  0.00     0.000 C 
BRANCH  31  32
HETATM   32  C11 UNL     1       4.619  -1.263  -1.176  1.00  0.00     0.000 C 
BRANCH  32  33
HETATM   33  C12 UNL     1       5.395  -1.246   0.092  1.00  0.00     0.004 C 
BRANCH  33  34
HETATM   34  C13 UNL     1       5.145  -0.042   0.973  1.00  0.00    -0.014 C 
HETATM   35  C14 UNL     1       6.013  -0.219   2.176  1.00  0.00     0.004 C 
HETATM   36  C15 UNL     1       6.583   1.010   2.767  1.00  0.00     0.000 C 
HETATM   37  C16 UNL     1       7.088   1.973   1.719  1.00  0.00     0.000 C 
HETATM   38  C17 UNL     1       5.856   2.379   0.918  1.00  0.00     0.000 C 
HETATM   39  C18 UNL     1       5.396   1.180   0.170  1.00  0.00     0.004 C 
ENDBRANCH  33  34
ENDBRANCH  32  33
ENDBRANCH  31  32
ENDBRANCH  30  31
ENDBRANCH  29  30
ENDBRANCH  28  29
ENDBRANCH  27  28
ENDBRANCH  23  27
ENDBRANCH  21  23
ENDBRANCH   7  21
TORSDOF 13
