REMARK  10 active torsions:
REMARK  status: ('A' for Active; 'I' for Inactive)
REMARK    1  A    between atoms: C3_3  and  C4_4 
REMARK    2  A    between atoms: C6_6  and  C7_7 
REMARK    3  A    between atoms: C8_8  and  C9_9 
REMARK    4  A    between atoms: C10_10  and  C11_11 
REMARK    5  A    between atoms: C12_12  and  C13_13 
REMARK    6  A    between atoms: C14_14  and  C15_15 
REMARK    7  A    between atoms: C16_16  and  C17_17 
REMARK    8  A    between atoms: C18_18  and  O1_19 
REMARK    9  A    between atoms: C21_23  and  N1_24 
REMARK   10  A    between atoms: N1_24  and  N2_26 
REMARK       I    between atoms: N2_26  and  C22_28 
ROOT
HETATM    1  C17 UNL     1      -4.534  -0.304  -0.377  1.00  0.00     0.073 A 
HETATM    2  C18 UNL     1      -5.604  -1.147  -0.464  1.00  0.00     0.092 A 
HETATM    3  C19 UNL     1      -6.940  -0.723  -0.429  1.00  0.00     0.025 A 
HETATM    4  C20 UNL     1      -8.034  -1.693  -0.573  1.00  0.00     0.056 C 
HETATM    5  C21 UNL     1      -7.167   0.623  -0.290  1.00  0.00     0.174 A 
HETATM    6  O2  UNL     1      -6.129   1.485  -0.194  1.00  0.00    -0.255 OA
HETATM    7  C23 UNL     1      -4.933   1.068  -0.235  1.00  0.00     0.302 A 
HETATM    8  O3  UNL     1      -4.012   1.938  -0.150  1.00  0.00    -0.259 OA
ENDROOT
BRANCH   1   9
HETATM    9  C16 UNL     1      -3.161  -0.554  -0.429  1.00  0.00     0.020 C 
HETATM   10  C15 UNL     1      -2.296  -1.429  -0.755  1.00  0.00     0.002 C 
BRANCH  10  11
HETATM   11  C14 UNL     1      -0.905  -0.921  -0.529  1.00  0.00     0.009 C 
HETATM   12  C13 UNL     1       0.248  -1.400  -0.731  1.00  0.00     0.065 C 
BRANCH  12  13
HETATM   13  C12 UNL     1       1.281  -0.458  -0.371  1.00  0.00    -0.074 C 
HETATM   14  C11 UNL     1       2.161   0.292  -0.080  1.00  0.00    -0.074 C 
BRANCH  14  15
HETATM   15  C10 UNL     1       3.085   1.261   0.276  1.00  0.00     0.065 C 
HETATM   16  C9  UNL     1       4.405   0.853   0.449  1.00  0.00     0.009 C 
BRANCH  16  17
HETATM   17  C8  UNL     1       4.592  -0.589   0.240  1.00  0.00     0.002 C 
HETATM   18  C7  UNL     1       5.620  -1.303   0.268  1.00  0.00     0.013 C 
BRANCH  18  19
HETATM   19  C6  UNL     1       7.011  -1.237   0.459  1.00  0.00    -0.019 A 
HETATM   20  C5  UNL     1       7.848  -0.096   0.402  1.00  0.00     0.042 A 
HETATM   21  C4  UNL     1       9.196  -0.571   0.557  1.00  0.00     0.032 A 
HETATM   22  N5  UNL     1       9.106  -1.881   0.713  1.00  0.00    -0.365 N 
HETATM   23  C24 UNL     1       7.859  -2.305   0.662  1.00  0.00     0.100 A 
ATOM     24  H5  UNL     1       9.909  -2.493   0.856  1.00  0.00     0.165 HD
BRANCH  21  25
HETATM   25  C3  UNL     1      10.345   0.277   0.332  1.00  0.00     0.025 C 
HETATM   26  C2  UNL     1      10.245   1.559   0.103  1.00  0.00    -0.029 C 
HETATM   27  C1  UNL     1      11.388   2.457  -0.165  1.00  0.00     0.036 C 
ENDBRANCH  21  25
ENDBRANCH  18  19
ENDBRANCH  16  17
ENDBRANCH  14  15
ENDBRANCH  12  13
ENDBRANCH  10  11
ENDBRANCH   1   9
BRANCH   2  28
HETATM   28  O1  UNL     1      -5.410  -2.560  -0.609  1.00  0.00    -0.359 OA
ATOM     29  H1  UNL     1      -6.155  -3.147  -0.670  1.00  0.00     0.217 HD
ENDBRANCH   2  28
BRANCH   5  30
HETATM   30  N1  UNL     1      -8.466   1.165  -0.235  1.00  0.00    -0.277 N 
ATOM     31  H1  UNL     1      -8.838   1.731  -0.997  1.00  0.00     0.189 HD
BRANCH  30  32
HETATM   32  N2  UNL     1      -9.238   0.889   0.930  1.00  0.00    -0.272 N 
HETATM   33  C22 UNL     1     -10.458   1.593   1.145  1.00  0.00     0.200 C 
HETATM   34  N3  UNL     1     -10.783   1.969   2.329  1.00  0.00    -0.372 N 
HETATM   35  N4  UNL     1     -11.270   1.817   0.015  1.00  0.00    -0.062 NA
ATOM     36  H32 UNL     1     -10.195   1.807   3.147  1.00  0.00     0.158 HD
ATOM     37  H31 UNL     1     -11.656   2.473   2.483  1.00  0.00     0.158 HD
ATOM     38  H2  UNL     1      -8.920   0.193   1.605  1.00  0.00     0.189 HD
ENDBRANCH  30  32
ENDBRANCH   5  30
TORSDOF 10
