REMARK  10 active torsions:
REMARK  status: ('A' for Active; 'I' for Inactive)
REMARK    1  A    between atoms: C2_2  and  C3_3 
REMARK    2  A    between atoms: C3_3  and  N1_4 
REMARK    3  A    between atoms: C5_6  and  C6_7 
REMARK    4  A    between atoms: C6_7  and  C7_8 
REMARK    5  A    between atoms: C7_8  and  N2_9 
REMARK    6  A    between atoms: N2_9  and  N3_11 
REMARK    7  A    between atoms: N3_11  and  N4_13 
REMARK    8  A    between atoms: C10_19  and  C11_20 
REMARK       I    between atoms: C11_20  and  N6_22 
REMARK    9  A    between atoms: N6_22  and  C12_24 
REMARK   10  A    between atoms: C13_29  and  N9_30 
ROOT
HETATM    1  N1  UNL     1      -0.549  -1.505   0.250  1.00  0.00    -0.349 N 
HETATM    2  C4  UNL     1      -1.860  -1.141   0.045  1.00  0.00     0.116 A 
HETATM    3  C5  UNL     1      -2.418  -0.033   0.627  1.00  0.00     0.028 A 
HETATM    4  N5  UNL     1      -1.664   0.731   1.429  1.00  0.00    -0.361 N 
HETATM    5  C8  UNL     1      -2.226   1.925   2.074  1.00  0.00     0.155 C 
HETATM    6  C9  UNL     1      -0.391   0.404   1.647  1.00  0.00     0.126 A 
HETATM    7  C10 UNL     1       0.188  -0.738   1.049  1.00  0.00     0.119 A 
ENDROOT
BRANCH   7   8
HETATM    8  C11 UNL     1       1.563  -1.039   1.336  1.00  0.00     0.288 C 
HETATM    9  O1  UNL     1       2.227  -1.999   0.917  1.00  0.00    -0.265 OA
HETATM   10  N6  UNL     1       2.324  -0.155   2.215  1.00  0.00    -0.152 N 
ATOM     11  H6  UNL     1       2.050  -0.010   3.187  1.00  0.00     0.187 HD
BRANCH  10  12
HETATM   12  C12 UNL     1       3.351   0.432   1.716  1.00  0.00     0.714 A 
HETATM   13  N7  UNL     1       4.163   1.274   2.371  1.00  0.00    -0.117 N 
HETATM   14  N8  UNL     1       5.117   1.685   1.530  1.00  0.00    -0.118 N 
ATOM     15  H7  UNL     1       4.069   1.554   3.347  1.00  0.00     0.206 HD
HETATM   16  C13 UNL     1       4.931   1.121   0.344  1.00  0.00     0.705 A 
ATOM     17  H8  UNL     1       5.871   2.332   1.764  1.00  0.00     0.206 HD
HETATM   18  N10 UNL     1       3.836   0.348   0.471  1.00  0.00    -0.020 N 
ATOM     19  H10 UNL     1       3.434  -0.220  -0.274  1.00  0.00     0.203 HD
BRANCH  16  20
HETATM   20  N9  UNL     1       5.634   1.263  -0.723  1.00  0.00    -0.233 N 
ATOM     21  H92 UNL     1       6.464   1.849  -0.819  1.00  0.00     0.174 HD
ATOM     22  H91 UNL     1       5.491   0.829  -1.635  1.00  0.00     0.174 HD
ENDBRANCH  16  20
ENDBRANCH  10  12
ENDBRANCH   7   8
BRANCH   1  23
HETATM   23  C3  UNL     1      -0.091  -2.698  -0.423  1.00  0.00     0.128 C 
BRANCH  23  24
HETATM   24  C2  UNL     1       0.497  -2.408  -1.779  1.00  0.00     0.016 C 
HETATM   25  C1  UNL     1      -0.562  -1.778  -2.664  1.00  0.00     0.006 C 
ENDBRANCH  23  24
ENDBRANCH   1  23
BRANCH   3  26
HETATM   26  C6  UNL     1      -3.842   0.325   0.380  1.00  0.00     0.080 C 
BRANCH  26  27
HETATM   27  C7  UNL     1      -3.998   1.226  -0.825  1.00  0.00     0.147 C 
BRANCH  27  28
HETATM   28  N2  UNL     1      -3.514   0.621  -2.032  1.00  0.00    -0.322 N 
ATOM     29  H2  UNL     1      -3.440  -0.392  -2.123  1.00  0.00     0.181 HD
BRANCH  28  30
HETATM   30  N3  UNL     1      -3.187   1.380  -2.966  1.00  0.00    -0.254 N 
ATOM     31  H3  UNL     1      -4.083   1.518  -3.433  1.00  0.00     0.207 HD
BRANCH  30  32
HETATM   32  N4  UNL     1      -2.431   2.074  -3.678  1.00  0.00    -0.331 N 
ATOM     33  H42 UNL     1      -1.558   1.906  -3.177  1.00  0.00     0.178 HD
ATOM     34  H41 UNL     1      -2.164   2.695  -4.442  1.00  0.00     0.178 HD
ENDBRANCH  30  32
ENDBRANCH  28  30
ENDBRANCH  27  28
ENDBRANCH  26  27
ENDBRANCH   3  26
TORSDOF 10
