REMARK  5 active torsions:
REMARK  status: ('A' for Active; 'I' for Inactive)
REMARK    1  A    between atoms: O1_2  and  C2_3 
REMARK    2  A    between atoms: N1_8  and  O2_10 
REMARK    3  A    between atoms: C8_13  and  O3_14 
REMARK    4  A    between atoms: C8_13  and  O4_16 
REMARK    5  A    between atoms: C10_19  and  O6_20 
ROOT
HETATM    1  C2  UNL     1       2.334  -0.104   0.485  1.00  0.00     0.265 C 
HETATM    2  C3  UNL     1       1.470  -0.586  -0.664  1.00  0.00     0.104 C 
HETATM    3  C4  UNL     1       0.050  -0.423  -0.091  1.00  0.00     0.125 C 
HETATM    4  C5  UNL     1      -0.807  -1.520  -0.586  1.00  0.00     0.098 C 
HETATM    5  C6  UNL     1      -2.162  -1.112  -1.008  1.00  0.00     0.020 C 
HETATM    6  N1  UNL     1      -3.191  -1.892  -0.997  1.00  0.00    -0.277 N 
ATOM      7  H1  UNL     1      -4.111  -1.571  -1.297  1.00  0.00     0.193 HD
HETATM    8  C7  UNL     1      -2.341   0.291  -1.473  1.00  0.00     0.156 C 
HETATM    9  C8  UNL     1      -1.663   1.121  -0.373  1.00  0.00     0.285 C 
HETATM   10  O5  UNL     1      -0.341   0.845  -0.395  1.00  0.00    -0.316 OA
HETATM   11  C10 UNL     1       0.376  -0.491   1.381  1.00  0.00     0.295 C 
HETATM   12  O7  UNL     1       1.461   0.387   1.453  1.00  0.00    -0.329 OA
ENDROOT
BRANCH  11  13
HETATM   13  O6  UNL     1       0.834  -1.733   1.787  1.00  0.00    -0.368 OA
ATOM     14  H6  UNL     1       1.039  -1.776   2.714  1.00  0.00     0.212 HD
ENDBRANCH  11  13
BRANCH   1  15
HETATM   15  O1  UNL     1       3.163   0.891  -0.024  1.00  0.00    -0.366 OA
HETATM   16  C1  UNL     1       4.508   0.591   0.143  1.00  0.00     0.204 C 
ENDBRANCH   1  15
BRANCH   9  17
HETATM   17  O3  UNL     1      -2.327   0.804   0.799  1.00  0.00    -0.343 OA
ATOM     18  H3  UNL     1      -1.908   1.317   1.479  1.00  0.00     0.215 HD
ENDBRANCH   9  17
BRANCH   9  19
HETATM   19  O4  UNL     1      -1.850   2.481  -0.600  1.00  0.00    -0.338 OA
HETATM   20  C9  UNL     1      -1.315   3.155   0.489  1.00  0.00     0.208 C 
ENDBRANCH   9  19
BRANCH   6  21
HETATM   21  O2  UNL     1      -2.980  -3.181  -0.559  1.00  0.00    -0.290 OA
ATOM     22  H2  UNL     1      -3.737  -3.755  -0.551  1.00  0.00     0.244 HD
ENDBRANCH   6  21
TORSDOF 5
