REMARK  2 active torsions:
REMARK  status: ('A' for Active; 'I' for Inactive)
REMARK    1  A    between atoms: O1_1  and  N1_3 
REMARK    2  A    between atoms: C12_25  and  O5_26 
ROOT
HETATM    1  N1  UNL     1       4.791  -0.827   0.642  1.00  0.00    -0.248 N 
ATOM      2  H1  UNL     1       5.167  -1.759   0.817  1.00  0.00     0.196 HD
HETATM    3  C1  UNL     1       3.526  -0.719   0.401  1.00  0.00     0.197 C 
HETATM    4  N2  UNL     1       2.745  -1.894   0.395  1.00  0.00    -0.245 N 
ATOM      5  H2  UNL     1       2.839  -2.509   1.203  1.00  0.00     0.196 HD
HETATM    6  O2  UNL     1       1.886  -2.290  -0.568  1.00  0.00    -0.277 OA
HETATM    7  C2  UNL     1       0.567  -2.130  -0.212  1.00  0.00     0.227 C 
HETATM    8  C3  UNL     1      -0.225  -3.442  -0.198  1.00  0.00     0.196 C 
HETATM    9  O3  UNL     1      -1.476  -3.101   0.346  1.00  0.00    -0.389 OA
HETATM   10  C4  UNL     1      -1.913  -1.874  -0.132  1.00  0.00     0.167 C 
HETATM   11  C5  UNL     1      -3.372  -1.604   0.169  1.00  0.00     0.026 C 
HETATM   12  C6  UNL     1      -3.589  -0.121   0.475  1.00  0.00     0.002 C 
HETATM   13  C7  UNL     1      -2.912   0.742  -0.554  1.00  0.00     0.002 C 
HETATM   14  C8  UNL     1      -1.903   1.706   0.027  1.00  0.00     0.020 C 
HETATM   15  C9  UNL     1      -0.889   2.135  -1.003  1.00  0.00     0.121 C 
HETATM   16  N3  UNL     1       0.232   2.783  -0.364  1.00  0.00    -0.372 N 
ATOM     17  H3  UNL     1       0.094   3.733  -0.018  1.00  0.00     0.161 HD
HETATM   18  C10 UNL     1       1.512   2.196  -0.181  1.00  0.00     0.163 A 
HETATM   19  N4  UNL     1       1.718   0.898   0.027  1.00  0.00    -0.316 N 
ATOM     20  H4  UNL     1       0.980   0.195   0.077  1.00  0.00     0.169 HD
HETATM   21  C11 UNL     1       3.021   0.640   0.162  1.00  0.00     0.200 A 
HETATM   22  O4  UNL     1       3.632   1.796   0.036  1.00  0.00    -0.264 OA
HETATM   23  C12 UNL     1       2.771   2.757  -0.170  1.00  0.00     0.230 A 
ENDROOT
BRANCH   1  24
HETATM   24  O1  UNL     1       5.648   0.219   0.677  1.00  0.00    -0.288 OA
ATOM     25  H1  UNL     1       6.578   0.140   0.854  1.00  0.00     0.244 HD
ENDBRANCH   1  24
BRANCH  23  26
HETATM   26  O5  UNL     1       3.102   4.093  -0.343  1.00  0.00    -0.338 OA
ATOM     27  H5  UNL     1       3.970   4.480  -0.335  1.00  0.00     0.220 HD
ENDBRANCH  23  26
TORSDOF 2
