REMARK  6 active torsions:
REMARK  status: ('A' for Active; 'I' for Inactive)
REMARK    1  A    between atoms: C7_8  and  C8_9 
REMARK       I    between atoms: C8_9  and  N2_11 
REMARK    2  A    between atoms: N2_11  and  N3_13 
REMARK    3  A    between atoms: N3_13  and  C9_15 
REMARK    4  A    between atoms: C9_15  and  N4_17 
REMARK    5  A    between atoms: N4_17  and  N5_19 
REMARK    6  A    between atoms: N5_19  and  S2_21 
ROOT
HETATM    1  C8  UNL     1      -0.685  -0.336   0.154  1.00  0.00     0.259 C 
HETATM    2  O1  UNL     1      -0.739  -1.485  -0.355  1.00  0.00    -0.269 OA
HETATM    3  N2  UNL     1       0.525   0.385  -0.022  1.00  0.00    -0.266 N 
ATOM      4  H2  UNL     1       0.600   1.320   0.378  1.00  0.00     0.190 HD
ENDROOT
BRANCH   3   5
HETATM    5  N3  UNL     1       1.619  -0.136  -0.722  1.00  0.00    -0.272 N 
ATOM      6  H3  UNL     1       1.508  -0.315  -1.720  1.00  0.00     0.189 HD
BRANCH   5   7
HETATM    7  C9  UNL     1       2.857  -0.427  -0.136  1.00  0.00     0.206 C 
HETATM    8  S1  UNL     1       3.169  -0.188   1.457  1.00  0.00    -0.038 SA
BRANCH   7   9
HETATM    9  N4  UNL     1       3.902  -0.953  -0.936  1.00  0.00    -0.266 N 
ATOM     10  H4  UNL     1       3.736  -1.112  -1.930  1.00  0.00     0.190 HD
BRANCH   9  11
HETATM   11  N5  UNL     1       5.156  -1.260  -0.395  1.00  0.00    -0.225 N 
ATOM     12  H5  UNL     1       5.291  -1.918   0.372  1.00  0.00     0.200 HD
BRANCH  11  13
HETATM   13  S2  UNL     1       6.439  -0.420  -1.150  1.00  0.00     0.240 S 
HETATM   14  C10 UNL     1       6.814   1.121  -0.391  1.00  0.00     0.187 C 
HETATM   15  O2  UNL     1       7.642  -1.313  -1.156  1.00  0.00    -0.205 OA
HETATM   16  O3  UNL     1       6.084  -0.178  -2.610  1.00  0.00    -0.205 OA
ENDBRANCH  11  13
ENDBRANCH   9  11
ENDBRANCH   7   9
ENDBRANCH   5   7
ENDBRANCH   3   5
BRANCH   1  17
HETATM   17  C7  UNL     1      -1.778   0.288   0.904  1.00  0.00     0.187 C 
HETATM   18  N1  UNL     1      -2.953  -0.534   1.034  1.00  0.00    -0.384 N 
HETATM   19  C1  UNL     1      -2.636  -1.551   2.026  1.00  0.00     0.149 C 
HETATM   20  C2  UNL     1      -3.749  -0.983   0.024  1.00  0.00     0.059 C 
HETATM   21  C3  UNL     1      -5.021  -0.239  -0.427  1.00  0.00     0.055 C 
HETATM   22  C4  UNL     1      -4.685   1.243  -0.820  1.00  0.00     0.085 C 
HETATM   23  C5  UNL     1      -3.425   1.524  -0.274  1.00  0.00    -0.180 C 
HETATM   24  C6  UNL     1      -2.143   1.691   0.282  1.00  0.00     0.115 C 
ENDBRANCH   1  17
TORSDOF 6
