REMARK  2 active torsions:
REMARK  status: ('A' for Active; 'I' for Inactive)
REMARK    1  A    between atoms: N1_3  and  C3_5 
REMARK    2  A    between atoms: C3_5  and  C5_13 
REMARK       I    between atoms: N2_6  and  C4_8 
REMARK       I    between atoms: C5_13  and  N5_15 
ROOT
HETATM    1  C1  UNL     1      -2.048   2.838  -0.640  1.00  0.00     0.037 C 
HETATM    2  C2  UNL     1      -1.217   1.975  -0.812  1.00  0.00     0.001 C 
HETATM    3  N1  UNL     1      -0.278   0.973  -1.025  1.00  0.00    -0.297 N 
ATOM      4  H1  UNL     1       0.359   1.069  -1.816  1.00  0.00     0.178 HD
ENDROOT
BRANCH   3   5
HETATM    5  C3  UNL     1      -0.160  -0.164  -0.210  1.00  0.00     0.185 C 
HETATM    6  N2  UNL     1       0.870  -0.362   0.487  1.00  0.00    -0.312 N 
HETATM    7  C4  UNL     1       2.007   0.474   0.561  1.00  0.00     0.187 C 
ATOM      8  H2  UNL     1       0.885  -1.210   1.054  1.00  0.00     0.170 HD
HETATM    9  N3  UNL     1       2.130   1.469   1.366  1.00  0.00    -0.373 N 
HETATM   10  N4  UNL     1       3.087   0.190  -0.321  1.00  0.00    -0.064 NA
ATOM     11  H32 UNL     1       1.356   1.673   1.998  1.00  0.00     0.158 HD
ATOM     12  H31 UNL     1       2.951   2.072   1.419  1.00  0.00     0.158 HD
BRANCH   5  13
HETATM   13  C5  UNL     1      -1.237  -1.127  -0.166  1.00  0.00     0.299 C 
HETATM   14  O1  UNL     1      -2.258  -0.924  -0.861  1.00  0.00    -0.263 OA
HETATM   15  N5  UNL     1      -1.159  -2.299   0.650  1.00  0.00    -0.257 N 
HETATM   16  C6  UNL     1      -2.210  -3.208   0.672  1.00  0.00     0.184 C 
ATOM     17  H5  UNL     1      -0.329  -2.468   1.218  1.00  0.00     0.181 HD
HETATM   18  N6  UNL     1      -3.084  -3.974   0.672  1.00  0.00    -0.172 NA
ENDBRANCH   5  13
ENDBRANCH   3   5
TORSDOF 2
