REMARK  10 active torsions:
REMARK  status: ('A' for Active; 'I' for Inactive)
REMARK    1  A    between atoms: C2_6  and  N4_7 
REMARK    2  A    between atoms: N4_7  and  C3_9 
REMARK    3  A    between atoms: C3_9  and  C4_14 
REMARK    4  A    between atoms: N5_10  and  O1_12 
REMARK    5  A    between atoms: C7_17  and  N6_18 
REMARK    6  A    between atoms: N9_27  and  C10_28 
REMARK    7  A    between atoms: C10_28  and  C11_29 
REMARK    8  A    between atoms: C11_29  and  O2_30 
REMARK    9  A    between atoms: C11_29  and  C12_32 
REMARK   10  A    between atoms: C12_32  and  O3_33 
ROOT
HETATM    1  C4  UNL     1      -0.244   0.114   0.750  1.00  0.00     0.084 A 
HETATM    2  C5  UNL     1       0.160   1.446   0.948  1.00  0.00     0.052 A 
HETATM    3  C6  UNL     1      -0.933   2.223   0.784  1.00  0.00     0.054 A 
HETATM    4  C7  UNL     1      -1.100   3.607   0.867  1.00  0.00     0.113 A 
HETATM    5  N7  UNL     1      -2.349   4.057   0.643  1.00  0.00    -0.338 N 
ATOM      6  H7  UNL     1      -2.523   5.061   0.691  1.00  0.00     0.168 HD
HETATM    7  C8  UNL     1      -3.377   3.236   0.358  1.00  0.00     0.183 A 
HETATM    8  N8  UNL     1      -3.207   1.888   0.280  1.00  0.00    -0.338 N 
ATOM      9  H8  UNL     1      -3.993   1.275   0.064  1.00  0.00     0.168 HD
HETATM   10  C9  UNL     1      -1.973   1.379   0.495  1.00  0.00     0.123 A 
HETATM   11  N9  UNL     1      -1.547   0.081   0.474  1.00  0.00    -0.327 N 
ENDROOT
BRANCH   1  12
HETATM   12  C3  UNL     1       0.669  -1.009   0.855  1.00  0.00     0.167 C 
HETATM   13  N5  UNL     1       0.380  -2.197   0.488  1.00  0.00    -0.251 N 
ATOM     14  H5  UNL     1      -0.549  -2.356   0.099  1.00  0.00     0.196 HD
BRANCH  12  15
HETATM   15  N4  UNL     1       1.961  -0.795   1.395  1.00  0.00    -0.170 N 
ATOM     16  H4  UNL     1       2.079  -0.728   2.406  1.00  0.00     0.186 HD
BRANCH  15  17
HETATM   17  C2  UNL     1       2.993  -0.684   0.623  1.00  0.00     0.712 A 
HETATM   18  N3  UNL     1       2.992  -0.753  -0.738  1.00  0.00    -0.113 N 
HETATM   19  N2  UNL     1       4.246  -0.593  -1.158  1.00  0.00     0.011 NA
ATOM     20  H3  UNL     1       2.175  -0.901  -1.331  1.00  0.00     0.203 HD
HETATM   21  N1  UNL     1       5.011  -0.427  -0.076  1.00  0.00    -0.208 N 
HETATM   22  C1  UNL     1       6.434  -0.225  -0.160  1.00  0.00     0.198 C 
HETATM   23  N10 UNL     1       4.261  -0.481   1.007  1.00  0.00    -0.116 N 
ATOM     24  H10 UNL     1       4.588  -0.385   1.968  1.00  0.00     0.207 HD
ENDBRANCH  15  17
ENDBRANCH  12  15
BRANCH  13  25
HETATM   25  O1  UNL     1       1.211  -3.264   0.575  1.00  0.00    -0.288 OA
ATOM     26  H1  UNL     1       0.996  -4.148   0.302  1.00  0.00     0.244 HD
ENDBRANCH  13  25
ENDBRANCH   1  12
BRANCH  11  27
HETATM   27  C10 UNL     1      -2.381  -1.079   0.191  1.00  0.00     0.165 C 
BRANCH  27  28
HETATM   28  C11 UNL     1      -2.454  -1.393  -1.271  1.00  0.00     0.160 C 
BRANCH  28  29
HETATM   29  O2  UNL     1      -3.004  -0.283  -1.952  1.00  0.00    -0.392 OA
ATOM     30  H2  UNL     1      -3.050  -0.482  -2.880  1.00  0.00     0.210 HD
ENDBRANCH  28  29
BRANCH  28  31
HETATM   31  C12 UNL     1      -3.481  -2.509  -1.436  1.00  0.00     0.197 C 
BRANCH  31  32
HETATM   32  O3  UNL     1      -3.705  -2.820  -2.767  1.00  0.00    -0.398 OA
ATOM     33  H3  UNL     1      -4.345  -3.515  -2.870  1.00  0.00     0.209 HD
ENDBRANCH  31  32
ENDBRANCH  28  31
ENDBRANCH  27  28
ENDBRANCH  11  27
BRANCH   4  34
HETATM   34  N6  UNL     1      -0.117   4.397   1.140  1.00  0.00    -0.385 N 
ATOM     35  H62 UNL     1       0.829   4.056   1.310  1.00  0.00     0.157 HD
ATOM     36  H61 UNL     1      -0.239   5.408   1.201  1.00  0.00     0.157 HD
ENDBRANCH   4  34
TORSDOF 10
