REMARK  7 active torsions:
REMARK  status: ('A' for Active; 'I' for Inactive)
REMARK    1  A    between atoms: N1_1  and  C1_4 
REMARK    2  A    between atoms: C2_7  and  N3_8 
REMARK    3  A    between atoms: N3_8  and  C3_10 
REMARK    4  A    between atoms: C3_10  and  C4_11 
REMARK    5  A    between atoms: N6_17  and  N7_18 
REMARK    6  A    between atoms: C7_22  and  S1_23 
REMARK    7  A    between atoms: S1_23  and  N8_24 
ROOT
HETATM    1  C1  UNL     1      -0.897   3.343   0.563  1.00  0.00     0.679 A 
HETATM    2  N2  UNL     1       0.008   2.481   0.076  1.00  0.00    -0.176 N 
ATOM      3  H2  UNL     1       0.936   2.827  -0.168  1.00  0.00     0.186 HD
HETATM    4  C2  UNL     1      -0.272   1.152  -0.105  1.00  0.00     0.133 A 
HETATM    5  C6  UNL     1      -1.513   0.679   0.218  1.00  0.00     0.078 A 
HETATM    6  C7  UNL     1      -1.870  -0.665   0.070  1.00  0.00     0.122 A 
HETATM    7  C8  UNL     1      -3.176  -0.968   0.466  1.00  0.00     0.086 A 
HETATM    8  N9  UNL     1      -3.564  -2.344   0.331  1.00  0.00    -0.099 NA
HETATM    9  C9  UNL     1      -4.079  -0.063   0.963  1.00  0.00     0.118 A 
HETATM   10  N10 UNL     1      -3.706   1.206   1.087  1.00  0.00    -0.349 N 
ATOM     11  H10 UNL     1      -4.357   1.900   1.453  1.00  0.00     0.166 HD
HETATM   12  C10 UNL     1      -2.466   1.566   0.727  1.00  0.00     0.136 A 
HETATM   13  N11 UNL     1      -2.110   2.877   0.879  1.00  0.00    -0.176 N 
ATOM     14  H11 UNL     1      -2.801   3.529   1.250  1.00  0.00     0.186 HD
ENDROOT
BRANCH   4  15
HETATM   15  N3  UNL     1       0.620   0.351  -0.551  1.00  0.00    -0.368 N 
ATOM     16  H3  UNL     1       0.416  -0.639  -0.687  1.00  0.00     0.161 HD
BRANCH  15  17
HETATM   17  C3  UNL     1       1.929   0.891  -0.858  1.00  0.00     0.201 C 
BRANCH  17  18
HETATM   18  C4  UNL     1       2.877  -0.110  -1.353  1.00  0.00     0.136 A 
HETATM   19  N4  UNL     1       3.123  -0.501  -2.607  1.00  0.00    -0.285 N 
HETATM   20  N5  UNL     1       4.071  -1.446  -2.614  1.00  0.00    -0.293 N 
ATOM     21  H4  UNL     1       2.657  -0.133  -3.437  1.00  0.00     0.188 HD
HETATM   22  C5  UNL     1       4.419  -1.641  -1.319  1.00  0.00     0.224 A 
ATOM     23  H5  UNL     1       4.454  -1.923  -3.430  1.00  0.00     0.187 HD
HETATM   24  N6  UNL     1       3.695  -0.831  -0.548  1.00  0.00    -0.242 N 
BRANCH  24  25
HETATM   25  N7  UNL     1       3.765  -0.737   0.843  1.00  0.00    -0.336 N 
ATOM     26  H72 UNL     1       3.211  -0.117   1.433  1.00  0.00     0.177 HD
ATOM     27  H71 UNL     1       4.381  -1.280   1.449  1.00  0.00     0.177 HD
ENDBRANCH  24  25
ENDBRANCH  17  18
ENDBRANCH  15  17
ENDBRANCH   4  15
BRANCH   1  28
HETATM   28  N1  UNL     1      -0.595   4.569   0.715  1.00  0.00    -0.234 N 
ATOM     29  H12 UNL     1       0.330   4.924   0.474  1.00  0.00     0.174 HD
ATOM     30  H11 UNL     1      -1.283   5.224   1.085  1.00  0.00     0.174 HD
ENDBRANCH   1  28
BRANCH   6  31
HETATM   31  S1  UNL     1      -0.776  -1.787  -0.585  1.00  0.00     0.259 S 
HETATM   32  O1  UNL     1      -0.407  -1.698  -2.035  1.00  0.00    -0.201 OA
HETATM   33  O2  UNL     1      -1.691  -3.048  -0.770  1.00  0.00    -0.201 OA
BRANCH  31  34
HETATM   34  N8  UNL     1       0.377  -2.497   0.454  1.00  0.00    -0.324 N 
ATOM     35  H82 UNL     1       0.395  -2.243   1.442  1.00  0.00     0.169 HD
ATOM     36  H81 UNL     1       1.034  -3.171   0.061  1.00  0.00     0.169 HD
ENDBRANCH  31  34
ENDBRANCH   6  31
TORSDOF 7
