REMARK  5 active torsions:
REMARK  status: ('A' for Active; 'I' for Inactive)
REMARK    1  A    between atoms: C2_2  and  C3_3 
REMARK    2  A    between atoms: C2_2  and  N4_17 
REMARK       I    between atoms: C3_3  and  N1_5 
REMARK    3  A    between atoms: N1_5  and  C4_7 
REMARK    4  A    between atoms: C5_13  and  C6_14 
REMARK    5  A    between atoms: C9_26  and  C11_28 
ROOT
HETATM    1  C1  UNL     1       0.511  -1.648  -1.461  1.00  0.00     0.043 C 
HETATM    2  C2  UNL     1       0.226  -0.505  -0.516  1.00  0.00     0.178 C 
ENDROOT
BRANCH   2   3
HETATM    3  C3  UNL     1       1.266  -0.440   0.559  1.00  0.00     0.246 C 
HETATM    4  O1  UNL     1       0.794  -0.137   1.715  1.00  0.00    -0.271 OA
HETATM    5  N1  UNL     1       2.581  -0.660   0.435  1.00  0.00    -0.308 N 
ATOM      6  H1  UNL     1       2.672  -1.670   0.540  1.00  0.00     0.170 HD
BRANCH   5   7
HETATM    7  C4  UNL     1       3.710  -0.284   0.264  1.00  0.00     0.166 A 
HETATM    8  N2  UNL     1       4.789  -1.135   0.239  1.00  0.00    -0.223 N 
HETATM    9  O2  UNL     1       5.863  -0.464   0.041  1.00  0.00    -0.154 OA
ATOM     10  H2  UNL     1       4.742  -2.147   0.360  1.00  0.00     0.198 HD
HETATM   11  N3  UNL     1       5.611   0.795  -0.075  1.00  0.00    -0.231 N 
HETATM   12  C5  UNL     1       4.254   0.957   0.060  1.00  0.00     0.178 A 
ATOM     13  H3  UNL     1       6.294   1.535  -0.237  1.00  0.00     0.197 HD
BRANCH  12  14
HETATM   14  C6  UNL     1       3.644   2.255  -0.019  1.00  0.00     0.232 C 
HETATM   15  O3  UNL     1       4.329   3.284  -0.215  1.00  0.00    -0.643 OA
HETATM   16  O4  UNL     1       2.288   2.426   0.116  1.00  0.00    -0.643 OA
ENDBRANCH  12  14
ENDBRANCH   5   7
ENDBRANCH   2   3
BRANCH   2  17
HETATM   17  N4  UNL     1      -1.122  -0.467  -0.024  1.00  0.00    -0.306 N 
HETATM   18  C7  UNL     1      -1.604  -1.565   0.741  1.00  0.00     0.196 A 
HETATM   19  N5  UNL     1      -0.754  -2.660   1.007  1.00  0.00    -0.063 NA
HETATM   20  N6  UNL     1      -2.814  -1.625   1.223  1.00  0.00    -0.305 N 
HETATM   21  C8  UNL     1      -3.734  -0.567   1.000  1.00  0.00     0.193 A 
ATOM     22  H6  UNL     1      -3.102  -2.439   1.765  1.00  0.00     0.171 HD
HETATM   23  N7  UNL     1      -5.046  -0.666   1.540  1.00  0.00    -0.063 NA
HETATM   24  N8  UNL     1      -3.343   0.425   0.324  1.00  0.00    -0.329 N 
HETATM   25  C9  UNL     1      -2.043   0.628  -0.268  1.00  0.00     0.198 A 
ATOM     26  H8  UNL     1      -4.025   1.169   0.180  1.00  0.00     0.165 HD
HETATM   27  C10 UNL     1      -1.487   1.882   0.426  1.00  0.00     0.076 C 
BRANCH  25  28
HETATM   28  C11 UNL     1      -2.183   0.978  -1.699  1.00  0.00     0.224 C 
HETATM   29  O5  UNL     1      -1.565   0.356  -2.585  1.00  0.00    -0.645 OA
HETATM   30  O6  UNL     1      -3.015   2.011  -2.045  1.00  0.00    -0.645 OA
ENDBRANCH  25  28
ENDBRANCH   2  17
TORSDOF 5
