REMARK  11 active torsions:
REMARK  status: ('A' for Active; 'I' for Inactive)
REMARK    1  A    between atoms: C2_2  and  C4_4 
REMARK    2  A    between atoms: C4_4  and  N1_5 
REMARK    3  A    between atoms: C4_4  and  C5_9 
REMARK    4  A    between atoms: C7_12  and  C8_13 
REMARK    5  A    between atoms: C9_16  and  C10_17 
REMARK    6  A    between atoms: C10_17  and  C11_18 
REMARK    7  A    between atoms: C12_21  and  N4_22 
REMARK    8  A    between atoms: C13_26  and  N5_27 
REMARK       I    between atoms: N5_27  and  C14_29 
REMARK    9  A    between atoms: C14_29  and  C15_31 
REMARK       I    between atoms: C15_31  and  N6_33 
REMARK   10  A    between atoms: N6_33  and  N7_35 
REMARK   11  A    between atoms: C16_37  and  C18_40 
ROOT
HETATM    1  N7  UNL     1       4.600  -2.759   0.018  1.00  0.00    -0.284 N 
ATOM      2  H7  UNL     1       4.074  -3.244   0.745  1.00  0.00     0.188 HD
HETATM    3  C16 UNL     1       5.822  -3.071  -0.224  1.00  0.00     0.194 C 
HETATM    4  C17 UNL     1       6.525  -2.363  -1.256  1.00  0.00     0.124 C 
HETATM    5  N8  UNL     1       7.094  -1.811  -2.077  1.00  0.00    -0.190 NA
ENDROOT
BRANCH   3   6
HETATM    6  C18 UNL     1       6.463  -4.121   0.542  1.00  0.00     0.293 C 
HETATM    7  N9  UNL     1       5.733  -4.793   1.552  1.00  0.00    -0.055 NA
HETATM    8  O3  UNL     1       7.653  -4.449   0.331  1.00  0.00    -0.269 OA
ENDBRANCH   3   6
BRANCH   1   9
HETATM    9  N6  UNL     1       4.002  -1.738  -0.737  1.00  0.00    -0.261 N 
HETATM   10  C15 UNL     1       4.062  -0.413  -0.271  1.00  0.00     0.328 C 
HETATM   11  O2  UNL     1       4.629  -0.137   0.786  1.00  0.00    -0.261 OA
ATOM     12  H6  UNL     1       3.529  -1.955  -1.614  1.00  0.00     0.190 HD
BRANCH  10  13
HETATM   13  C14 UNL     1       3.413   0.669  -1.101  1.00  0.00     0.316 C 
HETATM   14  N5  UNL     1       3.505   1.933  -0.587  1.00  0.00    -0.311 N 
ATOM     15  H5  UNL     1       4.020   1.966   0.293  1.00  0.00     0.170 HD
HETATM   16  O1  UNL     1       2.876   0.306  -2.138  1.00  0.00    -0.262 OA
BRANCH  14  17
HETATM   17  C13 UNL     1       3.048   3.200  -1.000  1.00  0.00     0.103 A 
HETATM   18  C11 UNL     1       2.225   3.765  -1.900  1.00  0.00     0.052 A 
HETATM   19  N3  UNL     1       2.191   5.087  -1.999  1.00  0.00    -0.338 N 
HETATM   20  C12 UNL     1       2.961   5.819  -1.212  1.00  0.00     0.144 A 
ATOM     21  H3  UNL     1       1.575   5.536  -2.677  1.00  0.00     0.168 HD
HETATM   22  S2  UNL     1       3.772   4.673  -0.293  1.00  0.00    -0.035 SA
BRANCH  18  23
HETATM   23  C10 UNL     1       1.257   2.926  -2.741  1.00  0.00     0.138 C 
BRANCH  23  24
HETATM   24  C9  UNL     1       0.053   2.557  -1.982  1.00  0.00     0.110 A 
HETATM   25  N2  UNL     1      -0.258   1.440  -1.324  1.00  0.00    -0.321 N 
HETATM   26  C8  UNL     1      -1.449   1.508  -0.762  1.00  0.00     0.205 A 
ATOM     27  H2  UNL     1       0.355   0.627  -1.262  1.00  0.00     0.169 HD
HETATM   28  O4  UNL     1      -1.909   2.691  -1.066  1.00  0.00    -0.215 OA
HETATM   29  N10 UNL     1      -1.059   3.351  -1.786  1.00  0.00    -0.246 N 
ATOM     30  H10 UNL     1      -1.189   4.296  -2.147  1.00  0.00     0.196 HD
BRANCH  26  31
HETATM   31  C7  UNL     1      -2.091   0.451   0.032  1.00  0.00     0.128 A 
HETATM   32  S1  UNL     1      -1.459  -1.113   0.402  1.00  0.00    -0.078 SA
HETATM   33  C6  UNL     1      -2.774  -1.707   1.320  1.00  0.00     0.079 A 
HETATM   34  C5  UNL     1      -3.640  -0.635   1.283  1.00  0.00     0.047 A 
HETATM   35  N11 UNL     1      -3.255   0.413   0.631  1.00  0.00    -0.348 N 
ATOM     36  H11 UNL     1      -3.870   1.226   0.582  1.00  0.00     0.166 HD
BRANCH  34  37
HETATM   37  C4  UNL     1      -4.976  -0.738   1.995  1.00  0.00     0.236 C 
BRANCH  37  38
HETATM   38  C2  UNL     1      -6.015  -1.420   1.177  1.00  0.00     0.014 C 
HETATM   39  C1  UNL     1      -7.333  -1.347   1.910  1.00  0.00     0.012 C 
HETATM   40  C3  UNL     1      -5.680  -2.840   0.789  1.00  0.00     0.012 C 
ENDBRANCH  37  38
BRANCH  37  41
HETATM   41  N1  UNL     1      -4.825  -1.353   3.278  1.00  0.00    -0.069 N 
ATOM     42  H13 UNL     1      -5.715  -1.403   3.774  1.00  0.00     0.275 HD
ATOM     43  H12 UNL     1      -4.635  -2.351   3.192  1.00  0.00     0.275 HD
ATOM     44  H11 UNL     1      -4.113  -0.885   3.839  1.00  0.00     0.275 HD
ENDBRANCH  37  41
ENDBRANCH  34  37
ENDBRANCH  26  31
ENDBRANCH  23  24
ENDBRANCH  18  23
BRANCH  20  45
HETATM   45  N4  UNL     1       3.043   7.143  -1.188  1.00  0.00    -0.380 N 
ATOM     46  H42 UNL     1       2.550   7.840  -1.747  1.00  0.00     0.158 HD
ATOM     47  H41 UNL     1       3.637   7.708  -0.581  1.00  0.00     0.158 HD
ENDBRANCH  20  45
ENDBRANCH  14  17
ENDBRANCH  10  13
ENDBRANCH   1   9
TORSDOF 11
