REMARK  13 active torsions:
REMARK  status: ('A' for Active; 'I' for Inactive)
REMARK    1  A    between atoms: O1_2  and  C2_3 
REMARK    2  A    between atoms: C5_6  and  C6_7 
REMARK    3  A    between atoms: N1_11  and  C9_12 
REMARK    4  A    between atoms: C9_12  and  C10_13 
REMARK    5  A    between atoms: C10_13  and  O3_14 
REMARK    6  A    between atoms: C10_13  and  N2_16 
REMARK    7  A    between atoms: N2_16  and  N3_17 
REMARK       I    between atoms: N3_17  and  C11_19 
REMARK    8  A    between atoms: N5_21  and  N6_23 
REMARK    9  A    between atoms: C12_25  and  C13_26 
REMARK   10  A    between atoms: C16_29  and  N7_30 
REMARK   11  A    between atoms: C18_34  and  O6_35 
REMARK   12  A    between atoms: C19_37  and  N8_38 
REMARK   13  A    between atoms: N9_41  and  N10_42 
ROOT
HETATM    1  C10 UNL     1      -0.798  -2.669   0.348  1.00  0.00     0.250 C 
ENDROOT
BRANCH   1   2
HETATM    2  C9  UNL     1       0.530  -3.226  -0.096  1.00  0.00     0.202 C 
BRANCH   2   3
HETATM    3  N1  UNL     1       1.593  -2.257  -0.168  1.00  0.00    -0.142 N 
HETATM    4  C8  UNL     1       1.784  -1.548  -1.300  1.00  0.00     0.264 A 
HETATM    5  C7  UNL     1       2.781  -0.611  -1.462  1.00  0.00     0.108 A 
HETATM    6  O2  UNL     1       0.994  -1.762  -2.268  1.00  0.00    -0.267 OA
HETATM    7  C6  UNL     1       3.633  -0.386  -0.407  1.00  0.00     0.089 A 
HETATM    8  N9  UNL     1       3.448  -1.087   0.718  1.00  0.00    -0.092 N 
HETATM    9  C19 UNL     1       2.459  -2.002   0.849  1.00  0.00     0.702 A 
BRANCH   7  10
HETATM   10  C5  UNL     1       4.702   0.584  -0.507  1.00  0.00    -0.006 A 
HETATM   11  C4  UNL     1       5.960   0.251  -0.956  1.00  0.00     0.016 A 
HETATM   12  C3  UNL     1       6.947   1.232  -1.030  1.00  0.00     0.037 A 
HETATM   13  C2  UNL     1       6.712   2.539  -0.667  1.00  0.00     0.068 A 
HETATM   14  C21 UNL     1       5.446   2.863  -0.218  1.00  0.00     0.037 A 
HETATM   15  C20 UNL     1       4.457   1.898  -0.140  1.00  0.00     0.016 A 
BRANCH  13  16
HETATM   16  O1  UNL     1       7.662   3.526  -0.729  1.00  0.00    -0.356 OA
HETATM   17  C1  UNL     1       8.982   3.380  -1.155  1.00  0.00     0.210 C 
ENDBRANCH  13  16
ENDBRANCH   7  10
BRANCH   8  18
HETATM   18  N10 UNL     1       4.339  -0.830   1.779  1.00  0.00    -0.324 N 
ATOM     19 2H10 UNL     1       5.084  -0.141   1.680  1.00  0.00     0.178 HD
ATOM     20 1H10 UNL     1       4.198  -1.364   2.636  1.00  0.00     0.178 HD
ENDBRANCH   8  18
BRANCH   9  21
HETATM   21  N8  UNL     1       2.321  -2.666   1.947  1.00  0.00    -0.233 N 
ATOM     22  H82 UNL     1       1.576  -3.355   2.046  1.00  0.00     0.174 HD
ATOM     23  H81 UNL     1       2.971  -2.475   2.710  1.00  0.00     0.174 HD
ENDBRANCH   9  21
ENDBRANCH   2   3
ENDBRANCH   1   2
BRANCH   1  24
HETATM   24  O3  UNL     1      -1.730  -3.703   0.383  1.00  0.00    -0.376 OA
ATOM     25  H3  UNL     1      -2.567  -3.352   0.663  1.00  0.00     0.211 HD
ENDBRANCH   1  24
BRANCH   1  26
HETATM   26  N2  UNL     1      -0.801  -1.977   1.579  1.00  0.00    -0.105 NA
BRANCH  26  27
HETATM   27  N3  UNL     1      -2.078  -1.507   1.881  1.00  0.00    -0.274 N 
HETATM   28  C11 UNL     1      -3.289  -1.907   1.270  1.00  0.00     0.218 C 
HETATM   29  N4  UNL     1      -4.191  -2.853   1.828  1.00  0.00    -0.061 NA
HETATM   30  N5  UNL     1      -3.607  -1.379   0.141  1.00  0.00    -0.273 N 
ATOM     31  H5  UNL     1      -2.941  -0.699  -0.225  1.00  0.00     0.189 HD
ATOM     32  H3  UNL     1      -2.146  -0.804   2.617  1.00  0.00     0.185 HD
BRANCH  30  33
HETATM   33  N6  UNL     1      -4.673  -1.590  -0.615  1.00  0.00    -0.309 N 
HETATM   34  C12 UNL     1      -5.680  -1.037  -1.074  1.00  0.00     0.121 C 
ATOM     35  H6  UNL     1      -4.659  -2.559  -0.935  1.00  0.00     0.186 HD
BRANCH  34  36
HETATM   36  C13 UNL     1      -6.074   0.360  -0.854  1.00  0.00     0.014 A 
HETATM   37  C14 UNL     1      -5.337   1.234  -0.086  1.00  0.00     0.018 A 
HETATM   38  C15 UNL     1      -5.707   2.560   0.124  1.00  0.00     0.037 A 
HETATM   39  C16 UNL     1      -6.854   3.055  -0.444  1.00  0.00     0.105 A 
HETATM   40  C17 UNL     1      -7.597   2.194  -1.212  1.00  0.00     0.073 A 
HETATM   41  C18 UNL     1      -7.223   0.876  -1.417  1.00  0.00     0.079 A 
BRANCH  39  42
HETATM   42  N7  UNL     1      -7.255   4.417  -0.241  1.00  0.00    -0.116 N 
HETATM   43  O4  UNL     1      -8.294   4.806  -0.776  1.00  0.00    -0.532 OA
HETATM   44  O5  UNL     1      -6.504   5.266   0.528  1.00  0.00    -0.532 OA
ENDBRANCH  39  42
BRANCH  41  45
HETATM   45  O6  UNL     1      -8.038   0.114  -2.197  1.00  0.00    -0.360 OA
ATOM     46  H6  UNL     1      -8.829   0.469  -2.585  1.00  0.00     0.217 HD
ENDBRANCH  41  45
ENDBRANCH  34  36
ENDBRANCH  30  33
ENDBRANCH  26  27
ENDBRANCH   1  26
TORSDOF 13
