REMARK  6 active torsions:
REMARK  status: ('A' for Active; 'I' for Inactive)
REMARK    1  A    between atoms: N2_9  and  C7_11 
REMARK    2  A    between atoms: C7_11  and  N3_13 
REMARK    3  A    between atoms: N3_13  and  C8_15 
REMARK    4  A    between atoms: C8_15  and  C9_16 
REMARK    5  A    between atoms: C10_17  and  C11_18 
REMARK    6  A    between atoms: C11_18  and  N4_19 
ROOT
HETATM    1  C1  UNL     1      -4.585  -2.331  -1.289  1.00  0.00     0.048 C 
HETATM    2  C2  UNL     1      -4.333  -1.072  -0.520  1.00  0.00    -0.057 A 
HETATM    3  C3  UNL     1      -5.328  -0.141  -0.370  1.00  0.00     0.031 A 
HETATM    4  C4  UNL     1      -5.032   1.006   0.356  1.00  0.00     0.007 A 
HETATM    5  C5  UNL     1      -6.125   2.002   0.509  1.00  0.00     0.068 C 
HETATM    6  N1  UNL     1      -3.831   1.223   0.900  1.00  0.00    -0.346 N 
ATOM      7  H1  UNL     1      -3.661   2.082   1.424  1.00  0.00     0.167 HD
HETATM    8  C6  UNL     1      -2.849   0.325   0.764  1.00  0.00     0.107 A 
HETATM    9  N2  UNL     1      -1.704   0.550   1.296  1.00  0.00    -0.319 N 
ATOM     10  H2  UNL     1      -1.590   1.424   1.810  1.00  0.00     0.169 HD
HETATM   11  C14 UNL     1      -3.103  -0.835   0.046  1.00  0.00     0.055 A 
ENDROOT
BRANCH   9  12
HETATM   12  C7  UNL     1      -0.595  -0.308   1.229  1.00  0.00     0.173 C 
HETATM   13  S1  UNL     1      -0.733  -1.728   2.073  1.00  0.00    -0.041 SA
BRANCH  12  14
HETATM   14  N3  UNL     1       0.606  -0.067   0.523  1.00  0.00    -0.357 N 
ATOM     15  H3  UNL     1       0.722   0.800  -0.002  1.00  0.00     0.162 HD
BRANCH  14  16
HETATM   16  C8  UNL     1       1.656  -1.033   0.542  1.00  0.00     0.216 C 
BRANCH  16  17
HETATM   17  C9  UNL     1       2.799  -0.540  -0.223  1.00  0.00    -0.085 C 
HETATM   18  C10 UNL     1       3.737  -0.130  -0.823  1.00  0.00    -0.086 C 
BRANCH  18  19
HETATM   19  C11 UNL     1       4.926   0.374  -1.551  1.00  0.00     0.210 C 
BRANCH  19  20
HETATM   20  N4  UNL     1       5.971   0.553  -0.591  1.00  0.00    -0.411 N 
HETATM   21  C12 UNL     1       6.480  -0.630  -0.022  1.00  0.00     0.143 C 
HETATM   22  C13 UNL     1       5.897   1.706   0.219  1.00  0.00     0.143 C 
ENDBRANCH  19  20
ENDBRANCH  18  19
ENDBRANCH  16  17
ENDBRANCH  14  16
ENDBRANCH  12  14
ENDBRANCH   9  12
TORSDOF 6
