REMARK  3 active torsions:
REMARK  status: ('A' for Active; 'I' for Inactive)
REMARK       I    between atoms: C3_3  and  N1_5 
REMARK    1  A    between atoms: N1_5  and  C4_7 
REMARK    2  A    between atoms: C12_15  and  N2_16 
REMARK       I    between atoms: N2_16  and  C13_18 
REMARK    3  A    between atoms: C13_18  and  C14_20 
ROOT
HETATM    1  C1  UNL     1       7.194  -1.697   0.895  1.00  0.00     0.022 C 
HETATM    2  C2  UNL     1       6.281  -1.174   0.302  1.00  0.00    -0.017 C 
HETATM    3  C3  UNL     1       5.186  -0.542  -0.400  1.00  0.00     0.295 C 
HETATM    4  O1  UNL     1       5.423  -0.169  -1.591  1.00  0.00    -0.258 OA
HETATM    5  N1  UNL     1       3.918  -0.350   0.205  1.00  0.00    -0.345 N 
ATOM      6  H1  UNL     1       3.755  -0.660   1.163  1.00  0.00     0.163 HD
ENDROOT
BRANCH   5   7
HETATM    7  C4  UNL     1       2.886   0.271  -0.524  1.00  0.00     0.093 C 
HETATM    8  C5  UNL     1       2.365   1.562   0.124  1.00  0.00     0.010 C 
HETATM    9  C6  UNL     1       1.620   1.271   1.385  1.00  0.00     0.013 C 
HETATM   10  C11 UNL     1       1.368   1.946  -0.981  1.00  0.00     0.014 C 
HETATM   11  C7  UNL     1       0.530   0.266   1.233  1.00  0.00     0.009 C 
HETATM   12  C8  UNL     1       1.134  -0.997   0.630  1.00  0.00     0.014 C 
HETATM   13  C12 UNL     1      -0.388   0.682   0.092  1.00  0.00     0.093 C 
HETATM   14  C9  UNL     1       1.609  -0.469  -0.704  1.00  0.00     0.015 C 
HETATM   15  C10 UNL     1       0.594   0.623  -1.071  1.00  0.00     0.015 C 
BRANCH  13  16
HETATM   16  N2  UNL     1      -1.522  -0.157  -0.073  1.00  0.00    -0.355 N 
HETATM   17  C13 UNL     1      -2.847   0.353   0.038  1.00  0.00     0.225 C 
HETATM   18  O2  UNL     1      -3.013   1.575   0.288  1.00  0.00    -0.273 OA
ATOM     19  H2  UNL     1      -1.384  -1.147  -0.276  1.00  0.00     0.162 HD
BRANCH  17  20
HETATM   20  C14 UNL     1      -4.048  -0.486  -0.127  1.00  0.00     0.030 C 
HETATM   21  C15 UNL     1      -4.057  -1.105  -1.525  1.00  0.00     0.024 C 
HETATM   22  C16 UNL     1      -4.056  -1.654   0.846  1.00  0.00     0.024 C 
HETATM   23  C17 UNL     1      -5.309   0.329   0.001  1.00  0.00     0.024 C 
ENDBRANCH  17  20
ENDBRANCH  13  16
ENDBRANCH   5   7
TORSDOF 3
