REMARK  5 active torsions:
REMARK  status: ('A' for Active; 'I' for Inactive)
REMARK    1  A    between atoms: C4_7  and  C5_8 
REMARK    2  A    between atoms: C5_8  and  N2_9 
REMARK    3  A    between atoms: C5_8  and  N3_13 
REMARK    4  A    between atoms: N5_19  and  N6_20 
REMARK    5  A    between atoms: C6_23  and  C7_24 
ROOT
HETATM    1  C1  UNL     1       1.748   1.988  -0.179  1.00  0.00     0.028 C 
HETATM    2  C2  UNL     1       0.996   0.934  -0.074  1.00  0.00     0.016 A 
HETATM    3  C3  UNL     1      -0.464   1.057  -0.318  1.00  0.00     0.066 A 
HETATM    4  N1  UNL     1      -0.969   2.163  -0.622  1.00  0.00    -0.397 N 
ATOM      5  H11 UNL     1      -1.972   2.247  -0.790  1.00  0.00     0.156 HD
ATOM      6  H12 UNL     1      -0.362   2.979  -0.699  1.00  0.00     0.156 HD
HETATM    7  C4  UNL     1      -1.342  -0.124  -0.206  1.00  0.00     0.112 A 
HETATM    8  N4  UNL     1      -0.771  -1.199   0.101  1.00  0.00    -0.278 N 
ATOM      9  H4  UNL     1      -1.363  -2.026   0.183  1.00  0.00     0.189 HD
HETATM   10  N5  UNL     1       0.615  -1.380   0.345  1.00  0.00    -0.200 N 
HETATM   11  C6  UNL     1       1.485  -0.402   0.274  1.00  0.00     0.121 A 
ENDROOT
BRANCH   7  12
HETATM   12  C5  UNL     1      -2.798   0.035  -0.457  1.00  0.00     0.431 C 
BRANCH  12  13
HETATM   13  N2  UNL     1      -3.400   0.987   0.468  1.00  0.00    -0.045 N 
ATOM     14  H23 UNL     1      -3.215   0.732   1.438  1.00  0.00     0.277 HD
ATOM     15  H22 UNL     1      -2.917   1.885   0.445  1.00  0.00     0.277 HD
ATOM     16  H21 UNL     1      -4.399   1.096   0.296  1.00  0.00     0.277 HD
ENDBRANCH  12  13
BRANCH  12  17
HETATM   17  N3  UNL     1      -3.413  -1.263  -0.237  1.00  0.00    -0.045 N 
ATOM     18  H33 UNL     1      -2.990  -2.006  -0.793  1.00  0.00     0.277 HD
ATOM     19  H32 UNL     1      -3.206  -1.654   0.682  1.00  0.00     0.277 HD
ATOM     20  H31 UNL     1      -4.412  -1.154  -0.409  1.00  0.00     0.277 HD
ENDBRANCH  12  17
ENDBRANCH   7  12
BRANCH  10  21
HETATM   21  N6  UNL     1       1.028  -2.669   0.673  1.00  0.00    -0.324 N 
ATOM     22  H62 UNL     1       0.351  -3.430   0.728  1.00  0.00     0.179 HD
ATOM     23  H61 UNL     1       2.024  -2.799   0.848  1.00  0.00     0.179 HD
ENDBRANCH  10  21
BRANCH  11  24
HETATM   24  C7  UNL     1       2.884  -0.678   0.540  1.00  0.00     0.144 C 
HETATM   25  N7  UNL     1       3.915   0.290   0.495  1.00  0.00    -0.087 NA
HETATM   26  S1  UNL     1       3.362  -2.205   0.926  1.00  0.00    -0.061 SA
ENDBRANCH  11  24
TORSDOF 5
