REMARK  1 active torsions:
REMARK  status: ('A' for Active; 'I' for Inactive)
REMARK    1  A    between atoms: C7_12  and  C8_13 
ROOT
HETATM    1  C1  UNL     1      -3.745   0.078  -0.615  1.00  0.00     0.024 C 
HETATM    2  C2  UNL     1      -2.815   0.330   0.533  1.00  0.00     0.101 C 
HETATM    3  C3  UNL     1      -1.969  -0.860   0.738  1.00  0.00     0.029 C 
HETATM    4  N1  UNL     1      -2.415  -1.764   1.518  1.00  0.00    -0.403 N 
ATOM      5  H11 UNL     1      -1.830  -2.587   1.660  1.00  0.00     0.155 HD
ATOM      6  H12 UNL     1      -3.324  -1.615   1.956  1.00  0.00     0.155 HD
HETATM    7  C4  UNL     1      -0.649  -1.077   0.102  1.00  0.00     0.184 C 
HETATM    8  C5  UNL     1       0.156  -1.854   1.049  1.00  0.00     0.091 C 
HETATM    9  N2  UNL     1       0.787  -2.497   1.810  1.00  0.00    -0.195 NA
HETATM   10  C6  UNL     1      -0.943  -2.030  -1.009  1.00  0.00     0.091 C 
HETATM   11  N3  UNL     1      -1.153  -2.770  -1.882  1.00  0.00    -0.195 NA
HETATM   12  C7  UNL     1       0.042   0.128  -0.385  1.00  0.00     0.086 C 
HETATM   13  C14 UNL     1      -0.496   1.443   0.076  1.00  0.00     0.174 C 
HETATM   14  C15 UNL     1      -0.253   2.486  -0.941  1.00  0.00     0.072 C 
HETATM   15  N4  UNL     1      -0.043   3.302  -1.744  1.00  0.00    -0.196 NA
HETATM   16  C16 UNL     1      -1.929   1.480   0.353  1.00  0.00     0.154 C 
HETATM   17  O1  UNL     1      -2.450   2.602   0.444  1.00  0.00    -0.296 OA
ENDROOT
BRANCH  12  18
HETATM   18  C8  UNL     1       1.518   0.125  -0.188  1.00  0.00    -0.049 A 
HETATM   19  C9  UNL     1       2.398  -0.058  -1.251  1.00  0.00     0.011 A 
HETATM   20  C10 UNL     1       3.767  -0.052  -1.075  1.00  0.00     0.043 A 
HETATM   21  C11 UNL     1       4.314   0.139   0.178  1.00  0.00     0.116 A 
HETATM   22  F1  UNL     1       5.667   0.142   0.331  1.00  0.00    -0.206 F 
HETATM   23  C12 UNL     1       3.472   0.324   1.256  1.00  0.00     0.043 A 
HETATM   24  C13 UNL     1       2.107   0.313   1.047  1.00  0.00     0.011 A 
ENDBRANCH  12  18
TORSDOF 1
