REMARK  10 active torsions:
REMARK  status: ('A' for Active; 'I' for Inactive)
REMARK    1  A    between atoms: N1_2  and  C3_4 
REMARK    2  A    between atoms: C4_7  and  N3_8 
REMARK    3  A    between atoms: C6_10  and  C7_11 
REMARK    4  A    between atoms: C6_10  and  C8_19 
REMARK       I    between atoms: C7_11  and  N4_13 
REMARK    5  A    between atoms: N4_13  and  N5_15 
REMARK    6  A    between atoms: N5_15  and  N6_16 
REMARK    7  A    between atoms: C8_19  and  O2_20 
REMARK    8  A    between atoms: C8_19  and  O3_22 
REMARK    9  A    between atoms: C9_25  and  N7_26 
REMARK   10  A    between atoms: C10_32  and  N9_33 
ROOT
HETATM    1  N3  UNL     1      -0.155  -0.478   0.334  1.00  0.00    -0.161 N 
HETATM    2  C5  UNL     1      -1.483  -0.126   0.796  1.00  0.00     0.199 C 
HETATM    3  C6  UNL     1      -2.309  -0.984  -0.140  1.00  0.00     0.212 C 
HETATM    4  O4  UNL     1      -1.437  -1.869  -0.770  1.00  0.00    -0.315 OA
HETATM    5  C9  UNL     1      -0.299  -1.906   0.041  1.00  0.00     0.444 C 
ENDROOT
BRANCH   1   6
HETATM    6  C4  UNL     1       0.963   0.366   0.191  1.00  0.00     0.713 A 
HETATM    7  N2  UNL     1       2.194  -0.148   0.034  1.00  0.00    -0.021 N 
HETATM    8  C3  UNL     1       3.263   0.684  -0.119  1.00  0.00     0.708 A 
ATOM      9  H2  UNL     1       2.329  -1.159   0.029  1.00  0.00     0.203 HD
HETATM   10  N10 UNL     1       3.046   2.004  -0.108  1.00  0.00    -0.022 N 
HETATM   11  C10 UNL     1       1.808   2.554   0.048  1.00  0.00     0.705 A 
ATOM     12  H10 UNL     1       3.844   2.629  -0.222  1.00  0.00     0.203 HD
HETATM   13  N8  UNL     1       0.789   1.695   0.196  1.00  0.00    -0.021 N 
ATOM     14  H8  UNL     1      -0.153   2.067   0.317  1.00  0.00     0.203 HD
BRANCH   8  15
HETATM   15  N1  UNL     1       4.539   0.091  -0.269  1.00  0.00    -0.225 N 
HETATM   16  C1  UNL     1       5.695   0.921  -0.508  1.00  0.00     0.168 C 
HETATM   17  C2  UNL     1       4.738  -1.348  -0.183  1.00  0.00     0.168 C 
ENDBRANCH   8  15
BRANCH  11  18
HETATM   18  N9  UNL     1       1.666   3.828   0.046  1.00  0.00    -0.234 N 
ATOM     19  H92 UNL     1       0.740   4.239   0.163  1.00  0.00     0.174 HD
ATOM     20  H91 UNL     1       2.441   4.481  -0.067  1.00  0.00     0.174 HD
ENDBRANCH  11  18
ENDBRANCH   1   6
BRANCH   5  21
HETATM   21  N7  UNL     1       0.851  -2.438  -0.604  1.00  0.00    -0.034 N 
ATOM     22  H73 UNL     1       1.081  -1.909  -1.446  1.00  0.00     0.279 HD
ATOM     23  H72 UNL     1       1.696  -2.255  -0.063  1.00  0.00     0.279 HD
ATOM     24  H71 UNL     1       0.751  -3.432  -0.808  1.00  0.00     0.279 HD
ENDBRANCH   5  21
BRANCH   3  25
HETATM   25  C7  UNL     1      -2.953  -0.032  -1.098  1.00  0.00     0.276 C 
HETATM   26  O1  UNL     1      -2.748  -0.046  -2.320  1.00  0.00    -0.268 OA
HETATM   27  N4  UNL     1      -3.841   0.920  -0.519  1.00  0.00    -0.252 N 
ATOM     28  H4  UNL     1      -3.996   0.909   0.489  1.00  0.00     0.187 HD
BRANCH  27  29
HETATM   29  N5  UNL     1      -4.508   1.874  -1.307  1.00  0.00    -0.027 NA
BRANCH  29  30
HETATM   30  N6  UNL     1      -4.946   2.967  -0.548  1.00  0.00    -0.329 N 
ATOM     31  H62 UNL     1      -4.791   3.046   0.457  1.00  0.00     0.174 HD
ATOM     32  H61 UNL     1      -5.430   3.659  -1.120  1.00  0.00     0.174 HD
ENDBRANCH  29  30
ENDBRANCH  27  29
ENDBRANCH   3  25
BRANCH   3  33
HETATM   33  C8  UNL     1      -3.405  -1.744   0.551  1.00  0.00     0.300 C 
BRANCH  33  34
HETATM   34  O2  UNL     1      -4.098  -2.483  -0.404  1.00  0.00    -0.368 OA
ATOM     35  H2  UNL     1      -4.791  -2.964   0.033  1.00  0.00     0.212 HD
ENDBRANCH  33  34
BRANCH  33  36
HETATM   36  O3  UNL     1      -2.903  -2.657   1.483  1.00  0.00    -0.368 OA
ATOM     37  H3  UNL     1      -3.596  -3.138   1.920  1.00  0.00     0.212 HD
ENDBRANCH  33  36
ENDBRANCH   3  33
TORSDOF 10
