REMARK  2 active torsions:
REMARK  status: ('A' for Active; 'I' for Inactive)
REMARK    1  A    between atoms: N1_1  and  C1_5 
REMARK    2  A    between atoms: C6_10  and  N2_11 
ROOT
HETATM    1  C1  UNL     1       0.895  -0.307   0.215  1.00  0.00     0.213 C 
HETATM    2  C2  UNL     1       1.049   1.099  -0.274  1.00  0.00     0.035 C 
HETATM    3  C3  UNL     1      -0.184   1.868   0.210  1.00  0.00     0.002 C 
HETATM    4  C4  UNL     1      -1.353   0.970   0.454  1.00  0.00     0.002 C 
HETATM    5  C5  UNL     1      -1.452  -0.169  -0.533  1.00  0.00     0.035 C 
HETATM    6  C6  UNL     1      -0.190  -0.970  -0.612  1.00  0.00     0.213 C 
ENDROOT
BRANCH   1   7
HETATM    7  N1  UNL     1       2.068  -1.103   0.136  1.00  0.00    -0.073 N 
ATOM      8  H13 UNL     1       2.432  -1.100  -0.817  1.00  0.00     0.274 HD
ATOM      9  H12 UNL     1       2.838  -0.644   0.622  1.00  0.00     0.274 HD
ATOM     10  H11 UNL     1       1.963  -2.061   0.469  1.00  0.00     0.274 HD
ENDBRANCH   1   7
BRANCH   6  11
HETATM   11  N2  UNL     1      -0.347  -2.317  -0.089  1.00  0.00    -0.073 N 
ATOM     12  H23 UNL     1       0.525  -2.846  -0.070  1.00  0.00     0.274 HD
ATOM     13  H22 UNL     1      -0.533  -2.341   0.914  1.00  0.00     0.274 HD
ATOM     14  H21 UNL     1      -1.077  -2.763  -0.645  1.00  0.00     0.274 HD
ENDBRANCH   6  11
TORSDOF 2
