REMARK  4 active torsions:
REMARK  status: ('A' for Active; 'I' for Inactive)
REMARK    1  A    between atoms: C3_3  and  O1_4 
REMARK    2  A    between atoms: O1_4  and  C4_5 
REMARK    3  A    between atoms: N1_15  and  O3_17 
REMARK    4  A    between atoms: O3_17  and  C13_18 
ROOT
HETATM    1  C1  UNL     1       1.429   1.584  -2.063  1.00  0.00     0.017 C 
HETATM    2  C2  UNL     1       1.531   0.831  -0.977  1.00  0.00    -0.056 C 
HETATM    3  C3  UNL     1       2.912   0.560  -0.483  1.00  0.00     0.160 C 
HETATM    4  C6  UNL     1       2.899  -0.952  -0.205  1.00  0.00     0.037 C 
HETATM    5  C7  UNL     1       2.003  -1.128   0.982  1.00  0.00     0.009 C 
HETATM    6  C8  UNL     1       0.615  -0.625   0.831  1.00  0.00    -0.001 C 
HETATM    7  C9  UNL     1       0.347   0.293  -0.300  1.00  0.00     0.021 C 
HETATM    8  C10 UNL     1      -0.463   1.523   0.143  1.00  0.00     0.015 C 
HETATM    9  C11 UNL     1      -1.717   1.114   0.867  1.00  0.00     0.056 C 
HETATM   10  C12 UNL     1      -2.127  -0.204   0.319  1.00  0.00     0.019 C 
HETATM   11  N1  UNL     1      -2.885  -0.210  -0.723  1.00  0.00    -0.265 N 
ATOM     12  H1  UNL     1      -3.201  -1.083  -1.146  1.00  0.00     0.194 HD
HETATM   13  C15 UNL     1      -1.754  -1.514   0.850  1.00  0.00     0.001 C 
HETATM   14  C16 UNL     1      -2.403  -1.667   2.232  1.00  0.00     0.022 C 
HETATM   15  C17 UNL     1      -2.376  -2.620  -0.014  1.00  0.00     0.015 C 
HETATM   16  C18 UNL     1      -1.305  -3.719  -0.028  1.00  0.00     0.002 C 
HETATM   17  C19 UNL     1      -0.054  -2.837  -0.166  1.00  0.00     0.006 C 
HETATM   18  C20 UNL     1      -0.308  -1.815   0.887  1.00  0.00     0.004 C 
ENDROOT
BRANCH  11  19
HETATM   19  O3  UNL     1      -3.249   1.008  -1.240  1.00  0.00    -0.200 OA
BRANCH  19  20
HETATM   20  C13 UNL     1      -3.090   1.300  -2.608  1.00  0.00     0.277 C 
HETATM   21  C14 UNL     1      -3.478   2.605  -3.180  1.00  0.00     0.128 C 
HETATM   22  O4  UNL     1      -2.597   0.372  -3.302  1.00  0.00    -0.264 OA
ENDBRANCH  19  20
ENDBRANCH  11  19
BRANCH   3  23
HETATM   23  O1  UNL     1       3.038   1.277   0.739  1.00  0.00    -0.312 OA
BRANCH  23  24
HETATM   24  C4  UNL     1       4.052   2.192   0.915  1.00  0.00     0.255 C 
HETATM   25  C5  UNL     1       4.223   2.964   2.173  1.00  0.00     0.126 C 
HETATM   26  O2  UNL     1       4.849   2.347  -0.069  1.00  0.00    -0.266 OA
ENDBRANCH  23  24
ENDBRANCH   3  23
TORSDOF 4
