REMARK  5 active torsions:
REMARK  status: ('A' for Active; 'I' for Inactive)
REMARK    1  A    between atoms: C3_7  and  C4_8 
REMARK    2  A    between atoms: N2_9  and  O2_11 
REMARK    3  A    between atoms: O2_11  and  C5_12 
REMARK    4  A    between atoms: C5_12  and  C6_13 
REMARK    5  A    between atoms: C6_13  and  C7_14 
ROOT
HETATM    1  O2  UNL     1      -0.084   0.561  -0.110  1.00  0.00    -0.280 OA
ENDROOT
BRANCH   1   2
HETATM    2  N2  UNL     1      -1.289   0.011  -0.514  1.00  0.00    -0.276 N 
HETATM    3  C4  UNL     1      -2.393   0.494  -0.069  1.00  0.00     0.146 C 
ATOM      4  H2  UNL     1      -1.300  -0.776  -1.163  1.00  0.00     0.193 HD
BRANCH   3   5
HETATM    5  C3  UNL     1      -3.663  -0.062  -0.474  1.00  0.00     0.092 A 
HETATM    6  C2  UNL     1      -4.896   0.374  -0.067  1.00  0.00     0.136 A 
HETATM    7  N1  UNL     1      -5.826  -0.406  -0.663  1.00  0.00    -0.297 N 
HETATM    8 CL1  UNL     1      -5.189   1.703   1.028  1.00  0.00    -0.062 Cl
HETATM    9  C1  UNL     1      -5.219  -1.323  -1.435  1.00  0.00     0.326 A 
ATOM     10  H1  UNL     1      -6.835  -0.312  -0.545  1.00  0.00     0.171 HD
HETATM   11  O1  UNL     1      -5.701  -2.222  -2.148  1.00  0.00    -0.247 OA
HETATM   12  N3  UNL     1      -3.883  -1.086  -1.299  1.00  0.00    -0.305 N 
ATOM     13  H3  UNL     1      -3.150  -1.620  -1.766  1.00  0.00     0.171 HD
ENDBRANCH   3   5
ENDBRANCH   1   2
BRANCH   1  14
HETATM   14  C5  UNL     1       0.338   0.205   1.183  1.00  0.00     0.206 C 
BRANCH  14  15
HETATM   15  C6  UNL     1       1.644   0.827   1.551  1.00  0.00     0.071 C 
BRANCH  15  16
HETATM   16  C7  UNL     1       2.777   0.491   0.685  1.00  0.00    -0.011 A 
HETATM   17  C8  UNL     1       3.096   1.059  -0.514  1.00  0.00     0.043 A 
HETATM   18 CL2  UNL     1       2.119   2.394  -1.106  1.00  0.00    -0.084 Cl
HETATM   19  C9  UNL     1       4.156   0.677  -1.295  1.00  0.00     0.050 A 
HETATM   20  C10 UNL     1       4.970  -0.355  -0.850  1.00  0.00     0.059 A 
HETATM   21 CL3  UNL     1       6.324  -0.844  -1.845  1.00  0.00    -0.082 Cl
HETATM   22  C11 UNL     1       4.703  -0.972   0.355  1.00  0.00     0.078 A 
HETATM   23 CL4  UNL     1       5.757  -2.262   0.866  1.00  0.00    -0.081 Cl
HETATM   24  C12 UNL     1       3.622  -0.544   1.097  1.00  0.00     0.065 A 
HETATM   25 CL5  UNL     1       3.305  -1.353   2.632  1.00  0.00    -0.082 Cl
ENDBRANCH  15  16
ENDBRANCH  14  15
ENDBRANCH   1  14
TORSDOF 5
