REMARK  7 active torsions:
REMARK  status: ('A' for Active; 'I' for Inactive)
REMARK       I    between atoms: C1_2  and  N3_21 
REMARK    1  A    between atoms: N2_3  and  C2_5 
REMARK    2  A    between atoms: C2_5  and  C3_7 
REMARK    3  A    between atoms: C3_7  and  O1_8 
REMARK    4  A    between atoms: O1_8  and  C4_9 
REMARK    5  A    between atoms: C4_9  and  C5_11 
REMARK    6  A    between atoms: C10_17  and  C11_18 
REMARK    7  A    between atoms: N3_21  and  C13_23 
ROOT
HETATM    1  C2  UNL     1       0.362   0.638   0.669  1.00  0.00     0.104 C 
HETATM    2  S1  UNL     1      -0.356   0.801   2.109  1.00  0.00    -0.063 SA
ENDROOT
BRANCH   1   3
HETATM    3  N2  UNL     1       1.699   0.172   0.515  1.00  0.00    -0.323 N 
HETATM    4  C1  UNL     1       2.720   0.786   0.968  1.00  0.00     0.193 C 
HETATM    5  N1  UNL     1       2.570   1.998   1.668  1.00  0.00    -0.063 NA
HETATM    6  N3  UNL     1       4.006   0.249   0.768  1.00  0.00    -0.340 N 
ATOM      7  H3  UNL     1       4.593   0.069   1.583  1.00  0.00     0.167 HD
ATOM      8  H2  UNL     1       1.848  -0.703   0.013  1.00  0.00     0.169 HD
BRANCH   6   9
HETATM    9  C13 UNL     1       4.525  -0.056  -0.535  1.00  0.00     0.105 C 
HETATM   10  C14 UNL     1       5.722  -0.530  -0.641  1.00  0.00    -0.006 C 
HETATM   11  C15 UNL     1       6.675  -0.816   0.437  1.00  0.00     0.048 C 
HETATM   12  S2  UNL     1       6.549  -0.972  -2.153  1.00  0.00    -0.133 SA
HETATM   13  C16 UNL     1       8.068  -0.720  -0.108  1.00  0.00     0.015 C 
HETATM   14  C17 UNL     1       8.138  -1.524  -1.391  1.00  0.00     0.079 C 
ENDBRANCH   6   9
ENDBRANCH   1   3
BRANCH   1  15
HETATM   15  C3  UNL     1      -0.354   0.999  -0.573  1.00  0.00     0.248 C 
BRANCH  15  16
HETATM   16  O1  UNL     1      -1.705   1.265  -0.441  1.00  0.00    -0.314 OA
BRANCH  16  17
HETATM   17  C4  UNL     1      -2.614   0.273  -0.020  1.00  0.00     0.266 C 
HETATM   18  O2  UNL     1      -2.128  -0.827   0.208  1.00  0.00    -0.265 OA
BRANCH  17  19
HETATM   19  C5  UNL     1      -4.039   0.608   0.112  1.00  0.00     0.124 C 
HETATM   20  C6  UNL     1      -4.520   1.013  -1.270  1.00  0.00     0.136 C 
HETATM   21  C7  UNL     1      -5.752   1.862  -1.045  1.00  0.00     0.035 C 
HETATM   22  O3  UNL     1      -5.097  -0.159  -1.748  1.00  0.00    -0.379 OA
HETATM   23  C8  UNL     1      -6.706   0.834  -0.491  1.00  0.00     0.035 C 
HETATM   24  C9  UNL     1      -5.923  -0.473  -0.690  1.00  0.00     0.130 C 
HETATM   25  C10 UNL     1      -4.957  -0.545   0.458  1.00  0.00     0.054 C 
BRANCH  25  26
HETATM   26  C11 UNL     1      -4.311  -1.792   0.759  1.00  0.00    -0.011 C 
HETATM   27  C12 UNL     1      -4.311  -2.937   0.184  1.00  0.00     0.052 C 
HETATM   28 BR1  UNL     1      -5.268  -3.350  -1.403  1.00  0.00    -0.064 Br
ENDBRANCH  25  26
ENDBRANCH  17  19
ENDBRANCH  16  17
ENDBRANCH  15  16
ENDBRANCH   1  15
TORSDOF 7
