REMARK  7 active torsions:
REMARK  status: ('A' for Active; 'I' for Inactive)
REMARK    1  A    between atoms: O1_2  and  C2_3 
REMARK    2  A    between atoms: C8_11  and  N2_12 
REMARK    3  A    between atoms: N2_12  and  C9_13 
REMARK    4  A    between atoms: C9_13  and  C10_14 
REMARK    5  A    between atoms: C10_14  and  N3_15 
REMARK    6  A    between atoms: N3_15  and  C11_17 
REMARK    7  A    between atoms: C17_29  and  O2_30 
ROOT
HETATM    1  C2  UNL     1      -3.213   1.439  -0.870  1.00  0.00     0.103 A 
HETATM    2  C3  UNL     1      -2.992   0.353  -1.690  1.00  0.00     0.070 A 
HETATM    3  C4  UNL     1      -2.081  -0.649  -1.338  1.00  0.00     0.049 A 
HETATM    4  N1  UNL     1      -1.877  -1.705  -2.149  1.00  0.00    -0.359 N 
ATOM      5  H1  UNL     1      -2.398  -1.759  -3.024  1.00  0.00     0.166 HD
HETATM    6  C5  UNL     1      -1.015  -2.689  -1.851  1.00  0.00     0.009 A 
HETATM    7  C6  UNL     1      -0.821  -3.852  -2.792  1.00  0.00     0.068 C 
HETATM    8  C7  UNL     1      -0.328  -2.597  -0.677  1.00  0.00     0.070 A 
HETATM    9  C8  UNL     1      -0.507  -1.508   0.209  1.00  0.00     0.120 A 
HETATM   10  C15 UNL     1      -1.421  -0.501  -0.146  1.00  0.00     0.034 A 
HETATM   11  C16 UNL     1      -1.650   0.598   0.674  1.00  0.00     0.057 A 
HETATM   12  C17 UNL     1      -2.550   1.591   0.331  1.00  0.00     0.102 A 
ENDROOT
BRANCH   9  13
HETATM   13  N2  UNL     1       0.097  -1.424   1.246  1.00  0.00    -0.420 NA
BRANCH  13  14
HETATM   14  C9  UNL     1       0.673  -1.175   2.416  1.00  0.00     0.175 C 
BRANCH  14  15
HETATM   15  C10 UNL     1       1.824  -0.175   2.301  1.00  0.00     0.180 C 
BRANCH  15  16
HETATM   16  N3  UNL     1       2.850  -0.695   1.403  1.00  0.00    -0.367 N 
ATOM     17  H3  UNL     1       2.708  -1.611   0.977  1.00  0.00     0.161 HD
BRANCH  16  18
HETATM   18  C11 UNL     1       4.024   0.013   1.102  1.00  0.00     0.158 A 
HETATM   19  N4  UNL     1       4.278   1.224   1.625  1.00  0.00    -0.346 N 
HETATM   20  C12 UNL     1       5.398   1.908   1.342  1.00  0.00     0.132 A 
ATOM     21  H4  UNL     1       3.596   1.639   2.260  1.00  0.00     0.167 HD
HETATM   22  C13 UNL     1       6.333   1.389   0.498  1.00  0.00     0.121 A 
HETATM   23 CL1  UNL     1       7.777   2.319   0.159  1.00  0.00    -0.063 Cl
HETATM   24  N5  UNL     1       6.111   0.174  -0.046  1.00  0.00    -0.319 N 
HETATM   25  C14 UNL     1       4.967  -0.508   0.254  1.00  0.00     0.233 A 
ATOM     26  H5  UNL     1       6.797  -0.234  -0.681  1.00  0.00     0.169 HD
HETATM   27  F1  UNL     1       4.830  -1.718  -0.338  1.00  0.00    -0.182 F 
ENDBRANCH  16  18
ENDBRANCH  15  16
ENDBRANCH  14  15
ENDBRANCH  13  14
ENDBRANCH   9  13
BRANCH  12  28
HETATM   28  O2  UNL     1      -2.780   2.687   1.146  1.00  0.00    -0.353 OA
HETATM   29  C18 UNL     1      -2.092   2.828   2.375  1.00  0.00     0.210 C 
ENDBRANCH  12  28
BRANCH   1  30
HETATM   30  O1  UNL     1      -4.118   2.445  -1.210  1.00  0.00    -0.353 OA
HETATM   31  C1  UNL     1      -4.813   2.316  -2.435  1.00  0.00     0.210 C 
ENDBRANCH   1  30
TORSDOF 7
