REMARK  7 active torsions:
REMARK  status: ('A' for Active; 'I' for Inactive)
REMARK    1  A    between atoms: C2_2  and  C3_3 
REMARK    2  A    between atoms: C3_3  and  C4_5 
REMARK    3  A    between atoms: C3_3  and  C15_31 
REMARK    4  A    between atoms: N1_7  and  C6_9 
REMARK    5  A    between atoms: C6_9  and  C7_10 
REMARK    6  A    between atoms: C6_9  and  C14_27 
REMARK    7  A    between atoms: C10_15  and  C11_16 
ROOT
HETATM    1  C7  UNL     1       1.007   1.679  -0.379  1.00  0.00     0.109 A 
HETATM    2  N2  UNL     1       1.702   2.706   0.017  1.00  0.00    -0.354 N 
ATOM      3  H2  UNL     1       1.200   3.591   0.084  1.00  0.00     0.166 HD
HETATM    4  C8  UNL     1       2.998   2.736   0.346  1.00  0.00     0.092 A 
HETATM    5  C9  UNL     1       3.635   1.496   0.232  1.00  0.00     0.050 A 
HETATM    6  C10 UNL     1       2.940   0.370  -0.183  1.00  0.00     0.080 A 
HETATM    7  N6  UNL     1       1.634   0.487  -0.480  1.00  0.00    -0.341 N 
ATOM      8  H6  UNL     1       1.111  -0.334  -0.785  1.00  0.00     0.167 HD
ENDROOT
BRANCH   1   9
HETATM    9  C6  UNL     1      -0.457   1.829  -0.746  1.00  0.00     0.204 C 
BRANCH   9  10
HETATM   10  N1  UNL     1      -1.135   0.662  -0.501  1.00  0.00    -0.379 N 
HETATM   11  C4  UNL     1      -2.311   0.147  -0.888  1.00  0.00     0.028 C 
HETATM   12  C5  UNL     1      -2.871   0.634  -2.214  1.00  0.00     0.067 C 
ATOM     13  H1  UNL     1      -0.624   0.038   0.123  1.00  0.00     0.160 HD
BRANCH  11  14
HETATM   14  C3  UNL     1      -3.458  -0.050   0.076  1.00  0.00     0.237 C 
HETATM   15  F1  UNL     1      -4.371   0.944   0.187  1.00  0.00    -0.227 F 
BRANCH  14  16
HETATM   16  C2  UNL     1      -2.959  -0.434   1.443  1.00  0.00     0.055 C 
HETATM   17  C1  UNL     1      -4.010  -0.885   2.421  1.00  0.00     0.009 C 
ENDBRANCH  14  16
BRANCH  14  18
HETATM   18  C15 UNL     1      -4.259  -1.297  -0.436  1.00  0.00     0.428 C 
HETATM   19  F2  UNL     1      -5.306  -1.590   0.372  1.00  0.00    -0.167 F 
HETATM   20  F3  UNL     1      -4.780  -0.978  -1.661  1.00  0.00    -0.167 F 
HETATM   21  F4  UNL     1      -3.430  -2.398  -0.495  1.00  0.00    -0.167 F 
ENDBRANCH  14  18
ENDBRANCH  11  14
ENDBRANCH   9  10
BRANCH   9  22
HETATM   22  C14 UNL     1      -0.885   3.150  -0.238  1.00  0.00     0.215 C 
HETATM   23 CL1  UNL     1       0.276   4.420  -0.874  1.00  0.00    -0.081 Cl
HETATM   24 CL2  UNL     1      -0.623   3.260   1.555  1.00  0.00    -0.081 Cl
HETATM   25 CL3  UNL     1      -2.523   3.682  -0.534  1.00  0.00    -0.081 Cl
ENDBRANCH   9  22
ENDBRANCH   1   9
BRANCH   6  26
HETATM   26  C11 UNL     1       3.652  -0.915  -0.239  1.00  0.00     0.148 A 
HETATM   27  N3  UNL     1       4.930  -1.140   0.003  1.00  0.00    -0.328 N 
HETATM   28  C12 UNL     1       5.249  -2.428  -0.153  1.00  0.00     0.093 A 
ATOM     29  H3  UNL     1       5.595  -0.417   0.277  1.00  0.00     0.169 HD
HETATM   30  C13 UNL     1       6.536  -3.124   0.006  1.00  0.00     0.090 C 
HETATM   31  N4  UNL     1       4.087  -3.034  -0.514  1.00  0.00    -0.288 N 
HETATM   32  N5  UNL     1       3.125  -2.088  -0.561  1.00  0.00    -0.282 N 
ATOM     33  H4  UNL     1       3.964  -4.027  -0.714  1.00  0.00     0.188 HD
ATOM     34  H5  UNL     1       2.148  -2.250  -0.805  1.00  0.00     0.188 HD
ENDBRANCH   6  26
TORSDOF 7
