REMARK  9 active torsions:
REMARK  status: ('A' for Active; 'I' for Inactive)
REMARK       I    between atoms: C1_4  and  N2_5 
REMARK       I    between atoms: C1_4  and  N4_19 
REMARK       I    between atoms: N2_5  and  C2_7 
REMARK       I    between atoms: C2_7  and  N3_9 
REMARK    1  A    between atoms: N3_9  and  C3_11 
REMARK    2  A    between atoms: C3_11  and  C4_12 
REMARK    3  A    between atoms: C4_12  and  C5_13 
REMARK    4  A    between atoms: C5_13  and  C6_14 
REMARK    5  A    between atoms: C6_14  and  C7_15 
REMARK    6  A    between atoms: C7_15  and  C8_16 
REMARK    7  A    between atoms: C10_21  and  C11_22 
REMARK       I    between atoms: N5_25  and  C12_26 
REMARK    8  A    between atoms: C12_26  and  C13_28 
REMARK    9  A    between atoms: C13_28  and  C14_29 
ROOT
HETATM    1  N1  UNL     1       0.145   1.055   4.735  1.00  0.00    -0.234 N 
ATOM      2  H11 UNL     1      -0.469   1.869   4.770  1.00  0.00     0.174 HD
ATOM      3  H12 UNL     1       0.556   0.582   5.540  1.00  0.00     0.174 HD
HETATM    4  C1  UNL     1       0.424   0.571   3.532  1.00  0.00     0.679 C 
HETATM    5  N2  UNL     1       1.256  -0.532   3.484  1.00  0.00    -0.142 N 
ATOM      6  H2  UNL     1       1.588  -0.876   4.385  1.00  0.00     0.189 HD
HETATM    7  C2  UNL     1       1.713  -1.255   2.338  1.00  0.00     0.334 C 
HETATM    8  O1  UNL     1       1.323  -0.870   1.219  1.00  0.00    -0.247 OA
HETATM    9  N3  UNL     1       2.576  -2.362   2.462  1.00  0.00    -0.342 N 
ATOM     10  H3  UNL     1       2.858  -2.666   3.394  1.00  0.00     0.164 HD
HETATM   11  N4  UNL     1      -0.150   1.232   2.407  1.00  0.00    -0.199 N 
HETATM   12  C9  UNL     1       0.487   2.218   1.604  1.00  0.00     0.179 C 
HETATM   13  C10 UNL     1      -0.262   2.223   0.305  1.00  0.00     0.208 C 
HETATM   14  N5  UNL     1      -1.503   1.602   0.576  1.00  0.00    -0.319 N 
HETATM   15  C12 UNL     1      -2.607   1.490  -0.298  1.00  0.00     0.222 C 
HETATM   16  O6  UNL     1      -2.524   1.944  -1.459  1.00  0.00    -0.273 OA
HETATM   17  C19 UNL     1      -1.482   1.050   1.897  1.00  0.00     0.271 C 
ENDROOT
BRANCH   9  18
HETATM   18  C3  UNL     1       3.069  -3.072   1.327  1.00  0.00     0.124 C 
BRANCH  18  19
HETATM   19  C4  UNL     1       3.926  -2.174   0.477  1.00  0.00     0.020 C 
BRANCH  19  20
HETATM   20  C5  UNL     1       4.494  -2.916  -0.717  1.00  0.00     0.002 C 
BRANCH  20  21
HETATM   21  C6  UNL     1       5.348  -1.967  -1.511  1.00  0.00     0.010 C 
BRANCH  21  22
HETATM   22  C7  UNL     1       4.602  -0.776  -2.059  1.00  0.00     0.113 C 
BRANCH  22  23
HETATM   23  C8  UNL     1       5.526   0.106  -2.849  1.00  0.00     0.172 C 
HETATM   24  O2  UNL     1       6.747  -0.149  -2.979  1.00  0.00    -0.648 OA
HETATM   25  O3  UNL     1       5.041   1.242  -3.465  1.00  0.00    -0.648 OA
ENDBRANCH  22  23
ENDBRANCH  21  22
ENDBRANCH  20  21
ENDBRANCH  19  20
ENDBRANCH  18  19
ENDBRANCH   9  18
BRANCH  13  26
HETATM   26  C11 UNL     1      -0.358   3.608  -0.230  1.00  0.00     0.198 C 
HETATM   27  O4  UNL     1      -1.440   4.207  -0.222  1.00  0.00    -0.646 OA
HETATM   28  O5  UNL     1       0.767   4.219  -0.737  1.00  0.00    -0.646 OA
ENDBRANCH  13  26
BRANCH  15  29
HETATM   29  C13 UNL     1      -3.887   0.850   0.096  1.00  0.00     0.107 C 
BRANCH  29  30
HETATM   30  C14 UNL     1      -4.891   0.893  -1.042  1.00  0.00    -0.006 C 
HETATM   31  C15 UNL     1      -4.303   0.150  -2.208  1.00  0.00     0.005 C 
HETATM   32  C16 UNL     1      -5.326  -0.900  -2.599  1.00  0.00     0.000 C 
HETATM   33  C17 UNL     1      -5.969  -1.188  -1.258  1.00  0.00     0.000 C 
HETATM   34  C18 UNL     1      -6.169   0.178  -0.680  1.00  0.00     0.005 C 
ENDBRANCH  29  30
ENDBRANCH  15  29
TORSDOF 9
