REMARK  6 active torsions:
REMARK  status: ('A' for Active; 'I' for Inactive)
REMARK    1  A    between atoms: C2_2  and  C3_3 
REMARK    2  A    between atoms: C3_3  and  N1_4 
REMARK    3  A    between atoms: N1_4  and  C4_7 
REMARK    4  A    between atoms: C4_7  and  C5_8 
REMARK    5  A    between atoms: N2_10  and  C7_11 
REMARK    6  A    between atoms: C10_17  and  N4_18 
ROOT
HETATM    1  C7  UNL     1      -2.130   0.370  -0.144  1.00  0.00     0.124 A 
HETATM    2  C8  UNL     1      -2.216   0.741  -1.446  1.00  0.00     0.123 A 
HETATM    3  C9  UNL     1      -3.405   0.557  -2.118  1.00  0.00     0.263 A 
HETATM    4  O1  UNL     1      -3.487   0.900  -3.325  1.00  0.00    -0.268 OA
HETATM    5  N3  UNL     1      -4.456   0.022  -1.499  1.00  0.00    -0.156 N 
ATOM      6  H3  UNL     1      -5.327  -0.106  -2.014  1.00  0.00     0.187 HD
HETATM    7  C10 UNL     1      -4.394  -0.351  -0.216  1.00  0.00     0.680 A 
HETATM    8  N5  UNL     1      -3.234  -0.170   0.436  1.00  0.00    -0.177 N 
ATOM      9  H5  UNL     1      -3.179  -0.452   1.415  1.00  0.00     0.185 HD
ENDROOT
BRANCH   1  10
HETATM   10  N2  UNL     1      -0.917   0.562   0.564  1.00  0.00    -0.357 N 
HETATM   11  C5  UNL     1       0.446   0.959   0.795  1.00  0.00     0.129 A 
HETATM   12  C6  UNL     1      -0.275   0.342   1.916  1.00  0.00     0.152 A 
BRANCH  11  13
HETATM   13  C4  UNL     1       1.607   0.184   0.263  1.00  0.00     0.259 C 
BRANCH  13  14
HETATM   14  N1  UNL     1       2.550   0.005   1.327  1.00  0.00    -0.070 N 
ATOM     15  H12 UNL     1       2.108  -0.453   2.124  1.00  0.00     0.277 HD
ATOM     16  H11 UNL     1       2.784   0.902   1.752  1.00  0.00     0.277 HD
BRANCH  14  17
HETATM   17  C3  UNL     1       3.756  -0.704   0.937  1.00  0.00     0.259 C 
BRANCH  17  18
HETATM   18  C2  UNL     1       4.498   0.202   0.022  1.00  0.00    -0.010 C 
HETATM   19  C1  UNL     1       4.752  -0.178  -1.199  1.00  0.00     0.008 C 
ENDBRANCH  17  18
ENDBRANCH  14  17
ENDBRANCH  13  14
ENDBRANCH  11  13
ENDBRANCH   1  10
BRANCH   7  20
HETATM   20  N4  UNL     1      -5.405  -0.875   0.416  1.00  0.00    -0.234 N 
ATOM     21  H42 UNL     1      -6.286  -1.012  -0.079  1.00  0.00     0.174 HD
ATOM     22  H41 UNL     1      -5.358  -1.159   1.394  1.00  0.00     0.174 HD
ENDBRANCH   7  20
TORSDOF 6
