REMARK  6 active torsions:
REMARK  status: ('A' for Active; 'I' for Inactive)
REMARK    1  A    between atoms: S1_2  and  N1_3 
REMARK    2  A    between atoms: S1_2  and  C2_6 
REMARK    3  A    between atoms: C2_6  and  C3_7 
REMARK    4  A    between atoms: N2_9  and  N3_10 
REMARK    5  A    between atoms: C5_13  and  C6_14 
REMARK    6  A    between atoms: C6_14  and  O1_15 
ROOT
HETATM    1  C3  UNL     1       0.048  -0.511   0.587  1.00  0.00     0.148 C 
HETATM    2  C4  UNL     1      -1.031  -1.399  -0.049  1.00  0.00     0.148 C 
HETATM    3  N2  UNL     1      -1.952  -0.435  -0.574  1.00  0.00    -0.204 NA
HETATM    4  C5  UNL     1      -1.462   0.846  -0.141  1.00  0.00     0.238 C 
HETATM    5  O2  UNL     1      -0.073   0.669  -0.165  1.00  0.00    -0.360 OA
ENDROOT
BRANCH   1   6
HETATM    6  C2  UNL     1       1.358  -1.192   0.355  1.00  0.00     0.117 C 
BRANCH   6   7
HETATM    7  S1  UNL     1       2.731  -0.320   1.017  1.00  0.00    -0.136 SA
HETATM    8  C1  UNL     1       2.849   1.308   0.271  1.00  0.00     0.101 C 
BRANCH   7   9
HETATM    9  N1  UNL     1       4.172  -1.165   0.550  1.00  0.00    -0.383 NA
ATOM     10  H12 UNL     1       4.969  -0.659   0.935  1.00  0.00     0.163 HD
ATOM     11  H11 UNL     1       4.105  -2.090   0.974  1.00  0.00     0.163 HD
ENDBRANCH   7   9
ENDBRANCH   6   7
ENDBRANCH   1   6
BRANCH   3  12
HETATM   12  N3  UNL     1      -3.270  -0.651  -0.240  1.00  0.00    -0.361 NA
ATOM     13  H32 UNL     1      -3.618  -1.559  -0.547  1.00  0.00     0.171 HD
ATOM     14  H31 UNL     1      -3.926   0.035  -0.614  1.00  0.00     0.171 HD
ENDBRANCH   3  12
BRANCH   4  15
HETATM   15  C6  UNL     1      -1.905   1.902  -1.125  1.00  0.00     0.213 C 
BRANCH  15  16
HETATM   16  O1  UNL     1      -3.299   1.884  -1.143  1.00  0.00    -0.397 OA
ATOM     17  H1  UNL     1      -3.578   2.548  -1.762  1.00  0.00     0.209 HD
ENDBRANCH  15  16
ENDBRANCH   4  15
TORSDOF 6
