REMARK  6 active torsions:
REMARK  status: ('A' for Active; 'I' for Inactive)
REMARK    1  A    between atoms: C2_3  and  N2_4 
REMARK    2  A    between atoms: N2_4  and  C3_5 
REMARK    3  A    between atoms: C3_5  and  C4_6 
REMARK    4  A    between atoms: C4_6  and  O1_7 
REMARK    5  A    between atoms: C6_10  and  O2_11 
REMARK    6  A    between atoms: C7_13  and  O3_14 
ROOT
HETATM    1  N1  UNL     1       0.610   2.872  -2.258  1.00  0.00    -0.196 NA
HETATM    2  C1  UNL     1       0.239   2.438  -1.262  1.00  0.00     0.087 C 
HETATM    3  C2  UNL     1      -0.246   1.888   0.004  1.00  0.00     0.360 C 
ENDROOT
BRANCH   3   4
HETATM    4  N2  UNL     1       0.117   0.468   0.040  1.00  0.00    -0.048 N 
HETATM    5  C5  UNL     1      -0.555  -0.256  -1.035  1.00  0.00     0.273 C 
HETATM    6  C6  UNL     1      -1.338  -1.355  -0.391  1.00  0.00     0.174 C 
HETATM    7  C7  UNL     1      -1.696  -0.745   0.943  1.00  0.00     0.174 C 
HETATM    8  C8  UNL     1      -0.360  -0.063   1.276  1.00  0.00     0.273 C 
BRANCH   4   9
HETATM    9  C3  UNL     1       1.527   0.385  -0.155  1.00  0.00     0.264 C 
BRANCH   9  10
HETATM   10  C4  UNL     1       2.233  -0.564   0.755  1.00  0.00     0.192 C 
BRANCH  10  11
HETATM   11  O1  UNL     1       3.605  -0.512   0.417  1.00  0.00    -0.399 OA
ATOM     12  H1  UNL     1       4.054  -1.116   0.996  1.00  0.00     0.209 HD
ENDBRANCH  10  11
ENDBRANCH   9  10
ENDBRANCH   4   9
BRANCH   6  13
HETATM   13  O2  UNL     1      -2.409  -1.793  -1.112  1.00  0.00    -0.391 OA
ATOM     14  H2  UNL     1      -2.906  -2.491  -0.703  1.00  0.00     0.210 HD
ENDBRANCH   6  13
BRANCH   7  15
HETATM   15  O3  UNL     1      -2.707   0.180   0.871  1.00  0.00    -0.391 OA
ATOM     16  H3  UNL     1      -2.932   0.564   1.710  1.00  0.00     0.210 HD
ENDBRANCH   7  15
ENDBRANCH   3   4
TORSDOF 6
