REMARK  16 active torsions:
REMARK  status: ('A' for Active; 'I' for Inactive)
REMARK    1  A    between atoms: N1_4  and  C4_5 
REMARK    2  A    between atoms: C4_5  and  C5_6 
REMARK    3  A    between atoms: C4_5  and  C13_19 
REMARK       I    between atoms: C5_6  and  N2_8 
REMARK    4  A    between atoms: N2_8  and  C6_10 
REMARK    5  A    between atoms: C6_10  and  C7_11 
REMARK    6  A    between atoms: C7_11  and  C8_12 
REMARK    7  A    between atoms: C8_12  and  N3_13 
REMARK    8  A    between atoms: C20_27  and  C21_28 
REMARK    9  A    between atoms: C21_28  and  C22_29 
REMARK   10  A    between atoms: C22_29  and  C23_30 
REMARK   11  A    between atoms: C23_30  and  C24_31 
REMARK   12  A    between atoms: C24_31  and  C25_32 
REMARK   13  A    between atoms: C25_32  and  C26_33 
REMARK   14  A    between atoms: N5_36  and  C27_37 
REMARK   15  A    between atoms: C27_37  and  C28_38 
REMARK   16  A    between atoms: C28_38  and  N6_39 
ROOT
HETATM    1  C1  UNL     1      -3.400  -2.624  -2.362  1.00  0.00     0.045 C 
HETATM    2  C2  UNL     1      -2.519  -2.054  -1.237  1.00  0.00     0.238 C 
HETATM    3  C3  UNL     1      -1.300  -1.517  -1.894  1.00  0.00     0.162 C 
HETATM    4  N1  UNL     1      -0.469  -0.858  -0.877  1.00  0.00    -0.334 N 
HETATM    5  C19 UNL     1      -1.190   0.111  -0.147  1.00  0.00     0.254 C 
HETATM    6  O3  UNL     1      -0.681   1.099   0.435  1.00  0.00    -0.271 OA
HETATM    7  C20 UNL     1      -2.669   0.025  -0.013  1.00  0.00     0.314 C 
HETATM    8  N5  UNL     1      -3.246  -1.186  -0.409  1.00  0.00     0.109 N 
ENDROOT
BRANCH   4   9
HETATM    9  C4  UNL     1       0.904  -1.157  -0.672  1.00  0.00     0.183 C 
BRANCH   9  10
HETATM   10  C5  UNL     1       1.752  -0.005  -1.021  1.00  0.00     0.241 C 
HETATM   11  O1  UNL     1       1.236   0.987  -1.545  1.00  0.00    -0.271 OA
HETATM   12  N2  UNL     1       3.135  -0.030  -0.761  1.00  0.00    -0.359 N 
ATOM     13  H2  UNL     1       3.544  -0.858  -0.328  1.00  0.00     0.162 HD
BRANCH  12  14
HETATM   14  C6  UNL     1       4.003   1.105  -1.097  1.00  0.00     0.124 C 
BRANCH  14  15
HETATM   15  C7  UNL     1       5.441   0.832  -0.724  1.00  0.00     0.050 C 
BRANCH  15  16
HETATM   16  C8  UNL     1       6.279   2.013  -1.087  1.00  0.00     0.274 C 
BRANCH  16  17
HETATM   17  N3  UNL     1       7.664   1.865  -0.777  1.00  0.00     0.092 N 
HETATM   18  C9  UNL     1       8.456   3.018  -1.137  1.00  0.00     0.298 C 
HETATM   19  C10 UNL     1       8.863   3.809   0.081  1.00  0.00     0.198 C 
HETATM   20  O2  UNL     1       9.685   3.092   0.941  1.00  0.00    -0.388 OA
HETATM   21  C11 UNL     1       9.437   1.739   0.821  1.00  0.00     0.198 C 
HETATM   22  C12 UNL     1       7.946   1.473   0.570  1.00  0.00     0.298 C 
ENDBRANCH  16  17
ENDBRANCH  15  16
ENDBRANCH  14  15
ENDBRANCH  12  14
ENDBRANCH   9  10
BRANCH   9  23
HETATM   23  C13 UNL     1       1.359  -1.745   0.612  1.00  0.00     0.018 C 
HETATM   24  C14 UNL     1       0.680  -3.065   0.945  1.00  0.00     0.007 C 
HETATM   25  C15 UNL     1       1.139  -3.410   2.371  1.00  0.00     0.000 C 
HETATM   26  C16 UNL     1       0.373  -2.427   3.256  1.00  0.00     0.000 C 
HETATM   27  C17 UNL     1       0.795  -1.012   2.961  1.00  0.00     0.000 C 
HETATM   28  C18 UNL     1       1.672  -0.888   1.756  1.00  0.00     0.007 C 
ENDBRANCH   9  23
ENDBRANCH   4   9
BRANCH   7  29
HETATM   29  C21 UNL     1      -3.234   1.139  -0.867  1.00  0.00     0.046 C 
BRANCH  29  30
HETATM   30  C22 UNL     1      -4.772   1.117  -0.788  1.00  0.00     0.003 C 
BRANCH  30  31
HETATM   31  C23 UNL     1      -5.259   2.227  -1.646  1.00  0.00     0.001 C 
BRANCH  31  32
HETATM   32  C24 UNL     1      -6.722   2.391  -1.787  1.00  0.00     0.009 C 
BRANCH  32  33
HETATM   33  C25 UNL     1      -7.544   2.628  -0.586  1.00  0.00     0.099 C 
BRANCH  33  34
HETATM   34  C26 UNL     1      -7.668   1.554   0.403  1.00  0.00     0.231 C 
HETATM   35  N4  UNL     1      -7.856   1.841   1.803  1.00  0.00    -0.062 NA
HETATM   36  O4  UNL     1      -7.625   0.331   0.086  1.00  0.00    -0.277 OA
ENDBRANCH  33  34
ENDBRANCH  32  33
ENDBRANCH  31  32
ENDBRANCH  30  31
ENDBRANCH  29  30
ENDBRANCH   7  29
BRANCH   8  37
HETATM   37  C27 UNL     1      -3.784  -1.860   0.750  1.00  0.00     0.301 C 
BRANCH  37  38
HETATM   38  C28 UNL     1      -4.864  -2.853   0.436  1.00  0.00     0.259 C 
BRANCH  38  39
HETATM   39  N6  UNL     1      -5.360  -3.485   1.663  1.00  0.00    -0.078 N 
ATOM     40  H63 UNL     1      -4.604  -3.907   2.203  1.00  0.00     0.274 HD
ATOM     41  H62 UNL     1      -5.669  -2.793   2.346  1.00  0.00     0.274 HD
ATOM     42  H61 UNL     1      -6.094  -4.160   1.450  1.00  0.00     0.274 HD
ENDBRANCH  38  39
ENDBRANCH  37  38
ENDBRANCH   8  37
TORSDOF 16
