REMARK  4 active torsions:
REMARK  status: ('A' for Active; 'I' for Inactive)
REMARK    1  A    between atoms: C2_2  and  S1_4 
REMARK    2  A    between atoms: S1_4  and  C4_5 
REMARK    3  A    between atoms: C7_11  and  C8_12 
REMARK    4  A    between atoms: N3_21  and  N4_22 
ROOT
HETATM    1  C4  UNL     1      -0.933  -0.517  -1.088  1.00  0.00     0.132 A 
HETATM    2  C5  UNL     1      -0.350  -1.723  -1.379  1.00  0.00     0.151 A 
HETATM    3  C6  UNL     1      -1.089  -2.825  -1.934  1.00  0.00     0.120 C 
HETATM    4  N1  UNL     1      -1.691  -3.717  -2.368  1.00  0.00    -0.190 NA
HETATM    5  N2  UNL     1       0.943  -1.642  -1.058  1.00  0.00    -0.329 N 
ATOM      6  H2  UNL     1       1.621  -2.396  -1.170  1.00  0.00     0.168 HD
HETATM    7  C7  UNL     1       1.229  -0.399  -0.556  1.00  0.00     0.140 A 
HETATM    8  N3  UNL     1       0.083   0.259  -0.585  1.00  0.00    -0.236 N 
ENDROOT
BRANCH   1   9
HETATM    9  S1  UNL     1      -2.629  -0.007  -1.294  1.00  0.00    -0.103 SA
BRANCH   9  10
HETATM   10  C2  UNL     1      -3.642  -0.354   0.140  1.00  0.00     0.046 C 
HETATM   11  C1  UNL     1      -5.053   0.117  -0.151  1.00  0.00     0.021 C 
HETATM   12  C3  UNL     1      -3.124   0.284   1.412  1.00  0.00     0.021 C 
ENDBRANCH   9  10
ENDBRANCH   1   9
BRANCH   8  13
HETATM   13  N4  UNL     1      -0.120   1.597  -0.162  1.00  0.00    -0.336 N 
ATOM     14  H42 UNL     1      -1.004   2.105  -0.184  1.00  0.00     0.177 HD
ATOM     15  H41 UNL     1       0.634   2.173   0.211  1.00  0.00     0.177 HD
ENDBRANCH   8  13
BRANCH   7  16
HETATM   16  C8  UNL     1       2.572   0.004  -0.111  1.00  0.00     0.033 A 
HETATM   17  C9  UNL     1       2.890   1.229   0.395  1.00  0.00     0.042 A 
HETATM   18  C10 UNL     1       4.166   1.562   0.800  1.00  0.00     0.056 A 
HETATM   19 CL1  UNL     1       4.543   3.145   1.445  1.00  0.00    -0.083 Cl
HETATM   20  C11 UNL     1       5.181   0.643   0.703  1.00  0.00     0.057 A 
HETATM   21 CL2  UNL     1       6.801   1.066   1.217  1.00  0.00    -0.082 Cl
HETATM   22  C12 UNL     1       4.885  -0.610   0.193  1.00  0.00     0.050 A 
HETATM   23  C13 UNL     1       3.616  -0.930  -0.206  1.00  0.00     0.049 A 
HETATM   24 CL3  UNL     1       3.283  -2.532  -0.848  1.00  0.00    -0.083 Cl
ENDBRANCH   7  16
TORSDOF 4
