REMARK  5 active torsions:
REMARK  status: ('A' for Active; 'I' for Inactive)
REMARK    1  A    between atoms: N1_1  and  C1_5 
REMARK    2  A    between atoms: C1_5  and  C2_6 
REMARK    3  A    between atoms: C2_6  and  N2_7 
REMARK    4  A    between atoms: N5_16  and  N6_17 
REMARK       I    between atoms: N6_17  and  C8_19 
REMARK    5  A    between atoms: C8_19  and  C9_21 
ROOT
HETATM    1  C2  UNL     1      -1.515  -0.317   0.407  1.00  0.00     0.090 C 
HETATM    2  C4  UNL     1      -1.437  -1.830   0.482  1.00  0.00     0.038 C 
HETATM    3  C5  UNL     1      -0.634  -2.437  -0.623  1.00  0.00     0.008 C 
HETATM    4  C6  UNL     1       0.829  -2.460  -0.304  1.00  0.00     0.047 C 
HETATM    5  C7  UNL     1       1.226  -1.505   0.791  1.00  0.00     0.088 C 
HETATM    6  N5  UNL     1       0.956  -0.174   0.597  1.00  0.00    -0.281 N 
HETATM    7  C10 UNL     1      -0.230   0.354   0.139  1.00  0.00     0.121 C 
ENDROOT
BRANCH   1   8
HETATM    8  C1  UNL     1      -2.196   0.139   1.679  1.00  0.00     0.266 C 
BRANCH   8   9
HETATM    9  N1  UNL     1      -1.446  -0.088   2.859  1.00  0.00    -0.077 N 
ATOM     10  H13 UNL     1      -1.183  -1.071   2.929  1.00  0.00     0.274 HD
ATOM     11  H12 UNL     1      -0.521   0.335   2.779  1.00  0.00     0.274 HD
ATOM     12  H11 UNL     1      -1.905   0.219   3.716  1.00  0.00     0.274 HD
ENDBRANCH   8   9
ENDBRANCH   1   8
BRANCH   1  13
HETATM   13  N2  UNL     1      -2.386  -0.027  -0.710  1.00  0.00    -0.351 N 
HETATM   14  C3  UNL     1      -2.730   1.092  -1.173  1.00  0.00     0.197 C 
HETATM   15  N3  UNL     1      -2.345   2.368  -0.712  1.00  0.00    -0.067 NA
HETATM   16  N4  UNL     1      -3.613   1.073  -2.295  1.00  0.00    -0.067 NA
ATOM     17  H2  UNL     1      -2.775  -0.840  -1.188  1.00  0.00     0.163 HD
ENDBRANCH   1  13
BRANCH   6  18
HETATM   18  N6  UNL     1       1.964   0.775   0.677  1.00  0.00    -0.257 N 
HETATM   19  C8  UNL     1       3.188   0.714  -0.017  1.00  0.00     0.325 C 
HETATM   20  O1  UNL     1       3.433  -0.243  -0.772  1.00  0.00    -0.261 OA
ATOM     21  H6  UNL     1       1.807   1.579   1.285  1.00  0.00     0.191 HD
BRANCH  19  22
HETATM   22  C9  UNL     1       4.175   1.754   0.135  1.00  0.00     0.324 C 
HETATM   23  N7  UNL     1       5.431   1.752  -0.531  1.00  0.00    -0.053 NA
HETATM   24  O2  UNL     1       3.946   2.743   0.899  1.00  0.00    -0.266 OA
ENDBRANCH  19  22
ENDBRANCH   6  18
TORSDOF 5
