REMARK  4 active torsions:
REMARK  status: ('A' for Active; 'I' for Inactive)
REMARK    1  A    between atoms: C1_2  and  O2_3 
REMARK    2  A    between atoms: O2_3  and  C2_4 
REMARK       I    between atoms: C2_4  and  N1_6 
REMARK    3  A    between atoms: N1_6  and  N2_8 
REMARK    4  A    between atoms: N3_10  and  N4_12 
ROOT
HETATM    1  N2  UNL     1       0.682  -0.361   0.283  1.00  0.00    -0.223 N 
ATOM      2  H2  UNL     1       0.655   0.659   0.294  1.00  0.00     0.210 HD
HETATM    3  N3  UNL     1      -0.404  -0.992   0.208  1.00  0.00    -0.216 N 
ATOM      4  H3  UNL     1      -0.354  -2.011   0.199  1.00  0.00     0.211 HD
ENDROOT
BRANCH   1   5
HETATM    5  N1  UNL     1       1.903  -0.987   0.351  1.00  0.00    -0.229 N 
HETATM    6  C2  UNL     1       3.122  -0.287   0.275  1.00  0.00     0.387 C 
HETATM    7  O3  UNL     1       3.084   0.960   0.140  1.00  0.00    -0.236 OA
ATOM      8  H1  UNL     1       1.927  -2.001   0.461  1.00  0.00     0.194 HD
BRANCH   6   9
HETATM    9  O2  UNL     1       4.366  -0.891   0.341  1.00  0.00    -0.234 OA
BRANCH   9  10
HETATM   10  C1  UNL     1       5.500  -0.114   0.257  1.00  0.00     0.408 C 
HETATM   11  O1  UNL     1       5.414   1.142   0.120  1.00  0.00    -0.275 OA
ENDBRANCH   9  10
ENDBRANCH   6   9
ENDBRANCH   1   5
BRANCH   3  12
HETATM   12  N4  UNL     1      -1.652  -0.420   0.137  1.00  0.00    -0.196 N 
HETATM   13  C3  UNL     1      -2.647  -0.523  -0.889  1.00  0.00     0.191 C 
HETATM   14  C4  UNL     1      -3.553   0.636  -0.856  1.00  0.00     0.009 C 
HETATM   15  C5  UNL     1      -3.550   1.355   0.229  1.00  0.00     0.131 C 
HETATM   16  S1  UNL     1      -2.386   0.615   1.306  1.00  0.00     0.269 S 
HETATM   17  O4  UNL     1      -1.439   1.591   1.895  1.00  0.00    -0.200 OA
HETATM   18  O5  UNL     1      -3.046  -0.259   2.326  1.00  0.00    -0.200 OA
ENDBRANCH   3  12
TORSDOF 4
