REMARK  2 active torsions:
REMARK  status: ('A' for Active; 'I' for Inactive)
REMARK       I    between atoms: C1_4  and  N3_6 
REMARK    1  A    between atoms: N3_6  and  C2_8 
REMARK    2  A    between atoms: C5_11  and  C6_12 
ROOT
HETATM    1  C2  UNL     1      -0.588  -0.577   0.193  1.00  0.00     0.084 C 
HETATM    2  C3  UNL     1       0.392  -1.339   1.024  1.00  0.00     0.026 C 
HETATM    3  C4  UNL     1       1.797  -0.809   0.912  1.00  0.00     0.013 C 
HETATM    4  C5  UNL     1       2.126  -0.220  -0.409  1.00  0.00     0.047 C 
HETATM    5  C7  UNL     1       1.109   0.719  -0.958  1.00  0.00     0.013 C 
HETATM    6  C8  UNL     1      -0.032   0.844   0.046  1.00  0.00     0.026 C 
ENDROOT
BRANCH   1   7
HETATM    7  N3  UNL     1      -1.922  -0.587   0.702  1.00  0.00    -0.360 N 
HETATM    8  C1  UNL     1      -2.994   0.079   0.056  1.00  0.00     0.182 C 
HETATM    9  N1  UNL     1      -3.777  -0.512  -0.804  1.00  0.00    -0.374 N 
HETATM   10  N2  UNL     1      -3.256   1.451   0.335  1.00  0.00    -0.064 NA
ATOM     11  H12 UNL     1      -4.548  -0.033  -1.269  1.00  0.00     0.158 HD
ATOM     12  H11 UNL     1      -3.589  -1.494  -1.004  1.00  0.00     0.158 HD
ATOM     13  H3  UNL     1      -2.112  -1.094   1.566  1.00  0.00     0.162 HD
ENDBRANCH   1   7
BRANCH   4  14
HETATM   14  C6  UNL     1       3.410   0.552  -0.255  1.00  0.00     0.235 C 
HETATM   15  O1  UNL     1       3.650   1.400  -1.105  1.00  0.00    -0.306 OA
ENDBRANCH   4  14
TORSDOF 2
