REMARK  12 active torsions:
REMARK  status: ('A' for Active; 'I' for Inactive)
REMARK    1  A    between atoms: O1_2  and  C2_3 
REMARK    2  A    between atoms: C2_3  and  C3_4 
REMARK    3  A    between atoms: C3_4  and  C4_5 
REMARK    4  A    between atoms: C4_5  and  N1_6 
REMARK    5  A    between atoms: N1_6  and  C5_8 
REMARK    6  A    between atoms: C5_8  and  C7_10 
REMARK    7  A    between atoms: C10_14  and  N2_15 
REMARK       I    between atoms: N2_15  and  C11_17 
REMARK    8  A    between atoms: C11_17  and  C12_19 
REMARK    9  A    between atoms: C12_19  and  N3_20 
REMARK   10  A    between atoms: N4_32  and  C22_33 
REMARK   11  A    between atoms: C22_33  and  C23_34 
REMARK       I    between atoms: C23_34  and  N5_36 
REMARK   12  A    between atoms: N5_36  and  C24_38 
ROOT
HETATM    1  C7  UNL     1      -1.517   0.730   0.064  1.00  0.00     0.061 A 
HETATM    2  C8  UNL     1      -0.119   0.769  -0.194  1.00  0.00     0.052 A 
HETATM    3  C9  UNL     1       0.771  -0.061   0.423  1.00  0.00     0.029 A 
HETATM    4  S1  UNL     1       2.442  -0.047   0.135  1.00  0.00    -0.071 SA
HETATM    5  C10 UNL     1       3.298  -1.207   1.051  1.00  0.00     0.081 A 
HETATM    6  C18 UNL     1       2.481  -1.959   1.872  1.00  0.00     0.093 A 
HETATM    7  C19 UNL     1       1.136  -1.846   1.990  1.00  0.00     0.191 A 
HETATM    8  O3  UNL     1       0.575  -2.652   2.817  1.00  0.00    -0.287 OA
HETATM    9  C20 UNL     1       0.303  -0.971   1.330  1.00  0.00     0.099 A 
HETATM   10  C21 UNL     1      -1.057  -0.996   1.566  1.00  0.00     0.264 A 
HETATM   11  O4  UNL     1      -1.495  -1.834   2.405  1.00  0.00    -0.267 OA
HETATM   12  N4  UNL     1      -1.957  -0.154   0.937  1.00  0.00    -0.303 N 
ENDROOT
BRANCH   5  13
HETATM   13  N2  UNL     1       4.699  -1.386   0.967  1.00  0.00    -0.320 N 
HETATM   14  C11 UNL     1       5.503  -0.607   0.106  1.00  0.00     0.251 C 
HETATM   15  O2  UNL     1       4.949   0.275  -0.603  1.00  0.00    -0.271 OA
ATOM     16  H2  UNL     1       5.142  -2.099   1.546  1.00  0.00     0.169 HD
BRANCH  14  17
HETATM   17  C12 UNL     1       6.979  -0.818   0.033  1.00  0.00     0.374 C 
BRANCH  17  18
HETATM   18  N3  UNL     1       7.607   0.077  -0.910  1.00  0.00     0.097 N 
HETATM   19  C13 UNL     1       7.536   1.414  -0.402  1.00  0.00     0.273 C 
HETATM   20  C14 UNL     1       8.880   2.133  -0.611  1.00  0.00     0.030 C 
HETATM   21  C15 UNL     1       9.867   1.415   0.280  1.00  0.00     0.003 C 
HETATM   22  C16 UNL     1       9.956  -0.013  -0.140  1.00  0.00     0.030 C 
HETATM   23  C17 UNL     1       8.938  -0.369  -1.168  1.00  0.00     0.273 C 
ENDBRANCH  17  18
ENDBRANCH  14  17
ENDBRANCH   5  13
BRANCH   1  24
HETATM   24  C5  UNL     1      -2.370   1.708  -0.624  1.00  0.00     0.032 C 
HETATM   25  C6  UNL     1      -2.715   1.333  -2.029  1.00  0.00     0.070 C 
BRANCH  24  26
HETATM   26  N1  UNL     1      -3.352   2.375   0.154  1.00  0.00    -0.371 N 
ATOM     27  H1  UNL     1      -3.718   1.940   1.001  1.00  0.00     0.164 HD
BRANCH  26  28
HETATM   28  C4  UNL     1      -3.818   3.639  -0.250  1.00  0.00     0.063 C 
BRANCH  28  29
HETATM   29  C3  UNL     1      -4.695   3.747  -1.441  1.00  0.00     0.070 C 
BRANCH  29  30
HETATM   30  C2  UNL     1      -5.995   2.985  -1.292  1.00  0.00     0.172 C 
BRANCH  30  31
HETATM   31  O1  UNL     1      -6.771   3.378  -0.236  1.00  0.00    -0.396 OA
HETATM   32  C1  UNL     1      -7.164   4.684  -0.283  1.00  0.00     0.201 C 
ENDBRANCH  30  31
ENDBRANCH  29  30
ENDBRANCH  28  29
ENDBRANCH  26  28
ENDBRANCH  24  26
ENDBRANCH   1  24
BRANCH  12  33
HETATM   33  C22 UNL     1      -3.311  -0.393   1.270  1.00  0.00     0.235 C 
BRANCH  33  34
HETATM   34  C23 UNL     1      -3.942  -1.524   0.546  1.00  0.00     0.236 C 
HETATM   35  O5  UNL     1      -4.239  -1.433  -0.654  1.00  0.00    -0.272 OA
HETATM   36  N5  UNL     1      -4.249  -2.773   1.170  1.00  0.00    -0.352 N 
ATOM     37  H5  UNL     1      -4.032  -2.905   2.158  1.00  0.00     0.163 HD
BRANCH  36  38
HETATM   38  C24 UNL     1      -4.865  -3.860   0.422  1.00  0.00     0.022 C 
HETATM   39  C25 UNL     1      -6.211  -3.414  -0.132  1.00  0.00     0.037 C 
HETATM   40  C26 UNL     1      -5.048  -5.051   1.318  1.00  0.00     0.037 C 
HETATM   41  C27 UNL     1      -4.013  -4.260  -0.764  1.00  0.00     0.037 C 
ENDBRANCH  36  38
ENDBRANCH  33  34
ENDBRANCH  12  33
TORSDOF 12
