REMARK  5 active torsions:
REMARK  status: ('A' for Active; 'I' for Inactive)
REMARK    1  A    between atoms: O1_2  and  C2_3 
REMARK    2  A    between atoms: C3_6  and  N2_7 
REMARK    3  A    between atoms: N2_7  and  N3_9 
REMARK    4  A    between atoms: N3_9  and  O2_11 
REMARK    5  A    between atoms: O2_11  and  N4_12 
ROOT
HETATM    1  C2  UNL     1      -2.011  -0.473   0.384  1.00  0.00     0.253 A 
HETATM    2  N1  UNL     1      -0.973   0.376   0.316  1.00  0.00    -0.151 N 
ATOM      3  H1  UNL     1      -1.047   1.392   0.371  1.00  0.00     0.188 HD
HETATM    4  C3  UNL     1       0.176  -0.301   0.165  1.00  0.00     0.716 A 
HETATM    5  N6  UNL     1      -0.172  -1.591   0.141  1.00  0.00    -0.127 N 
ATOM      6  H6  UNL     1       0.480  -2.369   0.038  1.00  0.00     0.205 HD
HETATM    7  N7  UNL     1      -1.488  -1.716   0.271  1.00  0.00    -0.250 N 
ATOM      8  H7  UNL     1      -2.011  -2.592   0.283  1.00  0.00     0.191 HD
ENDROOT
BRANCH   4   9
HETATM    9  N2  UNL     1       1.368   0.168   0.064  1.00  0.00    -0.109 N 
ATOM     10  H2  UNL     1       1.485   1.181   0.100  1.00  0.00     0.207 HD
BRANCH   9  11
HETATM   11  N3  UNL     1       2.502  -0.607  -0.090  1.00  0.00    -0.166 N 
ATOM     12  H3  UNL     1       2.582  -1.503   0.391  1.00  0.00     0.219 HD
BRANCH  11  13
HETATM   13  O2  UNL     1       3.513  -0.164  -0.891  1.00  0.00    -0.126 OA
BRANCH  13  14
HETATM   14  N4  UNL     1       4.569   0.593  -0.408  1.00  0.00    -0.187 N 
HETATM   15  N5  UNL     1       4.453   1.867  -0.309  1.00  0.00    -0.324 N 
ATOM     16  H52 UNL     1       3.577   2.307  -0.590  1.00  0.00     0.178 HD
ATOM     17  H51 UNL     1       5.230   2.424   0.046  1.00  0.00     0.178 HD
ATOM     18  H4  UNL     1       5.438   0.137  -0.131  1.00  0.00     0.217 HD
ENDBRANCH  13  14
ENDBRANCH  11  13
ENDBRANCH   9  11
ENDBRANCH   4   9
BRANCH   1  19
HETATM   19  O1  UNL     1      -3.343  -0.120   0.538  1.00  0.00    -0.326 OA
HETATM   20  C1  UNL     1      -3.662   1.252   0.636  1.00  0.00     0.213 C 
ENDBRANCH   1  19
TORSDOF 5
