REMARK  4 active torsions:
REMARK  status: ('A' for Active; 'I' for Inactive)
REMARK    1  A    between atoms: C3_4  and  N2_5 
REMARK    2  A    between atoms: N2_5  and  N3_7 
REMARK    3  A    between atoms: N3_7  and  C4_9 
REMARK    4  A    between atoms: C5_14  and  N6_15 
ROOT
HETATM    1  N3  UNL     1       0.994   0.949  -1.184  1.00  0.00    -0.279 N 
ATOM      2  H3  UNL     1       0.990   1.139  -2.186  1.00  0.00     0.189 HD
ENDROOT
BRANCH   1   3
HETATM    3  N2  UNL     1      -0.174   1.083  -0.467  1.00  0.00    -0.294 N 
ATOM      4  H2  UNL     1      -0.199   1.893   0.153  1.00  0.00     0.187 HD
BRANCH   3   5
HETATM    5  C3  UNL     1      -1.330   0.300  -0.443  1.00  0.00     0.107 A 
HETATM    6  C2  UNL     1      -2.369   0.719   0.420  1.00  0.00     0.130 A 
HETATM    7  N1  UNL     1      -3.514   0.037   0.513  1.00  0.00    -0.312 N 
HETATM    8  C1  UNL     1      -4.576   0.476   1.403  1.00  0.00     0.160 C 
HETATM    9  C8  UNL     1      -3.667  -1.068  -0.233  1.00  0.00     0.327 A 
HETATM   10  N9  UNL     1      -2.711  -1.500  -1.061  1.00  0.00    -0.293 N 
HETATM   11  O2  UNL     1      -4.756  -1.688  -0.122  1.00  0.00    -0.246 OA
HETATM   12  C7  UNL     1      -1.506  -0.828  -1.194  1.00  0.00     0.132 A 
ATOM     13  H9  UNL     1      -2.872  -2.345  -1.609  1.00  0.00     0.172 HD
HETATM   14  N8  UNL     1      -0.665  -1.291  -1.986  1.00  0.00    -0.383 N 
ATOM     15  H82 UNL     1       0.222  -0.796  -2.084  1.00  0.00     0.157 HD
ATOM     16  H81 UNL     1      -0.796  -2.133  -2.547  1.00  0.00     0.157 HD
ENDBRANCH   3   5
ENDBRANCH   1   3
BRANCH   1  17
HETATM   17  C4  UNL     1       2.224   0.545  -0.547  1.00  0.00     0.205 A 
HETATM   18  N4  UNL     1       3.360   0.413  -1.236  1.00  0.00    -0.266 N 
HETATM   19  N5  UNL     1       4.505   0.043  -0.672  1.00  0.00    -0.131 N 
ATOM     20  H4  UNL     1       3.349   0.604  -2.238  1.00  0.00     0.189 HD
HETATM   21  C5  UNL     1       4.556  -0.217   0.646  1.00  0.00     0.693 A 
ATOM     22  H5  UNL     1       5.347  -0.044  -1.241  1.00  0.00     0.205 HD
HETATM   23  N7  UNL     1       3.441  -0.096   1.367  1.00  0.00    -0.152 N 
HETATM   24  C6  UNL     1       2.264   0.281   0.806  1.00  0.00     0.306 A 
ATOM     25  H7  UNL     1       3.473  -0.292   2.367  1.00  0.00     0.188 HD
HETATM   26  O1  UNL     1       1.219   0.392   1.498  1.00  0.00    -0.263 OA
BRANCH  21  27
HETATM   27  N6  UNL     1       5.680  -0.582   1.209  1.00  0.00    -0.233 N 
ATOM     28  H62 UNL     1       6.533  -0.675   0.657  1.00  0.00     0.174 HD
ATOM     29  H61 UNL     1       5.719  -0.779   2.209  1.00  0.00     0.174 HD
ENDBRANCH  21  27
ENDBRANCH   1  17
TORSDOF 4
