REMARK  8 active torsions:
REMARK  status: ('A' for Active; 'I' for Inactive)
REMARK    1  A    between atoms: C2_2  and  C3_3 
REMARK    2  A    between atoms: C3_3  and  O1_4 
REMARK    3  A    between atoms: O1_4  and  C4_5 
REMARK    4  A    between atoms: C13_21  and  O3_22 
REMARK    5  A    between atoms: C17_29  and  O4_30 
REMARK    6  A    between atoms: O4_30  and  C18_31 
REMARK    7  A    between atoms: C18_31  and  C19_32 
REMARK    8  A    between atoms: C19_32  and  O5_33 
ROOT
HETATM    1  C4  UNL     1      -4.100   1.306   0.013  1.00  0.00     0.119 A 
HETATM    2  C5  UNL     1      -4.525   2.553  -0.393  1.00  0.00     0.091 A 
HETATM    3 CL1  UNL     1      -6.249   2.870  -0.673  1.00  0.00    -0.079 Cl
HETATM    4  C6  UNL     1      -3.605   3.560  -0.581  1.00  0.00     0.059 A 
HETATM    5 CL2  UNL     1      -4.163   5.141  -1.099  1.00  0.00    -0.082 Cl
HETATM    6  C7  UNL     1      -2.294   3.295  -0.360  1.00  0.00     0.035 A 
HETATM    7  C8  UNL     1      -1.858   2.037   0.050  1.00  0.00    -0.018 A 
HETATM    8  C9  UNL     1      -2.751   1.009   0.246  1.00  0.00     0.077 A 
HETATM    9  N1  UNL     1      -2.439  -0.318   0.641  1.00  0.00    -0.323 N 
ATOM     10  H1  UNL     1      -2.954  -0.686   1.441  1.00  0.00     0.169 HD
HETATM   11  C10 UNL     1      -1.489  -1.191   0.047  1.00  0.00     0.244 C 
HETATM   12  O2  UNL     1      -0.580  -1.660   0.817  1.00  0.00    -0.271 OA
HETATM   13  C11 UNL     1      -1.427  -1.623  -1.351  1.00  0.00     0.172 C 
HETATM   14  C12 UNL     1      -1.200  -3.156  -1.366  1.00  0.00     0.042 C 
HETATM   15  N2  UNL     1      -0.498  -0.930  -2.197  1.00  0.00    -0.356 N 
ATOM     16  H2  UNL     1      -0.920  -0.202  -2.773  1.00  0.00     0.162 HD
HETATM   17  C13 UNL     1       0.882  -1.073  -2.374  1.00  0.00     0.168 C 
HETATM   18  C14 UNL     1       1.954  -0.854  -1.403  1.00  0.00     0.128 A 
HETATM   19  N3  UNL     1       2.665  -1.963  -1.037  1.00  0.00    -0.350 N 
ATOM     20  H3  UNL     1       2.397  -2.857  -1.449  1.00  0.00     0.166 HD
HETATM   21  C15 UNL     1       3.683  -1.955  -0.180  1.00  0.00     0.057 A 
HETATM   22  C16 UNL     1       4.424  -3.186   0.186  1.00  0.00     0.072 C 
HETATM   23  C17 UNL     1       4.072  -0.768   0.397  1.00  0.00     0.166 A 
HETATM   24  N4  UNL     1       3.400   0.335   0.063  1.00  0.00    -0.319 N 
ATOM     25  H4  UNL     1       3.681   1.220   0.485  1.00  0.00     0.169 HD
HETATM   26  C21 UNL     1       2.341   0.338  -0.828  1.00  0.00     0.141 A 
HETATM   27  N5  UNL     1       1.744   1.609  -1.097  1.00  0.00    -0.311 N 
ATOM     28  H5  UNL     1       2.382   2.316  -1.463  1.00  0.00     0.170 HD
HETATM   29  C22 UNL     1       0.421   2.033  -0.936  1.00  0.00     0.227 C 
HETATM   30  O6  UNL     1      -0.166   2.567  -1.942  1.00  0.00    -0.273 OA
HETATM   31  C23 UNL     1      -0.396   1.933   0.289  1.00  0.00     0.144 C 
ENDROOT
BRANCH  23  32
HETATM   32  O4  UNL     1       5.115  -0.680   1.294  1.00  0.00    -0.332 OA
BRANCH  32  33
HETATM   33  C18 UNL     1       5.592   0.456   1.931  1.00  0.00     0.203 C 
BRANCH  33  34
HETATM   34  C19 UNL     1       6.110   1.537   1.016  1.00  0.00     0.193 C 
BRANCH  34  35
HETATM   35  O5  UNL     1       7.145   1.081   0.242  1.00  0.00    -0.394 OA
HETATM   36  C20 UNL     1       8.207   0.660   0.999  1.00  0.00     0.201 C 
ENDBRANCH  34  35
ENDBRANCH  33  34
ENDBRANCH  32  33
ENDBRANCH  23  32
BRANCH  17  37
HETATM   37  O3  UNL     1       1.260  -1.454  -3.574  1.00  0.00    -0.344 OA
ATOM     38  H3  UNL     1       2.197  -1.551  -3.694  1.00  0.00     0.219 HD
ENDBRANCH  17  37
BRANCH   1  39
HETATM   39  O1  UNL     1      -5.116   0.361   0.178  1.00  0.00    -0.347 OA
BRANCH  39  40
HETATM   40  C3  UNL     1      -5.849   0.137   1.334  1.00  0.00     0.175 C 
BRANCH  40  41
HETATM   41  C2  UNL     1      -6.848  -0.986   1.073  1.00  0.00     0.022 C 
HETATM   42  C1  UNL     1      -7.685  -1.297   2.268  1.00  0.00     0.007 C 
ENDBRANCH  40  41
ENDBRANCH  39  40
ENDBRANCH   1  39
TORSDOF 8
