REMARK  11 active torsions:
REMARK  status: ('A' for Active; 'I' for Inactive)
REMARK    1  A    between atoms: N1_1  and  C1_4 
REMARK    2  A    between atoms: N5_15  and  C5_16 
REMARK    3  A    between atoms: C5_16  and  C6_17 
REMARK    4  A    between atoms: C6_17  and  O1_18 
REMARK    5  A    between atoms: C6_17  and  C7_20 
REMARK    6  A    between atoms: C7_20  and  O2_21 
REMARK    7  A    between atoms: C7_20  and  C8_23 
REMARK    8  A    between atoms: C8_23  and  O3_24 
REMARK    9  A    between atoms: C8_23  and  C9_26 
REMARK   10  A    between atoms: C8_23  and  N7_31 
REMARK   11  A    between atoms: C9_26  and  N6_27 
ROOT
HETATM    1  C6  UNL     1       0.032   0.006  -0.452  1.00  0.00     0.170 C 
ENDROOT
BRANCH   1   2
HETATM    2  C5  UNL     1      -0.742   0.426   0.775  1.00  0.00     0.166 C 
BRANCH   2   3
HETATM    3  N5  UNL     1      -1.899  -0.453   0.941  1.00  0.00    -0.324 N 
HETATM    4  C4  UNL     1      -1.843  -1.638   1.619  1.00  0.00     0.185 A 
HETATM    5  N4  UNL     1      -3.059  -2.202   1.572  1.00  0.00    -0.346 N 
HETATM    6  C3  UNL     1      -3.877  -1.397   0.880  1.00  0.00     0.123 A 
ATOM      7  H4  UNL     1      -3.318  -3.094   1.993  1.00  0.00     0.167 HD
HETATM    8  C2  UNL     1      -5.211  -1.450   0.517  1.00  0.00     0.145 A 
HETATM    9  C12 UNL     1      -3.142  -0.296   0.484  1.00  0.00     0.155 A 
HETATM   10  N2  UNL     1      -5.759  -0.450  -0.200  1.00  0.00    -0.175 N 
HETATM   11  N3  UNL     1      -5.923  -2.454   0.866  1.00  0.00    -0.383 N 
HETATM   12  C1  UNL     1      -5.048   0.617  -0.583  1.00  0.00     0.679 A 
ATOM     13  H2  UNL     1      -6.744  -0.508  -0.458  1.00  0.00     0.186 HD
HETATM   14  N10 UNL     1      -3.741   0.658  -0.221  1.00  0.00    -0.174 N 
ATOM     15  H10 UNL     1      -3.187   1.466  -0.506  1.00  0.00     0.186 HD
ATOM     16  H32 UNL     1      -6.906  -2.493   0.598  1.00  0.00     0.157 HD
ATOM     17  H31 UNL     1      -5.508  -3.211   1.409  1.00  0.00     0.157 HD
BRANCH  12  18
HETATM   18  N1  UNL     1      -5.602   1.566  -1.273  1.00  0.00    -0.234 N 
ATOM     19  H12 UNL     1      -6.585   1.535  -1.545  1.00  0.00     0.174 HD
ATOM     20  H11 UNL     1      -5.060   2.379  -1.565  1.00  0.00     0.174 HD
ENDBRANCH  12  18
ENDBRANCH   2   3
ENDBRANCH   1   2
BRANCH   1  21
HETATM   21  O1  UNL     1      -0.898   0.131  -1.521  1.00  0.00    -0.391 OA
ATOM     22  H1  UNL     1      -0.411  -0.133  -2.293  1.00  0.00     0.210 HD
ENDBRANCH   1  21
BRANCH   1  23
HETATM   23  C7  UNL     1       1.142   0.946  -0.793  1.00  0.00     0.207 C 
BRANCH  23  24
HETATM   24  O2  UNL     1       0.604   2.237  -0.852  1.00  0.00    -0.388 OA
ATOM     25  H2  UNL     1       1.310   2.835  -1.069  1.00  0.00     0.210 HD
ENDBRANCH  23  24
BRANCH  23  26
HETATM   26  C8  UNL     1       2.319   0.973   0.096  1.00  0.00     0.208 C 
BRANCH  26  27
HETATM   27  O3  UNL     1       2.001   1.384   1.374  1.00  0.00    -0.365 OA
ATOM     28  H3  UNL     1       2.759   1.401   1.946  1.00  0.00     0.212 HD
ENDBRANCH  26  27
BRANCH  26  29
HETATM   29  C9  UNL     1       3.255   2.057  -0.469  1.00  0.00     0.295 C 
BRANCH  29  30
HETATM   30  N6  UNL     1       4.437   2.187   0.324  1.00  0.00    -0.075 N 
ATOM     31  H63 UNL     1       4.213   2.359   1.304  1.00  0.00     0.274 HD
ATOM     32  H62 UNL     1       4.918   1.294   0.428  1.00  0.00     0.274 HD
ATOM     33  H61 UNL     1       5.057   2.905  -0.050  1.00  0.00     0.274 HD
ENDBRANCH  29  30
ENDBRANCH  26  29
BRANCH  26  34
HETATM   34  N7  UNL     1       3.044  -0.315   0.127  1.00  0.00    -0.209 N 
HETATM   35  N8  UNL     1       3.755  -0.711  -0.866  1.00  0.00    -0.274 N 
HETATM   36  C10 UNL     1       4.393  -1.862  -0.813  1.00  0.00     0.178 A 
ATOM     37  H8  UNL     1       3.826  -0.130  -1.702  1.00  0.00     0.189 HD
HETATM   38  N9  UNL     1       5.219  -2.423  -1.846  1.00  0.00    -0.073 NA
HETATM   39  S1  UNL     1       3.963  -2.422   0.740  1.00  0.00     0.007 SA
HETATM   40  C11 UNL     1       2.979  -1.105   1.201  1.00  0.00     0.310 A 
HETATM   41  O4  UNL     1       2.331  -0.898   2.290  1.00  0.00    -0.258 OA
ENDBRANCH  26  34
ENDBRANCH  23  26
ENDBRANCH   1  23
TORSDOF 11
