REMARK  11 active torsions:
REMARK  status: ('A' for Active; 'I' for Inactive)
REMARK    1  A    between atoms: N1_1  and  C1_4 
REMARK    2  A    between atoms: C2_7  and  C3_8 
REMARK    3  A    between atoms: C4_11  and  C5_12 
REMARK    4  A    between atoms: C5_12  and  O1_13 
REMARK    5  A    between atoms: C5_12  and  C6_15 
REMARK    6  A    between atoms: C6_15  and  N4_16 
REMARK    7  A    between atoms: N4_16  and  C7_17 
REMARK    8  A    between atoms: N4_16  and  C9_21 
REMARK    9  A    between atoms: C7_17  and  C8_18 
REMARK   10  A    between atoms: N11_36  and  O4_37 
REMARK   11  A    between atoms: C11_41  and  N13_42 
ROOT
HETATM    1  C3  UNL     1       2.245  -1.083  -0.032  1.00  0.00     0.198 A 
HETATM    2  N3  UNL     1       1.130  -0.359   0.315  1.00  0.00    -0.324 N 
ATOM      3  H3  UNL     1       1.206   0.652   0.428  1.00  0.00     0.169 HD
HETATM    4  C4  UNL     1      -0.027  -0.940   0.503  1.00  0.00     0.129 A 
HETATM    5  N9  UNL     1      -0.116  -2.279   0.351  1.00  0.00    -0.176 N 
ATOM      6  H9  UNL     1      -1.015  -2.737   0.497  1.00  0.00     0.185 HD
HETATM    7  C10 UNL     1       0.944  -3.018   0.014  1.00  0.00     0.705 A 
HETATM    8  N10 UNL     1       0.838  -4.314  -0.132  1.00  0.00    -0.232 N 
ATOM      9 1H10 UNL     1       1.648  -4.878  -0.389  1.00  0.00     0.174 HD
ATOM     10 2H10 UNL     1      -0.057  -4.782   0.011  1.00  0.00     0.174 HD
HETATM   11  N11 UNL     1       2.129  -2.398  -0.175  1.00  0.00    -0.032 N 
ENDROOT
BRANCH   4  12
HETATM   12  C5  UNL     1      -1.276  -0.191   0.875  1.00  0.00     0.204 C 
BRANCH  12  13
HETATM   13  O1  UNL     1      -1.029   0.757   1.824  1.00  0.00    -0.386 OA
ATOM     14  H1  UNL     1      -1.818   1.230   2.059  1.00  0.00     0.210 HD
ENDBRANCH  12  13
BRANCH  12  15
HETATM   15  C6  UNL     1      -1.929   0.258  -0.382  1.00  0.00     0.181 C 
BRANCH  15  16
HETATM   16  N4  UNL     1      -3.237   0.857  -0.228  1.00  0.00    -0.202 N 
BRANCH  16  17
HETATM   17  C7  UNL     1      -3.351   2.140   0.390  1.00  0.00     0.254 C 
BRANCH  17  18
HETATM   18  C8  UNL     1      -4.710   2.694   0.469  1.00  0.00     0.192 C 
HETATM   19  O2  UNL     1      -5.759   2.175   0.041  1.00  0.00    -0.647 OA
HETATM   20  O3  UNL     1      -4.830   3.935   1.092  1.00  0.00    -0.647 OA
ENDBRANCH  17  18
ENDBRANCH  16  17
BRANCH  16  21
HETATM   21  C9  UNL     1      -4.359   0.103  -0.706  1.00  0.00     0.712 A 
HETATM   22  N5  UNL     1      -4.915   0.064  -1.928  1.00  0.00    -0.115 N 
HETATM   23  N6  UNL     1      -5.935  -0.776  -1.940  1.00  0.00    -0.213 N 
ATOM     24  H5  UNL     1      -4.596   0.605  -2.732  1.00  0.00     0.207 HD
HETATM   25  N7  UNL     1      -6.027  -1.271  -0.722  1.00  0.00    -0.213 N 
ATOM     26  H6  UNL     1      -6.534  -0.998  -2.736  1.00  0.00     0.210 HD
HETATM   27  N8  UNL     1      -5.070  -0.751   0.069  1.00  0.00    -0.115 N 
ATOM     28  H7  UNL     1      -6.725  -1.952  -0.421  1.00  0.00     0.210 HD
ATOM     29  H8  UNL     1      -4.912  -0.959   1.055  1.00  0.00     0.207 HD
ENDBRANCH  16  21
ENDBRANCH  15  16
ENDBRANCH  12  15
ENDBRANCH   4  12
BRANCH   1  30
HETATM   30  C2  UNL     1       3.493  -0.345  -0.219  1.00  0.00     0.183 A 
HETATM   31  N2  UNL     1       3.449   1.016  -0.027  1.00  0.00    -0.172 N 
HETATM   32  C1  UNL     1       4.501   1.814  -0.158  1.00  0.00     0.692 A 
ATOM     33  H2  UNL     1       2.556   1.436   0.231  1.00  0.00     0.186 HD
HETATM   34  N14 UNL     1       5.697   1.300  -0.498  1.00  0.00    -0.023 N 
HETATM   35  C11 UNL     1       5.782  -0.017  -0.693  1.00  0.00     0.692 A 
ATOM     36  H14 UNL     1       6.515   1.900  -0.604  1.00  0.00     0.203 HD
HETATM   37  N12 UNL     1       4.682  -0.814  -0.551  1.00  0.00    -0.172 N 
ATOM     38  H12 UNL     1       4.783  -1.817  -0.708  1.00  0.00     0.186 HD
BRANCH  32  39
HETATM   39  N1  UNL     1       4.387   3.074   0.036  1.00  0.00    -0.234 N 
ATOM     40  H12 UNL     1       3.480   3.464   0.294  1.00  0.00     0.174 HD
ATOM     41  H11 UNL     1       5.196   3.687  -0.065  1.00  0.00     0.174 HD
ENDBRANCH  32  39
BRANCH  35  42
HETATM   42  N13 UNL     1       6.913  -0.527  -1.015  1.00  0.00    -0.234 N 
ATOM     43 2H13 UNL     1       6.978  -1.534  -1.164  1.00  0.00     0.174 HD
ATOM     44 1H13 UNL     1       7.735   0.068  -1.121  1.00  0.00     0.174 HD
ENDBRANCH  35  42
ENDBRANCH   1  30
BRANCH  11  45
HETATM   45  O4  UNL     1       3.193  -3.210  -0.525  1.00  0.00    -0.268 OA
ATOM     46  H4  UNL     1       3.110  -4.151  -0.627  1.00  0.00     0.246 HD
ENDBRANCH  11  45
TORSDOF 11
