REMARK  3 active torsions:
REMARK  status: ('A' for Active; 'I' for Inactive)
REMARK    1  A    between atoms: C2_2  and  N1_3 
REMARK    2  A    between atoms: C6_7  and  C7_8 
REMARK    3  A    between atoms: C7_8  and  N2_9 
ROOT
HETATM    1  N1  UNL     1       1.172  -0.200  -0.222  1.00  0.00    -0.376 N 
HETATM    2  C3  UNL     1       0.967  -1.507   0.279  1.00  0.00     0.123 C 
HETATM    3  C4  UNL     1      -0.321  -2.133  -0.216  1.00  0.00     0.020 C 
HETATM    4  C5  UNL     1      -1.500  -1.220  -0.171  1.00  0.00     0.011 C 
HETATM    5  C6  UNL     1      -1.222   0.222  -0.487  1.00  0.00     0.048 C 
HETATM    6  C8  UNL     1       0.103   0.710  -0.005  1.00  0.00     0.196 C 
HETATM    7  C9  UNL     1       0.379   2.022  -0.558  1.00  0.00     0.085 C 
HETATM    8  N3  UNL     1       0.603   3.086  -0.998  1.00  0.00    -0.195 NA
ENDROOT
BRANCH   1   9
HETATM    9  C2  UNL     1       2.454   0.273  -0.466  1.00  0.00     0.055 C 
HETATM   10  C1  UNL     1       3.326   0.518   0.758  1.00  0.00     0.054 C 
ENDBRANCH   1   9
BRANCH   5  11
HETATM   11  C7  UNL     1      -2.299   1.078   0.146  1.00  0.00     0.237 C 
BRANCH  11  12
HETATM   12  N2  UNL     1      -3.630   0.737  -0.352  1.00  0.00    -0.079 N 
ATOM     13  H23 UNL     1      -3.668   0.786  -1.370  1.00  0.00     0.274 HD
ATOM     14  H22 UNL     1      -3.828  -0.256  -0.231  1.00  0.00     0.274 HD
ATOM     15  H21 UNL     1      -4.355   1.314   0.074  1.00  0.00     0.274 HD
ENDBRANCH  11  12
ENDBRANCH   5  11
TORSDOF 3
