REMARK  2 active torsions:
REMARK  status: ('A' for Active; 'I' for Inactive)
REMARK    1  A    between atoms: N1_2  and  C2_5 
REMARK    2  A    between atoms: C2_5  and  C3_6 
ROOT
HETATM    1  C3  UNL     1       0.905  -0.311  -0.168  1.00  0.00     0.106 C 
HETATM    2  C4  UNL     1       0.084  -1.487  -0.692  1.00  0.00     0.027 C 
HETATM    3  C5  UNL     1      -0.787  -2.225   0.233  1.00  0.00     0.002 C 
HETATM    4  C6  UNL     1      -2.277  -1.763   0.293  1.00  0.00     0.000 C 
HETATM    5  C7  UNL     1      -2.102  -0.339   0.188  1.00  0.00     0.000 C 
HETATM    6  C8  UNL     1      -2.923   0.833   0.260  1.00  0.00     0.005 C 
HETATM    7  C9  UNL     1      -1.900   1.958  -0.063  1.00  0.00     0.044 C 
HETATM    8  C10 UNL     1      -0.484   1.680   0.373  1.00  0.00     0.056 C 
HETATM    9  N2  UNL     1       0.385   0.965  -0.448  1.00  0.00    -0.396 N 
ATOM     10  H2  UNL     1       0.667   1.403  -1.325  1.00  0.00     0.159 HD
ENDROOT
BRANCH   1  11
HETATM   11  C2  UNL     1       2.239  -0.316  -0.955  1.00  0.00     0.256 C 
BRANCH  11  12
HETATM   12  N1  UNL     1       3.077   0.709  -0.548  1.00  0.00    -0.077 N 
HETATM   13  C1  UNL     1       3.636   0.526   0.746  1.00  0.00     0.267 C 
ATOM     14  H12 UNL     1       2.596   1.607  -0.605  1.00  0.00     0.276 HD
ATOM     15  H11 UNL     1       3.814   0.862  -1.237  1.00  0.00     0.276 HD
ENDBRANCH  11  12
ENDBRANCH   1  11
TORSDOF 2
