REMARK  1 active torsions:
REMARK  status: ('A' for Active; 'I' for Inactive)
REMARK    1  A    between atoms: C10_12  and  O3_13 
ROOT
HETATM    1  C1  UNL     1      -2.817  -0.741   0.703  1.00  0.00     0.049 C 
HETATM    2  C2  UNL     1      -1.534  -0.448   0.071  1.00  0.00     0.085 C 
HETATM    3  C3  UNL     1      -0.556  -1.637   0.048  1.00  0.00     0.050 C 
HETATM    4  C4  UNL     1       0.556  -0.901  -0.722  1.00  0.00     0.055 C 
HETATM    5  C5  UNL     1      -0.294   0.038  -1.574  1.00  0.00     0.139 C 
HETATM    6  O1  UNL     1      -1.639  -0.316  -1.337  1.00  0.00    -0.372 OA
HETATM    7  C6  UNL     1      -0.227   1.303  -0.767  1.00  0.00     0.079 C 
HETATM    8  C7  UNL     1      -0.807   0.772   0.549  1.00  0.00     0.166 C 
HETATM    9  O2  UNL     1       0.300   0.320   1.296  1.00  0.00    -0.369 OA
HETATM   10  C8  UNL     1       1.227  -0.021   0.281  1.00  0.00     0.090 C 
HETATM   11  C9  UNL     1       2.542  -0.426   0.756  1.00  0.00     0.049 C 
HETATM   12  C10 UNL     1       1.246   1.347  -0.430  1.00  0.00     0.162 C 
ENDROOT
BRANCH  12  13
HETATM   13  O3  UNL     1       1.549   2.279   0.530  1.00  0.00    -0.392 OA
ATOM     14  H3  UNL     1       2.475   2.307   0.742  1.00  0.00     0.210 HD
ENDBRANCH  12  13
TORSDOF 1
