REMARK  12 active torsions:
REMARK  status: ('A' for Active; 'I' for Inactive)
REMARK    1  A    between atoms: C2_2  and  N1_3 
REMARK    2  A    between atoms: C2_2  and  C15_40 
REMARK    3  A    between atoms: N1_3  and  C3_5 
REMARK    4  A    between atoms: C4_8  and  S1_9 
REMARK    5  A    between atoms: S1_9  and  C5_10 
REMARK    6  A    between atoms: C5_10  and  C6_11 
REMARK    7  A    between atoms: C6_11  and  C7_12 
REMARK    8  A    between atoms: C7_12  and  N3_13 
REMARK    9  A    between atoms: N3_13  and  C8_15 
REMARK   10  A    between atoms: C9_18  and  N5_19 
REMARK   11  A    between atoms: C15_40  and  O2_41 
REMARK   12  A    between atoms: C15_40  and  O3_43 
ROOT
HETATM    1  C3  UNL     1       3.433   1.039  -0.171  1.00  0.00     0.697 A 
HETATM    2  N2  UNL     1       2.478   0.174  -0.559  1.00  0.00    -0.167 N 
ATOM      3  H2  UNL     1       2.682  -0.825  -0.564  1.00  0.00     0.186 HD
HETATM    4  C4  UNL     1       1.244   0.605  -0.946  1.00  0.00     0.198 A 
HETATM    5  N9  UNL     1       1.042   1.937  -0.918  1.00  0.00    -0.061 N 
HETATM    6  N10 UNL     1      -0.018   2.660  -1.225  1.00  0.00    -0.273 N 
ATOM      7  H10 UNL     1      -0.906   2.282  -1.555  1.00  0.00     0.189 HD
HETATM    8  C12 UNL     1       0.240   3.966  -1.041  1.00  0.00     0.216 A 
HETATM    9  N11 UNL     1       1.503   4.080  -0.604  1.00  0.00    -0.184 N 
ATOM     10  H11 UNL     1       1.998   4.941  -0.373  1.00  0.00     0.185 HD
HETATM   11  C13 UNL     1       1.985   2.816  -0.533  1.00  0.00     0.723 A 
HETATM   12  N12 UNL     1       3.200   2.366  -0.153  1.00  0.00    -0.017 N 
HETATM   13  C14 UNL     1       4.220   3.280   0.261  1.00  0.00     0.195 C 
ENDROOT
BRANCH   4  14
HETATM   14  S1  UNL     1      -0.027  -0.514  -1.461  1.00  0.00    -0.091 SA
BRANCH  14  15
HETATM   15  C5  UNL     1      -1.040  -1.054  -0.031  1.00  0.00     0.084 C 
BRANCH  15  16
HETATM   16  C6  UNL     1      -2.122  -2.019  -0.532  1.00  0.00     0.030 C 
BRANCH  16  17
HETATM   17  C7  UNL     1      -2.975  -2.482   0.626  1.00  0.00     0.122 C 
BRANCH  17  18
HETATM   18  N3  UNL     1      -3.637  -1.427   1.302  1.00  0.00    -0.374 N 
ATOM     19  H3  UNL     1      -3.116  -1.023   2.081  1.00  0.00     0.161 HD
BRANCH  18  20
HETATM   20  C8  UNL     1      -4.769  -0.907   1.094  1.00  0.00     0.149 A 
HETATM   21  N4  UNL     1      -5.177   0.098   1.890  1.00  0.00    -0.175 N 
HETATM   22  C9  UNL     1      -6.379   0.707   1.728  1.00  0.00     0.679 A 
ATOM     23  H4  UNL     1      -4.562   0.413   2.641  1.00  0.00     0.186 HD
HETATM   24  N6  UNL     1      -7.261   0.367   0.773  1.00  0.00    -0.173 N 
HETATM   25  C10 UNL     1      -6.948  -0.616  -0.062  1.00  0.00     0.175 A 
ATOM     26  H6  UNL     1      -8.153   0.855   0.691  1.00  0.00     0.186 HD
HETATM   27  N7  UNL     1      -7.505  -1.254  -1.116  1.00  0.00    -0.223 N 
HETATM   28  C11 UNL     1      -5.646  -1.286   0.101  1.00  0.00     0.147 A 
HETATM   29  O1  UNL     1      -6.694  -2.170  -1.545  1.00  0.00    -0.155 OA
ATOM     30  H7  UNL     1      -8.422  -1.047  -1.512  1.00  0.00     0.198 HD
HETATM   31  N8  UNL     1      -5.598  -2.208  -0.848  1.00  0.00    -0.234 N 
ATOM     32  H8  UNL     1      -4.821  -2.849  -1.007  1.00  0.00     0.197 HD
BRANCH  22  33
HETATM   33  N5  UNL     1      -6.708   1.665   2.526  1.00  0.00    -0.234 N 
ATOM     34  H52 UNL     1      -6.038   1.923   3.251  1.00  0.00     0.174 HD
ATOM     35  H51 UNL     1      -7.611   2.123   2.404  1.00  0.00     0.174 HD
ENDBRANCH  22  33
ENDBRANCH  18  20
ENDBRANCH  17  18
ENDBRANCH  16  17
ENDBRANCH  15  16
ENDBRANCH  14  15
ENDBRANCH   4  14
BRANCH   1  36
HETATM   36  N1  UNL     1       4.611   0.648   0.201  1.00  0.00    -0.216 N 
ATOM     37  H1  UNL     1       5.319   1.322   0.491  1.00  0.00     0.178 HD
BRANCH  36  38
HETATM   38  C2  UNL     1       4.894  -0.769   0.194  1.00  0.00     0.150 C 
HETATM   39  C1  UNL     1       4.855  -1.360   1.594  1.00  0.00     0.038 C 
BRANCH  38  40
HETATM   40  C15 UNL     1       6.311  -1.032  -0.329  1.00  0.00     0.276 C 
BRANCH  40  41
HETATM   41  O2  UNL     1       6.461  -0.552  -1.627  1.00  0.00    -0.369 OA
ATOM     42  H2  UNL     1       7.339  -0.715  -1.951  1.00  0.00     0.212 HD
ENDBRANCH  40  41
BRANCH  40  43
HETATM   43  O3  UNL     1       6.553  -2.402  -0.374  1.00  0.00    -0.369 OA
ATOM     44  H3  UNL     1       7.431  -2.565  -0.698  1.00  0.00     0.212 HD
ENDBRANCH  40  43
ENDBRANCH  38  40
ENDBRANCH  36  38
ENDBRANCH   1  36
TORSDOF 12
