REMARK  6 active torsions:
REMARK  status: ('A' for Active; 'I' for Inactive)
REMARK    1  A    between atoms: C2_2  and  C3_3 
REMARK    2  A    between atoms: C8_11  and  C9_12 
REMARK    3  A    between atoms: C10_13  and  O1_14 
REMARK    4  A    between atoms: C11_17  and  O3_18 
REMARK    5  A    between atoms: C12_20  and  O4_21 
REMARK    6  A    between atoms: C13_24  and  O6_26 
ROOT
HETATM    1  C1  UNL     1      -0.269  -2.149   0.879  1.00  0.00     0.021 C 
HETATM    2  C2  UNL     1      -0.986  -1.317  -0.154  1.00  0.00    -0.006 C 
HETATM    3  C4  UNL     1      -2.051  -0.420   0.387  1.00  0.00     0.025 C 
HETATM    4  C5  UNL     1      -2.054   0.810  -0.540  1.00  0.00     0.049 C 
HETATM    5  C6  UNL     1      -1.343   0.269  -1.773  1.00  0.00     0.018 C 
HETATM    6  C7  UNL     1      -0.194  -0.468  -1.025  1.00  0.00     0.033 C 
HETATM    7  C8  UNL     1       0.648   0.648  -0.527  1.00  0.00     0.171 C 
HETATM    8  O5  UNL     1      -0.049   1.185   0.607  1.00  0.00    -0.345 OA
HETATM    9  C13 UNL     1      -1.180   1.839   0.138  1.00  0.00     0.162 C 
HETATM   10  C14 UNL     1      -1.920   2.353   1.383  1.00  0.00     0.079 C 
ENDROOT
BRANCH   7  11
HETATM   11  C9  UNL     1       1.999   0.293  -0.104  1.00  0.00     0.067 A 
HETATM   12  C10 UNL     1       3.071   0.191  -0.960  1.00  0.00     0.197 A 
HETATM   13  O2  UNL     1       4.123  -0.033  -0.265  1.00  0.00    -0.262 OA
HETATM   14  C11 UNL     1       3.851  -0.096   1.013  1.00  0.00     0.220 A 
HETATM   15  C12 UNL     1       2.478   0.114   1.152  1.00  0.00     0.138 A 
BRANCH  12  16
HETATM   16  O1  UNL     1       3.027   0.323  -2.372  1.00  0.00    -0.340 OA
ATOM     17  H1  UNL     1       3.767   0.253  -2.963  1.00  0.00     0.220 HD
ENDBRANCH  12  16
BRANCH  14  18
HETATM   18  O3  UNL     1       4.754  -0.331   2.057  1.00  0.00    -0.339 OA
ATOM     19  H3  UNL     1       4.556  -0.377   2.985  1.00  0.00     0.220 HD
ENDBRANCH  14  18
BRANCH  15  20
HETATM   20  O4  UNL     1       1.817   0.127   2.393  1.00  0.00    -0.356 OA
ATOM     21  H4  UNL     1       2.153   0.002   3.273  1.00  0.00     0.218 HD
ENDBRANCH  15  20
ENDBRANCH   7  11
BRANCH   2  22
HETATM   22  C3  UNL     1      -1.661  -2.362  -1.037  1.00  0.00     0.062 C 
HETATM   23  N1  UNL     1      -2.944  -2.426  -1.090  1.00  0.00    -0.410 N 
ATOM     24  H12 UNL     1      -3.496  -1.771  -0.536  1.00  0.00     0.155 HD
ATOM     25  H11 UNL     1      -3.395  -3.125  -1.680  1.00  0.00     0.155 HD
ENDBRANCH   2  22
BRANCH   9  26
HETATM   26  O6  UNL     1      -0.842   2.906  -0.697  1.00  0.00    -0.365 OA
ATOM     27  H6  UNL     1      -0.292   3.553  -0.271  1.00  0.00     0.213 HD
ENDBRANCH   9  26
TORSDOF 6
