REMARK  2 active torsions:
REMARK  status: ('A' for Active; 'I' for Inactive)
REMARK    1  A    between atoms: C2_2  and  N1_4 
REMARK    2  A    between atoms: C12_13  and  O1_14 
ROOT
HETATM    1  N1  UNL     1       1.476  -0.144  -0.109  1.00  0.00    -0.387 N 
HETATM    2  C4  UNL     1       1.647  -1.530   0.117  1.00  0.00     0.120 C 
HETATM    3  C5  UNL     1       0.622  -2.223   0.950  1.00  0.00     0.029 C 
HETATM    4  C6  UNL     1      -0.702  -1.525   1.060  1.00  0.00    -0.030 A 
HETATM    5  C7  UNL     1      -1.265  -0.958   2.285  1.00  0.00     0.016 A 
HETATM    6  C8  UNL     1      -0.405  -0.137   1.511  1.00  0.00     0.008 A 
HETATM    7  C9  UNL     1      -0.711   0.723   0.311  1.00  0.00     0.009 C 
HETATM    8  C10 UNL     1      -0.624   2.207   0.635  1.00  0.00     0.017 C 
HETATM    9  C11 UNL     1      -1.696   2.887  -0.198  1.00  0.00     0.033 C 
HETATM   10  C12 UNL     1      -2.669   1.815  -0.631  1.00  0.00     0.123 C 
HETATM   11  C13 UNL     1      -2.177   0.617   0.095  1.00  0.00     0.027 C 
HETATM   12  C14 UNL     1      -2.655  -0.703  -0.349  1.00  0.00     0.013 C 
HETATM   13  C15 UNL     1      -1.616  -1.735  -0.060  1.00  0.00    -0.005 C 
HETATM   14  C16 UNL     1      -0.868  -1.947  -1.341  1.00  0.00     0.009 C 
HETATM   15  C17 UNL     1      -0.172  -0.714  -1.733  1.00  0.00     0.049 C 
HETATM   16  C18 UNL     1       0.245   0.272  -0.713  1.00  0.00     0.115 C 
HETATM   17 CL1  UNL     1       0.680   1.743  -1.657  1.00  0.00    -0.095 Cl
ENDROOT
BRANCH   1  18
HETATM   18  C2  UNL     1       2.631   0.616  -0.316  1.00  0.00     0.072 C 
HETATM   19  C1  UNL     1       3.550   0.567   0.921  1.00  0.00     0.031 C 
HETATM   20  C3  UNL     1       3.489   0.302  -1.485  1.00  0.00     0.031 C 
ENDBRANCH   1  18
BRANCH  10  21
HETATM   21  O1  UNL     1      -2.803   1.699  -1.983  1.00  0.00    -0.395 OA
ATOM     22  H1  UNL     1      -3.415   1.025  -2.255  1.00  0.00     0.210 HD
ENDBRANCH  10  21
TORSDOF 2
