REMARK  6 active torsions:
REMARK  status: ('A' for Active; 'I' for Inactive)
REMARK    1  A    between atoms: C4_5  and  C5_6 
REMARK    2  A    between atoms: N4_14  and  C9_15 
REMARK    3  A    between atoms: C9_15  and  C10_16 
REMARK    4  A    between atoms: C11_17  and  C12_18 
REMARK    5  A    between atoms: N8_25  and  C13_26 
REMARK    6  A    between atoms: C16_37  and  C17_38 
ROOT
HETATM    1  C1  UNL     1       4.276  -1.240  -2.824  1.00  0.00     0.159 C 
HETATM    2  N1  UNL     1       3.066  -0.838  -2.130  1.00  0.00    -0.327 N 
HETATM    3  C2  UNL     1       3.080  -0.373  -0.872  1.00  0.00     0.108 A 
HETATM    4  C3  UNL     1       1.925   0.010  -0.211  1.00  0.00     0.023 A 
HETATM    5  C4  UNL     1       1.690   0.509   1.050  1.00  0.00     0.037 A 
HETATM    6  C8  UNL     1       0.356   0.701   1.135  1.00  0.00     0.113 A 
HETATM    7  N4  UNL     1      -0.295   0.346  -0.026  1.00  0.00    -0.328 N 
HETATM    8  C15 UNL     1       0.695  -0.086  -0.864  1.00  0.00     0.073 A 
HETATM    9  C16 UNL     1       0.710  -0.566  -2.152  1.00  0.00     0.136 A 
HETATM   10  C18 UNL     1       1.906  -0.935  -2.761  1.00  0.00     0.266 A 
HETATM   11  O5  UNL     1       1.860  -1.370  -3.949  1.00  0.00    -0.267 OA
ENDROOT
BRANCH   7  12
HETATM   12  C9  UNL     1      -1.656   0.486  -0.243  1.00  0.00     0.131 C 
BRANCH  12  13
HETATM   13  C10 UNL     1      -2.701  -0.506   0.001  1.00  0.00     0.109 A 
HETATM   14  C11 UNL     1      -2.777  -1.768   0.453  1.00  0.00     0.144 A 
HETATM   15  N6  UNL     1      -4.137  -2.096   0.406  1.00  0.00    -0.279 N 
HETATM   16  N7  UNL     1      -4.787  -1.073  -0.047  1.00  0.00    -0.233 N 
ATOM     17  H6  UNL     1      -4.546  -2.989   0.682  1.00  0.00     0.189 HD
HETATM   18  N8  UNL     1      -4.003  -0.070  -0.317  1.00  0.00    -0.217 N 
ATOM     19  H7  UNL     1      -5.798  -1.055  -0.178  1.00  0.00     0.209 HD
BRANCH  14  20
HETATM   20  C12 UNL     1      -1.801  -2.715   0.922  1.00  0.00     0.285 C 
HETATM   21  N5  UNL     1      -2.248  -4.052   1.316  1.00  0.00    -0.056 NA
HETATM   22  O1  UNL     1      -0.607  -2.547   1.039  1.00  0.00    -0.269 OA
ENDBRANCH  14  20
BRANCH  18  23
HETATM   23  C13 UNL     1      -4.353   1.223  -0.831  1.00  0.00     0.196 A 
HETATM   24  N9  UNL     1      -4.403   1.650  -2.104  1.00  0.00    -0.220 N 
HETATM   25  O2  UNL     1      -4.773   2.915  -2.124  1.00  0.00    -0.153 OA
ATOM     26  H9  UNL     1      -4.188   1.084  -2.925  1.00  0.00     0.198 HD
HETATM   27  N10 UNL     1      -4.970   3.341  -0.912  1.00  0.00    -0.222 N 
HETATM   28  C14 UNL     1      -4.716   2.306  -0.061  1.00  0.00     0.169 A 
ATOM     29  H10 UNL     1      -5.262   4.281  -0.645  1.00  0.00     0.198 HD
HETATM   30  N11 UNL     1      -4.816   2.389   1.218  1.00  0.00    -0.381 N 
ATOM     31 2H11 UNL     1      -4.626   1.615   1.854  1.00  0.00     0.157 HD
ATOM     32 1H11 UNL     1      -5.085   3.191   1.788  1.00  0.00     0.157 HD
ENDBRANCH  18  23
ENDBRANCH  12  13
ENDBRANCH   7  12
BRANCH   5  33
HETATM   33  C5  UNL     1       2.689   0.766   2.104  1.00  0.00     0.109 C 
HETATM   34  N2  UNL     1       2.509   1.594   3.077  1.00  0.00    -0.374 N 
HETATM   35  C6  UNL     1       3.630   1.673   3.980  1.00  0.00     0.141 C 
ATOM     36  H2  UNL     1       1.656   2.140   3.196  1.00  0.00     0.161 HD
HETATM   37  C7  UNL     1       4.767   1.116   3.122  1.00  0.00     0.141 C 
HETATM   38  N3  UNL     1       3.960   0.197   2.289  1.00  0.00    -0.374 N 
ATOM     39  H3  UNL     1       4.273  -0.698   1.913  1.00  0.00     0.161 HD
ENDBRANCH   5  33
BRANCH   9  40
HETATM   40  C17 UNL     1      -0.495  -0.699  -2.941  1.00  0.00     0.217 C 
HETATM   41  O3  UNL     1      -0.877   0.238  -3.659  1.00  0.00    -0.644 OA
HETATM   42  O4  UNL     1      -1.212  -1.866  -2.898  1.00  0.00    -0.644 OA
ENDBRANCH   9  40
TORSDOF 6
