REMARK  15 active torsions:
REMARK  status: ('A' for Active; 'I' for Inactive)
REMARK    1  A    between atoms: C2_2  and  C3_3 
REMARK    2  A    between atoms: C3_3  and  C4_4 
REMARK    3  A    between atoms: C5_6  and  O2_7 
REMARK    4  A    between atoms: O2_7  and  C6_8 
REMARK    5  A    between atoms: C7_9  and  O3_10 
REMARK    6  A    between atoms: C8_12  and  C9_13 
REMARK    7  A    between atoms: C9_13  and  N1_14 
REMARK    8  A    between atoms: C12_21  and  N2_22 
REMARK    9  A    between atoms: C14_25  and  N3_26 
REMARK   10  A    between atoms: C15_30  and  O5_31 
REMARK   11  A    between atoms: O5_31  and  C16_32 
REMARK   12  A    between atoms: C17_34  and  C18_35 
REMARK   13  A    between atoms: C18_35  and  N4_36 
REMARK       I    between atoms: N4_36  and  C19_37 
REMARK   14  A    between atoms: C23_42  and  N5_43 
REMARK   15  A    between atoms: C24_47  and  O8_48 
ROOT
HETATM    1  C4  UNL     1       1.449  -2.459   1.250  1.00  0.00     0.156 C 
HETATM    2  O1  UNL     1       1.650  -2.282  -0.164  1.00  0.00    -0.351 OA
HETATM    3  C5  UNL     1       1.108  -1.034  -0.451  1.00  0.00     0.293 C 
HETATM    4  C14 UNL     1      -0.206  -0.856   0.181  1.00  0.00     0.269 C 
HETATM    5  C15 UNL     1      -0.881  -2.184   0.642  1.00  0.00     0.191 C 
HETATM    6  C24 UNL     1       0.079  -3.104   1.326  1.00  0.00     0.178 C 
ENDROOT
BRANCH   3   7
HETATM    7  O2  UNL     1       2.041  -0.042  -0.130  1.00  0.00    -0.349 OA
BRANCH   7   8
HETATM    8  C6  UNL     1       2.436   0.751  -1.213  1.00  0.00     0.180 C 
HETATM    9  C7  UNL     1       1.934   2.163  -0.965  1.00  0.00     0.179 C 
HETATM   10  C8  UNL     1       2.777   2.858   0.047  1.00  0.00     0.178 C 
HETATM   11  O4  UNL     1       4.122   2.674  -0.112  1.00  0.00    -0.374 OA
HETATM   12  C10 UNL     1       4.565   1.999  -1.194  1.00  0.00     0.143 C 
HETATM   13  C11 UNL     1       6.076   1.783  -0.961  1.00  0.00     0.042 C 
HETATM   14  C12 UNL     1       3.895   0.694  -1.527  1.00  0.00     0.136 C 
BRANCH   9  15
HETATM   15  O3  UNL     1       2.042   2.893  -2.157  1.00  0.00    -0.390 OA
ATOM     16  H3  UNL     1       1.728   3.776  -2.002  1.00  0.00     0.210 HD
ENDBRANCH   9  15
BRANCH  10  17
HETATM   17  C9  UNL     1       2.390   2.593   1.497  1.00  0.00     0.264 C 
BRANCH  17  18
HETATM   18  N1  UNL     1       3.103   3.518   2.381  1.00  0.00    -0.077 N 
ATOM     19  H13 UNL     1       4.113   3.479   2.241  1.00  0.00     0.274 HD
ATOM     20  H12 UNL     1       2.954   4.492   2.117  1.00  0.00     0.274 HD
ATOM     21  H11 UNL     1       2.844   3.341   3.351  1.00  0.00     0.274 HD
ENDBRANCH  17  18
ENDBRANCH  10  17
BRANCH  14  22
HETATM   22  N2  UNL     1       4.065   0.520  -2.954  1.00  0.00    -0.417 N 
HETATM   23  C13 UNL     1       3.572  -0.652  -3.551  1.00  0.00     0.140 C 
ATOM     24  H2  UNL     1       4.533   1.233  -3.514  1.00  0.00     0.153 HD
ENDBRANCH  14  22
ENDBRANCH   7   8
ENDBRANCH   3   7
BRANCH   4  25
HETATM   25  N3  UNL     1      -0.354   0.157   1.171  1.00  0.00    -0.068 N 
ATOM     26  H33 UNL     1       0.346   0.014   1.898  1.00  0.00     0.275 HD
ATOM     27  H32 UNL     1      -0.051   1.049   0.780  1.00  0.00     0.275 HD
ATOM     28  H31 UNL     1      -1.266   0.281   1.610  1.00  0.00     0.275 HD
ENDBRANCH   4  25
BRANCH   1  29
HETATM   29  C3  UNL     1       2.559  -2.974   1.907  1.00  0.00     0.034 C 
BRANCH  29  30
HETATM   30  C2  UNL     1       2.892  -2.368   3.125  1.00  0.00    -0.002 C 
HETATM   31  C1  UNL     1       4.165  -3.020   3.765  1.00  0.00     0.005 C 
ENDBRANCH  29  30
ENDBRANCH   1  29
BRANCH   5  32
HETATM   32  O5  UNL     1      -1.872  -1.719   1.499  1.00  0.00    -0.349 OA
BRANCH  32  33
HETATM   33  C16 UNL     1      -3.137  -1.682   0.818  1.00  0.00     0.291 C 
HETATM   34  O6  UNL     1      -3.151  -0.325   0.386  1.00  0.00    -0.348 OA
HETATM   35  C17 UNL     1      -4.272  -0.022  -0.343  1.00  0.00     0.176 C 
HETATM   36  C21 UNL     1      -5.456  -0.009   0.547  1.00  0.00     0.041 C 
HETATM   37  C22 UNL     1      -5.585  -1.429   1.091  1.00  0.00     0.041 C 
HETATM   38  C23 UNL     1      -4.299  -1.949   1.662  1.00  0.00     0.238 C 
BRANCH  35  39
HETATM   39  C18 UNL     1      -3.974   1.215  -1.096  1.00  0.00     0.191 C 
BRANCH  39  40
HETATM   40  N4  UNL     1      -4.884   1.855  -1.909  1.00  0.00    -0.385 NA
HETATM   41  C19 UNL     1      -5.761   2.452  -2.697  1.00  0.00     0.286 C 
HETATM   42  C20 UNL     1      -5.775   4.005  -2.543  1.00  0.00     0.135 C 
HETATM   43  O7  UNL     1      -6.600   2.077  -3.574  1.00  0.00    -0.258 OA
ENDBRANCH  39  40
ENDBRANCH  35  39
BRANCH  38  44
HETATM   44  N5  UNL     1      -4.480  -3.395   1.887  1.00  0.00    -0.070 N 
ATOM     45  H53 UNL     1      -4.532  -3.907   1.006  1.00  0.00     0.274 HD
ATOM     46  H52 UNL     1      -3.636  -3.823   2.267  1.00  0.00     0.274 HD
ATOM     47  H51 UNL     1      -5.291  -3.581   2.476  1.00  0.00     0.274 HD
ENDBRANCH  38  44
ENDBRANCH  32  33
ENDBRANCH   5  32
BRANCH   6  48
HETATM   48  O8  UNL     1       0.036  -4.316   0.657  1.00  0.00    -0.390 OA
ATOM     49  H8  UNL     1      -0.822  -4.720   0.705  1.00  0.00     0.210 HD
ENDBRANCH   6  48
TORSDOF 15
