REMARK  3 active torsions:
REMARK  status: ('A' for Active; 'I' for Inactive)
REMARK    1  A    between atoms: C11_13  and  C12_14 
REMARK    2  A    between atoms: C12_14  and  O2_15 
REMARK    3  A    between atoms: C16_20  and  O3_21 
ROOT
HETATM    1  C1  UNL     1      -1.466  -0.110   2.970  1.00  0.00     0.048 C 
HETATM    2  C2  UNL     1      -0.790   0.277   1.626  1.00  0.00    -0.055 C 
HETATM    3  C3  UNL     1      -0.040   1.339   1.715  1.00  0.00     0.004 C 
HETATM    4  C4  UNL     1       0.798   2.147   0.865  1.00  0.00    -0.016 C 
HETATM    5  C5  UNL     1       1.062   1.973  -0.534  1.00  0.00     0.077 C 
HETATM    6  C6  UNL     1      -0.052   1.772  -1.512  1.00  0.00     0.164 C 
HETATM    7  O1  UNL     1      -1.293   1.832  -1.008  1.00  0.00    -0.380 OA
HETATM    8  C7  UNL     1      -2.177   0.855  -1.285  1.00  0.00     0.198 C 
HETATM    9  C8  UNL     1      -2.343  -0.198  -0.265  1.00  0.00     0.081 C 
HETATM   10  C9  UNL     1      -3.091  -1.325  -0.888  1.00  0.00     0.040 C 
HETATM   11 CL1  UNL     1      -3.467   0.451   1.001  1.00  0.00    -0.112 Cl
HETATM   12  C10 UNL     1      -1.129  -0.617   0.518  1.00  0.00    -0.013 C 
HETATM   13  C11 UNL     1       0.004  -1.183  -0.287  1.00  0.00     0.109 C 
HETATM   14  C13 UNL     1       1.332  -1.129   0.407  1.00  0.00     0.052 C 
HETATM   15  C14 UNL     1       2.289  -0.257  -0.312  1.00  0.00     0.023 C 
HETATM   16  C15 UNL     1       3.450   0.158   0.604  1.00  0.00     0.013 C 
HETATM   17  C16 UNL     1       1.786   0.858  -1.119  1.00  0.00     0.099 C 
HETATM   18  C17 UNL     1       0.545   0.461  -1.872  1.00  0.00     0.188 C 
HETATM   19  O4  UNL     1      -0.055  -0.656  -1.521  1.00  0.00    -0.362 OA
ENDROOT
BRANCH  13  20
HETATM   20  C12 UNL     1      -0.194  -2.705  -0.552  1.00  0.00     0.207 C 
BRANCH  20  21
HETATM   21  O2  UNL     1      -0.172  -3.415   0.641  1.00  0.00    -0.398 OA
ATOM     22  H2  UNL     1      -0.293  -4.343   0.479  1.00  0.00     0.209 HD
ENDBRANCH  20  21
ENDBRANCH  13  20
BRANCH  17  23
HETATM   23  O3  UNL     1       2.850   1.230  -2.002  1.00  0.00    -0.386 OA
ATOM     24  H3  UNL     1       3.324   0.501  -2.385  1.00  0.00     0.210 HD
ENDBRANCH  17  23
TORSDOF 3
