REMARK  18 active torsions:
REMARK  status: ('A' for Active; 'I' for Inactive)
REMARK    1  A    between atoms: C2_2  and  C3_3 
REMARK    2  A    between atoms: C3_3  and  C5_5 
REMARK    3  A    between atoms: C5_5  and  N1_6 
REMARK    4  A    between atoms: C5_5  and  C12_31 
REMARK    5  A    between atoms: N1_6  and  N2_8 
REMARK    6  A    between atoms: C8_13  and  N4_14 
REMARK    7  A    between atoms: C9_17  and  N5_18 
REMARK    8  A    between atoms: C10_21  and  N6_22 
REMARK    9  A    between atoms: N6_22  and  N7_24 
REMARK   10  A    between atoms: N7_24  and  O3_26 
REMARK       I    between atoms: C12_31  and  N9_33 
REMARK   11  A    between atoms: N9_33  and  O5_35 
REMARK   12  A    between atoms: O5_35  and  C13_36 
REMARK       I    between atoms: C13_36  and  N10_38 
REMARK   13  A    between atoms: N10_38  and  N11_40 
REMARK       I    between atoms: N11_40  and  C14_42 
REMARK       I    between atoms: C14_42  and  N12_44 
REMARK   14  A    between atoms: N12_44  and  N13_46 
REMARK   15  A    between atoms: C15_48  and  C16_49 
REMARK   16  A    between atoms: C18_51  and  O8_52 
REMARK   17  A    between atoms: C20_54  and  O9_55 
REMARK   18  A    between atoms: C21_57  and  O10_58 
ROOT
HETATM    1  C5  UNL     1      -4.368  -1.777  -0.706  1.00  0.00     0.197 C 
ENDROOT
BRANCH   1   2
HETATM    2  C3  UNL     1      -3.857  -3.158  -1.093  1.00  0.00     0.014 C 
HETATM    3  C4  UNL     1      -3.376  -3.149  -2.541  1.00  0.00     0.012 C 
BRANCH   2   4
HETATM    4  C2  UNL     1      -2.843  -3.746  -0.176  1.00  0.00     0.002 C 
HETATM    5  C1  UNL     1      -3.327  -3.773   1.274  1.00  0.00     0.005 C 
ENDBRANCH   2   4
ENDBRANCH   1   2
BRANCH   1   6
HETATM    6  N1  UNL     1      -5.367  -1.447  -1.698  1.00  0.00    -0.313 N 
ATOM      7  H1  UNL     1      -5.388  -2.077  -2.500  1.00  0.00     0.181 HD
BRANCH   6   8
HETATM    8  N2  UNL     1      -6.286  -0.441  -1.748  1.00  0.00    -0.236 N 
HETATM    9  C6  UNL     1      -7.076  -0.216  -2.845  1.00  0.00     0.209 A 
HETATM   10  N3  UNL     1      -7.890   0.811  -2.631  1.00  0.00    -0.346 N 
HETATM   11  C7  UNL     1      -7.661   1.285  -1.400  1.00  0.00     0.108 A 
ATOM     12  H3  UNL     1      -8.574   1.177  -3.293  1.00  0.00     0.167 HD
HETATM   13  C8  UNL     1      -8.212   2.314  -0.665  1.00  0.00     0.094 A 
HETATM   14  C11 UNL     1      -6.646   0.483  -0.853  1.00  0.00     0.158 A 
HETATM   15  C9  UNL     1      -7.739   2.522   0.603  1.00  0.00     0.176 A 
HETATM   16  C10 UNL     1      -6.749   1.746   1.157  1.00  0.00     0.159 A 
HETATM   17  N8  UNL     1      -6.228   0.739   0.402  1.00  0.00    -0.322 N 
ATOM     18  H8  UNL     1      -5.493   0.156   0.802  1.00  0.00     0.169 HD
BRANCH  13  19
HETATM   19  N4  UNL     1      -9.143   3.033  -1.198  1.00  0.00    -0.395 N 
ATOM     20  H42 UNL     1      -9.495   2.878  -2.143  1.00  0.00     0.156 HD
ATOM     21  H41 UNL     1      -9.550   3.794  -0.654  1.00  0.00     0.156 HD
ENDBRANCH  13  19
BRANCH  15  22
HETATM   22  N5  UNL     1      -8.279   3.566   1.389  1.00  0.00    -0.109 N 
HETATM   23  O1  UNL     1      -7.941   4.748   1.129  1.00  0.00    -0.532 OA
HETATM   24  O2  UNL     1      -9.154   3.389   2.431  1.00  0.00    -0.532 OA
ENDBRANCH  15  22
BRANCH  16  25
HETATM   25  N6  UNL     1      -6.262   1.968   2.473  1.00  0.00    -0.264 N 
ATOM     26  H6  UNL     1      -5.456   2.571   2.638  1.00  0.00     0.190 HD
BRANCH  25  27
HETATM   27  N7  UNL     1      -6.917   1.337   3.536  1.00  0.00    -0.208 N 
ATOM     28  H7  UNL     1      -6.814   1.709   4.480  1.00  0.00     0.215 HD
BRANCH  27  29
HETATM   29  O3  UNL     1      -7.628   0.322   3.347  1.00  0.00    -0.274 OA
ATOM     30  H3  UNL     1      -8.073  -0.106   4.069  1.00  0.00     0.246 HD
ENDBRANCH  27  29
ENDBRANCH  25  27
ENDBRANCH  16  25
ENDBRANCH   6   8
ENDBRANCH   1   6
BRANCH   1  31
HETATM   31  C12 UNL     1      -3.324  -0.733  -0.833  1.00  0.00     0.266 C 
HETATM   32  O4  UNL     1      -3.521   0.120  -1.776  1.00  0.00    -0.269 OA
HETATM   33  N9  UNL     1      -2.172  -0.530  -0.092  1.00  0.00    -0.222 N 
ATOM     34  H9  UNL     1      -1.953  -1.179   0.664  1.00  0.00     0.198 HD
BRANCH  33  35
HETATM   35  O5  UNL     1      -1.320   0.507  -0.337  1.00  0.00    -0.177 OA
BRANCH  35  36
HETATM   36  C13 UNL     1       0.053   0.409  -0.552  1.00  0.00     0.401 C 
HETATM   37  O6  UNL     1       0.536  -0.738  -0.525  1.00  0.00    -0.235 OA
HETATM   38  N10 UNL     1       0.841   1.552  -0.784  1.00  0.00    -0.240 N 
ATOM     39  H10 UNL     1       0.383   2.463  -0.799  1.00  0.00     0.192 HD
BRANCH  38  40
HETATM   40  N11 UNL     1       2.232   1.496  -0.996  1.00  0.00    -0.246 N 
HETATM   41  C14 UNL     1       3.030   1.747   0.147  1.00  0.00     0.353 C 
HETATM   42  O7  UNL     1       2.566   1.993   1.276  1.00  0.00    -0.244 OA
HETATM   43  N12 UNL     1       4.469   1.719   0.001  1.00  0.00    -0.251 N 
ATOM     44  H12 UNL     1       4.891   1.522  -0.906  1.00  0.00     0.191 HD
ATOM     45  H11 UNL     1       2.637   1.289  -1.909  1.00  0.00     0.192 HD
BRANCH  43  46
HETATM   46  N13 UNL     1       5.220   1.948   1.041  1.00  0.00    -0.307 N 
HETATM   47  C15 UNL     1       6.240   1.827   1.637  1.00  0.00     0.118 C 
ATOM     48  H13 UNL     1       4.637   2.520   1.652  1.00  0.00     0.186 HD
BRANCH  47  49
HETATM   49  C16 UNL     1       7.454   1.115   1.270  1.00  0.00    -0.014 A 
HETATM   50  C17 UNL     1       8.529   1.111   2.177  1.00  0.00     0.052 A 
HETATM   51  C18 UNL     1       9.709   0.462   1.902  1.00  0.00     0.104 A 
HETATM   52  C20 UNL     1       9.804  -0.188   0.701  1.00  0.00     0.133 A 
HETATM   53  C21 UNL     1       8.786  -0.229  -0.248  1.00  0.00     0.104 A 
HETATM   54  C23 UNL     1       7.617   0.443   0.081  1.00  0.00     0.052 A 
BRANCH  51  55
HETATM   55  O8  UNL     1      10.780   0.461   2.811  1.00  0.00    -0.353 OA
HETATM   56  C19 UNL     1      10.597   1.152   4.030  1.00  0.00     0.210 C 
ENDBRANCH  51  55
BRANCH  52  57
HETATM   57  O9  UNL     1      10.975  -0.848   0.395  1.00  0.00    -0.356 OA
ATOM     58  H9  UNL     1      11.041  -1.299  -0.438  1.00  0.00     0.218 HD
ENDBRANCH  52  57
BRANCH  53  59
HETATM   59  O10 UNL     1       8.923  -0.884  -1.426  1.00  0.00    -0.353 OA
HETATM   60  C22 UNL     1       7.977  -0.974  -2.416  1.00  0.00     0.210 C 
ENDBRANCH  53  59
ENDBRANCH  47  49
ENDBRANCH  43  46
ENDBRANCH  38  40
ENDBRANCH  35  36
ENDBRANCH  33  35
ENDBRANCH   1  31
TORSDOF 18
