REMARK  7 active torsions:
REMARK  status: ('A' for Active; 'I' for Inactive)
REMARK    1  A    between atoms: O1_2  and  C2_3 
REMARK    2  A    between atoms: C2_3  and  C3_4 
REMARK    3  A    between atoms: C3_4  and  C4_5 
REMARK    4  A    between atoms: C4_5  and  C5_6 
REMARK    5  A    between atoms: C10_11  and  C12_13 
REMARK    6  A    between atoms: C21_24  and  O4_25 
REMARK    7  A    between atoms: C22_27  and  C23_28 
ROOT
HETATM    1  C5  UNL     1      -2.033   0.221   0.287  1.00  0.00     0.091 C 
HETATM    2  C6  UNL     1      -0.658   0.173  -0.244  1.00  0.00     0.017 C 
HETATM    3  C7  UNL     1      -0.126   1.539  -0.511  1.00  0.00     0.008 C 
HETATM    4  C8  UNL     1       1.244   1.509  -1.196  1.00  0.00     0.007 C 
HETATM    5  C9  UNL     1       2.132   0.887  -0.155  1.00  0.00     0.013 C 
HETATM    6  C10 UNL     1       3.562   1.268  -0.317  1.00  0.00     0.049 C 
HETATM    7  C11 UNL     1       3.990   1.439  -1.780  1.00  0.00     0.027 C 
HETATM    8  C13 UNL     1       4.523   0.375   0.380  1.00  0.00     0.020 C 
HETATM    9  C14 UNL     1       3.928  -0.622   1.307  1.00  0.00     0.002 C 
HETATM   10  C15 UNL     1       2.704  -1.329   0.845  1.00  0.00     0.010 C 
HETATM   11  C16 UNL     1       1.770  -0.532  -0.040  1.00  0.00    -0.031 C 
HETATM   12  C17 UNL     1       1.792  -1.153  -1.422  1.00  0.00     0.016 C 
HETATM   13  C18 UNL     1       0.326  -0.715   0.464  1.00  0.00    -0.029 C 
HETATM   14  C19 UNL     1       0.382  -0.201   1.914  1.00  0.00     0.016 C 
HETATM   15  C20 UNL     1       0.097  -2.161   0.514  1.00  0.00     0.043 C 
HETATM   16  C21 UNL     1      -0.697  -2.898  -0.471  1.00  0.00     0.139 C 
HETATM   17  C22 UNL     1      -2.099  -3.189   0.087  1.00  0.00     0.175 C 
HETATM   18  C25 UNL     1      -2.978  -2.160  -0.483  1.00  0.00     0.233 C 
HETATM   19  O6  UNL     1      -3.994  -2.596  -1.091  1.00  0.00    -0.272 OA
HETATM   20  N1  UNL     1      -2.890  -0.752  -0.475  1.00  0.00    -0.351 N 
HETATM   21  C26 UNL     1      -3.819  -0.108  -1.401  1.00  0.00     0.153 C 
ENDROOT
BRANCH   1  22
HETATM   22  C4  UNL     1      -2.876   1.399   0.412  1.00  0.00     0.028 C 
BRANCH  22  23
HETATM   23  C3  UNL     1      -2.514   2.580   1.249  1.00  0.00     0.028 C 
BRANCH  23  24
HETATM   24  C2  UNL     1      -3.655   3.617   1.268  1.00  0.00     0.167 C 
BRANCH  24  25
HETATM   25  O1  UNL     1      -3.882   4.037  -0.020  1.00  0.00    -0.396 OA
HETATM   26  C1  UNL     1      -2.854   4.683  -0.642  1.00  0.00     0.201 C 
ENDBRANCH  24  25
ENDBRANCH  23  24
ENDBRANCH  22  23
ENDBRANCH   1  22
BRANCH  17  27
HETATM   27  C23 UNL     1      -2.540  -4.559  -0.085  1.00  0.00     0.138 C 
HETATM   28  C24 UNL     1      -1.783  -5.678   0.540  1.00  0.00     0.092 C 
HETATM   29  O5  UNL     1      -3.527  -4.887  -0.731  1.00  0.00    -0.297 OA
ENDBRANCH  17  27
BRANCH  16  30
HETATM   30  O4  UNL     1      -0.191  -4.175  -0.770  1.00  0.00    -0.394 OA
ATOM     31  H4  UNL     1      -0.706  -4.653  -1.409  1.00  0.00     0.210 HD
ENDBRANCH  16  30
BRANCH   6  32
HETATM   32  C12 UNL     1       3.684   2.649   0.242  1.00  0.00     0.181 C 
HETATM   33  O2  UNL     1       2.730   3.289   0.736  1.00  0.00    -0.647 OA
HETATM   34  O3  UNL     1       4.934   3.237   0.203  1.00  0.00    -0.647 OA
ENDBRANCH   6  32
TORSDOF 7
