REMARK  13 active torsions:
REMARK  status: ('A' for Active; 'I' for Inactive)
REMARK    1  A    between atoms: C2_2  and  C3_3 
REMARK    2  A    between atoms: C3_3  and  N1_4 
REMARK       I    between atoms: N1_4  and  C4_6 
REMARK    3  A    between atoms: C4_6  and  C5_8 
REMARK    4  A    between atoms: C5_8  and  C6_9 
REMARK    5  A    between atoms: C5_8  and  C23_37 
REMARK    6  A    between atoms: C6_9  and  C7_10 
REMARK       I    between atoms: C7_10  and  N2_12 
REMARK    7  A    between atoms: C8_13  and  C9_14 
REMARK       I    between atoms: C9_14  and  N3_16 
REMARK    8  A    between atoms: N3_16  and  C10_18 
REMARK    9  A    between atoms: C10_18  and  C11_19 
REMARK       I    between atoms: N5_23  and  C13_24 
REMARK   10  A    between atoms: C13_24  and  O5_26 
REMARK   11  A    between atoms: O5_26  and  C14_27 
REMARK   12  A    between atoms: C14_27  and  C15_28 
REMARK   13  A    between atoms: C23_37  and  C24_38 
ROOT
HETATM    1  C7  UNL     1      -1.439  -0.224   1.017  1.00  0.00     0.222 C 
HETATM    2  O2  UNL     1      -1.907  -0.154   2.167  1.00  0.00    -0.273 OA
HETATM    3  N2  UNL     1      -0.374   0.716   0.714  1.00  0.00    -0.320 N 
HETATM    4  C8  UNL     1       0.254   0.751  -0.572  1.00  0.00     0.194 C 
HETATM    5  C18 UNL     1       0.754   2.138  -0.866  1.00  0.00     0.078 C 
HETATM    6  C19 UNL     1       1.747   2.266  -1.945  1.00  0.00     0.024 C 
HETATM    7  S1  UNL     1       1.492   2.459   0.793  1.00  0.00    -0.131 SA
HETATM    8  C20 UNL     1       0.111   1.655   1.691  1.00  0.00     0.078 C 
HETATM    9  C21 UNL     1       0.490   1.118   3.012  1.00  0.00     0.050 C 
HETATM   10  C22 UNL     1      -0.902   2.775   1.935  1.00  0.00     0.050 C 
ENDROOT
BRANCH   4  11
HETATM   11  C9  UNL     1       1.342  -0.244  -0.743  1.00  0.00     0.242 C 
HETATM   12  O3  UNL     1       2.081  -0.273  -1.764  1.00  0.00    -0.271 OA
HETATM   13  N3  UNL     1       1.618  -1.230   0.236  1.00  0.00    -0.355 N 
ATOM     14  H3  UNL     1       1.038  -1.244   1.075  1.00  0.00     0.162 HD
BRANCH  13  15
HETATM   15  C10 UNL     1       2.667  -2.217   0.123  1.00  0.00     0.164 C 
BRANCH  15  16
HETATM   16  C11 UNL     1       4.007  -1.605   0.421  1.00  0.00    -0.006 A 
HETATM   17  C12 UNL     1       4.551  -1.378   1.669  1.00  0.00     0.118 A 
HETATM   18  N4  UNL     1       5.756  -0.822   1.481  1.00  0.00    -0.301 N 
HETATM   19  N5  UNL     1       5.999  -0.686   0.183  1.00  0.00    -0.210 N 
ATOM     20  H4  UNL     1       6.394  -0.544   2.227  1.00  0.00     0.186 HD
HETATM   21  C13 UNL     1       7.158  -0.142  -0.434  1.00  0.00     0.386 C 
HETATM   22  C17 UNL     1       4.919  -1.169  -0.493  1.00  0.00     0.132 A 
HETATM   23  O4  UNL     1       7.238  -0.081  -1.677  1.00  0.00    -0.236 OA
BRANCH  21  24
HETATM   24  O5  UNL     1       8.177   0.310   0.382  1.00  0.00    -0.299 OA
BRANCH  24  25
HETATM   25  C14 UNL     1       9.366   0.867  -0.137  1.00  0.00     0.207 C 
BRANCH  25  26
HETATM   26  C15 UNL     1      10.091  -0.094  -1.002  1.00  0.00    -0.011 C 
HETATM   27  C16 UNL     1      10.316   0.215  -2.275  1.00  0.00     0.009 C 
ENDBRANCH  25  26
ENDBRANCH  24  25
ENDBRANCH  21  24
ENDBRANCH  15  16
ENDBRANCH  13  15
ENDBRANCH   4  11
BRANCH   1  28
HETATM   28  C6  UNL     1      -1.939  -1.195   0.052  1.00  0.00     0.117 C 
BRANCH  28  29
HETATM   29  C5  UNL     1      -3.396  -1.120  -0.309  1.00  0.00     0.087 C 
BRANCH  29  30
HETATM   30  C4  UNL     1      -4.230  -1.314   0.854  1.00  0.00     0.222 C 
HETATM   31  N1  UNL     1      -4.778  -0.355   1.730  1.00  0.00    -0.357 N 
ATOM     32  H1  UNL     1      -4.584   0.630   1.548  1.00  0.00     0.162 HD
HETATM   33  O1  UNL     1      -4.516  -2.536   1.135  1.00  0.00    -0.273 OA
BRANCH  31  34
HETATM   34  C3  UNL     1      -5.597  -0.687   2.868  1.00  0.00     0.149 C 
BRANCH  34  35
HETATM   35  C2  UNL     1      -6.837  -1.414   2.526  1.00  0.00    -0.018 C 
HETATM   36  C1  UNL     1      -8.036  -0.926   2.816  1.00  0.00     0.008 C 
ENDBRANCH  34  35
ENDBRANCH  31  34
ENDBRANCH  29  30
BRANCH  29  37
HETATM   37  C23 UNL     1      -3.612   0.176  -1.035  1.00  0.00     0.019 C 
BRANCH  37  38
HETATM   38  C24 UNL     1      -5.008   0.363  -1.555  1.00  0.00    -0.014 A 
HETATM   39  C25 UNL     1      -5.489  -0.665  -2.535  1.00  0.00     0.005 A 
HETATM   40  C26 UNL     1      -5.604   0.360  -3.634  1.00  0.00     0.001 A 
HETATM   41  C27 UNL     1      -5.006   1.382  -2.679  1.00  0.00     0.005 A 
ENDBRANCH  37  38
ENDBRANCH  29  37
ENDBRANCH  28  29
ENDBRANCH   1  28
TORSDOF 13
