REMARK  7 active torsions:
REMARK  status: ('A' for Active; 'I' for Inactive)
REMARK    1  A    between atoms: C3_6  and  N3_7 
REMARK    2  A    between atoms: C4_12  and  C5_13 
REMARK       I    between atoms: C5_13  and  N5_15 
REMARK    3  A    between atoms: N5_15  and  C6_17 
REMARK    4  A    between atoms: C6_17  and  C7_18 
REMARK    5  A    between atoms: C7_18  and  O2_19 
REMARK    6  A    between atoms: N6_24  and  N7_25 
REMARK    7  A    between atoms: N7_25  and  C10_27 
ROOT
HETATM    1  C1  UNL     1      -2.623   1.720  -0.568  1.00  0.00     0.182 C 
HETATM    2  N1  UNL     1      -1.520   0.851  -0.231  1.00  0.00    -0.255 N 
HETATM    3  C2  UNL     1      -0.225   1.246  -0.342  1.00  0.00     0.157 A 
HETATM    4  N2  UNL     1       0.332   2.392  -0.749  1.00  0.00    -0.174 N 
ATOM      5  H2  UNL     1      -0.259   3.170  -1.043  1.00  0.00     0.186 HD
HETATM    6  C3  UNL     1       1.656   2.517  -0.771  1.00  0.00     0.678 A 
HETATM    7  N4  UNL     1       2.489   1.534  -0.398  1.00  0.00    -0.185 N 
ATOM      8  H4  UNL     1       3.499   1.672  -0.430  1.00  0.00     0.184 HD
HETATM    9  C4  UNL     1       1.969   0.353   0.023  1.00  0.00     0.136 A 
HETATM   10  C8  UNL     1       0.576   0.205   0.051  1.00  0.00     0.114 A 
HETATM   11  C9  UNL     1      -0.283  -0.806   0.393  1.00  0.00     0.298 A 
HETATM   12  O3  UNL     1       0.018  -1.941   0.806  1.00  0.00    -0.264 OA
HETATM   13  N6  UNL     1      -1.582  -0.377   0.209  1.00  0.00    -0.150 N 
ENDROOT
BRANCH  13  14
HETATM   14  N7  UNL     1      -2.681  -1.197   0.475  1.00  0.00    -0.246 N 
ATOM     15  H7  UNL     1      -2.475  -2.135   0.818  1.00  0.00     0.192 HD
BRANCH  14  16
HETATM   16  C10 UNL     1      -4.034  -0.873   0.323  1.00  0.00     0.192 C 
HETATM   17  N8  UNL     1      -4.757  -1.340  -0.651  1.00  0.00    -0.360 N 
HETATM   18  C11 UNL     1      -6.104  -0.863  -0.583  1.00  0.00     0.142 C 
ATOM     19  H8  UNL     1      -4.407  -1.969  -1.374  1.00  0.00     0.162 HD
HETATM   20  C12 UNL     1      -6.040   0.236   0.443  1.00  0.00     0.142 C 
HETATM   21  N9  UNL     1      -4.823  -0.052   1.157  1.00  0.00    -0.360 N 
ATOM     22  H9  UNL     1      -4.577   0.276   2.091  1.00  0.00     0.162 HD
ENDBRANCH  14  16
ENDBRANCH  13  14
BRANCH   9  23
HETATM   23  C5  UNL     1       2.848  -0.716   0.403  1.00  0.00     0.270 C 
HETATM   24  O1  UNL     1       2.513  -1.719   1.041  1.00  0.00    -0.266 OA
HETATM   25  N5  UNL     1       4.227  -0.646   0.029  1.00  0.00    -0.354 N 
ATOM     26  H5  UNL     1       4.585   0.148  -0.502  1.00  0.00     0.162 HD
BRANCH  25  27
HETATM   27  C6  UNL     1       5.110  -1.742   0.427  1.00  0.00     0.149 C 
BRANCH  27  28
HETATM   28  C7  UNL     1       6.516  -1.505  -0.048  1.00  0.00     0.183 C 
BRANCH  28  29
HETATM   29  O2  UNL     1       6.610  -1.397  -1.418  1.00  0.00    -0.399 OA
ATOM     30  H2  UNL     1       7.499  -1.247  -1.718  1.00  0.00     0.209 HD
ENDBRANCH  28  29
ENDBRANCH  27  28
ENDBRANCH  25  27
ENDBRANCH   9  23
BRANCH   6  31
HETATM   31  N3  UNL     1       2.216   3.624  -1.164  1.00  0.00    -0.234 N 
ATOM     32  H32 UNL     1       1.583   4.371  -1.448  1.00  0.00     0.174 HD
ATOM     33  H31 UNL     1       3.231   3.720  -1.181  1.00  0.00     0.174 HD
ENDBRANCH   6  31
TORSDOF 7
