REMARK  5 active torsions:
REMARK  status: ('A' for Active; 'I' for Inactive)
REMARK    1  A    between atoms: N2_4  and  C1_6 
REMARK    2  A    between atoms: C1_6  and  O1_7 
REMARK    3  A    between atoms: C1_6  and  C2_9 
REMARK    4  A    between atoms: N3_14  and  C7_15 
REMARK    5  A    between atoms: C7_15  and  O2_16 
ROOT
HETATM    1  C2  UNL     1       0.609  -0.279  -0.468  1.00  0.00     0.246 C 
HETATM    2  C3  UNL     1       0.403  -1.344   0.578  1.00  0.00     0.023 C 
HETATM    3  C4  UNL     1      -0.839  -2.121   0.168  1.00  0.00     0.008 C 
HETATM    4  C5  UNL     1      -1.555  -1.508  -0.985  1.00  0.00     0.028 C 
HETATM    5  C6  UNL     1      -1.642  -0.020  -0.958  1.00  0.00     0.240 C 
HETATM    6  N3  UNL     1      -0.498   0.585  -0.251  1.00  0.00    -0.038 N 
HETATM    7  C8  UNL     1      -0.765   0.606   1.175  1.00  0.00     0.241 C 
HETATM    8  C9  UNL     1      -0.016  -0.520   1.803  1.00  0.00     0.035 C 
ENDROOT
BRANCH   1   9
HETATM    9  C1  UNL     1       1.960   0.329  -0.464  1.00  0.00     0.264 C 
BRANCH   9  10
HETATM   10  N2  UNL     1       2.337   0.989   0.722  1.00  0.00    -0.312 N 
HETATM   11  N1  UNL     1       3.471   0.784   1.243  1.00  0.00    -0.347 N 
ATOM     12  H12 UNL     1       4.108   0.131   0.787  1.00  0.00     0.176 HD
ATOM     13  H11 UNL     1       3.744   1.262   2.102  1.00  0.00     0.176 HD
ATOM     14  H2  UNL     1       1.688   1.639   1.165  1.00  0.00     0.182 HD
ENDBRANCH   9  10
BRANCH   9  15
HETATM   15  O1  UNL     1       2.876  -0.726  -0.701  1.00  0.00    -0.373 OA
ATOM     16  H1  UNL     1       2.622  -1.171  -1.501  1.00  0.00     0.212 HD
ENDBRANCH   9  15
ENDBRANCH   1   9
BRANCH   6  17
HETATM   17  C7  UNL     1      -0.365   1.912  -0.760  1.00  0.00     0.402 C 
BRANCH  17  18
HETATM   18  O2  UNL     1      -1.144   2.756   0.067  1.00  0.00    -0.374 OA
ATOM     19  H2  UNL     1      -1.055   3.639  -0.272  1.00  0.00     0.211 HD
ENDBRANCH  17  18
ENDBRANCH   6  17
TORSDOF 5
