REMARK  8 active torsions:
REMARK  status: ('A' for Active; 'I' for Inactive)
REMARK       I    between atoms: C2_2  and  N1_4 
REMARK    1  A    between atoms: N1_4  and  C3_6 
REMARK    2  A    between atoms: C3_6  and  C4_7 
REMARK    3  A    between atoms: C3_6  and  C12_22 
REMARK       I    between atoms: C4_7  and  N2_9 
REMARK    4  A    between atoms: N2_9  and  C5_11 
REMARK    5  A    between atoms: C5_11  and  C7_13 
REMARK    6  A    between atoms: C7_13  and  N3_14 
REMARK    7  A    between atoms: C7_13  and  C11_19 
REMARK    8  A    between atoms: N3_14  and  C8_16 
ROOT
HETATM    1  C4  UNL     1       0.541   1.148  -0.849  1.00  0.00     0.241 C 
HETATM    2  O2  UNL     1       0.773   1.311  -2.082  1.00  0.00    -0.271 OA
HETATM    3  N2  UNL     1      -0.766   0.839  -0.403  1.00  0.00    -0.353 N 
ATOM      4  H2  UNL     1      -0.938   0.714   0.595  1.00  0.00     0.163 HD
ENDROOT
BRANCH   1   5
HETATM    5  C3  UNL     1       1.692   1.296   0.080  1.00  0.00     0.180 C 
BRANCH   5   6
HETATM    6  N1  UNL     1       2.876   1.612  -0.647  1.00  0.00    -0.348 N 
HETATM    7  C2  UNL     1       3.639   2.792  -0.470  1.00  0.00     0.214 C 
HETATM    8  C1  UNL     1       4.863   3.049  -1.269  1.00  0.00     0.117 C 
HETATM    9  O1  UNL     1       3.299   3.654   0.370  1.00  0.00    -0.274 OA
ATOM     10  H1  UNL     1       3.197   0.941  -1.345  1.00  0.00     0.163 HD
ENDBRANCH   5   6
BRANCH   5  11
HETATM   11  C12 UNL     1       1.852  -0.037   0.813  1.00  0.00     0.018 C 
HETATM   12  C13 UNL     1       3.017   0.046   1.783  1.00  0.00     0.007 C 
HETATM   13  C14 UNL     1       3.081  -1.205   2.610  1.00  0.00     0.000 C 
HETATM   14  C15 UNL     1       2.918  -2.462   1.825  1.00  0.00     0.000 C 
HETATM   15  C16 UNL     1       3.088  -2.118   0.353  1.00  0.00     0.000 C 
HETATM   16  C17 UNL     1       1.994  -1.190  -0.124  1.00  0.00     0.007 C 
ENDBRANCH   5  11
ENDBRANCH   1   5
BRANCH   3  17
HETATM   17  C5  UNL     1      -1.846   0.699  -1.323  1.00  0.00     0.111 C 
HETATM   18  C6  UNL     1      -2.689   1.918  -1.319  1.00  0.00     0.034 C 
BRANCH  17  19
HETATM   19  C7  UNL     1      -2.569  -0.592  -1.247  1.00  0.00     0.189 C 
BRANCH  19  20
HETATM   20  N3  UNL     1      -3.175  -0.999  -0.062  1.00  0.00    -0.405 N 
ATOM     21  H3  UNL     1      -2.827  -1.821   0.431  1.00  0.00     0.154 HD
BRANCH  20  22
HETATM   22  C8  UNL     1      -4.266  -0.280   0.457  1.00  0.00     0.069 C 
HETATM   23  C9  UNL     1      -5.516  -0.284  -0.425  1.00  0.00     0.031 C 
HETATM   24  C10 UNL     1      -4.727  -0.849   1.806  1.00  0.00     0.031 C 
ENDBRANCH  20  22
ENDBRANCH  19  20
BRANCH  19  25
HETATM   25  C11 UNL     1      -1.723  -1.718  -1.755  1.00  0.00     0.255 C 
HETATM   26  N4  UNL     1      -1.031  -1.555  -2.977  1.00  0.00    -0.060 NA
HETATM   27  O3  UNL     1      -1.599  -2.809  -1.142  1.00  0.00    -0.275 OA
ENDBRANCH  19  25
ENDBRANCH  17  19
ENDBRANCH   3  17
TORSDOF 8
