REMARK  15 active torsions:
REMARK  status: ('A' for Active; 'I' for Inactive)
REMARK    1  A    between atoms: C3_3  and  C4_4 
REMARK    2  A    between atoms: C4_4  and  C5_5 
REMARK    3  A    between atoms: C5_5  and  C6_6 
REMARK    4  A    between atoms: C6_6  and  C7_7 
REMARK    5  A    between atoms: C7_7  and  S1_8 
REMARK    6  A    between atoms: S1_8  and  C8_9 
REMARK    7  A    between atoms: C13_14  and  N1_15 
REMARK    8  A    between atoms: C16_22  and  O1_23 
REMARK    9  A    between atoms: O1_23  and  C17_24 
REMARK   10  A    between atoms: C17_24  and  C18_25 
REMARK   11  A    between atoms: C18_25  and  C19_26 
REMARK   12  A    between atoms: C19_26  and  C20_27 
REMARK   13  A    between atoms: C20_27  and  C21_28 
REMARK   14  A    between atoms: C21_28  and  N3_29 
REMARK   15  A    between atoms: N3_29  and  C22_32 
ROOT
HETATM    1  C1  UNL     1      10.229   2.222  -1.599  1.00  0.00     0.012 C 
HETATM    2  C2  UNL     1       9.360   2.905  -1.136  1.00  0.00    -0.117 C 
HETATM    3  C3  UNL     1       8.292   3.748  -0.592  1.00  0.00     0.093 C 
ENDROOT
BRANCH   3   4
HETATM    4  C4  UNL     1       7.455   3.008   0.431  1.00  0.00     0.012 C 
BRANCH   4   5
HETATM    5  C5  UNL     1       6.834   1.810  -0.229  1.00  0.00     0.002 C 
BRANCH   5   6
HETATM    6  C6  UNL     1       5.975   1.001   0.703  1.00  0.00     0.010 C 
BRANCH   6   7
HETATM    7  C7  UNL     1       4.833   1.769   1.284  1.00  0.00     0.079 C 
BRANCH   7   8
HETATM    8  S1  UNL     1       3.906   0.643   2.379  1.00  0.00    -0.127 SA
BRANCH   8   9
HETATM    9  C8  UNL     1       3.132  -0.659   1.473  1.00  0.00     0.034 A 
HETATM   10  C9  UNL     1       3.816  -1.820   1.268  1.00  0.00     0.035 A 
HETATM   11  C10 UNL     1       3.203  -2.827   0.561  1.00  0.00    -0.008 A 
HETATM   12  C11 UNL     1       3.927  -3.997   0.371  1.00  0.00     0.017 A 
HETATM   13  C14 UNL     1       1.937  -2.652   0.082  1.00  0.00     0.046 A 
HETATM   14  C12 UNL     1       3.309  -5.010  -0.341  1.00  0.00     0.049 A 
HETATM   15  C13 UNL     1       2.030  -4.829  -0.824  1.00  0.00     0.099 A 
HETATM   16  N2  UNL     1       1.376  -3.663  -0.605  1.00  0.00    -0.342 N 
ATOM     17  H2  UNL     1       0.431  -3.549  -0.972  1.00  0.00     0.167 HD
HETATM   18  C15 UNL     1       1.252  -1.477   0.291  1.00  0.00     0.068 A 
HETATM   19  C16 UNL     1       1.815  -0.442   0.989  1.00  0.00     0.087 A 
BRANCH  15  20
HETATM   20  N1  UNL     1       1.481  -5.797  -1.486  1.00  0.00    -0.385 N 
ATOM     21  H12 UNL     1       1.973  -6.675  -1.651  1.00  0.00     0.157 HD
ATOM     22  H11 UNL     1       0.535  -5.663  -1.843  1.00  0.00     0.157 HD
ENDBRANCH  15  20
BRANCH  19  23
HETATM   23  O1  UNL     1       1.214   0.758   1.242  1.00  0.00    -0.350 OA
BRANCH  23  24
HETATM   24  C17 UNL     1      -0.059   1.142   0.888  1.00  0.00     0.175 C 
BRANCH  24  25
HETATM   25  C18 UNL     1      -1.104   0.350   1.592  1.00  0.00     0.027 C 
BRANCH  25  26
HETATM   26  C19 UNL     1      -2.513   0.748   1.190  1.00  0.00     0.004 C 
BRANCH  26  27
HETATM   27  C20 UNL     1      -2.769   0.557  -0.284  1.00  0.00     0.027 C 
BRANCH  27  28
HETATM   28  C21 UNL     1      -4.212   0.990  -0.554  1.00  0.00     0.232 C 
BRANCH  28  29
HETATM   29  N3  UNL     1      -5.110   0.190   0.219  1.00  0.00    -0.071 N 
ATOM     30  H32 UNL     1      -4.950  -0.802   0.044  1.00  0.00     0.277 HD
ATOM     31  H31 UNL     1      -4.867   0.230   1.209  1.00  0.00     0.277 HD
BRANCH  29  32
HETATM   32  C22 UNL     1      -6.497   0.525   0.021  1.00  0.00     0.185 C 
HETATM   33  C23 UNL     1      -7.336  -0.297   0.960  1.00  0.00     0.033 C 
HETATM   34  C24 UNL     1      -8.810   0.079   0.859  1.00  0.00     0.002 C 
HETATM   35  C25 UNL     1      -9.205   0.230  -0.604  1.00  0.00     0.000 C 
HETATM   36  C26 UNL     1      -8.172  -0.471  -1.471  1.00  0.00     0.002 C 
HETATM   37  C27 UNL     1      -6.880   0.267  -1.411  1.00  0.00     0.033 C 
ENDBRANCH  29  32
ENDBRANCH  28  29
ENDBRANCH  27  28
ENDBRANCH  26  27
ENDBRANCH  25  26
ENDBRANCH  24  25
ENDBRANCH  23  24
ENDBRANCH  19  23
ENDBRANCH   8   9
ENDBRANCH   7   8
ENDBRANCH   6   7
ENDBRANCH   5   6
ENDBRANCH   4   5
ENDBRANCH   3   4
TORSDOF 15
