REMARK  13 active torsions:
REMARK  status: ('A' for Active; 'I' for Inactive)
REMARK    1  A    between atoms: C2_2  and  O1_3 
REMARK    2  A    between atoms: C5_11  and  O2_12 
REMARK    3  A    between atoms: O2_12  and  C6_13 
REMARK    4  A    between atoms: C6_13  and  C7_14 
REMARK    5  A    between atoms: C7_14  and  C8_15 
REMARK    6  A    between atoms: C8_15  and  C9_16 
REMARK    7  A    between atoms: C9_16  and  C10_17 
REMARK    8  A    between atoms: C10_17  and  N3_18 
REMARK    9  A    between atoms: C14_25  and  N5_26 
REMARK   10  A    between atoms: N5_26  and  C15_28 
REMARK   11  A    between atoms: C23_42  and  C24_43 
REMARK   12  A    between atoms: C24_43  and  O3_44 
REMARK   13  A    between atoms: C24_43  and  C25_46 
ROOT
HETATM    1  C6  UNL     1       0.886  -3.346  -2.364  1.00  0.00     0.178 C 
ENDROOT
BRANCH   1   2
HETATM    2  O2  UNL     1       1.183  -2.046  -1.977  1.00  0.00    -0.322 OA
BRANCH   2   3
HETATM    3  C5  UNL     1       2.394  -1.550  -1.579  1.00  0.00     0.224 A 
HETATM    4  N2  UNL     1       3.513  -2.246  -1.493  1.00  0.00    -0.319 N 
HETATM    5  C4  UNL     1       4.473  -1.409  -1.069  1.00  0.00     0.078 A 
ATOM      6  H2  UNL     1       3.627  -3.236  -1.709  1.00  0.00     0.169 HD
HETATM    7  C3  UNL     1       5.727  -1.693  -0.857  1.00  0.00     0.118 A 
HETATM    8  C22 UNL     1       3.950  -0.166  -0.885  1.00  0.00     0.077 A 
HETATM    9  N1  UNL     1       6.607  -0.713  -0.417  1.00  0.00    -0.362 N 
HETATM   10  C2  UNL     1       6.152   0.654  -0.194  1.00  0.00     0.161 A 
ATOM     11  H1  UNL     1       7.584  -0.953  -0.248  1.00  0.00     0.162 HD
HETATM   12  C1  UNL     1       6.369   0.872   1.302  1.00  0.00     0.077 C 
HETATM   13  C23 UNL     1       4.727   0.885  -0.456  1.00  0.00     0.061 A 
HETATM   14  N8  UNL     1       2.652  -0.253  -1.204  1.00  0.00    -0.319 N 
ATOM     15  H8  UNL     1       1.974   0.509  -1.174  1.00  0.00     0.169 HD
BRANCH  10  16
HETATM   16  O1  UNL     1       7.005   1.419  -0.975  1.00  0.00    -0.367 OA
ATOM     17  H1  UNL     1       6.870   1.283  -1.906  1.00  0.00     0.213 HD
ENDBRANCH  10  16
BRANCH  13  18
HETATM   18  C24 UNL     1       4.053   2.152  -0.250  1.00  0.00     0.105 C 
BRANCH  18  19
HETATM   19  O3  UNL     1       2.750   2.128  -0.444  1.00  0.00    -0.358 OA
ATOM     20  H3  UNL     1       2.308   2.958  -0.309  1.00  0.00     0.217 HD
ENDBRANCH  18  19
BRANCH  18  21
HETATM   21  C25 UNL     1       4.558   3.452   0.131  1.00  0.00     0.066 A 
HETATM   22  C26 UNL     1       5.795   3.980   0.344  1.00  0.00     0.034 A 
HETATM   23  C27 UNL     1       5.694   5.349   0.658  1.00  0.00     0.019 A 
HETATM   24  C28 UNL     1       4.363   5.606   0.623  1.00  0.00     0.088 A 
HETATM   25  N9  UNL     1       3.681   4.502   0.315  1.00  0.00    -0.364 N 
ATOM     26  H9  UNL     1       2.666   4.443   0.229  1.00  0.00     0.165 HD
ENDBRANCH  18  21
ENDBRANCH  13  18
ENDBRANCH   2   3
ENDBRANCH   1   2
BRANCH   1  27
HETATM   27  C7  UNL     1       1.131  -4.348  -1.318  1.00  0.00     0.027 C 
BRANCH  27  28
HETATM   28  C8  UNL     1       0.470  -4.227  -0.022  1.00  0.00     0.004 C 
BRANCH  28  29
HETATM   29  C9  UNL     1      -0.990  -4.268   0.085  1.00  0.00     0.020 C 
BRANCH  29  30
HETATM   30  C10 UNL     1      -1.744  -3.122  -0.489  1.00  0.00     0.138 C 
BRANCH  30  31
HETATM   31  N3  UNL     1      -3.179  -3.324  -0.324  1.00  0.00    -0.226 N 
HETATM   32  C11 UNL     1      -4.040  -2.435  -0.014  1.00  0.00     0.681 A 
HETATM   33  N4  UNL     1      -5.346  -2.856   0.095  1.00  0.00    -0.176 N 
HETATM   34  N6  UNL     1      -3.821  -1.130   0.187  1.00  0.00    -0.176 N 
HETATM   35  C12 UNL     1      -6.346  -2.010   0.387  1.00  0.00     0.127 A 
ATOM     36  H4  UNL     1      -5.561  -3.842  -0.051  1.00  0.00     0.186 HD
HETATM   37  C13 UNL     1      -6.101  -0.681   0.588  1.00  0.00     0.032 A 
HETATM   38  N7  UNL     1      -7.753  -2.212   0.549  1.00  0.00    -0.375 N 
HETATM   39  C14 UNL     1      -4.774  -0.230   0.480  1.00  0.00     0.127 A 
HETATM   40  C20 UNL     1      -7.358   0.025   0.896  1.00  0.00     0.066 C 
HETATM   41  C21 UNL     1      -8.431  -0.938   0.486  1.00  0.00     0.126 C 
ATOM     42  H7  UNL     1      -8.207  -3.115   0.687  1.00  0.00     0.161 HD
ATOM     43  H6  UNL     1      -2.861  -0.795   0.112  1.00  0.00     0.186 HD
ATOM     44  H3  UNL     1      -3.529  -4.271  -0.471  1.00  0.00     0.177 HD
BRANCH  39  45
HETATM   45  N5  UNL     1      -4.566   1.002   0.655  1.00  0.00    -0.371 N 
ATOM     46  H5  UNL     1      -5.376   1.585   0.865  1.00  0.00     0.161 HD
BRANCH  45  47
HETATM   47  C15 UNL     1      -3.315   1.644   0.586  1.00  0.00     0.083 C 
HETATM   48  C16 UNL     1      -2.697   2.037   1.898  1.00  0.00     0.025 C 
HETATM   49  C17 UNL     1      -1.658   3.061   1.425  1.00  0.00     0.002 C 
HETATM   50  C18 UNL     1      -2.317   3.765   0.265  1.00  0.00     0.002 C 
HETATM   51  C19 UNL     1      -3.576   3.026  -0.057  1.00  0.00     0.025 C 
ENDBRANCH  45  47
ENDBRANCH  39  45
ENDBRANCH  30  31
ENDBRANCH  29  30
ENDBRANCH  28  29
ENDBRANCH  27  28
ENDBRANCH   1  27
TORSDOF 13
