REMARK  1 active torsions:
REMARK  status: ('A' for Active; 'I' for Inactive)
REMARK    1  A    between atoms: C3_3  and  N1_4 
ROOT
HETATM    1  C1  UNL     1      -0.146   2.133  -2.067  1.00  0.00     0.016 C 
HETATM    2  C2  UNL     1       0.070   1.309  -1.209  1.00  0.00    -0.066 C 
HETATM    3  C3  UNL     1       0.355   0.311  -0.155  1.00  0.00     0.259 C 
HETATM    4  C5  UNL     1       1.456   0.901   0.668  1.00  0.00     0.276 C 
HETATM    5  O1  UNL     1       1.395   2.153   0.887  1.00  0.00    -0.269 OA
HETATM    6  N4  UNL     1       2.523   0.166   1.197  1.00  0.00    -0.276 N 
ATOM      7  H4  UNL     1       3.131   0.568   1.910  1.00  0.00     0.173 HD
HETATM    8  C6  UNL     1       2.740  -1.156   0.716  1.00  0.00     0.329 C 
HETATM    9  O2  UNL     1       3.699  -1.853   1.173  1.00  0.00    -0.247 OA
HETATM   10  N5  UNL     1       1.876  -1.714  -0.291  1.00  0.00    -0.276 N 
ATOM     11  H5  UNL     1       2.037  -2.662  -0.631  1.00  0.00     0.173 HD
HETATM   12  C7  UNL     1       0.800  -0.948  -0.813  1.00  0.00     0.276 C 
HETATM   13  O3  UNL     1       0.232  -1.367  -1.849  1.00  0.00    -0.269 OA
ENDROOT
BRANCH   3  14
HETATM   14  N1  UNL     1      -0.736   0.127   0.735  1.00  0.00    -0.331 N 
HETATM   15  C4  UNL     1      -1.968  -0.012   0.453  1.00  0.00     0.199 C 
HETATM   16  N2  UNL     1      -2.855  -0.182   1.568  1.00  0.00    -0.067 NA
HETATM   17  N3  UNL     1      -2.533  -0.014  -0.828  1.00  0.00    -0.067 NA
ATOM     18  H1  UNL     1      -0.501   0.103   1.727  1.00  0.00     0.164 HD
ENDBRANCH   3  14
TORSDOF 1
