REMARK  3 active torsions:
REMARK  status: ('A' for Active; 'I' for Inactive)
REMARK    1  A    between atoms: N1_1  and  C1_5 
REMARK    2  A    between atoms: C1_5  and  N2_6 
REMARK    3  A    between atoms: N2_6  and  C2_8 
ROOT
HETATM    1  C2  UNL     1      -0.035  -0.245  -0.484  1.00  0.00     0.187 A 
HETATM    2  N3  UNL     1      -0.353  -0.091   0.810  1.00  0.00    -0.277 N 
ATOM      3  H3  UNL     1       0.376  -0.213   1.512  1.00  0.00     0.189 HD
HETATM    4  N4  UNL     1      -1.586   0.216   1.213  1.00  0.00    -0.250 N 
ATOM      5  H4  UNL     1      -1.809   0.328   2.202  1.00  0.00     0.192 HD
HETATM    6  C3  UNL     1      -2.524   0.372   0.263  1.00  0.00     0.341 A 
HETATM    7  O1  UNL     1      -3.696   0.664   0.645  1.00  0.00    -0.245 OA
HETATM    8  N5  UNL     1      -2.243   0.226  -1.044  1.00  0.00    -0.271 N 
ATOM      9  H5  UNL     1      -2.986   0.354  -1.731  1.00  0.00     0.174 HD
HETATM   10  C4  UNL     1      -1.004  -0.085  -1.466  1.00  0.00     0.294 A 
HETATM   11  O2  UNL     1      -0.736  -0.223  -2.691  1.00  0.00    -0.264 OA
ENDROOT
BRANCH   1  12
HETATM   12  N2  UNL     1       1.139  -0.538  -0.871  1.00  0.00    -0.348 N 
ATOM     13  H2  UNL     1       1.308  -0.640  -1.872  1.00  0.00     0.163 HD
BRANCH  12  14
HETATM   14  C1  UNL     1       2.238  -0.733   0.029  1.00  0.00     0.353 C 
BRANCH  14  15
HETATM   15  N1  UNL     1       2.680   0.537   0.594  1.00  0.00    -0.064 N 
ATOM     16  H13 UNL     1       2.905   1.215  -0.134  1.00  0.00     0.276 HD
ATOM     17  H12 UNL     1       1.912   1.038   1.040  1.00  0.00     0.276 HD
ATOM     18  H11 UNL     1       3.462   0.398   1.234  1.00  0.00     0.276 HD
ENDBRANCH  14  15
ENDBRANCH  12  14
ENDBRANCH   1  12
TORSDOF 3
