REMARK  13 active torsions:
REMARK  status: ('A' for Active; 'I' for Inactive)
REMARK    1  A    between atoms: N1_2  and  C2_5 
REMARK    2  A    between atoms: C2_5  and  C3_6 
REMARK    3  A    between atoms: C3_6  and  C4_7 
REMARK    4  A    between atoms: C4_7  and  O1_8 
REMARK    5  A    between atoms: C6_15  and  C7_16 
REMARK    6  A    between atoms: C7_16  and  O3_17 
REMARK    7  A    between atoms: C8_19  and  O4_20 
REMARK    8  A    between atoms: C9_22  and  O5_23 
REMARK    9  A    between atoms: C11_26  and  N3_27 
REMARK   10  A    between atoms: N3_27  and  C12_29 
REMARK   11  A    between atoms: C12_29  and  C13_30 
REMARK   12  A    between atoms: C13_30  and  C14_31 
REMARK   13  A    between atoms: C14_31  and  N4_32 
ROOT
HETATM    1  C3  UNL     1      -0.318   1.516   0.413  1.00  0.00     0.193 C 
HETATM    2  N2  UNL     1       0.932   1.472   1.127  1.00  0.00    -0.034 N 
ATOM      3  H21 UNL     1       0.822   1.371   2.136  1.00  0.00     0.281 HD
ATOM      4  H22 UNL     1       1.423   2.366   1.146  1.00  0.00     0.281 HD
HETATM    5  C5  UNL     1       1.692   0.411   0.521  1.00  0.00     0.331 C 
HETATM    6  O2  UNL     1       2.649  -0.119   1.339  1.00  0.00    -0.348 OA
HETATM    7  C6  UNL     1       3.215  -1.238   0.800  1.00  0.00     0.179 C 
HETATM    8  C8  UNL     1       2.713  -1.658  -0.540  1.00  0.00     0.178 C 
HETATM    9  C9  UNL     1       1.198  -1.644  -0.651  1.00  0.00     0.159 C 
HETATM   10  C10 UNL     1       0.627  -0.646   0.298  1.00  0.00     0.098 C 
HETATM   11  C11 UNL     1      -0.501   0.185  -0.252  1.00  0.00     0.127 C 
ENDROOT
BRANCH  11  12
HETATM   12  N3  UNL     1      -1.792  -0.343   0.013  1.00  0.00    -0.414 N 
ATOM     13  H3  UNL     1      -2.285  -0.155   0.886  1.00  0.00     0.153 HD
BRANCH  12  14
HETATM   14  C12 UNL     1      -2.365  -1.163  -1.030  1.00  0.00     0.116 C 
BRANCH  14  15
HETATM   15  C13 UNL     1      -3.755  -1.570  -0.534  1.00  0.00     0.046 C 
BRANCH  15  16
HETATM   16  C14 UNL     1      -3.589  -2.337   0.749  1.00  0.00     0.231 C 
BRANCH  16  17
HETATM   17  N4  UNL     1      -4.863  -2.763   1.298  1.00  0.00    -0.079 N 
ATOM     18  H43 UNL     1      -5.496  -1.973   1.419  1.00  0.00     0.274 HD
ATOM     19  H42 UNL     1      -5.400  -3.297   0.615  1.00  0.00     0.274 HD
ATOM     20  H41 UNL     1      -4.750  -3.283   2.168  1.00  0.00     0.274 HD
ENDBRANCH  16  17
ENDBRANCH  15  16
ENDBRANCH  14  15
ENDBRANCH  12  14
ENDBRANCH  11  12
BRANCH   1  21
HETATM   21  C2  UNL     1      -0.380   2.590  -0.641  1.00  0.00     0.275 C 
BRANCH  21  22
HETATM   22  N1  UNL     1      -0.143   3.905  -0.126  1.00  0.00    -0.076 N 
HETATM   23  C1  UNL     1      -0.245   4.891  -1.176  1.00  0.00     0.267 C 
ATOM     24  H12 UNL     1       0.750   3.964   0.362  1.00  0.00     0.276 HD
ATOM     25  H11 UNL     1      -0.760   4.121   0.657  1.00  0.00     0.276 HD
ENDBRANCH  21  22
ENDBRANCH   1  21
BRANCH   1  26
HETATM   26  C4  UNL     1      -1.379   1.837   1.454  1.00  0.00     0.207 C 
BRANCH  26  27
HETATM   27  O1  UNL     1      -1.471   0.891   2.452  1.00  0.00    -0.398 OA
ATOM     28  H1  UNL     1      -2.134   1.092   3.102  1.00  0.00     0.209 HD
ENDBRANCH  26  27
ENDBRANCH   1  26
BRANCH   9  29
HETATM   29  O5  UNL     1       0.849  -1.431  -1.982  1.00  0.00    -0.392 OA
ATOM     30  H5  UNL     1      -0.098  -1.422  -2.051  1.00  0.00     0.210 HD
ENDBRANCH   9  29
BRANCH   8  31
HETATM   31  O4  UNL     1       3.201  -2.939  -0.798  1.00  0.00    -0.390 OA
ATOM     32  H4  UNL     1       2.881  -3.207  -1.652  1.00  0.00     0.210 HD
ENDBRANCH   8  31
BRANCH   7  33
HETATM   33  C7  UNL     1       4.727  -1.018   0.659  1.00  0.00     0.198 C 
BRANCH  33  34
HETATM   34  O3  UNL     1       5.360  -2.131   0.118  1.00  0.00    -0.398 OA
ATOM     35  H3  UNL     1       6.296  -1.995   0.031  1.00  0.00     0.209 HD
ENDBRANCH  33  34
ENDBRANCH   7  33
TORSDOF 13
