REMARK  8 active torsions:
REMARK  status: ('A' for Active; 'I' for Inactive)
REMARK    1  A    between atoms: C2_2  and  C3_3 
REMARK    2  A    between atoms: C5_5  and  C6_6 
REMARK    3  A    between atoms: C6_6  and  C7_7 
REMARK       I    between atoms: C7_7  and  N1_9 
REMARK    4  A    between atoms: N1_9  and  S1_11 
REMARK    5  A    between atoms: S1_11  and  C8_14 
REMARK    6  A    between atoms: C14_24  and  S2_25 
REMARK    7  A    between atoms: S2_25  and  C15_27 
REMARK    8  A    between atoms: S2_25  and  C16_30 
ROOT
HETATM    1  C3  UNL     1      -1.319   1.567  -0.551  1.00  0.00    -0.054 A 
HETATM    2  C4  UNL     1      -0.281   2.023   0.224  1.00  0.00     0.032 A 
HETATM    3  C5  UNL     1       0.032   1.374   1.426  1.00  0.00     0.019 A 
HETATM    4  N2  UNL     1      -0.695   0.307   1.803  1.00  0.00    -0.352 N 
ATOM      5  H2  UNL     1      -0.459  -0.158   2.680  1.00  0.00     0.166 HD
HETATM    6  C14 UNL     1      -1.715  -0.172   1.078  1.00  0.00     0.103 A 
HETATM    7  C22 UNL     1      -2.025   0.478  -0.118  1.00  0.00     0.046 A 
ENDROOT
BRANCH   3   8
HETATM    8  C6  UNL     1       1.144   1.895   2.248  1.00  0.00     0.160 C 
BRANCH   8   9
HETATM    9  C7  UNL     1       2.449   1.241   2.002  1.00  0.00     0.236 C 
HETATM   10  O1  UNL     1       2.585   0.005   2.199  1.00  0.00    -0.272 OA
HETATM   11  N1  UNL     1       3.532   2.028   1.545  1.00  0.00    -0.250 N 
ATOM     12  H1  UNL     1       3.381   3.025   1.392  1.00  0.00     0.181 HD
BRANCH  11  13
HETATM   13  S1  UNL     1       5.076   1.381   1.239  1.00  0.00     0.267 S 
HETATM   14  O2  UNL     1       5.556   0.650   2.487  1.00  0.00    -0.200 OA
HETATM   15  O3  UNL     1       6.071   2.462   0.869  1.00  0.00    -0.200 OA
BRANCH  13  16
HETATM   16  C8  UNL     1       5.117   0.200  -0.045  1.00  0.00     0.103 A 
HETATM   17  C9  UNL     1       4.051  -0.195  -0.786  1.00  0.00     0.027 A 
HETATM   18  C10 UNL     1       4.223  -1.146  -1.771  1.00  0.00     0.003 A 
HETATM   19  C11 UNL     1       5.481  -1.693  -2.002  1.00  0.00     0.026 A 
HETATM   20  C12 UNL     1       6.567  -1.309  -1.269  1.00  0.00     0.057 A 
HETATM   21 CL1  UNL     1       8.166  -1.997  -1.556  1.00  0.00    -0.083 Cl
HETATM   22  C13 UNL     1       6.372  -0.365  -0.297  1.00  0.00     0.079 A 
HETATM   23 CL2  UNL     1       7.786   0.122   0.638  1.00  0.00    -0.081 Cl
ENDBRANCH  13  16
ENDBRANCH  11  13
ENDBRANCH   8   9
ENDBRANCH   3   8
BRANCH   1  24
HETATM   24  C2  UNL     1      -1.615   2.284  -1.815  1.00  0.00     0.034 C 
HETATM   25  C1  UNL     1      -2.596   3.395  -1.633  1.00  0.00     0.010 C 
ENDBRANCH   1  24
BRANCH   6  26
HETATM   26  S2  UNL     1      -2.646  -1.578   1.577  1.00  0.00     0.106 S 
HETATM   27  O4  UNL     1      -3.082  -1.456   3.029  1.00  0.00    -0.249 OA
BRANCH  26  28
HETATM   28  C15 UNL     1      -1.691  -2.848   1.694  1.00  0.00     0.332 C 
HETATM   29  F1  UNL     1      -2.237  -4.029   1.525  1.00  0.00    -0.163 F 
HETATM   30  F2  UNL     1      -0.429  -2.631   1.982  1.00  0.00    -0.163 F 
ENDBRANCH  26  28
BRANCH  26  31
HETATM   31  C16 UNL     1      -3.949  -1.902   0.498  1.00  0.00     0.036 A 
HETATM   32  C17 UNL     1      -5.181  -1.336   0.732  1.00  0.00     0.023 A 
HETATM   33  C18 UNL     1      -6.232  -1.572  -0.109  1.00  0.00     0.027 A 
HETATM   34  C19 UNL     1      -6.089  -2.382  -1.213  1.00  0.00     0.055 A 
HETATM   35 CL3  UNL     1      -7.474  -2.662  -2.275  1.00  0.00    -0.083 Cl
HETATM   36  C20 UNL     1      -4.867  -2.968  -1.481  1.00  0.00     0.057 A 
HETATM   37 CL4  UNL     1      -4.678  -4.005  -2.890  1.00  0.00    -0.083 Cl
HETATM   38  C21 UNL     1      -3.822  -2.711  -0.612  1.00  0.00     0.046 A 
ENDBRANCH  26  31
ENDBRANCH   6  26
TORSDOF 8
