REMARK  9 active torsions:
REMARK  status: ('A' for Active; 'I' for Inactive)
REMARK    1  A    between atoms: C2_3  and  N1_4 
REMARK    2  A    between atoms: N1_4  and  C3_6 
REMARK    3  A    between atoms: C3_6  and  C4_7 
REMARK    4  A    between atoms: C4_7  and  N2_8 
REMARK    5  A    between atoms: N2_8  and  C5_11 
REMARK    6  A    between atoms: C5_11  and  C6_12 
REMARK    7  A    between atoms: C6_12  and  O2_13 
REMARK    8  A    between atoms: C7_15  and  N3_16 
REMARK    9  A    between atoms: N3_16  and  C8_18 
ROOT
HETATM    1  O1  UNL     1       0.014  -3.872  -1.013  1.00  0.00    -0.281 OA
HETATM    2  C1  UNL     1      -0.577  -2.744  -0.971  1.00  0.00     0.252 A 
HETATM    3  C2  UNL     1      -0.501  -1.616  -0.199  1.00  0.00     0.114 A 
HETATM    4  C7  UNL     1      -1.514  -1.063  -0.971  1.00  0.00     0.119 A 
HETATM    5  C13 UNL     1      -1.582  -2.195  -1.732  1.00  0.00     0.253 A 
HETATM    6  O3  UNL     1      -2.251  -2.615  -2.713  1.00  0.00    -0.281 OA
ENDROOT
BRANCH   3   7
HETATM    7  N1  UNL     1       0.335  -1.231   0.896  1.00  0.00    -0.383 N 
ATOM      8  H1  UNL     1       0.140  -1.565   1.840  1.00  0.00     0.159 HD
BRANCH   7   9
HETATM    9  C3  UNL     1       1.442  -0.374   0.646  1.00  0.00     0.147 C 
BRANCH   9  10
HETATM   10  C4  UNL     1       2.373  -0.786  -0.452  1.00  0.00     0.251 C 
BRANCH  10  11
HETATM   11  N2  UNL     1       3.419   0.197  -0.591  1.00  0.00    -0.072 N 
ATOM     12  H22 UNL     1       3.902   0.077  -1.481  1.00  0.00     0.277 HD
ATOM     13  H21 UNL     1       3.018   1.124  -0.732  1.00  0.00     0.277 HD
BRANCH  11  14
HETATM   14  C5  UNL     1       4.361   0.221   0.488  1.00  0.00     0.258 C 
BRANCH  14  15
HETATM   15  C6  UNL     1       5.388   1.344   0.276  1.00  0.00     0.191 C 
BRANCH  15  16
HETATM   16  O2  UNL     1       4.765   2.596   0.223  1.00  0.00    -0.399 OA
ATOM     17  H2  UNL     1       5.400   3.290   0.092  1.00  0.00     0.209 HD
ENDBRANCH  15  16
ENDBRANCH  14  15
ENDBRANCH  11  14
ENDBRANCH  10  11
ENDBRANCH   9  10
ENDBRANCH   7   9
ENDBRANCH   3   7
BRANCH   4  18
HETATM   18  N3  UNL     1      -2.173   0.197  -0.962  1.00  0.00    -0.337 N 
ATOM     19  H3  UNL     1      -1.799   0.970  -1.512  1.00  0.00     0.167 HD
BRANCH  18  20
HETATM   20  C8  UNL     1      -3.343   0.381  -0.194  1.00  0.00     0.105 A 
HETATM   21  C9  UNL     1      -3.946   1.641  -0.191  1.00  0.00     0.048 A 
HETATM   22  C10 UNL     1      -5.086   1.877   0.533  1.00  0.00     0.005 A 
HETATM   23  C11 UNL     1      -5.639   0.830   1.273  1.00  0.00     0.017 A 
HETATM   24  C12 UNL     1      -5.026  -0.421   1.260  1.00  0.00     0.089 A 
HETATM   25  N4  UNL     1      -3.912  -0.584   0.529  1.00  0.00    -0.352 N 
ATOM     26  H4  UNL     1      -3.473  -1.505   0.526  1.00  0.00     0.166 HD
ENDBRANCH  18  20
ENDBRANCH   4  18
TORSDOF 9
