REMARK  10 active torsions:
REMARK  status: ('A' for Active; 'I' for Inactive)
REMARK    1  A    between atoms: C2_2  and  C3_3 
REMARK    2  A    between atoms: C6_6  and  C7_7 
REMARK    3  A    between atoms: C8_8  and  C9_9 
REMARK    4  A    between atoms: C10_10  and  C11_11 
REMARK    5  A    between atoms: C11_11  and  C12_12 
REMARK    6  A    between atoms: C13_14  and  N1_15 
REMARK    7  A    between atoms: C18_24  and  O4_25 
REMARK    8  A    between atoms: C19_27  and  O5_28 
REMARK    9  A    between atoms: C23_33  and  O6_34 
REMARK   10  A    between atoms: C23_33  and  C24_36 
ROOT
HETATM    1  C9  UNL     1       0.732  -0.358  -2.037  1.00  0.00    -0.004 C 
HETATM    2  C10 UNL     1       1.914  -0.701  -1.652  1.00  0.00    -0.024 C 
ENDROOT
BRANCH   2   3
HETATM    3  C11 UNL     1       2.302  -1.097  -0.301  1.00  0.00     0.061 C 
BRANCH   3   4
HETATM    4  C12 UNL     1       3.363  -0.195   0.292  1.00  0.00     0.159 C 
HETATM    5  O1  UNL     1       4.530  -0.166  -0.430  1.00  0.00    -0.355 OA
HETATM    6  C13 UNL     1       5.584  -0.493   0.379  1.00  0.00     0.263 C 
HETATM    7  C18 UNL     1       5.150  -0.037   1.743  1.00  0.00     0.198 C 
HETATM    8  C19 UNL     1       3.717  -0.609   1.706  1.00  0.00     0.180 C 
BRANCH   6   9
HETATM    9  N1  UNL     1       6.846   0.011  -0.053  1.00  0.00    -0.280 N 
HETATM   10  C14 UNL     1       7.907   0.162   0.753  1.00  0.00     0.104 A 
HETATM   11  C15 UNL     1       9.092   0.657   0.250  1.00  0.00     0.092 A 
HETATM   12  C16 UNL     1       9.205   1.009  -1.102  1.00  0.00     0.250 A 
HETATM   13  O2  UNL     1      10.280   1.459  -1.563  1.00  0.00    -0.268 OA
HETATM   14  N2  UNL     1       8.119   0.842  -1.875  1.00  0.00    -0.275 N 
HETATM   15  C17 UNL     1       6.970   0.354  -1.353  1.00  0.00     0.331 A 
ATOM     16  H2  UNL     1       8.161   1.085  -2.865  1.00  0.00     0.173 HD
HETATM   17  O3  UNL     1       6.002   0.235  -2.165  1.00  0.00    -0.246 OA
ENDBRANCH   6   9
BRANCH   7  18
HETATM   18  O4  UNL     1       4.953   1.346   1.802  1.00  0.00    -0.388 OA
ATOM     19  H4  UNL     1       4.679   1.634   2.665  1.00  0.00     0.210 HD
ENDBRANCH   7  18
BRANCH   8  20
HETATM   20  O5  UNL     1       3.829  -1.998   1.814  1.00  0.00    -0.390 OA
ATOM     21  H5  UNL     1       4.051  -2.258   2.700  1.00  0.00     0.210 HD
ENDBRANCH   8  20
ENDBRANCH   3   4
ENDBRANCH   2   3
BRANCH   1  22
HETATM   22  C8  UNL     1      -0.461  -0.293  -1.215  1.00  0.00     0.000 C 
HETATM   23  C7  UNL     1      -1.636   0.068  -1.683  1.00  0.00     0.007 C 
BRANCH  23  24
HETATM   24  C6  UNL     1      -2.897   0.183  -1.005  1.00  0.00    -0.050 C 
HETATM   25  C5  UNL     1      -3.941   0.559  -1.762  1.00  0.00    -0.006 C 
HETATM   26  C3  UNL     1      -5.321   0.740  -1.295  1.00  0.00    -0.006 C 
HETATM   27  C4  UNL     1      -5.791   2.153  -1.244  1.00  0.00     0.024 C 
HETATM   28  C26 UNL     1      -5.461  -0.015   0.017  1.00  0.00     0.056 C 
HETATM   29  C23 UNL     1      -4.372   0.410   0.939  1.00  0.00     0.070 C 
HETATM   30  C20 UNL     1      -3.025  -0.084   0.449  1.00  0.00     0.010 C 
HETATM   31  C21 UNL     1      -2.762  -1.528   0.663  1.00  0.00     0.023 C 
HETATM   32  C22 UNL     1      -1.986   0.810   1.152  1.00  0.00     0.023 C 
BRANCH  26  33
HETATM   33  C2  UNL     1      -6.240  -0.005  -2.245  1.00  0.00    -0.024 C 
HETATM   34  C1  UNL     1      -5.821  -1.108  -2.855  1.00  0.00     0.008 C 
ENDBRANCH  26  33
BRANCH  29  35
HETATM   35  O6  UNL     1      -4.284   1.836   0.771  1.00  0.00    -0.389 OA
ATOM     36  H6  UNL     1      -5.128   2.146   1.078  1.00  0.00     0.210 HD
ENDBRANCH  29  35
BRANCH  29  37
HETATM   37  C24 UNL     1      -4.637   0.207   2.367  1.00  0.00     0.034 C 
HETATM   38  C25 UNL     1      -4.659  -1.160   2.930  1.00  0.00     0.008 C 
ENDBRANCH  29  37
ENDBRANCH  23  24
ENDBRANCH   1  22
TORSDOF 10
