REMARK  10 active torsions:
REMARK  status: ('A' for Active; 'I' for Inactive)
REMARK    1  A    between atoms: N1_2  and  C2_3 
REMARK    2  A    between atoms: N1_2  and  C17_24 
REMARK    3  A    between atoms: C2_3  and  C3_4 
REMARK    4  A    between atoms: C3_4  and  C4_5 
REMARK    5  A    between atoms: C4_5  and  C5_6 
REMARK    6  A    between atoms: C5_6  and  C6_7 
REMARK    7  A    between atoms: C6_7  and  C7_8 
REMARK    8  A    between atoms: C7_8  and  C8_9 
REMARK    9  A    between atoms: C8_9  and  N2_10 
REMARK       I    between atoms: N2_10  and  C9_12 
REMARK       I    between atoms: C9_12  and  N3_14 
REMARK   10  A    between atoms: N3_14  and  C10_16 
ROOT
HETATM    1  C4  UNL     1      -1.391   0.729  -0.406  1.00  0.00     0.062 C 
HETATM    2  C14 UNL     1      -1.680   0.222  -1.759  1.00  0.00     0.040 C 
HETATM    3  C15 UNL     1      -2.670   1.219  -2.370  1.00  0.00     0.029 C 
HETATM    4  C16 UNL     1      -2.397   2.428  -1.474  1.00  0.00     0.168 C 
HETATM    5  O2  UNL     1      -2.283   1.809  -0.232  1.00  0.00    -0.380 OA
ENDROOT
BRANCH   1   6
HETATM    6  C3  UNL     1      -1.729  -0.254   0.688  1.00  0.00     0.068 C 
BRANCH   6   7
HETATM    7  C2  UNL     1      -3.071  -0.862   0.624  1.00  0.00     0.275 C 
BRANCH   7   8
HETATM    8  N1  UNL     1      -4.177   0.054   0.674  1.00  0.00     0.088 N 
HETATM    9  C1  UNL     1      -4.324   0.713   1.948  1.00  0.00     0.310 C 
BRANCH   8  10
HETATM   10  C17 UNL     1      -5.386  -0.756   0.480  1.00  0.00     0.222 C 
HETATM   11  C18 UNL     1      -6.623   0.075   0.415  1.00  0.00     0.036 C 
HETATM   12  C19 UNL     1      -7.797  -0.837   0.798  1.00  0.00     0.002 C 
HETATM   13  C20 UNL     1      -7.670  -2.135   0.019  1.00  0.00     0.000 C 
HETATM   14  C21 UNL     1      -6.730  -1.956  -1.170  1.00  0.00     0.002 C 
HETATM   15  C22 UNL     1      -5.319  -1.640  -0.720  1.00  0.00     0.036 C 
ENDBRANCH   8  10
ENDBRANCH   7   8
ENDBRANCH   6   7
ENDBRANCH   1   6
BRANCH   1  16
HETATM   16  C5  UNL     1      -0.006   1.296  -0.234  1.00  0.00     0.038 C 
BRANCH  16  17
HETATM   17  C6  UNL     1       1.079   0.265  -0.257  1.00  0.00     0.004 C 
BRANCH  17  18
HETATM   18  C7  UNL     1       2.421   0.968  -0.081  1.00  0.00     0.020 C 
BRANCH  18  19
HETATM   19  C8  UNL     1       3.573   0.030  -0.087  1.00  0.00     0.124 C 
BRANCH  19  20
HETATM   20  N2  UNL     1       4.796   0.754   0.077  1.00  0.00    -0.343 N 
HETATM   21  C9  UNL     1       6.028   0.071   0.103  1.00  0.00     0.316 C 
HETATM   22  O1  UNL     1       6.060  -1.186  -0.016  1.00  0.00    -0.247 OA
HETATM   23  N3  UNL     1       7.229   0.801   0.264  1.00  0.00    -0.335 N 
ATOM     24  H3  UNL     1       7.204   1.816   0.359  1.00  0.00     0.165 HD
ATOM     25  H2  UNL     1       4.776   1.769   0.176  1.00  0.00     0.164 HD
BRANCH  23  26
HETATM   26  C10 UNL     1       8.490   0.100   0.293  1.00  0.00     0.023 C 
HETATM   27  C11 UNL     1       8.630  -0.630  -1.034  1.00  0.00     0.037 C 
HETATM   28  C12 UNL     1       9.657   1.063   0.443  1.00  0.00     0.037 C 
HETATM   29  C13 UNL     1       8.495  -0.860   1.434  1.00  0.00     0.037 C 
ENDBRANCH  23  26
ENDBRANCH  19  20
ENDBRANCH  18  19
ENDBRANCH  17  18
ENDBRANCH  16  17
ENDBRANCH   1  16
TORSDOF 10
