REMARK  8 active torsions:
REMARK  status: ('A' for Active; 'I' for Inactive)
REMARK    1  A    between atoms: N3_4  and  C2_6 
REMARK    2  A    between atoms: C2_6  and  C3_7 
REMARK    3  A    between atoms: C3_7  and  N4_8 
REMARK    4  A    between atoms: N4_8  and  C4_11 
REMARK    5  A    between atoms: C4_11  and  C5_12 
REMARK    6  A    between atoms: C5_12  and  C6_13 
REMARK    7  A    between atoms: C6_13  and  C7_14 
REMARK    8  A    between atoms: C7_14  and  C8_15 
ROOT
HETATM    1  C6  UNL     1       0.055   0.749  -0.138  1.00  0.00     0.005 C 
ENDROOT
BRANCH   1   2
HETATM    2  C5  UNL     1       1.531   0.394  -0.349  1.00  0.00     0.027 C 
BRANCH   2   3
HETATM    3  C4  UNL     1       2.267   1.712  -0.337  1.00  0.00     0.232 C 
BRANCH   3   4
HETATM    4  N4  UNL     1       3.680   1.605  -0.508  1.00  0.00    -0.074 N 
ATOM      5  H42 UNL     1       4.106   2.506  -0.727  1.00  0.00     0.277 HD
ATOM      6  H41 UNL     1       3.923   1.111  -1.367  1.00  0.00     0.277 HD
BRANCH   4   7
HETATM    7  C3  UNL     1       4.282   0.992   0.656  1.00  0.00     0.251 C 
BRANCH   7   8
HETATM    8  C2  UNL     1       5.770   0.936   0.433  1.00  0.00     0.149 C 
BRANCH   8   9
HETATM    9  N3  UNL     1       6.042   0.146  -0.728  1.00  0.00    -0.365 N 
HETATM   10  C1  UNL     1       7.002  -0.705  -0.700  1.00  0.00     0.197 C 
HETATM   11  N1  UNL     1       7.267  -1.485  -1.851  1.00  0.00    -0.067 NA
HETATM   12  N2  UNL     1       7.782  -0.852   0.474  1.00  0.00    -0.067 NA
ATOM     13  H3  UNL     1       5.478   0.258  -1.570  1.00  0.00     0.161 HD
ENDBRANCH   8   9
ENDBRANCH   7   8
ENDBRANCH   4   7
ENDBRANCH   3   4
ENDBRANCH   2   3
ENDBRANCH   1   2
BRANCH   1  14
HETATM   14  C7  UNL     1      -0.803  -0.471  -0.127  1.00  0.00     0.057 C 
BRANCH  14  15
HETATM   15  C8  UNL     1      -2.240  -0.097   0.112  1.00  0.00     0.324 C 
HETATM   16  N5  UNL     1      -2.751   0.776  -0.902  1.00  0.00    -0.331 N 
HETATM   17  C9  UNL     1      -4.096   0.686  -1.384  1.00  0.00     0.225 C 
ATOM     18  H5  UNL     1      -2.134   1.487  -1.295  1.00  0.00     0.164 HD
HETATM   19  O1  UNL     1      -4.657   1.745  -1.747  1.00  0.00    -0.273 OA
HETATM   20  C10 UNL     1      -4.741  -0.646  -1.424  1.00  0.00     0.106 C 
HETATM   21  C11 UNL     1      -5.989  -0.691  -0.611  1.00  0.00     0.016 C 
HETATM   22  C15 UNL     1      -3.729  -1.669  -0.929  1.00  0.00     0.289 C 
HETATM   23  C12 UNL     1      -5.986   0.151   0.617  1.00  0.00     0.003 C 
HETATM   24  C13 UNL     1      -4.790   0.043   1.489  1.00  0.00     0.030 C 
HETATM   25  C14 UNL     1      -3.999  -1.208   1.350  1.00  0.00     0.275 C 
HETATM   26  N6  UNL     1      -3.083  -1.258   0.273  1.00  0.00     0.112 N 
ENDBRANCH  14  15
ENDBRANCH   1  14
TORSDOF 8
