REMARK  0 active torsions:
REMARK  status: ('A' for Active; 'I' for Inactive)
ROOT
HETATM    1  N1  UNL     1      -1.069   4.196   1.189  1.00  0.00    -0.062 NA
HETATM    2  C1  UNL     1      -0.965   3.128   0.267  1.00  0.00     0.202 C 
HETATM    3  N2  UNL     1      -1.950   3.077  -0.578  1.00  0.00    -0.252 N 
ATOM      4  H2  UNL     1      -2.656   3.805  -0.468  1.00  0.00     0.181 HD
HETATM    5  S1  UNL     1      -2.241   1.944  -1.875  1.00  0.00     0.281 S 
HETATM    6  O1  UNL     1      -1.325   2.218  -3.016  1.00  0.00    -0.199 OA
HETATM    7  O2  UNL     1      -3.667   2.110  -2.275  1.00  0.00    -0.199 OA
HETATM    8  C2  UNL     1      -1.911   0.355  -1.180  1.00  0.00     0.163 A 
HETATM    9  N3  UNL     1      -2.622  -0.748  -1.255  1.00  0.00    -0.344 N 
ATOM     10  H3  UNL     1      -3.461  -0.854  -1.825  1.00  0.00     0.167 HD
HETATM   11  C3  UNL     1      -2.094  -1.733  -0.472  1.00  0.00     0.044 A 
HETATM   12  C4  UNL     1      -2.476  -3.028  -0.193  1.00  0.00     0.030 A 
HETATM   13  C5  UNL     1      -1.722  -3.761   0.695  1.00  0.00     0.002 A 
HETATM   14  C6  UNL     1      -0.597  -3.207   1.302  1.00  0.00     0.001 A 
HETATM   15  C7  UNL     1      -0.205  -1.920   1.032  1.00  0.00     0.014 A 
HETATM   16  C8  UNL     1      -0.951  -1.193   0.144  1.00  0.00     0.006 A 
HETATM   17  C9  UNL     1      -0.848   0.081  -0.304  1.00  0.00     0.044 A 
HETATM   18  C10 UNL     1       0.237   0.955   0.039  1.00  0.00     0.059 C 
HETATM   19  C11 UNL     1       1.555   0.466   0.132  1.00  0.00    -0.008 A 
HETATM   20  C12 UNL     1       2.486   1.100   0.918  1.00  0.00     0.014 A 
HETATM   21  C13 UNL     1       3.821   0.781   0.919  1.00  0.00     0.001 A 
HETATM   22  C14 UNL     1       4.277  -0.230   0.094  1.00  0.00     0.000 A 
HETATM   23  C15 UNL     1       3.385  -0.900  -0.716  1.00  0.00     0.001 A 
HETATM   24  C16 UNL     1       2.031  -0.536  -0.681  1.00  0.00     0.014 A 
HETATM   25  N4  UNL     1       0.130   2.248   0.276  1.00  0.00    -0.328 N 
ATOM     26  H4  UNL     1       1.015   2.697   0.512  1.00  0.00     0.168 HD
ENDROOT
TORSDOF 0
