REMARK  4 active torsions:
REMARK  status: ('A' for Active; 'I' for Inactive)
REMARK       I    between atoms: N1_2  and  C2_4 
REMARK       I    between atoms: C2_4  and  N3_8 
REMARK    1  A    between atoms: C3_9  and  C4_10 
REMARK    2  A    between atoms: N4_23  and  N5_25 
REMARK    3  A    between atoms: N5_25  and  C16_27 
REMARK    4  A    between atoms: C16_27  and  N6_29 
ROOT
HETATM    1  C1  UNL     1       1.516   2.437  -2.110  1.00  0.00     0.165 C 
HETATM    2  N1  UNL     1       1.086   1.827  -0.913  1.00  0.00    -0.230 N 
ATOM      3  H1  UNL     1       0.721   2.433  -0.178  1.00  0.00     0.177 HD
HETATM    4  C2  UNL     1       1.124   0.409  -0.651  1.00  0.00     0.680 C 
HETATM    5  N2  UNL     1       1.406  -0.383  -1.552  1.00  0.00    -0.234 N 
ATOM      6  H21 UNL     1       1.433  -1.386  -1.367  1.00  0.00     0.174 HD
ATOM      7  H22 UNL     1       1.561  -0.111  -2.523  1.00  0.00     0.174 HD
HETATM    8  N3  UNL     1       0.900   0.016   0.752  1.00  0.00    -0.128 N 
HETATM    9  C3  UNL     1      -0.277  -0.186   1.301  1.00  0.00     0.052 A 
HETATM   10  C14 UNL     1      -0.248  -0.419   2.687  1.00  0.00     0.080 A 
HETATM   11  S1  UNL     1       1.390  -0.347   3.085  1.00  0.00    -0.061 SA
HETATM   12  C15 UNL     1       2.027  -0.015   1.491  1.00  0.00     0.186 A 
HETATM   13  N4  UNL     1       3.262   0.105   1.257  1.00  0.00    -0.277 N 
ATOM     14  H4  UNL     1       3.799   0.014   2.119  1.00  0.00     0.189 HD
ENDROOT
BRANCH   9  15
HETATM   15  C4  UNL     1      -1.664  -0.218   0.682  1.00  0.00     0.005 C 
HETATM   16  C5  UNL     1      -2.473   0.975   1.121  1.00  0.00     0.020 C 
HETATM   17  C6  UNL     1      -3.878   0.804   0.638  1.00  0.00    -0.013 C 
HETATM   18  C7  UNL     1      -4.589  -0.396   1.222  1.00  0.00     0.009 C 
HETATM   19  C11 UNL     1      -3.949   0.628  -0.871  1.00  0.00     0.009 C 
HETATM   20  C8  UNL     1      -3.787  -1.619   0.821  1.00  0.00    -0.013 C 
HETATM   21  C9  UNL     1      -3.756  -1.836  -0.651  1.00  0.00     0.009 C 
HETATM   22  C13 UNL     1      -2.389  -1.421   1.320  1.00  0.00     0.020 C 
HETATM   23  C10 UNL     1      -3.170  -0.602  -1.255  1.00  0.00    -0.013 C 
HETATM   24  C12 UNL     1      -1.720  -0.388  -0.777  1.00  0.00     0.020 C 
ENDBRANCH   9  15
BRANCH  13  25
HETATM   25  N5  UNL     1       4.074   0.315   0.221  1.00  0.00    -0.274 N 
ATOM     26  H5  UNL     1       3.732   0.816  -0.599  1.00  0.00     0.189 HD
BRANCH  25  27
HETATM   27  C16 UNL     1       5.448  -0.168   0.255  1.00  0.00     0.186 C 
HETATM   28  S2  UNL     1       6.016  -0.917   1.581  1.00  0.00    -0.040 SA
BRANCH  27  29
HETATM   29  N6  UNL     1       6.289   0.019  -0.853  1.00  0.00    -0.370 N 
HETATM   30  C17 UNL     1       7.675  -0.418  -0.876  1.00  0.00     0.148 C 
ATOM     31  H6  UNL     1       5.911   0.482  -1.679  1.00  0.00     0.161 HD
ENDBRANCH  27  29
ENDBRANCH  25  27
ENDBRANCH  13  25
TORSDOF 4
