REMARK  6 active torsions:
REMARK  status: ('A' for Active; 'I' for Inactive)
REMARK    1  A    between atoms: C2_2  and  S1_5 
REMARK    2  A    between atoms: S1_5  and  C5_6 
REMARK    3  A    between atoms: C5_6  and  N2_10 
REMARK    4  A    between atoms: C6_12  and  O1_13 
REMARK    5  A    between atoms: C6_12  and  N4_17 
REMARK    6  A    between atoms: O1_13  and  N3_14 
ROOT
HETATM    1  N2  UNL     1      -0.230  -1.286   1.438  1.00  0.00    -0.301 N 
ATOM      2  H2  UNL     1      -0.173  -2.151   1.975  1.00  0.00     0.171 HD
HETATM    3  C6  UNL     1      -1.364  -0.968   1.059  1.00  0.00     0.254 C 
ENDROOT
BRANCH   3   4
HETATM    4  O1  UNL     1      -2.388  -1.894   1.455  1.00  0.00    -0.207 OA
BRANCH   4   5
HETATM    5  N3  UNL     1      -2.050  -3.170   1.821  1.00  0.00    -0.302 N 
ATOM      6  H32 UNL     1      -1.068  -3.446   1.807  1.00  0.00     0.184 HD
ATOM      7  H31 UNL     1      -2.777  -3.828   2.102  1.00  0.00     0.184 HD
ENDBRANCH   4   5
ENDBRANCH   3   4
BRANCH   3   8
HETATM    8  N4  UNL     1      -1.844   0.119   0.320  1.00  0.00    -0.272 N 
HETATM    9  C7  UNL     1      -1.295   1.262  -0.265  1.00  0.00     0.230 C 
HETATM   10  O2  UNL     1      -0.421   2.071   0.030  1.00  0.00    -0.273 OA
HETATM   11  C8  UNL     1      -2.272   1.023  -1.401  1.00  0.00     0.134 C 
HETATM   12  C9  UNL     1      -3.131   0.597  -0.224  1.00  0.00     0.044 C 
HETATM   13  C10 UNL     1      -4.049  -0.551  -0.490  1.00  0.00     0.039 C 
HETATM   14  C11 UNL     1      -3.740   1.728   0.532  1.00  0.00     0.039 C 
ENDBRANCH   3   8
BRANCH   1  15
HETATM   15  C5  UNL     1       0.973  -0.629   1.234  1.00  0.00     0.141 C 
HETATM   16  N1  UNL     1       1.524   0.111   2.168  1.00  0.00    -0.380 N 
ATOM     17  H12 UNL     1       2.409   0.595   2.018  1.00  0.00     0.158 HD
ATOM     18  H11 UNL     1       1.060   0.225   3.069  1.00  0.00     0.158 HD
BRANCH  15  19
HETATM   19  S1  UNL     1       1.790  -0.830  -0.352  1.00  0.00    -0.085 SA
BRANCH  19  20
HETATM   20  C2  UNL     1       3.359   0.041  -0.341  1.00  0.00     0.005 C 
HETATM   21  C1  UNL     1       3.156   1.522  -0.237  1.00  0.00     0.026 C 
HETATM   22  C3  UNL     1       4.052  -0.252  -1.662  1.00  0.00     0.026 C 
HETATM   23  C4  UNL     1       4.187  -0.512   0.793  1.00  0.00     0.026 C 
ENDBRANCH  19  20
ENDBRANCH  15  19
ENDBRANCH   1  15
TORSDOF 6
