REMARK  16 active torsions:
REMARK  status: ('A' for Active; 'I' for Inactive)
REMARK    1  A    between atoms: C2_2  and  O1_5 
REMARK    2  A    between atoms: O1_5  and  C5_6 
REMARK    3  A    between atoms: C5_6  and  O2_7 
REMARK    4  A    between atoms: C5_6  and  N1_9 
REMARK    5  A    between atoms: N1_9  and  C6_11 
REMARK    6  A    between atoms: C7_14  and  N3_15 
REMARK    7  A    between atoms: C9_21  and  C10_22 
REMARK    8  A    between atoms: C10_22  and  C11_24 
REMARK    9  A    between atoms: C11_24  and  C12_25 
REMARK   10  A    between atoms: C13_26  and  O4_27 
REMARK   11  A    between atoms: C13_26  and  O5_29 
REMARK   12  A    between atoms: O5_29  and  C14_30 
REMARK   13  A    between atoms: C15_35  and  N7_36 
REMARK   14  A    between atoms: C17_43  and  O7_44 
REMARK   15  A    between atoms: C17_43  and  C18_46 
REMARK   16  A    between atoms: N10_49  and  O8_51 
ROOT
HETATM    1  C18 UNL     1       2.974  -2.840   1.732  1.00  0.00     0.168 C 
HETATM    2  C19 UNL     1       4.068  -3.278   0.890  1.00  0.00     0.122 C 
HETATM    3  N9  UNL     1       4.988  -3.647   0.235  1.00  0.00    -0.190 NA
HETATM    4  N10 UNL     1       3.136  -3.005   3.000  1.00  0.00    -0.256 N 
ATOM      5  H10 UNL     1       4.036  -3.372   3.308  1.00  0.00     0.195 HD
ENDROOT
BRANCH   1   6
HETATM    6  C17 UNL     1       1.731  -2.328   1.177  1.00  0.00     0.119 C 
HETATM    7  C11 UNL     1       1.453  -1.980  -0.165  1.00  0.00     0.056 C 
BRANCH   7   8
HETATM    8  C10 UNL     1      -0.062  -1.908  -0.519  1.00  0.00     0.200 C 
HETATM    9  O3  UNL     1      -0.523  -2.878  -1.087  1.00  0.00    -0.286 OA
BRANCH   8  10
HETATM   10  C9  UNL     1      -0.711  -0.684  -0.115  1.00  0.00     0.075 A 
HETATM   11  C6  UNL     1      -1.983  -0.252  -0.399  1.00  0.00     0.136 A 
HETATM   12  N2  UNL     1      -2.561   0.797   0.003  1.00  0.00    -0.176 N 
HETATM   13  C7  UNL     1      -1.927   1.713   0.850  1.00  0.00     0.677 A 
ATOM     14  H2  UNL     1      -3.518   0.982  -0.299  1.00  0.00     0.186 HD
HETATM   15  N4  UNL     1      -0.689   1.373   1.188  1.00  0.00    -0.201 N 
HETATM   16  C8  UNL     1      -0.122   0.286   0.760  1.00  0.00     0.125 A 
ATOM     17  H4  UNL     1      -0.163   1.989   1.808  1.00  0.00     0.183 HD
BRANCH  11  18
HETATM   18  N1  UNL     1      -2.732  -1.143  -1.632  1.00  0.00    -0.327 N 
ATOM     19  H1  UNL     1      -2.385  -1.843  -2.287  1.00  0.00     0.166 HD
BRANCH  18  20
HETATM   20  C5  UNL     1      -4.005  -0.571  -1.429  1.00  0.00     0.370 C 
BRANCH  20  21
HETATM   21  O1  UNL     1      -4.640   0.130  -0.598  1.00  0.00    -0.334 OA
BRANCH  21  22
HETATM   22  C2  UNL     1      -5.918   0.658  -0.511  1.00  0.00     0.055 C 
HETATM   23  C1  UNL     1      -6.217   1.714  -1.550  1.00  0.00     0.045 C 
HETATM   24  C3  UNL     1      -6.204   1.152   0.878  1.00  0.00     0.045 C 
HETATM   25  C4  UNL     1      -6.963  -0.469  -0.750  1.00  0.00     0.045 C 
ENDBRANCH  21  22
ENDBRANCH  20  21
BRANCH  20  26
HETATM   26  O2  UNL     1      -4.778  -0.943  -2.528  1.00  0.00    -0.354 OA
ATOM     27  H2  UNL     1      -4.299  -1.472  -3.155  1.00  0.00     0.214 HD
ENDBRANCH  20  26
ENDBRANCH  18  20
ENDBRANCH  11  18
BRANCH  13  28
HETATM   28  N3  UNL     1      -2.533   2.790   1.160  1.00  0.00    -0.234 N 
ATOM     29  H32 UNL     1      -3.484   3.051   0.900  1.00  0.00     0.174 HD
ATOM     30  H31 UNL     1      -2.071   3.458   1.777  1.00  0.00     0.174 HD
ENDBRANCH  13  28
ENDBRANCH   8  10
ENDBRANCH   7   8
BRANCH   7  31
HETATM   31  C12 UNL     1       2.053  -0.870  -0.923  1.00  0.00     0.082 C 
HETATM   32  C13 UNL     1       3.378  -0.454  -0.719  1.00  0.00     0.186 C 
BRANCH  32  33
HETATM   33  O4  UNL     1       3.640   0.241   0.364  1.00  0.00    -0.341 OA
ATOM     34  H4  UNL     1       4.537   0.523   0.502  1.00  0.00     0.220 HD
ENDBRANCH  32  33
BRANCH  32  35
HETATM   35  O5  UNL     1       4.611  -0.588  -1.443  1.00  0.00    -0.264 OA
BRANCH  35  36
HETATM   36  C14 UNL     1       5.667   0.100  -0.764  1.00  0.00     0.235 A 
HETATM   37  N5  UNL     1       6.637  -0.217   0.001  1.00  0.00    -0.261 N 
HETATM   38  N6  UNL     1       7.492   0.702   0.536  1.00  0.00    -0.130 N 
ATOM     39  H5  UNL     1       6.780  -1.202   0.223  1.00  0.00     0.190 HD
HETATM   40  C15 UNL     1       7.329   2.070   0.253  1.00  0.00     0.693 A 
ATOM     41  H6  UNL     1       8.252   0.396   1.143  1.00  0.00     0.205 HD
HETATM   42  N8  UNL     1       6.337   2.346  -0.537  1.00  0.00    -0.151 N 
HETATM   43  C16 UNL     1       5.471   1.535  -1.094  1.00  0.00     0.312 A 
ATOM     44  H8  UNL     1       6.214   3.335  -0.756  1.00  0.00     0.188 HD
HETATM   45  O6  UNL     1       4.539   1.746  -1.834  1.00  0.00    -0.263 OA
BRANCH  40  46
HETATM   46  N7  UNL     1       8.103   2.908   0.744  1.00  0.00    -0.233 N 
ATOM     47  H72 UNL     1       8.883   2.691   1.365  1.00  0.00     0.174 HD
ATOM     48  H71 UNL     1       7.985   3.900   0.539  1.00  0.00     0.174 HD
ENDBRANCH  40  46
ENDBRANCH  35  36
ENDBRANCH  32  35
ENDBRANCH   7  31
BRANCH   6  49
HETATM   49  O7  UNL     1       0.815  -2.202   2.105  1.00  0.00    -0.357 OA
ATOM     50  H7  UNL     1       1.002  -2.436   3.007  1.00  0.00     0.218 HD
ENDBRANCH   6  49
ENDBRANCH   1   6
BRANCH   4  51
HETATM   51  O8  UNL     1       2.222  -2.736   3.958  1.00  0.00    -0.289 OA
ATOM     52  H8  UNL     1       2.341  -2.858   4.893  1.00  0.00     0.244 HD
ENDBRANCH   4  51
TORSDOF 16
