REMARK  5 active torsions:
REMARK  status: ('A' for Active; 'I' for Inactive)
REMARK    1  A    between atoms: N1_2  and  C3_4 
REMARK    2  A    between atoms: C3_4  and  C4_5 
REMARK    3  A    between atoms: C4_5  and  N2_6 
REMARK    4  A    between atoms: N2_6  and  C5_8 
REMARK    5  A    between atoms: C5_8  and  N3_10 
ROOT
HETATM    1  N3  UNL     1      -0.321  -0.366   0.094  1.00  0.00    -0.330 N 
HETATM    2  C6  UNL     1      -0.137  -1.362   1.166  1.00  0.00     0.128 C 
HETATM    3  C7  UNL     1      -0.941  -2.620   0.800  1.00  0.00     0.020 C 
HETATM    4  C8  UNL     1      -1.534  -2.321  -0.581  1.00  0.00     0.006 C 
HETATM    5  C9  UNL     1      -2.478  -1.147  -0.385  1.00  0.00     0.056 C 
HETATM    6  C10 UNL     1      -1.705   0.127   0.050  1.00  0.00     0.124 C 
HETATM    7  C11 UNL     1      -2.150   0.373   1.470  1.00  0.00     0.167 C 
HETATM    8  N4  UNL     1      -3.182   1.326   1.665  1.00  0.00    -0.416 N 
ATOM      9  H4  UNL     1      -3.011   2.159   2.229  1.00  0.00     0.153 HD
HETATM   10  C12 UNL     1      -4.446   1.117   1.076  1.00  0.00     0.133 C 
HETATM   11  C13 UNL     1      -4.582   1.759  -0.288  1.00  0.00     0.139 C 
HETATM   12  N5  UNL     1      -3.642   2.819  -0.484  1.00  0.00    -0.385 N 
ATOM     13  H5  UNL     1      -3.943   3.788  -0.584  1.00  0.00     0.160 HD
HETATM   14  C14 UNL     1      -2.259   2.455  -0.533  1.00  0.00     0.173 C 
HETATM   15  N6  UNL     1      -2.041   1.119  -0.853  1.00  0.00    -0.358 N 
ATOM     16  H6  UNL     1      -2.137   0.849  -1.832  1.00  0.00     0.162 HD
ENDROOT
BRANCH   1  17
HETATM   17  C5  UNL     1       0.730  -0.018  -0.733  1.00  0.00     0.171 C 
HETATM   18  S1  UNL     1       0.309   1.056  -1.979  1.00  0.00    -0.041 SA
BRANCH  17  19
HETATM   19  N2  UNL     1       2.068  -0.389  -0.812  1.00  0.00    -0.365 N 
ATOM     20  H2  UNL     1       2.561   0.085  -1.569  1.00  0.00     0.161 HD
BRANCH  19  21
HETATM   21  C4  UNL     1       2.903  -1.268  -0.090  1.00  0.00     0.152 C 
BRANCH  21  22
HETATM   22  C3  UNL     1       4.325  -1.191  -0.698  1.00  0.00     0.290 C 
BRANCH  22  23
HETATM   23  N1  UNL     1       4.756   0.172  -0.580  1.00  0.00     0.081 N 
HETATM   24  C1  UNL     1       4.997   0.617   0.760  1.00  0.00     0.309 C 
HETATM   25  C2  UNL     1       5.912   0.418  -1.402  1.00  0.00     0.309 C 
ENDBRANCH  22  23
ENDBRANCH  21  22
ENDBRANCH  19  21
ENDBRANCH  17  19
ENDBRANCH   1  17
TORSDOF 5
