REMARK  12 active torsions:
REMARK  status: ('A' for Active; 'I' for Inactive)
REMARK    1  A    between atoms: C2_2  and  C3_3 
REMARK    2  A    between atoms: C3_3  and  C4_4 
REMARK    3  A    between atoms: C4_4  and  C5_5 
REMARK    4  A    between atoms: C5_5  and  C6_6 
REMARK    5  A    between atoms: C6_6  and  C7_7 
REMARK    6  A    between atoms: C6_6  and  C9_11 
REMARK    7  A    between atoms: C7_7  and  C8_8 
REMARK       I    between atoms: C9_11  and  N1_13 
REMARK    8  A    between atoms: N1_13  and  C10_15 
REMARK    9  A    between atoms: C11_20  and  C12_21 
REMARK   10  A    between atoms: C12_21  and  C13_22 
REMARK   11  A    between atoms: C13_22  and  C14_23 
REMARK   12  A    between atoms: C14_23  and  C15_24 
ROOT
HETATM    1  C10 UNL     1      -2.503  -1.170   0.333  1.00  0.00     0.247 A 
HETATM    2  N2  UNL     1      -1.910  -1.316  -0.847  1.00  0.00    -0.263 N 
ATOM      3  H2  UNL     1      -2.337  -1.733  -1.674  1.00  0.00     0.190 HD
HETATM    4  N3  UNL     1      -0.681  -0.837  -0.781  1.00  0.00    -0.280 N 
ATOM      5  H3  UNL     1       0.013  -0.811  -1.528  1.00  0.00     0.189 HD
HETATM    6  C11 UNL     1      -0.537  -0.389   0.485  1.00  0.00     0.142 A 
HETATM    7  O7  UNL     1      -1.643  -0.599   1.137  1.00  0.00    -0.264 OA
ENDROOT
BRANCH   6   8
HETATM    8  C12 UNL     1       0.674   0.253   1.093  1.00  0.00     0.086 C 
BRANCH   8   9
HETATM    9  C13 UNL     1       1.578  -0.785   1.702  1.00  0.00     0.010 C 
BRANCH   9  10
HETATM   10  C14 UNL     1       2.812  -0.203   2.334  1.00  0.00     0.030 C 
BRANCH  10  11
HETATM   11  C15 UNL     1       3.610   0.532   1.299  1.00  0.00     0.202 C 
HETATM   12  C16 UNL     1       4.854   1.124   1.904  1.00  0.00     0.237 C 
HETATM   13  O4  UNL     1       4.921   1.394   3.131  1.00  0.00    -0.272 OA
HETATM   14  N4  UNL     1       5.851   1.309   0.940  1.00  0.00    -0.337 N 
HETATM   15  C17 UNL     1       5.984   0.188   0.040  1.00  0.00     0.137 C 
ATOM     16  H4  UNL     1       6.425   2.150   0.879  1.00  0.00     0.164 HD
HETATM   17  C18 UNL     1       6.137   0.730  -1.358  1.00  0.00     0.047 C 
HETATM   18  C22 UNL     1       7.064  -0.770   0.412  1.00  0.00     0.047 C 
HETATM   19  S1  UNL     1       4.354  -0.572   0.119  1.00  0.00     0.184 S 
HETATM   20  C19 UNL     1       7.433   1.437  -1.577  1.00  0.00     0.004 C 
HETATM   21  C20 UNL     1       8.534   0.955  -0.670  1.00  0.00     0.000 C 
HETATM   22  C21 UNL     1       8.378  -0.493  -0.277  1.00  0.00     0.004 C 
HETATM   23  O5  UNL     1       4.467  -1.968   0.694  1.00  0.00    -0.224 OA
HETATM   24  O6  UNL     1       3.675  -0.558  -1.197  1.00  0.00    -0.224 OA
ENDBRANCH  10  11
ENDBRANCH   9  10
ENDBRANCH   8   9
ENDBRANCH   6   8
BRANCH   1  25
HETATM   25  N1  UNL     1      -3.701  -1.529   0.616  1.00  0.00    -0.291 N 
HETATM   26  C9  UNL     1      -4.571  -2.143  -0.315  1.00  0.00     0.229 C 
HETATM   27  O3  UNL     1      -4.748  -3.379  -0.233  1.00  0.00    -0.273 OA
ATOM     28  H1  UNL     1      -4.045  -1.363   1.562  1.00  0.00     0.172 HD
BRANCH  26  29
HETATM   29  C6  UNL     1      -5.239  -1.348  -1.339  1.00  0.00     0.088 C 
BRANCH  29  30
HETATM   30  C5  UNL     1      -6.240  -0.356  -0.856  1.00  0.00     0.014 C 
BRANCH  30  31
HETATM   31  C4  UNL     1      -5.735   0.667   0.113  1.00  0.00     0.001 C 
BRANCH  31  32
HETATM   32  C3  UNL     1      -6.948   1.565   0.429  1.00  0.00    -0.000 C 
BRANCH  32  33
HETATM   33  C2  UNL     1      -6.458   2.608   1.409  1.00  0.00    -0.005 C 
HETATM   34  C1  UNL     1      -5.942   1.944   2.667  1.00  0.00     0.005 C 
ENDBRANCH  32  33
ENDBRANCH  31  32
ENDBRANCH  30  31
ENDBRANCH  29  30
BRANCH  29  35
HETATM   35  C7  UNL     1      -5.924  -2.299  -2.297  1.00  0.00     0.127 C 
BRANCH  35  36
HETATM   36  C8  UNL     1      -6.477  -1.575  -3.450  1.00  0.00     0.173 C 
HETATM   37  O1  UNL     1      -7.639  -1.106  -3.498  1.00  0.00    -0.648 OA
HETATM   38  O2  UNL     1      -5.626  -1.414  -4.551  1.00  0.00    -0.648 OA
ENDBRANCH  35  36
ENDBRANCH  29  35
ENDBRANCH  26  29
ENDBRANCH   1  25
TORSDOF 12
