REMARK  12 active torsions:
REMARK  status: ('A' for Active; 'I' for Inactive)
REMARK    1  A    between atoms: C2_2  and  N1_3 
REMARK    2  A    between atoms: N1_3  and  C3_5 
REMARK    3  A    between atoms: C6_13  and  C7_14 
REMARK    4  A    between atoms: C7_14  and  C8_15 
REMARK    5  A    between atoms: C9_16  and  O2_17 
REMARK    6  A    between atoms: O2_17  and  C10_18 
REMARK    7  A    between atoms: C10_18  and  C11_19 
REMARK    8  A    between atoms: C11_19  and  C12_20 
REMARK    9  A    between atoms: C12_20  and  N4_21 
REMARK   10  A    between atoms: N4_21  and  C14_23 
REMARK   11  A    between atoms: C14_23  and  C15_24 
REMARK   12  A    between atoms: C15_24  and  N5_25 
ROOT
HETATM    1  C8  UNL     1      -0.052   1.410  -0.751  1.00  0.00    -0.011 A 
HETATM    2  C9  UNL     1       1.040   0.742  -0.133  1.00  0.00     0.076 A 
HETATM    3  C17 UNL     1       1.936   1.427   0.650  1.00  0.00     0.038 A 
HETATM    4  C18 UNL     1       1.766   2.784   0.831  1.00  0.00     0.010 A 
HETATM    5  C19 UNL     1       0.727   3.468   0.251  1.00  0.00    -0.051 A 
HETATM    6  C20 UNL     1      -0.183   2.748  -0.549  1.00  0.00    -0.042 A 
HETATM    7  C21 UNL     1      -1.304   3.489  -1.188  1.00  0.00     0.040 C 
HETATM    8  C22 UNL     1      -2.257   4.085  -0.137  1.00  0.00     0.005 C 
HETATM    9  C23 UNL     1      -2.509   5.535  -0.348  1.00  0.00     0.000 C 
HETATM   10  C24 UNL     1      -1.806   6.458   0.589  1.00  0.00     0.000 C 
HETATM   11  C25 UNL     1      -1.315   5.851   1.852  1.00  0.00     0.000 C 
HETATM   12  C26 UNL     1       0.071   5.301   1.819  1.00  0.00     0.005 C 
HETATM   13  C27 UNL     1       0.606   4.940   0.480  1.00  0.00     0.039 C 
ENDROOT
BRANCH   1  14
HETATM   14  C7  UNL     1      -0.963   0.575  -1.564  1.00  0.00     0.118 C 
BRANCH  14  15
HETATM   15  C6  UNL     1      -1.930  -0.232  -0.816  1.00  0.00     0.088 A 
HETATM   16  N3  UNL     1      -1.616  -1.293  -0.052  1.00  0.00    -0.339 N 
HETATM   17  C5  UNL     1      -2.688  -1.861   0.501  1.00  0.00     0.135 A 
ATOM     18  H3  UNL     1      -0.662  -1.627   0.089  1.00  0.00     0.167 HD
HETATM   19  C4  UNL     1      -2.713  -2.958   1.326  1.00  0.00     0.288 C 
HETATM   20  C29 UNL     1      -3.753  -1.084   0.038  1.00  0.00     0.137 A 
HETATM   21  N2  UNL     1      -3.795  -3.651   1.694  1.00  0.00    -0.154 N 
HETATM   22  O1  UNL     1      -1.630  -3.355   1.782  1.00  0.00    -0.265 OA
HETATM   23  C3  UNL     1      -5.101  -3.518   1.340  1.00  0.00     0.683 C 
ATOM     24  H2  UNL     1      -3.610  -4.408   2.352  1.00  0.00     0.187 HD
HETATM   25  N7  UNL     1      -5.673  -2.436   0.798  1.00  0.00    -0.154 N 
HETATM   26  C30 UNL     1      -5.071  -1.304   0.372  1.00  0.00     0.289 C 
ATOM     27  H7  UNL     1      -6.687  -2.470   0.694  1.00  0.00     0.187 HD
HETATM   28  O3  UNL     1      -5.811  -0.288   0.259  1.00  0.00    -0.265 OA
HETATM   29  N6  UNL     1      -3.266  -0.112  -0.754  1.00  0.00    -0.334 N 
HETATM   30  C28 UNL     1      -4.146   0.845  -1.414  1.00  0.00     0.158 C 
BRANCH  23  31
HETATM   31  N1  UNL     1      -5.857  -4.542   1.550  1.00  0.00    -0.226 N 
ATOM     32  H1  UNL     1      -5.429  -5.371   1.962  1.00  0.00     0.177 HD
BRANCH  31  33
HETATM   33  C2  UNL     1      -7.253  -4.595   1.245  1.00  0.00     0.133 C 
HETATM   34  C1  UNL     1      -7.749  -6.028   1.396  1.00  0.00     0.027 C 
ENDBRANCH  31  33
ENDBRANCH  23  31
ENDBRANCH  14  15
ENDBRANCH   1  14
BRANCH   2  35
HETATM   35  O2  UNL     1       1.217  -0.594  -0.306  1.00  0.00    -0.351 OA
BRANCH  35  36
HETATM   36  C10 UNL     1       2.151  -1.487   0.129  1.00  0.00     0.177 C 
BRANCH  36  37
HETATM   37  C11 UNL     1       3.567  -1.304  -0.327  1.00  0.00     0.057 C 
BRANCH  37  38
HETATM   38  C12 UNL     1       4.431  -2.398   0.290  1.00  0.00     0.274 C 
BRANCH  38  39
HETATM   39  N4  UNL     1       5.803  -2.252  -0.103  1.00  0.00     0.085 N 
HETATM   40  C13 UNL     1       6.327  -1.047   0.518  1.00  0.00     0.309 C 
BRANCH  39  41
HETATM   41  C14 UNL     1       5.933  -2.184  -1.528  1.00  0.00     0.299 C 
BRANCH  41  42
HETATM   42  C15 UNL     1       7.397  -2.070  -1.922  1.00  0.00     0.262 C 
BRANCH  42  43
HETATM   43  N5  UNL     1       8.110  -3.238  -1.431  1.00  0.00    -0.077 N 
HETATM   44  C16 UNL     1       7.701  -4.442  -2.130  1.00  0.00     0.267 C 
ATOM     45  H52 UNL     1       9.120  -3.105  -1.476  1.00  0.00     0.276 HD
ATOM     46  H51 UNL     1       8.009  -3.340  -0.421  1.00  0.00     0.276 HD
ENDBRANCH  42  43
ENDBRANCH  41  42
ENDBRANCH  39  41
ENDBRANCH  38  39
ENDBRANCH  37  38
ENDBRANCH  36  37
ENDBRANCH  35  36
ENDBRANCH   2  35
TORSDOF 12
