REMARK  15 active torsions:
REMARK  status: ('A' for Active; 'I' for Inactive)
REMARK    1  A    between atoms: C2_2  and  C3_3 
REMARK    2  A    between atoms: C3_3  and  C4_4 
REMARK    3  A    between atoms: C4_4  and  C5_5 
REMARK    4  A    between atoms: C5_5  and  C6_6 
REMARK    5  A    between atoms: C6_6  and  N1_7 
REMARK    6  A    between atoms: C10_13  and  N3_14 
REMARK    7  A    between atoms: N3_14  and  C11_16 
REMARK    8  A    between atoms: C11_16  and  C12_17 
REMARK    9  A    between atoms: C12_17  and  O1_18 
REMARK   10  A    between atoms: N5_27  and  C18_28 
REMARK   11  A    between atoms: C18_28  and  C19_29 
REMARK   12  A    between atoms: C19_29  and  C20_30 
REMARK   13  A    between atoms: C20_30  and  N6_31 
REMARK       I    between atoms: N6_31  and  C21_33 
REMARK   14  A    between atoms: C21_33  and  O3_35 
REMARK   15  A    between atoms: O3_35  and  C22_36 
ROOT
HETATM    1  C4  UNL     1       1.435  -0.911  -0.351  1.00  0.00     0.002 C 
ENDROOT
BRANCH   1   2
HETATM    2  C3  UNL     1       0.601  -1.001   0.883  1.00  0.00     0.009 C 
BRANCH   2   3
HETATM    3  C2  UNL     1      -0.749  -1.557   0.591  1.00  0.00    -0.041 C 
HETATM    4  C1  UNL     1      -0.569  -2.935  -0.004  1.00  0.00     0.015 C 
HETATM    5  C16 UNL     1      -1.484  -1.647   1.933  1.00  0.00     0.039 C 
HETATM    6  C17 UNL     1      -2.793  -2.315   1.744  1.00  0.00     0.273 C 
HETATM    7  N5  UNL     1      -3.672  -1.666   0.769  1.00  0.00     0.088 N 
HETATM    8  C26 UNL     1      -2.947  -1.430  -0.467  1.00  0.00     0.273 C 
HETATM    9  C27 UNL     1      -1.625  -0.751  -0.298  1.00  0.00     0.039 C 
BRANCH   7  10
HETATM   10  C18 UNL     1      -4.246  -0.461   1.332  1.00  0.00     0.274 C 
BRANCH  10  11
HETATM   11  C19 UNL     1      -5.418  -0.041   0.444  1.00  0.00     0.050 C 
BRANCH  11  12
HETATM   12  C20 UNL     1      -6.446  -1.181   0.440  1.00  0.00     0.127 C 
BRANCH  12  13
HETATM   13  N6  UNL     1      -7.581  -0.894  -0.360  1.00  0.00    -0.337 N 
HETATM   14  C21 UNL     1      -8.439   0.190  -0.097  1.00  0.00     0.361 C 
HETATM   15  O2  UNL     1      -8.232   0.976   0.888  1.00  0.00    -0.238 OA
ATOM     16  H6  UNL     1      -7.784  -1.497  -1.157  1.00  0.00     0.164 HD
BRANCH  14  17
HETATM   17  O3  UNL     1      -9.539   0.443  -0.891  1.00  0.00    -0.294 OA
BRANCH  17  18
HETATM   18  C22 UNL     1     -10.374   1.521  -0.606  1.00  0.00     0.061 C 
HETATM   19  C23 UNL     1     -11.489   1.519  -1.653  1.00  0.00     0.046 C 
HETATM   20  C24 UNL     1     -11.012   1.379   0.750  1.00  0.00     0.046 C 
HETATM   21  C25 UNL     1      -9.686   2.871  -0.701  1.00  0.00     0.046 C 
ENDBRANCH  17  18
ENDBRANCH  14  17
ENDBRANCH  12  13
ENDBRANCH  11  12
ENDBRANCH  10  11
ENDBRANCH   7  10
ENDBRANCH   2   3
ENDBRANCH   1   2
BRANCH   1  22
HETATM   22  C5  UNL     1       2.810  -0.352   0.042  1.00  0.00     0.030 C 
BRANCH  22  23
HETATM   23  C6  UNL     1       3.644  -0.281  -1.193  1.00  0.00     0.273 C 
BRANCH  23  24
HETATM   24  N1  UNL     1       4.967   0.230  -0.948  1.00  0.00     0.094 N 
HETATM   25  C7  UNL     1       5.021   1.607  -0.592  1.00  0.00     0.279 C 
HETATM   26  C8  UNL     1       6.214   1.943   0.235  1.00  0.00     0.089 C 
HETATM   27  C9  UNL     1       7.412   1.111  -0.077  1.00  0.00     0.037 A 
HETATM   28  N2  UNL     1       8.652   1.614  -0.194  1.00  0.00    -0.343 N 
HETATM   29  C14 UNL     1       7.160  -0.247  -0.243  1.00  0.00     0.060 A 
HETATM   30  C10 UNL     1       9.717   0.806  -0.481  1.00  0.00     0.117 A 
ATOM     31  H2  UNL     1       8.802   2.615  -0.067  1.00  0.00     0.167 HD
HETATM   32  C13 UNL     1       9.439  -0.531  -0.639  1.00  0.00     0.136 A 
HETATM   33  N4  UNL     1       8.178  -1.044  -0.521  1.00  0.00    -0.363 N 
ATOM     34  H4  UNL     1       8.022  -2.044  -0.648  1.00  0.00     0.165 HD
HETATM   35  C15 UNL     1       5.738  -0.653  -0.085  1.00  0.00     0.331 C 
BRANCH  30  36
HETATM   36  N3  UNL     1      10.876   1.341  -0.582  1.00  0.00    -0.373 N 
ATOM     37  H3  UNL     1      10.927   2.350  -0.439  1.00  0.00     0.161 HD
BRANCH  36  38
HETATM   38  C11 UNL     1      12.095   0.678  -0.872  1.00  0.00     0.147 C 
BRANCH  38  39
HETATM   39  C12 UNL     1      13.011   0.742   0.336  1.00  0.00     0.183 C 
BRANCH  39  40
HETATM   40  O1  UNL     1      13.252   2.089   0.626  1.00  0.00    -0.399 OA
ATOM     41  H1  UNL     1      13.825   2.129   1.382  1.00  0.00     0.209 HD
ENDBRANCH  39  40
ENDBRANCH  38  39
ENDBRANCH  36  38
ENDBRANCH  30  36
ENDBRANCH  23  24
ENDBRANCH  22  23
ENDBRANCH   1  22
TORSDOF 15
