REMARK  17 active torsions:
REMARK  status: ('A' for Active; 'I' for Inactive)
REMARK    1  A    between atoms: O1_2  and  C2_3 
REMARK    2  A    between atoms: C6_7  and  C7_8 
REMARK    3  A    between atoms: C7_8  and  C8_9 
REMARK    4  A    between atoms: C10_14  and  C11_15 
REMARK    5  A    between atoms: C11_15  and  C12_16 
REMARK    6  A    between atoms: C15_21  and  O3_22 
REMARK    7  A    between atoms: C16_24  and  C17_25 
REMARK    8  A    between atoms: C17_25  and  C18_26 
REMARK    9  A    between atoms: C22_31  and  O4_32 
REMARK   10  A    between atoms: C23_34  and  C24_35 
REMARK   11  A    between atoms: C24_35  and  C25_36 
REMARK   12  A    between atoms: C25_36  and  C26_37 
REMARK   13  A    between atoms: C26_37  and  N4_38 
REMARK   14  A    between atoms: C27_44  and  O5_45 
REMARK   15  A    between atoms: C28_47  and  C29_48 
REMARK   16  A    between atoms: C29_48  and  C30_49 
REMARK   17  A    between atoms: C30_49  and  C31_50 
ROOT
HETATM    1  C8  UNL     1       2.435  -0.652   0.260  1.00  0.00     0.181 C 
HETATM    2  N1  UNL     1       2.160  -1.890   0.935  1.00  0.00    -0.346 N 
ATOM      3  H1  UNL     1       2.506  -1.987   1.890  1.00  0.00     0.163 HD
HETATM    4  C9  UNL     1       1.458  -2.976   0.395  1.00  0.00     0.241 C 
HETATM    5  O2  UNL     1       1.775  -4.170   0.608  1.00  0.00    -0.271 OA
HETATM    6  C10 UNL     1       0.256  -2.763  -0.493  1.00  0.00     0.175 C 
HETATM    7  N2  UNL     1      -0.860  -3.074   0.410  1.00  0.00    -0.359 N 
ATOM      8  H2  UNL     1      -1.073  -4.063   0.541  1.00  0.00     0.162 HD
HETATM    9  C15 UNL     1      -1.663  -2.170   1.110  1.00  0.00     0.135 C 
HETATM   10  C16 UNL     1      -2.491  -1.135   0.487  1.00  0.00     0.160 C 
HETATM   11  N3  UNL     1      -3.144  -0.228   1.446  1.00  0.00    -0.356 N 
HETATM   12  C21 UNL     1      -3.702  -0.805   2.647  1.00  0.00     0.152 C 
HETATM   13  C22 UNL     1      -3.296   1.168   1.237  1.00  0.00     0.137 C 
HETATM   14  C23 UNL     1      -2.231   2.157   0.949  1.00  0.00     0.158 C 
HETATM   15  N5  UNL     1      -0.988   1.935   1.625  1.00  0.00    -0.357 N 
ATOM     16  H5  UNL     1      -1.044   1.170   2.297  1.00  0.00     0.162 HD
HETATM   17  C27 UNL     1       0.264   2.506   1.586  1.00  0.00     0.159 C 
HETATM   18  C28 UNL     1       1.354   2.553   0.607  1.00  0.00     0.062 C 
HETATM   19  N6  UNL     1       2.549   1.810   1.032  1.00  0.00    -0.325 N 
ATOM     20  H6  UNL     1       3.391   2.366   1.184  1.00  0.00     0.169 HD
HETATM   21  C34 UNL     1       2.673   0.448   1.251  1.00  0.00     0.245 C 
HETATM   22  O6  UNL     1       3.029   0.040   2.417  1.00  0.00    -0.271 OA
ENDROOT
BRANCH   1  23
HETATM   23  C7  UNL     1       3.719  -0.882  -0.559  1.00  0.00     0.073 C 
BRANCH  23  24
HETATM   24  C6  UNL     1       4.865  -1.250   0.270  1.00  0.00    -0.053 A 
HETATM   25  C5  UNL     1       5.142  -2.562   0.518  1.00  0.00     0.007 A 
HETATM   26  C4  UNL     1       6.218  -2.896   1.304  1.00  0.00     0.003 A 
HETATM   27  C3  UNL     1       7.033  -1.950   1.856  1.00  0.00     0.037 A 
HETATM   28  C2  UNL     1       6.729  -0.622   1.588  1.00  0.00     0.068 A 
HETATM   29  C35 UNL     1       5.655  -0.262   0.802  1.00  0.00     0.044 A 
BRANCH  28  30
HETATM   30  O1  UNL     1       7.504   0.408   2.108  1.00  0.00    -0.356 OA
HETATM   31  C1  UNL     1       8.627   0.061   2.930  1.00  0.00     0.210 C 
ENDBRANCH  28  30
ENDBRANCH  23  24
ENDBRANCH   1  23
BRANCH   6  32
HETATM   32  C11 UNL     1       0.409  -3.841  -1.566  1.00  0.00     0.038 C 
BRANCH  32  33
HETATM   33  C12 UNL     1      -0.648  -3.826  -2.611  1.00  0.00    -0.020 C 
HETATM   34  C13 UNL     1      -0.655  -2.504  -3.378  1.00  0.00     0.009 C 
HETATM   35  C14 UNL     1      -0.359  -4.928  -3.600  1.00  0.00     0.009 C 
ENDBRANCH  32  33
ENDBRANCH   6  32
BRANCH  18  36
HETATM   36  C29 UNL     1       1.092   2.530  -0.838  1.00  0.00     0.062 C 
BRANCH  36  37
HETATM   37  C30 UNL     1       0.334   3.706  -1.393  1.00  0.00     0.010 C 
BRANCH  37  38
HETATM   38  C31 UNL     1       0.101   3.575  -2.885  1.00  0.00    -0.023 C 
HETATM   39  C32 UNL     1       1.386   3.485  -3.643  1.00  0.00     0.009 C 
HETATM   40  C33 UNL     1      -0.730   4.733  -3.337  1.00  0.00     0.009 C 
ENDBRANCH  37  38
ENDBRANCH  36  37
ENDBRANCH  18  36
BRANCH  17  41
HETATM   41  O5  UNL     1       0.589   3.170   2.677  1.00  0.00    -0.345 OA
ATOM     42  H5  UNL     1       1.453   3.564   2.650  1.00  0.00     0.219 HD
ENDBRANCH  17  41
BRANCH   9  43
HETATM   43  O3  UNL     1      -1.658  -2.275   2.407  1.00  0.00    -0.348 OA
ATOM     44  H3  UNL     1      -2.204  -1.660   2.883  1.00  0.00     0.219 HD
ENDBRANCH   9  43
BRANCH  10  45
HETATM   45  C17 UNL     1      -3.484  -1.591  -0.537  1.00  0.00     0.037 C 
BRANCH  45  46
HETATM   46  C18 UNL     1      -4.546  -2.534  -0.127  1.00  0.00    -0.020 C 
HETATM   47  C19 UNL     1      -5.435  -2.797  -1.387  1.00  0.00     0.009 C 
HETATM   48  C20 UNL     1      -4.084  -3.919   0.266  1.00  0.00     0.009 C 
ENDBRANCH  45  46
ENDBRANCH  10  45
BRANCH  14  49
HETATM   49  C24 UNL     1      -2.802   3.535   1.220  1.00  0.00     0.035 C 
BRANCH  49  50
HETATM   50  C25 UNL     1      -3.226   3.793   2.615  1.00  0.00     0.030 C 
BRANCH  50  51
HETATM   51  C26 UNL     1      -3.787   5.199   2.796  1.00  0.00     0.230 C 
BRANCH  51  52
HETATM   52  N4  UNL     1      -4.946   5.417   1.950  1.00  0.00    -0.079 N 
ATOM     53  H43 UNL     1      -4.737   5.220   0.971  1.00  0.00     0.274 HD
ATOM     54  H42 UNL     1      -5.661   4.706   2.104  1.00  0.00     0.274 HD
ATOM     55  H41 UNL     1      -5.321   6.358   2.071  1.00  0.00     0.274 HD
ENDBRANCH  51  52
ENDBRANCH  50  51
ENDBRANCH  49  50
ENDBRANCH  14  49
BRANCH  13  56
HETATM   56  O4  UNL     1      -4.531   1.579   1.315  1.00  0.00    -0.348 OA
ATOM     57  H4  UNL     1      -4.633   2.513   1.175  1.00  0.00     0.219 HD
ENDBRANCH  13  56
TORSDOF 17
