REMARK  4 active torsions:
REMARK  status: ('A' for Active; 'I' for Inactive)
REMARK    1  A    between atoms: C2_2  and  C3_3 
REMARK    2  A    between atoms: C4_4  and  N1_5 
REMARK    3  A    between atoms: C8_17  and  N6_18 
REMARK    4  A    between atoms: N8_26  and  N9_27 
ROOT
HETATM    1  N1  UNL     1       1.855  -0.054   0.261  1.00  0.00    -0.201 N 
HETATM    2  N2  UNL     1       0.838  -0.785   0.766  1.00  0.00    -0.118 N 
ATOM      3  H2  UNL     1       0.953  -1.599   1.369  1.00  0.00     0.206 HD
HETATM    4  C5  UNL     1      -0.343  -0.295   0.367  1.00  0.00     0.741 A 
HETATM    5  N3  UNL     1      -0.052   0.747  -0.392  1.00  0.00    -0.025 N 
HETATM    6  C6  UNL     1       1.303   0.909  -0.467  1.00  0.00     0.382 A 
HETATM    7  O1  UNL     1       1.869   1.812  -1.115  1.00  0.00    -0.242 OA
HETATM    8  N4  UNL     1      -1.113   1.460  -0.952  1.00  0.00    -0.257 N 
ATOM      9  H4  UNL     1      -0.906   2.267  -1.541  1.00  0.00     0.190 HD
HETATM   10  C7  UNL     1      -2.472   1.104  -0.733  1.00  0.00     0.171 A 
HETATM   11  N5  UNL     1      -3.510   1.775  -1.261  1.00  0.00    -0.173 N 
ATOM     12  H5  UNL     1      -3.311   2.583  -1.850  1.00  0.00     0.186 HD
HETATM   13  C8  UNL     1      -4.797   1.439  -1.055  1.00  0.00     0.680 A 
HETATM   14  N7  UNL     1      -5.051   0.372  -0.276  1.00  0.00    -0.154 N 
ATOM     15  H7  UNL     1      -6.019   0.098  -0.105  1.00  0.00     0.187 HD
HETATM   16  C9  UNL     1      -4.056  -0.342   0.282  1.00  0.00     0.292 A 
HETATM   17  O2  UNL     1      -4.287  -1.340   1.010  1.00  0.00    -0.265 OA
HETATM   18  C10 UNL     1      -2.740   0.003   0.070  1.00  0.00     0.183 A 
HETATM   19  N8  UNL     1      -1.670  -0.758   0.666  1.00  0.00    -0.094 N 
ENDROOT
BRANCH   1  20
HETATM   20  C4  UNL     1       3.219  -0.337   0.513  1.00  0.00     0.118 C 
HETATM   21  C3  UNL     1       4.184   0.373   0.021  1.00  0.00    -0.008 C 
BRANCH  21  22
HETATM   22  C2  UNL     1       5.597  -0.018   0.355  1.00  0.00     0.024 C 
HETATM   23  C1  UNL     1       6.217   1.162   1.059  1.00  0.00     0.009 C 
ENDBRANCH  21  22
ENDBRANCH   1  20
BRANCH  19  24
HETATM   24  N9  UNL     1      -1.876  -1.775   1.407  1.00  0.00    -0.206 NA
HETATM   25  C11 UNL     1      -1.491  -3.035   0.641  1.00  0.00     0.131 A 
HETATM   26  C12 UNL     1      -1.834  -2.933   2.013  1.00  0.00     0.131 A 
ENDBRANCH  19  24
BRANCH  13  27
HETATM   27  N6  UNL     1      -5.773   2.125  -1.592  1.00  0.00    -0.234 N 
ATOM     28  H62 UNL     1      -5.580   2.934  -2.183  1.00  0.00     0.174 HD
ATOM     29  H61 UNL     1      -6.748   1.870  -1.436  1.00  0.00     0.174 HD
ENDBRANCH  13  27
TORSDOF 4
