REMARK  7 active torsions:
REMARK  status: ('A' for Active; 'I' for Inactive)
REMARK    1  A    between atoms: C2_3  and  C3_4 
REMARK    2  A    between atoms: C4_5  and  C5_6 
REMARK    3  A    between atoms: C7_8  and  N2_9 
REMARK    4  A    between atoms: C9_15  and  C10_16 
REMARK    5  A    between atoms: C9_15  and  C11_19 
REMARK    6  A    between atoms: C10_16  and  O1_17 
REMARK    7  A    between atoms: C11_19  and  O2_20 
ROOT
HETATM    1  C1  UNL     1      -1.550   1.458  -1.494  1.00  0.00     0.312 C 
HETATM    2  N1  UNL     1      -1.244   0.299  -0.712  1.00  0.00     0.109 N 
HETATM    3  C2  UNL     1      -0.525   0.720   0.508  1.00  0.00     0.267 C 
HETATM    4  C8  UNL     1      -1.323  -0.282   1.253  1.00  0.00     0.162 C 
HETATM    5 CL1  UNL     1      -2.012   0.334   2.789  1.00  0.00    -0.119 Cl
HETATM    6  C9  UNL     1      -2.318  -0.225   0.105  1.00  0.00     0.220 C 
ENDROOT
BRANCH   3   7
HETATM    7  C3  UNL     1       0.910   0.518   0.309  1.00  0.00     0.006 C 
HETATM    8  C4  UNL     1       1.554  -0.606   0.304  1.00  0.00    -0.022 C 
BRANCH   8   9
HETATM    9  C5  UNL     1       3.006  -0.737   0.097  1.00  0.00     0.040 A 
HETATM   10  C6  UNL     1       3.887  -0.270   1.259  1.00  0.00     0.044 A 
HETATM   11  C7  UNL     1       3.881   0.418  -0.122  1.00  0.00     0.191 A 
BRANCH  11  12
HETATM   12  N2  UNL     1       5.161   0.271  -0.794  1.00  0.00    -0.074 N 
ATOM     13  H23 UNL     1       5.697  -0.443  -0.301  1.00  0.00     0.274 HD
ATOM     14  H22 UNL     1       4.996  -0.176  -1.696  1.00  0.00     0.274 HD
ATOM     15  H21 UNL     1       5.770   1.075  -0.946  1.00  0.00     0.274 HD
ENDBRANCH  11  12
ENDBRANCH   8   9
ENDBRANCH   3   7
BRANCH   6  16
HETATM   16  C10 UNL     1      -3.483   0.675   0.333  1.00  0.00     0.210 C 
BRANCH  16  17
HETATM   17  O1  UNL     1      -4.085   1.021  -0.870  1.00  0.00    -0.398 OA
ATOM     18  H1  UNL     1      -4.828   1.595  -0.725  1.00  0.00     0.209 HD
ENDBRANCH  16  17
ENDBRANCH   6  16
BRANCH   6  19
HETATM   19  C11 UNL     1      -2.685  -1.622  -0.318  1.00  0.00     0.210 C 
BRANCH  19  20
HETATM   20  O2  UNL     1      -1.639  -2.531  -0.219  1.00  0.00    -0.398 OA
ATOM     21  H2  UNL     1      -1.871  -3.413  -0.486  1.00  0.00     0.209 HD
ENDBRANCH  19  20
ENDBRANCH   6  19
TORSDOF 7
