REMARK  2 active torsions:
REMARK  status: ('A' for Active; 'I' for Inactive)
REMARK    1  A    between atoms: C2_2  and  C3_3 
REMARK    2  A    between atoms: C3_3  and  C4_4 
ROOT
HETATM    1  C4  UNL     1       0.416   0.168  -0.649  1.00  0.00     0.020 C 
HETATM    2  C5  UNL     1      -0.523   1.311  -0.322  1.00  0.00    -0.006 C 
HETATM    3  C6  UNL     1      -1.813   1.149  -1.094  1.00  0.00     0.010 C 
HETATM    4  C7  UNL     1      -2.414  -0.195  -0.747  1.00  0.00    -0.010 C 
HETATM    5  C8  UNL     1      -2.798  -0.138   0.725  1.00  0.00     0.037 C 
HETATM    6  C9  UNL     1      -1.533   0.051   1.510  1.00  0.00     0.187 C 
HETATM    7  C10 UNL     1      -0.854   1.358   1.135  1.00  0.00     0.038 C 
HETATM    8  N1  UNL     1      -0.557  -0.998   1.270  1.00  0.00    -0.066 N 
ATOM      9  H11 UNL     1      -0.870  -1.894   1.644  1.00  0.00     0.278 HD
ATOM     10  H12 UNL     1       0.277  -0.872   1.843  1.00  0.00     0.278 HD
HETATM   11  C11 UNL     1      -0.224  -1.096  -0.149  1.00  0.00     0.191 C 
HETATM   12  C12 UNL     1      -1.475  -1.331  -0.974  1.00  0.00     0.038 C 
ENDROOT
BRANCH   1  13
HETATM   13  C3  UNL     1       1.792   0.420  -0.136  1.00  0.00     0.007 C 
BRANCH  13  14
HETATM   14  C2  UNL     1       2.710  -0.720  -0.467  1.00  0.00    -0.004 C 
HETATM   15  C1  UNL     1       4.116  -0.486   0.041  1.00  0.00     0.005 C 
ENDBRANCH  13  14
ENDBRANCH   1  13
TORSDOF 2
