REMARK  3 active torsions:
REMARK  status: ('A' for Active; 'I' for Inactive)
REMARK    1  A    between atoms: C2_2  and  C3_3 
REMARK    2  A    between atoms: C7_7  and  C8_8 
REMARK    3  A    between atoms: C8_8  and  N1_9 
ROOT
HETATM    1  C3  UNL     1      -1.275   0.085   0.078  1.00  0.00     0.008 C 
HETATM    2  C4  UNL     1      -1.250  -1.352   0.478  1.00  0.00     0.008 C 
HETATM    3  C5  UNL     1       0.082  -1.859   0.907  1.00  0.00     0.001 C 
HETATM    4  C6  UNL     1       1.051  -0.833   1.341  1.00  0.00     0.006 C 
HETATM    5  C7  UNL     1       1.138   0.389   0.499  1.00  0.00     0.011 C 
HETATM    6  C9  UNL     1       0.044   0.508  -0.529  1.00  0.00     0.014 C 
ENDROOT
BRANCH   5   7
HETATM    7  C8  UNL     1       2.495   0.544  -0.162  1.00  0.00     0.234 C 
BRANCH   7   8
HETATM    8  N1  UNL     1       2.469   1.767  -0.958  1.00  0.00    -0.079 N 
ATOM      9  H13 UNL     1       1.699   1.787  -1.627  1.00  0.00     0.274 HD
ATOM     10  H12 UNL     1       2.198   2.587  -0.415  1.00  0.00     0.274 HD
ATOM     11  H11 UNL     1       3.381   1.871  -1.402  1.00  0.00     0.274 HD
ENDBRANCH   7   8
ENDBRANCH   5   7
BRANCH   1  12
HETATM   12  C2  UNL     1      -2.359   0.255  -0.934  1.00  0.00    -0.032 C 
HETATM   13  C1  UNL     1      -3.393   1.047  -0.745  1.00  0.00     0.007 C 
ENDBRANCH   1  12
TORSDOF 3
