REMARK  1 active torsions:
REMARK  status: ('A' for Active; 'I' for Inactive)
REMARK    1  A    between atoms: C1_2  and  C2_4 
ROOT
HETATM    1  C2  UNL     1       0.348   0.068  -0.384  1.00  0.00     0.255 C 
HETATM    2  O1  UNL     1      -0.446  -1.092  -0.324  1.00  0.00    -0.285 OA
HETATM    3  C3  UNL     1      -1.718  -0.538  -0.247  1.00  0.00     0.491 C 
HETATM    4  F3  UNL     1      -2.635  -1.450   0.181  1.00  0.00    -0.148 F 
HETATM    5  F4  UNL     1      -2.028  -0.021  -1.505  1.00  0.00    -0.148 F 
HETATM    6  O2  UNL     1      -1.611   0.462   0.703  1.00  0.00    -0.263 OA
HETATM    7  C4  UNL     1      -0.295   0.909   0.693  1.00  0.00     0.350 C 
HETATM    8  F5  UNL     1      -0.311   2.246   0.385  1.00  0.00    -0.216 F 
ENDROOT
BRANCH   1   9
HETATM    9  C1  UNL     1       1.745  -0.366  -0.035  1.00  0.00     0.387 C 
HETATM   10  F1  UNL     1       1.762  -0.908   1.224  1.00  0.00    -0.211 F 
HETATM   11  F2  UNL     1       2.657   0.625  -0.231  1.00  0.00    -0.211 F 
ENDBRANCH   1   9
TORSDOF 1
