REMARK  14 active torsions:
REMARK  status: ('A' for Active; 'I' for Inactive)
REMARK    1  A    between atoms: N1_2  and  C3_4 
REMARK    2  A    between atoms: C3_4  and  C4_5 
REMARK    3  A    between atoms: C4_5  and  C5_6 
REMARK    4  A    between atoms: C5_6  and  N2_7 
REMARK    5  A    between atoms: N2_7  and  C6_9 
REMARK    6  A    between atoms: C7_12  and  N4_13 
REMARK    7  A    between atoms: N4_13  and  C8_15 
REMARK    8  A    between atoms: C8_15  and  C9_16 
REMARK    9  A    between atoms: C9_16  and  C10_17 
REMARK   10  A    between atoms: C10_17  and  C11_18 
REMARK   11  A    between atoms: C11_18  and  C12_19 
REMARK   12  A    between atoms: C12_19  and  C13_20 
REMARK   13  A    between atoms: C13_20  and  C14_21 
REMARK   14  A    between atoms: C17_24  and  N5_25 
ROOT
HETATM    1  C6  UNL     1      -4.692  -1.760  -0.210  1.00  0.00     0.147 A 
HETATM    2  N3  UNL     1      -3.373  -1.530  -0.317  1.00  0.00    -0.175 N 
ATOM      3  H3  UNL     1      -2.931  -0.883   0.336  1.00  0.00     0.186 HD
HETATM    4  C7  UNL     1      -2.613  -2.127  -1.261  1.00  0.00     0.682 A 
HETATM    5  N6  UNL     1      -3.226  -2.977  -2.109  1.00  0.00    -0.174 N 
ATOM      6  H6  UNL     1      -2.660  -3.433  -2.825  1.00  0.00     0.186 HD
HETATM    7  C23 UNL     1      -4.534  -3.258  -2.066  1.00  0.00     0.152 A 
HETATM    8  N7  UNL     1      -5.378  -4.039  -2.765  1.00  0.00    -0.336 N 
ATOM      9  H7  UNL     1      -5.108  -4.626  -3.554  1.00  0.00     0.168 HD
HETATM   10  C24 UNL     1      -6.626  -3.938  -2.278  1.00  0.00     0.184 A 
HETATM   11  N8  UNL     1      -6.572  -3.064  -1.238  1.00  0.00    -0.341 N 
HETATM   12  C25 UNL     1      -7.684  -2.644  -0.408  1.00  0.00     0.157 C 
HETATM   13  C26 UNL     1      -5.307  -2.651  -1.108  1.00  0.00     0.125 A 
ENDROOT
BRANCH   4  14
HETATM   14  N4  UNL     1      -1.353  -1.885  -1.338  1.00  0.00    -0.215 N 
ATOM     15  H4  UNL     1      -0.778  -2.336  -2.050  1.00  0.00     0.178 HD
BRANCH  14  16
HETATM   16  C8  UNL     1      -0.769  -0.960  -0.393  1.00  0.00     0.232 C 
BRANCH  16  17
HETATM   17  C9  UNL     1       0.665  -0.738  -0.701  1.00  0.00    -0.086 C 
BRANCH  17  18
HETATM   18  C10 UNL     1       1.827  -0.569  -0.971  1.00  0.00    -0.105 C 
BRANCH  18  19
HETATM   19  C11 UNL     1       3.256  -0.376  -1.326  1.00  0.00     0.094 C 
BRANCH  19  20
HETATM   20  C12 UNL     1       3.931  -1.708  -1.089  1.00  0.00     0.017 C 
BRANCH  20  21
HETATM   21  C13 UNL     1       5.388  -1.720  -1.403  1.00  0.00     0.039 C 
BRANCH  21  22
HETATM   22  C14 UNL     1       6.088  -0.733  -0.563  1.00  0.00    -0.058 A 
HETATM   23  C15 UNL     1       6.590  -1.079   0.683  1.00  0.00     0.009 A 
HETATM   24  C16 UNL     1       7.245  -0.106   1.417  1.00  0.00     0.038 A 
HETATM   25  C17 UNL     1       7.419   1.168   0.972  1.00  0.00     0.135 A 
HETATM   26  C21 UNL     1       6.909   1.499  -0.281  1.00  0.00     0.038 A 
HETATM   27  C22 UNL     1       6.255   0.548  -1.024  1.00  0.00     0.009 A 
BRANCH  25  28
HETATM   28  N5  UNL     1       8.095   2.178   1.715  1.00  0.00    -0.049 N 
HETATM   29  C18 UNL     1       8.811   3.051   0.800  1.00  0.00     0.278 C 
HETATM   30  C19 UNL     1       7.239   2.940   2.576  1.00  0.00     0.278 C 
HETATM   31  C20 UNL     1       9.118   1.485   2.514  1.00  0.00     0.278 C 
ENDBRANCH  25  28
ENDBRANCH  21  22
ENDBRANCH  20  21
ENDBRANCH  19  20
ENDBRANCH  18  19
ENDBRANCH  17  18
ENDBRANCH  16  17
ENDBRANCH  14  16
ENDBRANCH   4  14
BRANCH   1  32
HETATM   32  N2  UNL     1      -5.437  -1.215   0.663  1.00  0.00    -0.374 N 
ATOM     33  H2  UNL     1      -6.427  -1.460   0.656  1.00  0.00     0.161 HD
BRANCH  32  34
HETATM   34  C5  UNL     1      -4.997  -0.291   1.647  1.00  0.00     0.123 C 
BRANCH  34  35
HETATM   35  C4  UNL     1      -5.900   0.940   1.626  1.00  0.00     0.050 C 
BRANCH  35  36
HETATM   36  C3  UNL     1      -5.849   1.610   0.268  1.00  0.00     0.273 C 
BRANCH  36  37
HETATM   37  N1  UNL     1      -6.710   2.773   0.249  1.00  0.00     0.080 N 
HETATM   38  C1  UNL     1      -8.122   2.379   0.331  1.00  0.00     0.309 C 
HETATM   39  C2  UNL     1      -6.526   3.428  -1.036  1.00  0.00     0.309 C 
ENDBRANCH  36  37
ENDBRANCH  35  36
ENDBRANCH  34  35
ENDBRANCH  32  34
ENDBRANCH   1  32
TORSDOF 14
