REMARK  5 active torsions:
REMARK  status: ('A' for Active; 'I' for Inactive)
REMARK    1  A    between atoms: C2_2  and  C3_3 
REMARK    2  A    between atoms: C3_3  and  N1_4 
REMARK    3  A    between atoms: N1_4  and  C5_6 
REMARK    4  A    between atoms: C5_6  and  C6_7 
REMARK    5  A    between atoms: C6_7  and  N2_8 
ROOT
HETATM    1  N2  UNL     1       1.520  -1.152   0.887  1.00  0.00    -0.223 N 
ATOM      2  H2  UNL     1       1.870  -1.827   1.567  1.00  0.00     0.177 HD
HETATM    3  C7  UNL     1       2.429  -0.525   0.294  1.00  0.00     0.693 A 
HETATM    4  N3  UNL     1       2.435   0.436  -0.660  1.00  0.00    -0.185 N 
ATOM      5  H3  UNL     1       1.597   0.834  -1.084  1.00  0.00     0.185 HD
HETATM    6  C8  UNL     1       3.690   0.796  -0.974  1.00  0.00     0.215 A 
HETATM    7  N4  UNL     1       4.495   0.051  -0.207  1.00  0.00    -0.281 N 
ATOM      8  H4  UNL     1       5.514   0.088  -0.209  1.00  0.00     0.188 HD
HETATM    9  N5  UNL     1       3.759  -0.739   0.552  1.00  0.00    -0.131 N 
ATOM     10  H5  UNL     1       4.125  -1.409   1.229  1.00  0.00     0.205 HD
ENDROOT
BRANCH   1  11
HETATM   11  C6  UNL     1       0.108  -1.114   0.806  1.00  0.00     0.157 C 
BRANCH  11  12
HETATM   12  C5  UNL     1      -0.385  -0.476  -0.441  1.00  0.00     0.136 C 
BRANCH  12  13
HETATM   13  N1  UNL     1      -1.799  -0.433  -0.591  1.00  0.00    -0.412 N 
HETATM   14  C4  UNL     1      -2.428  -1.682  -0.863  1.00  0.00     0.143 C 
BRANCH  13  15
HETATM   15  C3  UNL     1      -2.507   0.418   0.301  1.00  0.00     0.143 C 
BRANCH  15  16
HETATM   16  C2  UNL     1      -1.875   1.716   0.579  1.00  0.00    -0.018 C 
HETATM   17  C1  UNL     1      -2.421   2.883   0.320  1.00  0.00     0.008 C 
ENDBRANCH  15  16
ENDBRANCH  13  15
ENDBRANCH  12  13
ENDBRANCH  11  12
ENDBRANCH   1  11
TORSDOF 5
