REMARK  7 active torsions:
REMARK  status: ('A' for Active; 'I' for Inactive)
REMARK    1  A    between atoms: C2_2  and  C3_4 
REMARK    2  A    between atoms: C3_4  and  O2_5 
REMARK    3  A    between atoms: C13_16  and  N1_17 
REMARK       I    between atoms: N1_17  and  C14_19 
REMARK    4  A    between atoms: C14_19  and  C15_21 
REMARK    5  A    between atoms: C15_21  and  C17_23 
REMARK    6  A    between atoms: C17_23  and  C18_24 
REMARK    7  A    between atoms: N2_25  and  N3_27 
ROOT
HETATM    1  C3  UNL     1      -5.449   0.814  -0.619  1.00  0.00     0.125 C 
HETATM    2  C4  UNL     1      -5.855  -0.652  -0.647  1.00  0.00     0.047 C 
HETATM    3  C5  UNL     1      -4.569  -1.448  -0.409  1.00  0.00     0.009 C 
HETATM    4  C6  UNL     1      -3.521  -0.394  -0.594  1.00  0.00     0.002 C 
HETATM    5  C7  UNL     1      -2.137  -0.729  -0.317  1.00  0.00    -0.005 C 
HETATM    6  C8  UNL     1      -1.806  -1.740   0.720  1.00  0.00     0.006 C 
HETATM    7  C9  UNL     1      -0.658  -1.390   1.588  1.00  0.00     0.006 C 
HETATM    8  C10 UNL     1       0.504  -0.719   0.930  1.00  0.00    -0.000 C 
HETATM    9  C11 UNL     1       1.540  -1.681   0.471  1.00  0.00     0.009 C 
HETATM   10  C12 UNL     1       0.977  -2.999  -0.044  1.00  0.00     0.012 C 
HETATM   11  C13 UNL     1       2.551  -1.145  -0.487  1.00  0.00     0.088 C 
HETATM   12  C19 UNL     1       2.089  -0.085  -1.410  1.00  0.00     0.026 C 
HETATM   13  C20 UNL     1       0.586   0.054  -1.463  1.00  0.00     0.012 C 
HETATM   14  C21 UNL     1       0.102   0.332  -0.081  1.00  0.00    -0.036 C 
HETATM   15  C22 UNL     1       0.713   1.709   0.263  1.00  0.00     0.016 C 
HETATM   16  C23 UNL     1      -1.375   0.532   0.057  1.00  0.00    -0.002 C 
HETATM   17  C24 UNL     1      -1.947   1.665  -0.711  1.00  0.00     0.007 C 
HETATM   18  C25 UNL     1      -3.303   1.991  -0.079  1.00  0.00     0.013 C 
HETATM   19  C26 UNL     1      -4.140   0.765   0.155  1.00  0.00    -0.002 C 
HETATM   20  C27 UNL     1      -4.461   0.480   1.567  1.00  0.00     0.019 C 
ENDROOT
BRANCH  11  21
HETATM   21  N1  UNL     1       3.772  -0.662   0.156  1.00  0.00    -0.356 N 
HETATM   22  C14 UNL     1       5.018  -1.308  -0.016  1.00  0.00     0.222 C 
HETATM   23  O3  UNL     1       5.060  -2.328  -0.744  1.00  0.00    -0.273 OA
ATOM     24  H1  UNL     1       3.723   0.167   0.748  1.00  0.00     0.162 HD
BRANCH  22  25
HETATM   25  C15 UNL     1       6.244  -0.808   0.637  1.00  0.00     0.078 C 
HETATM   26  C16 UNL     1       6.011  -0.783   2.131  1.00  0.00     0.020 C 
BRANCH  25  27
HETATM   27  C17 UNL     1       6.685   0.525   0.086  1.00  0.00     0.059 C 
BRANCH  27  28
HETATM   28  C18 UNL     1       6.947   0.338  -1.361  1.00  0.00     0.080 C 
HETATM   29  N2  UNL     1       8.101   0.605  -1.853  1.00  0.00    -0.322 N 
ATOM     30  H2  UNL     1       8.234   0.461  -2.854  1.00  0.00     0.185 HD
BRANCH  29  31
HETATM   31  N3  UNL     1       9.184   1.077  -1.117  1.00  0.00    -0.346 N 
ATOM     32  H32 UNL     1       9.032   1.215  -0.118  1.00  0.00     0.176 HD
ATOM     33  H31 UNL     1      10.102   1.289  -1.508  1.00  0.00     0.176 HD
ENDBRANCH  29  31
ENDBRANCH  27  28
ENDBRANCH  25  27
ENDBRANCH  22  25
ENDBRANCH  11  21
BRANCH   1  34
HETATM   34  C2  UNL     1      -6.476   1.686  -0.058  1.00  0.00     0.158 C 
HETATM   35  C1  UNL     1      -6.965   2.876  -0.810  1.00  0.00     0.094 C 
HETATM   36  O1  UNL     1      -6.964   1.478   1.028  1.00  0.00    -0.295 OA
ENDBRANCH   1  34
BRANCH   1  37
HETATM   37  O2  UNL     1      -5.120   1.244  -1.929  1.00  0.00    -0.381 OA
ATOM     38  H2  UNL     1      -4.451   0.676  -2.294  1.00  0.00     0.211 HD
ENDBRANCH   1  37
TORSDOF 7
