REMARK  11 active torsions:
REMARK  status: ('A' for Active; 'I' for Inactive)
REMARK    1  A    between atoms: C2_2  and  C3_3 
REMARK    2  A    between atoms: C3_3  and  C4_4 
REMARK    3  A    between atoms: C4_4  and  C5_5 
REMARK    4  A    between atoms: C7_7  and  C8_8 
REMARK    5  A    between atoms: C8_8  and  O1_9 
REMARK    6  A    between atoms: O1_9  and  C9_10 
REMARK    7  A    between atoms: C10_11  and  C11_12 
REMARK    8  A    between atoms: C15_22  and  C16_23 
REMARK    9  A    between atoms: C18_25  and  O3_26 
REMARK   10  A    between atoms: O3_26  and  C19_27 
REMARK   11  A    between atoms: C22_32  and  C23_33 
ROOT
HETATM    1  C9  UNL     1       0.093  -2.065   0.826  1.00  0.00     0.119 C 
HETATM    2  C10 UNL     1       0.449  -3.300   0.479  1.00  0.00     0.187 C 
HETATM    3  O2  UNL     1      -0.385  -3.866  -0.509  1.00  0.00    -0.339 OA
HETATM    4  C12 UNL     1      -0.860  -3.105  -1.577  1.00  0.00     0.260 C 
HETATM    5  C13 UNL     1      -1.346  -1.731  -1.238  1.00  0.00     0.295 C 
HETATM    6  F4  UNL     1      -2.691  -1.665  -1.582  1.00  0.00    -0.198 F 
HETATM    7  F5  UNL     1      -0.684  -0.778  -2.009  1.00  0.00    -0.198 F 
HETATM    8  C14 UNL     1      -1.092  -1.424   0.183  1.00  0.00     0.052 C 
HETATM    9  C15 UNL     1      -1.822  -0.665   0.967  1.00  0.00     0.028 C 
ENDROOT
BRANCH   1  10
HETATM   10  O1  UNL     1       0.845  -1.439   1.773  1.00  0.00    -0.344 OA
BRANCH  10  11
HETATM   11  C8  UNL     1       1.339  -0.138   1.585  1.00  0.00     0.203 C 
BRANCH  11  12
HETATM   12  C7  UNL     1       2.228   0.014   0.408  1.00  0.00     0.002 C 
HETATM   13  C5  UNL     1       3.493   0.413   0.453  1.00  0.00    -0.085 C 
HETATM   14  C6  UNL     1       4.077   0.718   1.783  1.00  0.00     0.043 C 
BRANCH  13  15
HETATM   15  C4  UNL     1       4.279   0.530  -0.773  1.00  0.00     0.037 C 
BRANCH  15  16
HETATM   16  C3  UNL     1       4.813   1.878  -1.100  1.00  0.00     0.030 C 
BRANCH  16  17
HETATM   17  C2  UNL     1       5.722   2.473  -0.120  1.00  0.00    -0.037 C 
HETATM   18  C1  UNL     1       5.447   3.630   0.473  1.00  0.00     0.007 C 
ENDBRANCH  16  17
ENDBRANCH  15  16
ENDBRANCH  13  15
ENDBRANCH  11  12
ENDBRANCH  10  11
ENDBRANCH   1  10
BRANCH   9  19
HETATM   19  C16 UNL     1      -3.001   0.030   0.493  1.00  0.00    -0.016 A 
HETATM   20  C17 UNL     1      -2.949   1.071  -0.399  1.00  0.00     0.049 A 
HETATM   21  C18 UNL     1      -4.077   1.737  -0.877  1.00  0.00     0.075 A 
HETATM   22  C20 UNL     1      -5.281   1.282  -0.392  1.00  0.00     0.038 A 
HETATM   23  C21 UNL     1      -5.369   0.242   0.503  1.00  0.00     0.022 A 
HETATM   24  C22 UNL     1      -4.233  -0.397   0.957  1.00  0.00     0.051 A 
BRANCH  21  25
HETATM   25  O3  UNL     1      -3.940   2.769  -1.770  1.00  0.00    -0.290 OA
BRANCH  25  26
HETATM   26  C19 UNL     1      -4.983   3.509  -2.328  1.00  0.00     0.505 C 
HETATM   27  F6  UNL     1      -4.867   4.811  -1.809  1.00  0.00    -0.184 F 
HETATM   28  F7  UNL     1      -4.868   3.631  -3.704  1.00  0.00    -0.184 F 
ENDBRANCH  25  26
ENDBRANCH  21  25
BRANCH  24  29
HETATM   29  C23 UNL     1      -4.373  -1.501   1.890  1.00  0.00     0.210 C 
HETATM   30  O4  UNL     1      -5.507  -1.832   2.279  1.00  0.00    -0.644 OA
HETATM   31  O5  UNL     1      -3.268  -2.173   2.336  1.00  0.00    -0.644 OA
ENDBRANCH  24  29
ENDBRANCH   9  19
BRANCH   2  32
HETATM   32  C11 UNL     1       1.603  -4.018   1.063  1.00  0.00     0.441 C 
HETATM   33  F1  UNL     1       2.194  -3.260   2.021  1.00  0.00    -0.164 F 
HETATM   34  F2  UNL     1       2.531  -4.374   0.074  1.00  0.00    -0.164 F 
HETATM   35  F3  UNL     1       1.170  -5.190   1.699  1.00  0.00    -0.164 F 
ENDBRANCH   2  32
TORSDOF 11
