REMARK  2 active torsions:
REMARK  status: ('A' for Active; 'I' for Inactive)
REMARK    1  A    between atoms: C2_2  and  N1_3 
REMARK       I    between atoms: N2_6  and  C5_7 
REMARK       I    between atoms: C5_7  and  N4_11 
REMARK    2  A    between atoms: N4_11  and  N5_13 
ROOT
HETATM    1  N1  UNL     1      -2.266  -0.391   0.198  1.00  0.00    -0.391 N 
HETATM    2  C3  UNL     1      -1.978  -0.305  -1.160  1.00  0.00     0.078 C 
HETATM    3  C4  UNL     1      -0.594   0.151  -1.477  1.00  0.00     0.185 C 
HETATM    4  N2  UNL     1       0.350  -0.103  -0.415  1.00  0.00    -0.211 N 
HETATM    5  C5  UNL     1       1.648  -0.631  -0.565  1.00  0.00     0.688 C 
HETATM    6  N3  UNL     1       1.802  -1.904  -0.665  1.00  0.00    -0.233 N 
ATOM      7  H31 UNL     1       2.741  -2.286  -0.774  1.00  0.00     0.174 HD
ATOM      8  H32 UNL     1       0.987  -2.516  -0.635  1.00  0.00     0.174 HD
HETATM    9  N4  UNL     1       2.778   0.217  -0.607  1.00  0.00    -0.132 N 
ATOM     10  H4  UNL     1       3.180   0.447  -1.516  1.00  0.00     0.205 HD
HETATM   11  C7  UNL     1      -0.102   0.212   0.957  1.00  0.00     0.161 C 
HETATM   12  C8  UNL     1      -1.280  -0.762   1.134  1.00  0.00     0.142 C 
ENDROOT
BRANCH   9  13
HETATM   13  N5  UNL     1       3.369   0.755   0.538  1.00  0.00    -0.284 N 
HETATM   14  C6  UNL     1       4.641   0.749   0.680  1.00  0.00     0.207 C 
HETATM   15  N6  UNL     1       5.446   0.195  -0.332  1.00  0.00    -0.095 NA
ATOM     16  H5  UNL     1       2.781   1.157   1.268  1.00  0.00     0.187 HD
ENDBRANCH   9  13
BRANCH   1  17
HETATM   17  C2  UNL     1      -3.599  -0.306   0.654  1.00  0.00     0.117 C 
HETATM   18  C1  UNL     1      -4.108   1.101   0.452  1.00  0.00     0.026 C 
ENDBRANCH   1  17
TORSDOF 2
