REMARK  15 active torsions:
REMARK  status: ('A' for Active; 'I' for Inactive)
REMARK    1  A    between atoms: C2_2  and  C3_3 
REMARK    2  A    between atoms: C3_3  and  N1_4 
REMARK    3  A    between atoms: N1_4  and  C4_6 
REMARK    4  A    between atoms: C5_9  and  N3_10 
REMARK    5  A    between atoms: N3_10  and  C6_12 
REMARK    6  A    between atoms: C6_12  and  C7_13 
REMARK    7  A    between atoms: C7_13  and  N4_14 
REMARK    8  A    between atoms: C8_20  and  N6_21 
REMARK    9  A    between atoms: N6_21  and  C9_23 
REMARK   10  A    between atoms: C9_23  and  C10_24 
REMARK   11  A    between atoms: C10_24  and  C11_25 
REMARK   12  A    between atoms: C11_25  and  N7_26 
REMARK   13  A    between atoms: N7_26  and  C12_29 
REMARK   14  A    between atoms: C12_29  and  C13_30 
REMARK   15  A    between atoms: C13_30  and  O1_31 
ROOT
HETATM    1  C4  UNL     1      -2.092   0.303  -0.709  1.00  0.00     0.707 A 
HETATM    2  N2  UNL     1      -2.609  -0.881  -0.310  1.00  0.00    -0.022 N 
ATOM      3  H2  UNL     1      -3.615  -1.035  -0.381  1.00  0.00     0.203 HD
HETATM    4  C5  UNL     1      -1.830  -1.855   0.176  1.00  0.00     0.707 A 
HETATM    5  N5  UNL     1      -0.489  -1.630   0.264  1.00  0.00    -0.022 N 
ATOM      6  H5  UNL     1       0.112  -2.366   0.634  1.00  0.00     0.203 HD
HETATM    7  C8  UNL     1       0.070  -0.464  -0.123  1.00  0.00     0.707 A 
HETATM    8  N8  UNL     1      -0.767   0.469  -0.600  1.00  0.00    -0.022 N 
ATOM      9  H8  UNL     1      -0.370   1.360  -0.898  1.00  0.00     0.203 HD
ENDROOT
BRANCH   7  10
HETATM   10  N6  UNL     1       1.338  -0.245  -0.043  1.00  0.00    -0.225 N 
ATOM     11  H6  UNL     1       1.741   0.644  -0.341  1.00  0.00     0.177 HD
BRANCH  10  12
HETATM   12  C9  UNL     1       2.171  -1.309   0.486  1.00  0.00     0.139 C 
BRANCH  12  13
HETATM   13  C10 UNL     1       3.612  -0.797   0.437  1.00  0.00     0.048 C 
BRANCH  13  14
HETATM   14  C11 UNL     1       4.037  -0.465  -0.952  1.00  0.00     0.234 C 
BRANCH  14  15
HETATM   15  N7  UNL     1       5.394  -0.001  -0.955  1.00  0.00    -0.073 N 
ATOM     16  H72 UNL     1       6.029  -0.684  -0.542  1.00  0.00     0.277 HD
ATOM     17  H71 UNL     1       5.786   0.020  -1.897  1.00  0.00     0.277 HD
BRANCH  15  18
HETATM   18  C12 UNL     1       5.490   1.280  -0.307  1.00  0.00     0.258 C 
BRANCH  18  19
HETATM   19  C13 UNL     1       6.941   1.790  -0.340  1.00  0.00     0.191 C 
BRANCH  19  20
HETATM   20  O1  UNL     1       7.760   0.872   0.327  1.00  0.00    -0.399 OA
ATOM     21  H1  UNL     1       8.656   1.187   0.307  1.00  0.00     0.209 HD
ENDBRANCH  19  20
ENDBRANCH  18  19
ENDBRANCH  15  18
ENDBRANCH  14  15
ENDBRANCH  13  14
ENDBRANCH  12  13
ENDBRANCH  10  12
ENDBRANCH   7  10
BRANCH   4  22
HETATM   22  N3  UNL     1      -2.273  -2.990   0.563  1.00  0.00    -0.223 N 
ATOM     23  H3  UNL     1      -1.589  -3.659   0.916  1.00  0.00     0.177 HD
BRANCH  22  24
HETATM   24  C6  UNL     1      -3.641  -3.407   0.546  1.00  0.00     0.165 C 
BRANCH  24  25
HETATM   25  C7  UNL     1      -4.337  -2.889   1.803  1.00  0.00     0.249 C 
BRANCH  25  26
HETATM   26  N4  UNL     1      -5.725  -3.323   1.771  1.00  0.00    -0.078 N 
ATOM     27  H43 UNL     1      -6.203  -3.044   0.915  1.00  0.00     0.274 HD
ATOM     28  H42 UNL     1      -5.818  -4.333   1.659  1.00  0.00     0.274 HD
ATOM     29  H41 UNL     1      -6.190  -2.977   2.610  1.00  0.00     0.274 HD
ENDBRANCH  25  26
ENDBRANCH  24  25
ENDBRANCH  22  24
ENDBRANCH   4  22
BRANCH   1  30
HETATM   30  N1  UNL     1      -2.904   1.172  -1.159  1.00  0.00    -0.225 N 
ATOM     31  H1  UNL     1      -3.887   0.900  -1.182  1.00  0.00     0.177 HD
BRANCH  30  32
HETATM   32  C3  UNL     1      -2.602   2.484  -1.636  1.00  0.00     0.137 C 
BRANCH  32  33
HETATM   33  C2  UNL     1      -2.980   3.575  -0.644  1.00  0.00     0.016 C 
HETATM   34  C1  UNL     1      -4.443   3.572  -0.332  1.00  0.00     0.006 C 
ENDBRANCH  32  33
ENDBRANCH  30  32
ENDBRANCH   1  30
TORSDOF 15
