REMARK  12 active torsions:
REMARK  status: ('A' for Active; 'I' for Inactive)
REMARK    1  A    between atoms: C4_6  and  N2_7 
REMARK    2  A    between atoms: N2_7  and  C5_9 
REMARK    3  A    between atoms: C5_9  and  C6_10 
REMARK    4  A    between atoms: C6_10  and  O1_11 
REMARK    5  A    between atoms: O1_11  and  C7_12 
REMARK    6  A    between atoms: C7_12  and  C8_13 
REMARK    7  A    between atoms: C8_13  and  N3_14 
REMARK    8  A    between atoms: N3_14  and  C9_16 
REMARK    9  A    between atoms: C9_16  and  C10_17 
REMARK   10  A    between atoms: C10_17  and  C11_18 
REMARK   11  A    between atoms: C11_18  and  N4_19 
REMARK   12  A    between atoms: C12_25  and  N6_26 
REMARK       I    between atoms: N6_26  and  C13_28 
ROOT
HETATM    1  C1  UNL     1      -5.526  -2.809   0.994  1.00  0.00     0.054 C 
HETATM    2  C2  UNL     1      -4.263  -2.020   0.870  1.00  0.00    -0.001 A 
HETATM    3  C3  UNL     1      -3.097  -2.544   1.339  1.00  0.00     0.116 A 
HETATM    4  N1  UNL     1      -1.960  -1.802   1.211  1.00  0.00    -0.201 N 
ATOM      5  H1  UNL     1      -1.079  -2.182   1.558  1.00  0.00     0.183 HD
HETATM    6  C4  UNL     1      -1.965  -0.591   0.644  1.00  0.00     0.679 A 
HETATM    7  N5  UNL     1      -3.134  -0.103   0.191  1.00  0.00    -0.176 N 
ATOM      8  H5  UNL     1      -3.138   0.821  -0.242  1.00  0.00     0.186 HD
HETATM    9  C12 UNL     1      -4.295  -0.771   0.280  1.00  0.00     0.130 A 
ENDROOT
BRANCH   6  10
HETATM   10  N2  UNL     1      -0.863   0.059   0.555  1.00  0.00    -0.224 N 
ATOM     11  H2  UNL     1      -0.020  -0.380   0.925  1.00  0.00     0.177 HD
BRANCH  10  12
HETATM   12  C5  UNL     1      -0.736   1.364  -0.031  1.00  0.00     0.164 C 
BRANCH  12  13
HETATM   13  C6  UNL     1       0.555   2.038   0.301  1.00  0.00     0.188 C 
BRANCH  13  14
HETATM   14  O1  UNL     1       1.688   1.387  -0.099  1.00  0.00    -0.385 OA
BRANCH  14  15
HETATM   15  C7  UNL     1       1.814   1.164  -1.440  1.00  0.00     0.212 C 
BRANCH  15  16
HETATM   16  C8  UNL     1       3.095   0.457  -1.794  1.00  0.00     0.086 C 
BRANCH  16  17
HETATM   17  N3  UNL     1       4.281   1.111  -1.458  1.00  0.00    -0.380 N 
ATOM     18  H3  UNL     1       4.869   1.474  -2.209  1.00  0.00     0.164 HD
BRANCH  17  19
HETATM   19  C9  UNL     1       4.695   1.289  -0.141  1.00  0.00     0.062 C 
BRANCH  19  20
HETATM   20  C10 UNL     1       5.084   0.034   0.605  1.00  0.00     0.072 C 
BRANCH  20  21
HETATM   21  C11 UNL     1       6.230  -0.687  -0.064  1.00  0.00     0.234 C 
BRANCH  21  22
HETATM   22  N4  UNL     1       6.562  -1.882   0.691  1.00  0.00    -0.079 N 
ATOM     23  H43 UNL     1       6.757  -1.676   1.671  1.00  0.00     0.274 HD
ATOM     24  H42 UNL     1       5.753  -2.488   0.827  1.00  0.00     0.274 HD
ATOM     25  H41 UNL     1       7.336  -2.369   0.239  1.00  0.00     0.274 HD
ENDBRANCH  21  22
ENDBRANCH  20  21
ENDBRANCH  19  20
ENDBRANCH  17  19
ENDBRANCH  16  17
ENDBRANCH  15  16
ENDBRANCH  14  15
ENDBRANCH  13  14
ENDBRANCH  12  13
ENDBRANCH  10  12
ENDBRANCH   6  10
BRANCH   9  26
HETATM   26  N6  UNL     1      -5.414  -0.343  -0.136  1.00  0.00    -0.316 N 
HETATM   27  C13 UNL     1      -5.706   0.861  -0.754  1.00  0.00     0.187 C 
HETATM   28  N7  UNL     1      -5.564   1.006  -2.012  1.00  0.00    -0.373 N 
HETATM   29  N8  UNL     1      -6.171   1.952   0.012  1.00  0.00    -0.064 NA
ATOM     30  H72 UNL     1      -5.228   0.218  -2.565  1.00  0.00     0.158 HD
ATOM     31  H71 UNL     1      -5.779   1.893  -2.467  1.00  0.00     0.158 HD
ATOM     32  H6  UNL     1      -6.206  -0.971   0.004  1.00  0.00     0.170 HD
ENDBRANCH   9  26
TORSDOF 12
