REMARK  12 active torsions:
REMARK  status: ('A' for Active; 'I' for Inactive)
REMARK       I    between atoms: C1_4  and  N3_6 
REMARK    1  A    between atoms: N3_6  and  C2_8 
REMARK    2  A    between atoms: C2_8  and  C3_9 
REMARK    3  A    between atoms: C3_9  and  C4_10 
REMARK    4  A    between atoms: C4_10  and  C5_11 
REMARK    5  A    between atoms: C5_11  and  C6_12 
REMARK    6  A    between atoms: C6_12  and  N4_13 
REMARK    7  A    between atoms: C8_15  and  N5_16 
REMARK    8  A    between atoms: N5_16  and  C9_18 
REMARK    9  A    between atoms: C9_18  and  C10_19 
REMARK   10  A    between atoms: C10_19  and  C11_20 
REMARK   11  A    between atoms: C11_20  and  N6_21 
REMARK   12  A    between atoms: C13_26  and  N7_27 
ROOT
HETATM    1  N4  UNL     1      -0.526  -1.161  -0.483  1.00  0.00    -0.348 N 
HETATM    2  C7  UNL     1      -1.685  -0.349  -0.498  1.00  0.00     0.150 C 
HETATM    3  C8  UNL     1      -2.998  -1.008  -0.693  1.00  0.00     0.097 C 
HETATM    4  C12 UNL     1      -3.020  -2.407  -1.166  1.00  0.00     0.069 C 
HETATM    5  C13 UNL     1      -1.784  -3.209  -1.074  1.00  0.00     0.276 C 
HETATM    6  C14 UNL     1      -0.539  -2.446  -1.037  1.00  0.00     0.250 C 
HETATM    7  O1  UNL     1       0.514  -2.985  -1.521  1.00  0.00    -0.271 OA
ENDROOT
BRANCH   1   8
HETATM    8  C6  UNL     1       0.703  -0.660   0.110  1.00  0.00     0.126 C 
BRANCH   8   9
HETATM    9  C5  UNL     1       1.558   0.062  -0.874  1.00  0.00     0.020 C 
BRANCH   9  10
HETATM   10  C4  UNL     1       2.808   0.555  -0.206  1.00  0.00     0.003 C 
BRANCH  10  11
HETATM   11  C3  UNL     1       3.668  -0.519   0.381  1.00  0.00     0.020 C 
BRANCH  11  12
HETATM   12  C2  UNL     1       4.915   0.074   1.025  1.00  0.00     0.122 C 
BRANCH  12  13
HETATM   13  N3  UNL     1       5.695   0.783   0.042  1.00  0.00    -0.365 N 
HETATM   14  C1  UNL     1       6.917   1.425   0.435  1.00  0.00     0.181 C 
HETATM   15  N1  UNL     1       8.013   0.760   0.396  1.00  0.00    -0.374 N 
HETATM   16  N2  UNL     1       6.918   2.771   0.859  1.00  0.00    -0.064 NA
ATOM     17  H12 UNL     1       8.881   1.216   0.675  1.00  0.00     0.158 HD
ATOM     18  H11 UNL     1       8.012  -0.213   0.090  1.00  0.00     0.158 HD
ATOM     19  H3  UNL     1       5.380   0.828  -0.927  1.00  0.00     0.162 HD
ENDBRANCH  12  13
ENDBRANCH  11  12
ENDBRANCH  10  11
ENDBRANCH   9  10
ENDBRANCH   8   9
ENDBRANCH   1   8
BRANCH   3  20
HETATM   20  N5  UNL     1      -3.880  -0.859   0.456  1.00  0.00    -0.415 N 
ATOM     21  H5  UNL     1      -4.211  -1.656   1.001  1.00  0.00     0.153 HD
BRANCH  20  22
HETATM   22  C9  UNL     1      -4.246   0.482   0.762  1.00  0.00     0.115 C 
BRANCH  22  23
HETATM   23  C10 UNL     1      -5.132   1.154  -0.233  1.00  0.00     0.046 C 
BRANCH  23  24
HETATM   24  C11 UNL     1      -5.440   2.574   0.225  1.00  0.00     0.231 C 
BRANCH  24  25
HETATM   25  N6  UNL     1      -4.227   3.367   0.363  1.00  0.00    -0.079 N 
ATOM     26  H63 UNL     1      -3.554   2.914   0.981  1.00  0.00     0.274 HD
ATOM     27  H62 UNL     1      -3.679   3.363  -0.498  1.00  0.00     0.274 HD
ATOM     28  H61 UNL     1      -4.433   4.318   0.670  1.00  0.00     0.274 HD
ENDBRANCH  24  25
ENDBRANCH  23  24
ENDBRANCH  22  23
ENDBRANCH  20  22
ENDBRANCH   3  20
BRANCH   5  29
HETATM   29  N7  UNL     1      -1.764  -4.137   0.046  1.00  0.00    -0.066 N 
ATOM     30  H73 UNL     1      -1.938  -3.645   0.922  1.00  0.00     0.275 HD
ATOM     31  H72 UNL     1      -2.584  -4.743   0.024  1.00  0.00     0.275 HD
ATOM     32  H71 UNL     1      -0.910  -4.691   0.110  1.00  0.00     0.275 HD
ENDBRANCH   5  29
TORSDOF 12
