REMARK  10 active torsions:
REMARK  status: ('A' for Active; 'I' for Inactive)
REMARK    1  A    between atoms: C2_2  and  C3_3 
REMARK    2  A    between atoms: C3_3  and  C4_4 
REMARK    3  A    between atoms: C4_4  and  C5_5 
REMARK    4  A    between atoms: C5_5  and  C6_6 
REMARK    5  A    between atoms: C6_6  and  C7_7 
REMARK    6  A    between atoms: C7_7  and  C8_8 
REMARK    7  A    between atoms: C8_8  and  N1_9 
REMARK    8  A    between atoms: C10_14  and  N3_15 
REMARK       I    between atoms: N3_15  and  C11_17 
REMARK    9  A    between atoms: C11_17  and  C12_19 
REMARK   10  A    between atoms: C12_19  and  C13_20 
ROOT
HETATM    1  N1  UNL     1       0.469  -0.641  -1.104  1.00  0.00    -0.375 N 
ATOM      2  H1  UNL     1       0.172  -0.693  -2.078  1.00  0.00     0.161 HD
HETATM    3  C9  UNL     1      -0.473  -0.377  -0.354  1.00  0.00     0.135 A 
HETATM    4  N2  UNL     1      -1.697  -0.209  -0.950  1.00  0.00    -0.175 N 
ATOM      5  H2  UNL     1      -1.755  -0.312  -1.963  1.00  0.00     0.186 HD
HETATM    6  C10 UNL     1      -2.811   0.079  -0.288  1.00  0.00     0.686 A 
HETATM    7  N4  UNL     1      -2.754   0.218   1.048  1.00  0.00    -0.200 N 
ATOM      8  H4  UNL     1      -3.606   0.439   1.564  1.00  0.00     0.183 HD
HETATM    9  C16 UNL     1      -1.604   0.073   1.715  1.00  0.00     0.129 A 
HETATM   10  C17 UNL     1      -0.440  -0.230   1.007  1.00  0.00     0.071 A 
HETATM   11 BR1  UNL     1       1.181  -0.427   2.010  1.00  0.00    -0.046 Br
ENDROOT
BRANCH   1  12
HETATM   12  C8  UNL     1       1.858  -0.891  -0.965  1.00  0.00     0.121 C 
BRANCH  12  13
HETATM   13  C7  UNL     1       2.504  -1.340  -2.233  1.00  0.00     0.020 C 
BRANCH  13  14
HETATM   14  C6  UNL     1       3.914  -1.670  -2.287  1.00  0.00     0.002 C 
BRANCH  14  15
HETATM   15  C5  UNL     1       5.010  -0.748  -2.046  1.00  0.00     0.000 C 
BRANCH  15  16
HETATM   16  C4  UNL     1       5.168  -0.067  -0.729  1.00  0.00     0.000 C 
BRANCH  16  17
HETATM   17  C3  UNL     1       6.466   0.768  -0.819  1.00  0.00    -0.000 C 
BRANCH  17  18
HETATM   18  C2  UNL     1       6.636   1.466   0.516  1.00  0.00    -0.005 C 
HETATM   19  C1  UNL     1       7.871   2.307   0.540  1.00  0.00     0.005 C 
ENDBRANCH  17  18
ENDBRANCH  16  17
ENDBRANCH  15  16
ENDBRANCH  14  15
ENDBRANCH  13  14
ENDBRANCH  12  13
ENDBRANCH   1  12
BRANCH   6  20
HETATM   20  N3  UNL     1      -3.941   0.224  -0.926  1.00  0.00    -0.159 N 
HETATM   21  C11 UNL     1      -5.132   0.533  -0.203  1.00  0.00     0.236 C 
HETATM   22  O1  UNL     1      -5.341   1.732   0.115  1.00  0.00    -0.273 OA
ATOM     23  H3  UNL     1      -3.972   0.117  -1.940  1.00  0.00     0.187 HD
BRANCH  21  24
HETATM   24  C12 UNL     1      -6.086  -0.539   0.154  1.00  0.00     0.107 C 
BRANCH  24  25
HETATM   25  C13 UNL     1      -7.253   0.053   0.912  1.00  0.00    -0.014 C 
HETATM   26  C14 UNL     1      -7.953   1.069   0.064  1.00  0.00     0.010 C 
HETATM   27  C15 UNL     1      -8.205  -1.042   1.347  1.00  0.00     0.010 C 
ENDBRANCH  24  25
ENDBRANCH  21  24
ENDBRANCH   6  20
TORSDOF 10
