REMARK  6 active torsions:
REMARK  status: ('A' for Active; 'I' for Inactive)
REMARK    1  A    between atoms: C2_2  and  C3_3 
REMARK    2  A    between atoms: C3_3  and  C4_4 
REMARK    3  A    between atoms: C4_4  and  N1_5 
REMARK    4  A    between atoms: N4_12  and  N5_13 
REMARK    5  A    between atoms: C6_16  and  N6_17 
REMARK    6  A    between atoms: N6_17  and  N7_19 
ROOT
HETATM    1  N1  UNL     1      -0.572  -0.642   0.078  1.00  0.00    -0.106 N 
HETATM    2  N2  UNL     1      -1.271  -1.046   1.129  1.00  0.00    -0.114 N 
ATOM      3  H2  UNL     1      -0.915  -1.598   1.909  1.00  0.00     0.206 HD
HETATM    4  C5  UNL     1      -2.532  -0.600   0.987  1.00  0.00     0.727 A 
HETATM    5  N3  UNL     1      -3.520  -0.782   1.799  1.00  0.00    -0.231 N 
ATOM      6  H31 UNL     1      -4.476  -0.444   1.691  1.00  0.00     0.174 HD
ATOM      7  H32 UNL     1      -3.479  -1.300   2.677  1.00  0.00     0.174 HD
HETATM    8  N4  UNL     1      -2.585   0.076  -0.158  1.00  0.00     0.087 N 
HETATM    9  C6  UNL     1      -1.388   0.063  -0.736  1.00  0.00     0.749 A 
ENDROOT
BRANCH   9  10
HETATM   10  N6  UNL     1      -0.993   0.582  -1.834  1.00  0.00    -0.135 N 
ATOM     11  H6  UNL     1      -0.016   0.452  -2.097  1.00  0.00     0.205 HD
BRANCH  10  12
HETATM   12  N7  UNL     1      -1.804   1.312  -2.694  1.00  0.00    -0.331 N 
ATOM     13  H72 UNL     1      -2.778   1.432  -2.415  1.00  0.00     0.177 HD
ATOM     14  H71 UNL     1      -1.489   1.727  -3.571  1.00  0.00     0.177 HD
ENDBRANCH  10  12
ENDBRANCH   9  10
BRANCH   1  15
HETATM   15  C4  UNL     1       0.820  -0.949  -0.086  1.00  0.00     0.168 C 
BRANCH  15  16
HETATM   16  C3  UNL     1       1.743   0.070   0.508  1.00  0.00     0.022 C 
BRANCH  16  17
HETATM   17  C2  UNL     1       3.168  -0.400   0.252  1.00  0.00    -0.003 C 
HETATM   18  C1  UNL     1       4.173   0.593   0.831  1.00  0.00     0.005 C 
ENDBRANCH  16  17
ENDBRANCH  15  16
ENDBRANCH   1  15
BRANCH   8  19
HETATM   19  N5  UNL     1      -3.714   0.707  -0.687  1.00  0.00    -0.309 N 
ATOM     20  H52 UNL     1      -4.632   0.717  -0.243  1.00  0.00     0.178 HD
ATOM     21  H51 UNL     1      -3.755   1.225  -1.565  1.00  0.00     0.178 HD
ENDBRANCH   8  19
TORSDOF 6
