REMARK  7 active torsions:
REMARK  status: ('A' for Active; 'I' for Inactive)
REMARK    1  A    between atoms: N1_1  and  N2_4 
REMARK    2  A    between atoms: C1_6  and  N3_7 
REMARK    3  A    between atoms: N3_7  and  C2_9 
REMARK    4  A    between atoms: C3_12  and  C4_13 
REMARK    5  A    between atoms: C4_13  and  N5_14 
REMARK    6  A    between atoms: N5_14  and  N6_15 
REMARK    7  A    between atoms: C6_19  and  N7_20 
ROOT
HETATM    1  C2  UNL     1      -0.659  -0.253   0.490  1.00  0.00     0.109 C 
HETATM    2  N4  UNL     1       0.464  -0.699   0.057  1.00  0.00    -0.372 N 
ATOM      3  H4  UNL     1       0.680  -1.691  -0.040  1.00  0.00     0.161 HD
HETATM    4  C3  UNL     1       1.393   0.363  -0.280  1.00  0.00     0.101 C 
HETATM    5  C5  UNL     1       0.866   1.503   0.612  1.00  0.00     0.067 C 
HETATM    6  C6  UNL     1      -0.606   1.220   0.470  1.00  0.00     0.252 C 
ENDROOT
BRANCH   1   7
HETATM    7  N3  UNL     1      -1.785  -1.070   0.907  1.00  0.00    -0.340 N 
ATOM      8  H3  UNL     1      -1.693  -1.706   1.699  1.00  0.00     0.168 HD
BRANCH   7   9
HETATM    9  C1  UNL     1      -3.013  -0.977   0.206  1.00  0.00     0.198 C 
HETATM   10  N2  UNL     1      -3.616   0.138   0.081  1.00  0.00    -0.303 N 
ATOM     11  H2  UNL     1      -3.208   0.977   0.493  1.00  0.00     0.187 HD
BRANCH  10  12
HETATM   12  N1  UNL     1      -4.825   0.232  -0.610  1.00  0.00    -0.344 N 
ATOM     13  H12 UNL     1      -5.219  -0.617  -1.016  1.00  0.00     0.176 HD
ATOM     14  H11 UNL     1      -5.308   1.125  -0.710  1.00  0.00     0.176 HD
ENDBRANCH  10  12
ENDBRANCH   7   9
ENDBRANCH   1   7
BRANCH   6  15
HETATM   15  N7  UNL     1      -1.011   1.671  -0.857  1.00  0.00    -0.068 N 
ATOM     16  H73 UNL     1      -0.459   1.247  -1.602  1.00  0.00     0.275 HD
ATOM     17  H72 UNL     1      -1.922   1.306  -1.136  1.00  0.00     0.275 HD
ATOM     18  H71 UNL     1      -0.974   2.690  -0.871  1.00  0.00     0.275 HD
ENDBRANCH   6  15
BRANCH   4  19
HETATM   19  C4  UNL     1       2.758  -0.088   0.189  1.00  0.00     0.159 C 
BRANCH  19  20
HETATM   20  N5  UNL     1       3.051  -1.328  -0.528  1.00  0.00    -0.146 NA
BRANCH  20  21
HETATM   21  N6  UNL     1       4.304  -1.842  -0.169  1.00  0.00    -0.348 N 
ATOM     22  H62 UNL     1       4.922  -1.396   0.509  1.00  0.00     0.172 HD
ATOM     23  H61 UNL     1       4.508  -2.707  -0.669  1.00  0.00     0.172 HD
ENDBRANCH  20  21
ENDBRANCH  19  20
ENDBRANCH   4  19
TORSDOF 7
