REMARK  16 active torsions:
REMARK  status: ('A' for Active; 'I' for Inactive)
REMARK    1  A    between atoms: O1_2  and  C2_3 
REMARK    2  A    between atoms: C3_4  and  O2_5 
REMARK    3  A    between atoms: C5_8  and  C6_9 
REMARK    4  A    between atoms: C6_9  and  N7_27 
REMARK    5  A    between atoms: N1_10  and  N2_12 
REMARK    6  A    between atoms: C7_14  and  C9_16 
REMARK    7  A    between atoms: N7_27  and  C12_29 
REMARK    8  A    between atoms: C12_29  and  C13_30 
REMARK    9  A    between atoms: C13_30  and  C14_31 
REMARK   10  A    between atoms: C14_31  and  N8_32 
REMARK   11  A    between atoms: N8_32  and  C15_34 
REMARK   12  A    between atoms: C15_34  and  C16_35 
REMARK   13  A    between atoms: C16_35  and  N9_36 
REMARK   14  A    between atoms: N9_36  and  C17_38 
REMARK   15  A    between atoms: C22_46  and  O4_47 
REMARK   16  A    between atoms: C27_56  and  N11_57 
ROOT
HETATM    1  C6  UNL     1      -2.199   1.141  -0.008  1.00  0.00     0.126 C 
HETATM    2  N1  UNL     1      -2.290   0.022   0.516  1.00  0.00    -0.285 N 
ATOM      3  H1  UNL     1      -3.219  -0.103   0.919  1.00  0.00     0.188 HD
ENDROOT
BRANCH   1   4
HETATM    4  C5  UNL     1      -3.414   2.019   0.061  1.00  0.00     0.014 A 
HETATM    5  C4  UNL     1      -3.630   3.029  -0.842  1.00  0.00     0.054 A 
HETATM    6  C3  UNL     1      -4.764   3.822  -0.755  1.00  0.00     0.102 A 
HETATM    7  C2  UNL     1      -5.689   3.596   0.250  1.00  0.00     0.134 A 
HETATM    8  C27 UNL     1      -5.509   2.588   1.180  1.00  0.00     0.139 A 
HETATM    9  C26 UNL     1      -4.365   1.828   1.050  1.00  0.00     0.054 A 
BRANCH   6  10
HETATM   10  O2  UNL     1      -5.021   4.851  -1.646  1.00  0.00    -0.358 OA
ATOM     11  H2  UNL     1      -4.386   5.006  -2.336  1.00  0.00     0.217 HD
ENDBRANCH   6  10
BRANCH   7  12
HETATM   12  O1  UNL     1      -6.835   4.393   0.341  1.00  0.00    -0.351 OA
HETATM   13  C1  UNL     1      -6.858   5.582   1.079  1.00  0.00     0.210 C 
ENDBRANCH   7  12
BRANCH   8  14
HETATM   14  N11 UNL     1      -6.471   2.374   2.192  1.00  0.00    -0.113 N 
HETATM   15  O8  UNL     1      -6.183   1.878   3.292  1.00  0.00    -0.532 OA
HETATM   16  O9  UNL     1      -7.770   2.727   1.952  1.00  0.00    -0.532 OA
ENDBRANCH   8  14
ENDBRANCH   1   4
BRANCH   1  17
HETATM   17  N7  UNL     1      -1.057   1.655  -0.659  1.00  0.00    -0.374 N 
ATOM     18  H7  UNL     1      -0.442   2.255  -0.110  1.00  0.00     0.161 HD
BRANCH  17  19
HETATM   19  C12 UNL     1      -0.682   1.410  -2.025  1.00  0.00     0.123 C 
BRANCH  19  20
HETATM   20  C13 UNL     1      -0.148   0.103  -2.398  1.00  0.00     0.039 C 
BRANCH  20  21
HETATM   21  C14 UNL     1       1.110  -0.418  -1.828  1.00  0.00     0.120 C 
BRANCH  21  22
HETATM   22  N8  UNL     1       2.317   0.298  -2.029  1.00  0.00    -0.401 N 
ATOM     23  H8  UNL     1       3.006  -0.044  -2.699  1.00  0.00     0.158 HD
BRANCH  22  24
HETATM   24  C15 UNL     1       2.566   1.474  -1.309  1.00  0.00     0.075 C 
BRANCH  24  25
HETATM   25  C16 UNL     1       2.939   1.386   0.131  1.00  0.00     0.165 C 
BRANCH  25  26
HETATM   26  N9  UNL     1       4.219   0.859   0.425  1.00  0.00    -0.369 N 
ATOM     27  H9  UNL     1       4.878   1.507   0.857  1.00  0.00     0.161 HD
BRANCH  26  28
HETATM   28  C17 UNL     1       4.698  -0.436   0.200  1.00  0.00     0.138 A 
HETATM   29  N10 UNL     1       4.114  -1.524  -0.309  1.00  0.00    -0.244 N 
HETATM   30  O3  UNL     1       4.905  -2.544  -0.349  1.00  0.00    -0.235 OA
ATOM     31  H10 UNL     1       3.147  -1.547  -0.632  1.00  0.00     0.196 HD
HETATM   32  C18 UNL     1       6.075  -2.225   0.125  1.00  0.00     0.116 A 
HETATM   33  C19 UNL     1       7.256  -2.947   0.297  1.00  0.00     0.059 A 
HETATM   34  C23 UNL     1       6.006  -0.888   0.494  1.00  0.00     0.079 A 
HETATM   35  C20 UNL     1       8.389  -2.380   0.832  1.00  0.00     0.061 A 
HETATM   36  C21 UNL     1       8.312  -1.055   1.195  1.00  0.00     0.090 A 
HETATM   37  C25 UNL     1       9.716  -2.920   1.104  1.00  0.00     0.302 A 
HETATM   38  C22 UNL     1       7.132  -0.310   1.031  1.00  0.00     0.100 A 
HETATM   39  C24 UNL     1       9.622  -0.722   1.718  1.00  0.00     0.304 A 
HETATM   40  O5  UNL     1       9.964   0.411   2.162  1.00  0.00    -0.259 OA
HETATM   41  O6  UNL     1      10.452  -1.859   1.654  1.00  0.00    -0.237 OA
HETATM   42  O7  UNL     1      10.138  -4.092   0.897  1.00  0.00    -0.259 OA
BRANCH  38  43
HETATM   43  O4  UNL     1       7.093   1.014   1.409  1.00  0.00    -0.358 OA
ATOM     44  H4  UNL     1       6.295   1.518   1.298  1.00  0.00     0.217 HD
ENDBRANCH  38  43
ENDBRANCH  26  28
ENDBRANCH  25  26
ENDBRANCH  24  25
ENDBRANCH  22  24
ENDBRANCH  21  22
ENDBRANCH  20  21
ENDBRANCH  19  20
ENDBRANCH  17  19
ENDBRANCH   1  17
BRANCH   2  45
HETATM   45  N2  UNL     1      -1.554  -1.066   0.716  1.00  0.00    -0.301 N 
HETATM   46  C7  UNL     1      -1.768  -2.310   0.559  1.00  0.00     0.052 C 
HETATM   47  C8  UNL     1      -0.649  -3.231   0.910  1.00  0.00     0.072 C 
ATOM     48  H2  UNL     1      -0.620  -0.860   1.070  1.00  0.00     0.186 HD
BRANCH  46  49
HETATM   49  C9  UNL     1      -3.030  -2.897   0.060  1.00  0.00     0.114 A 
HETATM   50  N3  UNL     1      -4.139  -2.263  -0.313  1.00  0.00    -0.187 N 
HETATM   51  C10 UNL     1      -5.080  -3.127  -0.712  1.00  0.00     0.677 A 
ATOM     52  H3  UNL     1      -4.257  -1.250  -0.297  1.00  0.00     0.184 HD
HETATM   53  N4  UNL     1      -6.289  -2.837  -1.143  1.00  0.00    -0.234 N 
HETATM   54  N5  UNL     1      -4.544  -4.347  -0.586  1.00  0.00    -0.177 N 
ATOM     55  H42 UNL     1      -6.697  -1.907  -1.239  1.00  0.00     0.174 HD
ATOM     56  H41 UNL     1      -7.006  -3.495  -1.447  1.00  0.00     0.174 HD
HETATM   57  C11 UNL     1      -3.282  -4.254  -0.113  1.00  0.00     0.161 A 
ATOM     58  H5  UNL     1      -5.019  -5.220  -0.814  1.00  0.00     0.185 HD
HETATM   59  N6  UNL     1      -2.380  -5.322   0.160  1.00  0.00    -0.080 NA
ENDBRANCH  46  49
ENDBRANCH   2  45
TORSDOF 16
