REMARK  4 active torsions:
REMARK  status: ('A' for Active; 'I' for Inactive)
REMARK    1  A    between atoms: C3_3  and  N1_4 
REMARK    2  A    between atoms: N1_4  and  C4_6 
REMARK    3  A    between atoms: C5_9  and  N3_10 
REMARK    4  A    between atoms: N3_10  and  C6_12 
ROOT
HETATM    1  C1  UNL     1       1.868   2.976  -1.530  1.00  0.00     0.014 C 
HETATM    2  C2  UNL     1       2.044   1.849  -1.923  1.00  0.00    -0.098 C 
HETATM    3  C3  UNL     1       2.284   0.460  -2.399  1.00  0.00     0.214 C 
ENDROOT
BRANCH   3   4
HETATM    4  N1  UNL     1       2.928  -0.284  -1.362  1.00  0.00    -0.365 N 
ATOM      5  H1  UNL     1       3.928  -0.469  -1.434  1.00  0.00     0.162 HD
BRANCH   4   6
HETATM    6  C4  UNL     1       2.292  -0.721  -0.354  1.00  0.00     0.133 A 
HETATM    7  N2  UNL     1       0.979  -0.512  -0.200  1.00  0.00    -0.176 N 
HETATM    8  C5  UNL     1       0.297  -0.969   0.860  1.00  0.00     0.681 A 
ATOM      9  H2  UNL     1       0.478   0.015  -0.916  1.00  0.00     0.186 HD
HETATM   10  N4  UNL     1       0.942  -1.677   1.834  1.00  0.00    -0.176 N 
HETATM   11  C12 UNL     1       2.270  -1.931   1.752  1.00  0.00     0.136 A 
ATOM     12  H4  UNL     1       0.415  -2.020   2.637  1.00  0.00     0.186 HD
HETATM   13  N5  UNL     1       3.161  -2.569   2.506  1.00  0.00    -0.349 N 
HETATM   14  C15 UNL     1       2.920  -1.445   0.652  1.00  0.00     0.076 A 
HETATM   15  C13 UNL     1       4.358  -2.501   1.917  1.00  0.00     0.114 A 
ATOM     16  H5  UNL     1       2.962  -3.035   3.391  1.00  0.00     0.166 HD
HETATM   17  C14 UNL     1       4.230  -1.797   0.747  1.00  0.00     0.067 A 
HETATM   18 CL1  UNL     1       5.512  -1.429  -0.396  1.00  0.00    -0.082 Cl
BRANCH   8  19
HETATM   19  N3  UNL     1      -0.945  -0.798   1.053  1.00  0.00    -0.221 N 
ATOM     20  H3  UNL     1      -1.371  -1.186   1.895  1.00  0.00     0.178 HD
BRANCH  19  21
HETATM   21  C6  UNL     1      -1.770  -0.078   0.129  1.00  0.00     0.099 C 
HETATM   22  C7  UNL     1      -1.695   1.397   0.445  1.00  0.00     0.026 C 
HETATM   23  C8  UNL     1      -2.531   2.224  -0.499  1.00  0.00     0.002 C 
HETATM   24  C9  UNL     1      -3.653   1.419  -1.115  1.00  0.00     0.000 C 
HETATM   25  C10 UNL     1      -4.219   0.403  -0.118  1.00  0.00     0.002 C 
HETATM   26  C11 UNL     1      -3.182  -0.609   0.301  1.00  0.00     0.026 C 
ENDBRANCH  19  21
ENDBRANCH   8  19
ENDBRANCH   4   6
ENDBRANCH   3   4
TORSDOF 4
