REMARK  4 active torsions:
REMARK  status: ('A' for Active; 'I' for Inactive)
REMARK    1  A    between atoms: C5_6  and  C6_7 
REMARK    2  A    between atoms: C6_7  and  C7_8 
REMARK    3  A    between atoms: C7_8  and  O2_9 
REMARK    4  A    between atoms: N1_11  and  O3_13 
ROOT
HETATM    1  C6  UNL     1       1.718  -0.709  -0.591  1.00  0.00     0.120 C 
ENDROOT
BRANCH   1   2
HETATM    2  C5  UNL     1       0.236  -0.658  -0.480  1.00  0.00     0.156 C 
HETATM    3  C4  UNL     1      -0.395  -1.446   0.587  1.00  0.00     0.204 C 
HETATM    4  O1  UNL     1      -1.358  -0.576   1.128  1.00  0.00    -0.353 OA
HETATM    5  C2  UNL     1      -1.541   0.419   0.169  1.00  0.00     0.157 C 
HETATM    6  C1  UNL     1      -2.034   1.704   0.838  1.00  0.00     0.078 C 
HETATM    7  C3  UNL     1      -2.551   0.059  -0.874  1.00  0.00     0.078 C 
HETATM    8  O4  UNL     1      -0.270   0.630  -0.344  1.00  0.00    -0.348 OA
ENDBRANCH   1   2
BRANCH   1   9
HETATM    9  C7  UNL     1       2.486  -0.259   0.551  1.00  0.00     0.137 C 
HETATM   10  N1  UNL     1       3.296   0.732   0.434  1.00  0.00    -0.251 N 
ATOM     11  H1  UNL     1       3.815   1.012   1.266  1.00  0.00     0.196 HD
BRANCH   9  12
HETATM   12  O2  UNL     1       2.414  -0.833   1.804  1.00  0.00    -0.348 OA
ATOM     13  H2  UNL     1       2.918  -0.538   2.553  1.00  0.00     0.219 HD
ENDBRANCH   9  12
BRANCH  10  14
HETATM   14  O3  UNL     1       3.518   1.434  -0.697  1.00  0.00    -0.288 OA
ATOM     15  H3  UNL     1       4.117   2.167  -0.783  1.00  0.00     0.244 HD
ENDBRANCH  10  14
ENDBRANCH   1   9
TORSDOF 4
