REMARK  5 active torsions:
REMARK  status: ('A' for Active; 'I' for Inactive)
REMARK    1  A    between atoms: C2_2  and  O1_3 
REMARK    2  A    between atoms: C5_7  and  C6_8 
REMARK    3  A    between atoms: C5_7  and  C7_13 
REMARK    4  A    between atoms: C6_8  and  N1_9 
REMARK    5  A    between atoms: C7_13  and  N2_14 
ROOT
HETATM    1  C1  UNL     1       4.011  -0.036   0.035  1.00  0.00     0.052 C 
HETATM    2  C2  UNL     1       2.766  -0.742  -0.509  1.00  0.00     0.119 C 
HETATM    3  C3  UNL     1       1.964  -1.199   0.645  1.00  0.00     0.044 C 
HETATM    4  C4  UNL     1       0.482  -1.051   0.544  1.00  0.00     0.016 C 
HETATM    5  C5  UNL     1      -0.036   0.299   0.286  1.00  0.00     0.013 C 
HETATM    6  C11 UNL     1       1.082   1.072  -0.469  1.00  0.00     0.095 C 
HETATM    7  C12 UNL     1       1.936   0.212  -1.325  1.00  0.00     0.274 C 
HETATM    8  F1  UNL     1       1.339  -0.378  -2.395  1.00  0.00    -0.203 F 
HETATM    9  F2  UNL     1       2.879   1.097  -1.891  1.00  0.00    -0.203 F 
ENDROOT
BRANCH   5  10
HETATM   10  C6  UNL     1      -0.283   1.004   1.607  1.00  0.00     0.241 C 
BRANCH  10  11
HETATM   11  N1  UNL     1       0.892   1.173   2.426  1.00  0.00    -0.079 N 
ATOM     12  H13 UNL     1       1.347   0.274   2.584  1.00  0.00     0.274 HD
ATOM     13  H12 UNL     1       1.625   1.650   1.901  1.00  0.00     0.274 HD
ATOM     14  H11 UNL     1       0.726   1.647   3.314  1.00  0.00     0.274 HD
ENDBRANCH  10  11
ENDBRANCH   5  10
BRANCH   5  15
HETATM   15  C7  UNL     1      -1.222   0.453  -0.577  1.00  0.00     0.247 C 
BRANCH  15  16
HETATM   16  N2  UNL     1      -2.467  -0.092  -0.380  1.00  0.00    -0.078 N 
HETATM   17  C8  UNL     1      -3.468   0.932  -0.791  1.00  0.00     0.271 C 
HETATM   18  C9  UNL     1      -2.940  -0.565   0.861  1.00  0.00     0.271 C 
HETATM   19  C10 UNL     1      -2.752  -1.176  -1.366  1.00  0.00     0.271 C 
ENDBRANCH  15  16
ENDBRANCH   5  15
BRANCH   2  20
HETATM   20  O1  UNL     1       3.242  -1.778  -1.319  1.00  0.00    -0.384 OA
ATOM     21  H1  UNL     1       2.470  -2.216  -1.657  1.00  0.00     0.210 HD
ENDBRANCH   2  20
TORSDOF 5
