REMARK  6 active torsions:
REMARK  status: ('A' for Active; 'I' for Inactive)
REMARK    1  A    between atoms: C2_2  and  C4_5 
REMARK    2  A    between atoms: C5_7  and  N1_8 
REMARK    3  A    between atoms: N1_8  and  C6_10 
REMARK    4  A    between atoms: C6_10  and  C7_11 
REMARK    5  A    between atoms: C7_11  and  O1_12 
REMARK    6  A    between atoms: C8_16  and  N3_17 
ROOT
HETATM    1  C4  UNL     1      -0.357   1.735  -0.416  1.00  0.00     0.069 A 
HETATM    2  S1  UNL     1       1.254   2.342  -0.452  1.00  0.00    -0.051 SA
HETATM    3  C5  UNL     1       2.072   0.926   0.022  1.00  0.00     0.146 A 
HETATM    4  N2  UNL     1       1.083   0.051   0.187  1.00  0.00    -0.322 N 
ATOM      5  H2  UNL     1       1.279  -0.907   0.476  1.00  0.00     0.169 HD
HETATM    6  C8  UNL     1      -0.150   0.445  -0.030  1.00  0.00     0.122 A 
ENDROOT
BRANCH   3   7
HETATM    7  N1  UNL     1       3.362   0.759   0.179  1.00  0.00    -0.368 N 
ATOM      8  H1  UNL     1       4.009   1.530   0.013  1.00  0.00     0.161 HD
BRANCH   7   9
HETATM    9  C6  UNL     1       3.845  -0.521   0.586  1.00  0.00     0.147 C 
BRANCH   9  10
HETATM   10  C7  UNL     1       5.316  -0.703   0.416  1.00  0.00     0.183 C 
BRANCH  10  11
HETATM   11  O1  UNL     1       5.974   0.273   1.197  1.00  0.00    -0.399 OA
ATOM     12  H1  UNL     1       6.911   0.157   1.089  1.00  0.00     0.209 HD
ENDBRANCH  10  11
ENDBRANCH   9  10
ENDBRANCH   7   9
ENDBRANCH   3   7
BRANCH   1  13
HETATM   13  C2  UNL     1      -1.605   2.485  -0.735  1.00  0.00     0.133 C 
HETATM   14  C1  UNL     1      -2.400   1.928  -1.861  1.00  0.00     0.057 C 
HETATM   15  C3  UNL     1      -1.155   3.893  -1.156  1.00  0.00     0.057 C 
HETATM   16  F1  UNL     1      -2.414   2.675   0.367  1.00  0.00    -0.238 F 
ENDBRANCH   1  13
BRANCH   6  17
HETATM   17  N3  UNL     1      -1.253  -0.486   0.142  1.00  0.00    -0.366 N 
HETATM   18  C9  UNL     1      -1.736  -1.340  -0.894  1.00  0.00     0.124 C 
HETATM   19  C10 UNL     1      -1.697  -2.799  -0.499  1.00  0.00     0.020 C 
HETATM   20  C11 UNL     1      -1.488  -2.982   0.982  1.00  0.00     0.003 C 
HETATM   21  C12 UNL     1      -2.199  -1.970   1.838  1.00  0.00     0.020 C 
HETATM   22  C13 UNL     1      -1.856  -0.537   1.457  1.00  0.00     0.124 C 
ENDBRANCH   6  17
TORSDOF 6
