REMARK  4 active torsions:
REMARK  status: ('A' for Active; 'I' for Inactive)
REMARK    1  A    between atoms: C2_2  and  N1_5 
REMARK    2  A    between atoms: N1_5  and  C4_7 
REMARK    3  A    between atoms: C5_8  and  N2_9 
REMARK    4  A    between atoms: N2_9  and  C6_11 
ROOT
HETATM    1  C4  UNL     1       1.553  -0.100   0.340  1.00  0.00     0.115 A 
HETATM    2  C5  UNL     1       0.156  -0.232   0.292  1.00  0.00     0.114 A 
HETATM    3  C11 UNL     1       0.192  -0.353   1.668  1.00  0.00     0.252 A 
HETATM    4  O2  UNL     1      -0.689  -0.522   2.580  1.00  0.00    -0.281 OA
HETATM    5  C12 UNL     1       1.564  -0.222   1.710  1.00  0.00     0.252 A 
HETATM    6  O3  UNL     1       2.374  -0.229   2.668  1.00  0.00    -0.281 OA
ENDROOT
BRANCH   2   7
HETATM    7  N2  UNL     1      -0.818  -0.248  -0.746  1.00  0.00    -0.380 N 
ATOM      8  H2  UNL     1      -0.516  -0.196  -1.719  1.00  0.00     0.160 HD
BRANCH   7   9
HETATM    9  C6  UNL     1      -2.208  -0.336  -0.446  1.00  0.00     0.085 C 
HETATM   10  C7  UNL     1      -3.066  -0.504  -1.690  1.00  0.00     0.051 C 
HETATM   11  C8  UNL     1      -4.473  -0.813  -1.157  1.00  0.00     0.169 C 
HETATM   12  O1  UNL     1      -4.900   0.329  -0.486  1.00  0.00    -0.391 OA
HETATM   13  C9  UNL     1      -4.144   0.611   0.652  1.00  0.00     0.169 C 
HETATM   14  C10 UNL     1      -2.738   0.956   0.195  1.00  0.00     0.051 C 
ENDBRANCH   7   9
ENDBRANCH   2   7
BRANCH   1  15
HETATM   15  N1  UNL     1       2.542   0.087  -0.661  1.00  0.00    -0.363 N 
ATOM     16  H1  UNL     1       2.249   0.146  -1.636  1.00  0.00     0.161 HD
BRANCH  15  17
HETATM   17  C2  UNL     1       3.957   0.197  -0.346  1.00  0.00     0.100 C 
HETATM   18  C1  UNL     1       4.471  -1.036   0.346  1.00  0.00     0.056 C 
HETATM   19  C3  UNL     1       4.232   1.377   0.552  1.00  0.00     0.056 C 
HETATM   20 CL1  UNL     1       4.890   0.419  -1.841  1.00  0.00    -0.097 Cl
ENDBRANCH  15  17
ENDBRANCH   1  15
TORSDOF 4
