REMARK  2 active torsions:
REMARK  status: ('A' for Active; 'I' for Inactive)
REMARK    1  A    between atoms: C2_2  and  C6_8 
REMARK    2  A    between atoms: C3_3  and  C4_4 
ROOT
HETATM    1  C6  UNL     1      -0.751  -0.953   0.816  1.00  0.00     0.002 A 
HETATM    2  C7  UNL     1      -0.253  -1.680   1.824  1.00  0.00    -0.005 A 
HETATM    3  C8  UNL     1       1.190  -1.512   1.956  1.00  0.00     0.095 A 
HETATM    4  C9  UNL     1       1.522  -0.562   0.868  1.00  0.00     0.084 A 
HETATM    5  C10 UNL     1       0.394  -0.261   0.235  1.00  0.00     0.112 A 
HETATM    6  O1  UNL     1       0.374   0.621  -0.852  1.00  0.00    -0.314 OA
HETATM    7  C11 UNL     1       1.073   1.830  -0.989  1.00  0.00     0.298 A 
HETATM    8  O2  UNL     1       1.860   2.030  -2.118  1.00  0.00    -0.345 OA
HETATM    9  C12 UNL     1       2.450   1.878  -0.769  1.00  0.00     0.209 A 
HETATM   10  C13 UNL     1       3.253   0.658  -0.547  1.00  0.00     0.158 C 
HETATM   11  C14 UNL     1       4.711   1.018  -0.237  1.00  0.00     0.043 C 
HETATM   12  O3  UNL     1       2.825  -0.094   0.598  1.00  0.00    -0.345 OA
ENDROOT
BRANCH   1  13
HETATM   13  C2  UNL     1      -2.142  -0.876   0.396  1.00  0.00    -0.049 C 
HETATM   14  C1  UNL     1      -3.170  -1.683   1.145  1.00  0.00     0.049 C 
HETATM   15  C3  UNL     1      -2.601  -0.151  -0.599  1.00  0.00     0.010 C 
BRANCH  15  16
HETATM   16  C4  UNL     1      -4.006  -0.152  -0.925  1.00  0.00     0.037 C 
HETATM   17  C5  UNL     1      -4.438   0.587  -1.932  1.00  0.00     0.103 C 
HETATM   18 CL1  UNL     1      -3.325   1.562  -2.867  1.00  0.00    -0.071 Cl
HETATM   19 CL2  UNL     1      -6.145   0.584  -2.326  1.00  0.00    -0.071 Cl
ENDBRANCH  15  16
ENDBRANCH   1  13
TORSDOF 2
