REMARK  4 active torsions:
REMARK  status: ('A' for Active; 'I' for Inactive)
REMARK    1  A    between atoms: O1_2  and  C2_3 
REMARK    2  A    between atoms: C2_3  and  C3_5 
REMARK    3  A    between atoms: C4_6  and  C5_7 
REMARK    4  A    between atoms: C9_14  and  C10_15 
ROOT
HETATM    1  C5  UNL     1      -0.192  -1.388  -0.207  1.00  0.00     0.057 C 
HETATM    2  C6  UNL     1      -0.093  -2.804   0.221  1.00  0.00     0.037 C 
HETATM    3  S1  UNL     1      -0.333  -1.486  -2.059  1.00  0.00    -0.068 SA
HETATM    4  C7  UNL     1      -2.072  -1.858  -1.875  1.00  0.00     0.232 C 
HETATM    5  O3  UNL     1      -2.729  -2.650  -2.579  1.00  0.00    -0.279 OA
HETATM    6  C8  UNL     1      -2.458  -1.013  -0.735  1.00  0.00     0.097 C 
HETATM    7 CL1  UNL     1      -4.185  -0.497  -0.778  1.00  0.00    -0.079 Cl
HETATM    8  C9  UNL     1      -1.519  -0.759   0.131  1.00  0.00    -0.009 C 
ENDROOT
BRANCH   1   9
HETATM    9  C4  UNL     1       0.987  -0.570  -0.003  1.00  0.00     0.004 C 
HETATM   10  C3  UNL     1       1.610   0.169  -0.901  1.00  0.00     0.080 C 
BRANCH  10  11
HETATM   11  C2  UNL     1       2.790   0.975  -0.654  1.00  0.00     0.282 C 
HETATM   12  O2  UNL     1       3.345   1.040   0.485  1.00  0.00    -0.260 OA
BRANCH  11  13
HETATM   13  O1  UNL     1       3.377   1.722  -1.660  1.00  0.00    -0.323 OA
HETATM   14  C1  UNL     1       4.528   2.503  -1.406  1.00  0.00     0.213 C 
ENDBRANCH  11  13
ENDBRANCH  10  11
ENDBRANCH   1   9
BRANCH   8  15
HETATM   15  C10 UNL     1      -1.755   0.081   1.334  1.00  0.00     0.057 C 
HETATM   16  C11 UNL     1      -3.182   0.490   1.586  1.00  0.00     0.037 C 
HETATM   17  C12 UNL     1      -0.954   1.399   1.251  1.00  0.00     0.037 C 
HETATM   18 CL2  UNL     1      -1.196  -0.686   2.818  1.00  0.00    -0.115 Cl
ENDBRANCH   8  15
TORSDOF 4
