REMARK  7 active torsions:
REMARK  status: ('A' for Active; 'I' for Inactive)
REMARK    1  A    between atoms: N1_1  and  C1_4 
REMARK    2  A    between atoms: C3_11  and  N4_12 
REMARK    3  A    between atoms: N5_14  and  N6_16 
REMARK    4  A    between atoms: N6_16  and  N7_18 
REMARK    5  A    between atoms: N7_18  and  C4_20 
REMARK    6  A    between atoms: C6_25  and  N11_26 
REMARK    7  A    between atoms: N11_26  and  N12_28 
ROOT
HETATM    1  C1  UNL     1      -4.174   0.405   0.059  1.00  0.00     0.135 A 
HETATM    2  N2  UNL     1      -4.221   1.743  -0.063  1.00  0.00    -0.293 N 
ATOM      3  H2  UNL     1      -5.125   2.210  -0.139  1.00  0.00     0.172 HD
HETATM    4  C2  UNL     1      -3.091   2.475  -0.086  1.00  0.00     0.327 A 
HETATM    5  O1  UNL     1      -3.198   3.730  -0.202  1.00  0.00    -0.247 OA
HETATM    6  N3  UNL     1      -1.919   1.855   0.014  1.00  0.00    -0.291 N 
ATOM      7  H3  UNL     1      -1.064   2.410  -0.004  1.00  0.00     0.172 HD
HETATM    8  C3  UNL     1      -1.825   0.519   0.138  1.00  0.00     0.157 A 
HETATM    9  C6  UNL     1      -2.964  -0.248   0.163  1.00  0.00     0.137 A 
ENDROOT
BRANCH   8  10
HETATM   10  N4  UNL     1      -0.563  -0.133   0.244  1.00  0.00    -0.268 N 
HETATM   11  N5  UNL     1       0.219  -0.277  -0.720  1.00  0.00    -0.227 N 
ATOM     12  H5  UNL     1      -0.030   0.079  -1.643  1.00  0.00     0.210 HD
ATOM     13  H4  UNL     1      -0.283  -0.501   1.153  1.00  0.00     0.190 HD
BRANCH  11  14
HETATM   14  N6  UNL     1       1.432  -0.928  -0.522  1.00  0.00    -0.231 N 
ATOM     15  H6  UNL     1       1.511  -1.660   0.183  1.00  0.00     0.209 HD
BRANCH  14  16
HETATM   16  N7  UNL     1       2.516  -0.583  -1.275  1.00  0.00    -0.298 N 
ATOM     17  H7  UNL     1       2.528  -0.717  -2.286  1.00  0.00     0.183 HD
BRANCH  16  18
HETATM   18  C4  UNL     1       3.622  -0.030  -0.588  1.00  0.00     0.227 C 
HETATM   19  C5  UNL     1       4.202  -0.961   0.457  1.00  0.00     0.177 C 
HETATM   20  N8  UNL     1       4.893  -0.030   1.319  1.00  0.00    -0.127 NA
HETATM   21  N9  UNL     1       4.458   1.242   1.013  1.00  0.00    -0.038 NA
HETATM   22  N10 UNL     1       3.299   1.122   0.233  1.00  0.00    -0.102 NA
ENDBRANCH  16  18
ENDBRANCH  14  16
ENDBRANCH  11  14
ENDBRANCH   8  10
BRANCH   9  23
HETATM   23  N11 UNL     1      -2.927  -1.670   0.292  1.00  0.00    -0.300 N 
ATOM     24  H11 UNL     1      -2.948  -2.089   1.222  1.00  0.00     0.186 HD
BRANCH  23  25
HETATM   25  N12 UNL     1      -2.863  -2.497  -0.829  1.00  0.00    -0.344 N 
ATOM     26 2H12 UNL     1      -2.843  -2.062  -1.751  1.00  0.00     0.176 HD
ATOM     27 1H12 UNL     1      -2.837  -3.512  -0.737  1.00  0.00     0.176 HD
ENDBRANCH  23  25
ENDBRANCH   9  23
BRANCH   1  28
HETATM   28  N1  UNL     1      -5.239  -0.325   0.084  1.00  0.00    -0.383 N 
ATOM     29  H12 UNL     1      -6.134   0.158   0.007  1.00  0.00     0.157 HD
ATOM     30  H11 UNL     1      -5.203  -1.340   0.177  1.00  0.00     0.157 HD
ENDBRANCH   1  28
TORSDOF 7
