REMARK  7 active torsions:
REMARK  status: ('A' for Active; 'I' for Inactive)
REMARK    1  A    between atoms: N1_1  and  N2_4 
REMARK    2  A    between atoms: C1_6  and  C2_8 
REMARK    3  A    between atoms: C2_8  and  O1_9 
REMARK    4  A    between atoms: C2_8  and  C4_17 
REMARK    5  A    between atoms: O1_9  and  C3_10 
REMARK       I    between atoms: C3_10  and  N4_12 
REMARK    6  A    between atoms: N4_12  and  N5_14 
REMARK    7  A    between atoms: C6_21  and  C7_22 
ROOT
HETATM    1  C2  UNL     1      -0.466  -0.427  -0.025  1.00  0.00     0.258 C 
ENDROOT
BRANCH   1   2
HETATM    2  C1  UNL     1      -0.875  -1.818  -0.327  1.00  0.00     0.143 C 
HETATM    3  N2  UNL     1      -0.872  -2.673   0.636  1.00  0.00    -0.295 N 
ATOM      4  H2  UNL     1      -1.154  -3.630   0.424  1.00  0.00     0.187 HD
HETATM    5  N3  UNL     1      -1.267  -2.249  -1.622  1.00  0.00    -0.083 NA
BRANCH   3   6
HETATM    6  N1  UNL     1      -0.512  -2.380   1.937  1.00  0.00    -0.344 N 
ATOM      7  H12 UNL     1      -0.233  -1.418   2.131  1.00  0.00     0.176 HD
ATOM      8  H11 UNL     1      -0.510  -3.057   2.700  1.00  0.00     0.176 HD
ENDBRANCH   3   6
ENDBRANCH   1   2
BRANCH   1   9
HETATM    9  O1  UNL     1      -1.556   0.394  -0.357  1.00  0.00    -0.283 OA
BRANCH   9  10
HETATM   10  C3  UNL     1      -2.311   1.121   0.524  1.00  0.00     0.380 C 
HETATM   11  O2  UNL     1      -2.021   1.064   1.739  1.00  0.00    -0.237 OA
HETATM   12  N4  UNL     1      -3.391   1.913   0.040  1.00  0.00    -0.252 N 
ATOM     13  H4  UNL     1      -3.577   1.918  -0.963  1.00  0.00     0.191 HD
BRANCH  12  14
HETATM   14  N5  UNL     1      -4.210   2.684   0.872  1.00  0.00    -0.341 N 
ATOM     15  H52 UNL     1      -4.010   2.667   1.872  1.00  0.00     0.177 HD
ATOM     16  H51 UNL     1      -4.984   3.251   0.525  1.00  0.00     0.177 HD
ENDBRANCH  12  14
ENDBRANCH   9  10
ENDBRANCH   1   9
BRANCH   1  17
HETATM   17  C4  UNL     1       0.791  -0.038  -0.680  1.00  0.00     0.107 A 
HETATM   18  C5  UNL     1       1.041   0.314  -1.979  1.00  0.00     0.126 A 
HETATM   19  N6  UNL     1       2.341   0.581  -2.083  1.00  0.00    -0.340 N 
HETATM   20  C6  UNL     1       2.913   0.405  -0.877  1.00  0.00     0.214 A 
ATOM     21  H6  UNL     1       2.823   0.870  -2.934  1.00  0.00     0.167 HD
HETATM   22  O4  UNL     1       1.959   0.035  -0.064  1.00  0.00    -0.289 OA
BRANCH  20  23
HETATM   23  C7  UNL     1       4.320   0.586  -0.530  1.00  0.00     0.306 C 
HETATM   24  N7  UNL     1       4.770   0.360   0.792  1.00  0.00    -0.054 NA
HETATM   25  O3  UNL     1       5.144   0.944  -1.400  1.00  0.00    -0.267 OA
ENDBRANCH  20  23
ENDBRANCH   1  17
TORSDOF 7
