REMARK  11 active torsions:
REMARK  status: ('A' for Active; 'I' for Inactive)
REMARK    1  A    between atoms: N1_1  and  C1_4 
REMARK    2  A    between atoms: C2_7  and  N3_8 
REMARK    3  A    between atoms: N4_11  and  C3_12 
REMARK    4  A    between atoms: C3_12  and  C4_13 
REMARK    5  A    between atoms: C4_13  and  C5_14 
REMARK    6  A    between atoms: C5_14  and  C6_15 
REMARK    7  A    between atoms: C6_15  and  N5_16 
REMARK       I    between atoms: N5_16  and  C7_18 
REMARK    8  A    between atoms: C7_18  and  C8_20 
REMARK    9  A    between atoms: C8_20  and  C9_21 
REMARK   10  A    between atoms: C9_21  and  C10_22 
REMARK   11  A    between atoms: C10_22  and  C11_23 
ROOT
HETATM    1  C4  UNL     1      -1.628   1.068  -0.190  1.00  0.00     0.022 C 
ENDROOT
BRANCH   1   2
HETATM    2  C3  UNL     1      -2.393   0.578  -1.387  1.00  0.00     0.153 C 
BRANCH   2   3
HETATM    3  N4  UNL     1      -3.592  -0.144  -1.033  1.00  0.00    -0.132 N 
HETATM    4  C2  UNL     1      -4.721   0.542  -0.814  1.00  0.00     0.696 A 
HETATM    5  N2  UNL     1      -5.847  -0.150  -0.506  1.00  0.00    -0.022 N 
HETATM    6  C1  UNL     1      -5.857  -1.485  -0.415  1.00  0.00     0.694 A 
ATOM      7  H2  UNL     1      -6.712   0.363  -0.339  1.00  0.00     0.203 HD
HETATM    8  N10 UNL     1      -4.706  -2.136  -0.642  1.00  0.00    -0.140 N 
HETATM    9  C12 UNL     1      -3.559  -1.492  -0.952  1.00  0.00     0.355 A 
ATOM     10  H10 UNL     1      -4.696  -3.154  -0.578  1.00  0.00     0.189 HD
HETATM   11  O2  UNL     1      -2.509  -2.153  -1.157  1.00  0.00    -0.245 OA
BRANCH   4  12
HETATM   12  N3  UNL     1      -4.836   1.818  -0.869  1.00  0.00    -0.234 N 
ATOM     13  H32 UNL     1      -5.696   2.341  -0.702  1.00  0.00     0.174 HD
ATOM     14  H31 UNL     1      -3.990   2.338  -1.101  1.00  0.00     0.174 HD
ENDBRANCH   4  12
BRANCH   6  15
HETATM   15  N1  UNL     1      -6.956  -2.128  -0.116  1.00  0.00    -0.234 N 
ATOM     16  H12 UNL     1      -7.831  -1.633   0.057  1.00  0.00     0.174 HD
ATOM     17  H11 UNL     1      -6.964  -3.146  -0.047  1.00  0.00     0.174 HD
ENDBRANCH   6  15
ENDBRANCH   2   3
ENDBRANCH   1   2
BRANCH   1  18
HETATM   18  C5  UNL     1      -1.130   0.023   0.743  1.00  0.00     0.021 C 
BRANCH  18  19
HETATM   19  C6  UNL     1      -0.396   0.609   1.931  1.00  0.00     0.122 C 
BRANCH  19  20
HETATM   20  N5  UNL     1       0.751   1.395   1.604  1.00  0.00    -0.361 N 
HETATM   21  C7  UNL     1       1.878   0.876   0.916  1.00  0.00     0.217 C 
HETATM   22  O1  UNL     1       1.843  -0.332   0.592  1.00  0.00    -0.274 OA
ATOM     23  H5  UNL     1       0.760   2.377   1.879  1.00  0.00     0.162 HD
BRANCH  21  24
HETATM   24  C8  UNL     1       3.026   1.739   0.607  1.00  0.00     0.103 C 
BRANCH  24  25
HETATM   25  C9  UNL     1       4.162   0.999  -0.001  1.00  0.00     0.017 C 
BRANCH  25  26
HETATM   26  C10 UNL     1       4.764  -0.057   0.880  1.00  0.00     0.079 C 
BRANCH  26  27
HETATM   27  C11 UNL     1       5.878  -0.662   0.080  1.00  0.00     0.106 A 
HETATM   28  N6  UNL     1       7.138  -0.206   0.104  1.00  0.00    -0.274 N 
HETATM   29  N7  UNL     1       7.821  -0.989  -0.721  1.00  0.00    -0.007 NA
ATOM     30  H6  UNL     1       7.498   0.581   0.645  1.00  0.00     0.185 HD
HETATM   31  N8  UNL     1       7.054  -1.917  -1.265  1.00  0.00    -0.007 NA
HETATM   32  N9  UNL     1       5.834  -1.694  -0.747  1.00  0.00    -0.274 N 
ATOM     33  H9  UNL     1       4.999  -2.239  -0.960  1.00  0.00     0.185 HD
ENDBRANCH  26  27
ENDBRANCH  25  26
ENDBRANCH  24  25
ENDBRANCH  21  24
ENDBRANCH  19  20
ENDBRANCH  18  19
ENDBRANCH   1  18
TORSDOF 11
