REMARK  15 active torsions:
REMARK  status: ('A' for Active; 'I' for Inactive)
REMARK    1  A    between atoms: N1_2  and  C3_4 
REMARK    2  A    between atoms: N1_2  and  C5_10 
REMARK    3  A    between atoms: C3_4  and  C4_5 
REMARK    4  A    between atoms: C4_5  and  N2_6 
REMARK    5  A    between atoms: C5_10  and  C6_11 
REMARK    6  A    between atoms: C6_11  and  C7_12 
REMARK    7  A    between atoms: C7_12  and  C8_13 
REMARK    8  A    between atoms: C8_13  and  C9_14 
REMARK    9  A    between atoms: C9_14  and  O1_15 
REMARK   10  A    between atoms: O1_15  and  C10_16 
REMARK   11  A    between atoms: C11_18  and  N3_19 
REMARK   12  A    between atoms: C12_23  and  N4_24 
REMARK   13  A    between atoms: C12_23  and  N5_28 
REMARK   14  A    between atoms: C13_32  and  O3_33 
REMARK   15  A    between atoms: C14_35  and  O4_36 
ROOT
HETATM    1  C10 UNL     1      -2.774   0.348   0.387  1.00  0.00     0.293 C 
HETATM    2  O2  UNL     1      -3.338  -0.534  -0.517  1.00  0.00    -0.322 OA
HETATM    3  C11 UNL     1      -4.493  -0.084  -1.109  1.00  0.00     0.388 C 
HETATM    4  C12 UNL     1      -5.642   0.065  -0.128  1.00  0.00     0.360 C 
HETATM    5  C13 UNL     1      -5.063   0.588   1.180  1.00  0.00     0.220 C 
HETATM    6  C14 UNL     1      -3.818   1.362   0.788  1.00  0.00     0.206 C 
ENDROOT
BRANCH   1   7
HETATM    7  O1  UNL     1      -2.290  -0.381   1.437  1.00  0.00    -0.358 OA
BRANCH   7   8
HETATM    8  C9  UNL     1      -0.944  -0.341   1.634  1.00  0.00     0.171 C 
BRANCH   8   9
HETATM    9  C8  UNL     1      -0.107  -0.833   0.501  1.00  0.00     0.026 C 
BRANCH   9  10
HETATM   10  C7  UNL     1       1.359  -0.698   0.938  1.00  0.00     0.004 C 
BRANCH  10  11
HETATM   11  C6  UNL     1       2.232  -1.180  -0.168  1.00  0.00     0.028 C 
BRANCH  11  12
HETATM   12  C5  UNL     1       3.689  -1.123   0.083  1.00  0.00     0.236 C 
BRANCH  12  13
HETATM   13  N1  UNL     1       4.283   0.131   0.348  1.00  0.00    -0.073 N 
HETATM   14  C1  UNL     1       4.099   0.497   1.752  1.00  0.00     0.272 C 
HETATM   15  C2  UNL     1       3.855   1.206  -0.513  1.00  0.00     0.272 C 
BRANCH  13  16
HETATM   16  C3  UNL     1       5.721  -0.003   0.162  1.00  0.00     0.263 C 
BRANCH  16  17
HETATM   17  C4  UNL     1       6.131   0.039  -1.283  1.00  0.00     0.257 C 
BRANCH  17  18
HETATM   18  N2  UNL     1       7.589  -0.103  -1.340  1.00  0.00    -0.078 N 
ATOM     19  H23 UNL     1       8.076   0.588  -0.770  1.00  0.00     0.274 HD
ATOM     20  H22 UNL     1       7.924  -0.937  -0.858  1.00  0.00     0.274 HD
ATOM     21  H21 UNL     1       7.867  -0.074  -2.321  1.00  0.00     0.274 HD
ENDBRANCH  17  18
ENDBRANCH  16  17
ENDBRANCH  13  16
ENDBRANCH  12  13
ENDBRANCH  11  12
ENDBRANCH  10  11
ENDBRANCH   9  10
ENDBRANCH   8   9
ENDBRANCH   7   8
ENDBRANCH   1   7
BRANCH   6  22
HETATM   22  O4  UNL     1      -3.388   2.198   1.808  1.00  0.00    -0.388 OA
ATOM     23  H4  UNL     1      -4.045   2.836   2.060  1.00  0.00     0.210 HD
ENDBRANCH   6  22
BRANCH   3  24
HETATM   24  N3  UNL     1      -4.915  -1.121  -2.054  1.00  0.00    -0.048 N 
ATOM     25  H33 UNL     1      -4.190  -1.372  -2.726  1.00  0.00     0.277 HD
ATOM     26  H32 UNL     1      -5.015  -2.040  -1.624  1.00  0.00     0.277 HD
ATOM     27  H31 UNL     1      -5.773  -0.787  -2.494  1.00  0.00     0.277 HD
ENDBRANCH   3  24
BRANCH   5  28
HETATM   28  O3  UNL     1      -4.727  -0.503   1.979  1.00  0.00    -0.388 OA
ATOM     29  H3  UNL     1      -4.366  -0.177   2.795  1.00  0.00     0.210 HD
ENDBRANCH   5  28
BRANCH   4  30
HETATM   30  N4  UNL     1      -6.579   1.070  -0.597  1.00  0.00    -0.038 N 
ATOM     31  H43 UNL     1      -6.119   1.961  -0.782  1.00  0.00     0.277 HD
ATOM     32  H42 UNL     1      -6.909   0.871  -1.541  1.00  0.00     0.277 HD
ATOM     33  H41 UNL     1      -7.351   1.170   0.062  1.00  0.00     0.277 HD
ENDBRANCH   4  30
BRANCH   4  34
HETATM   34  N5  UNL     1      -6.337  -1.184   0.080  1.00  0.00    -0.038 N 
ATOM     35  H53 UNL     1      -6.653  -1.584  -0.803  1.00  0.00     0.277 HD
ATOM     36  H52 UNL     1      -5.695  -1.922   0.370  1.00  0.00     0.277 HD
ATOM     37  H51 UNL     1      -7.109  -1.084   0.739  1.00  0.00     0.277 HD
ENDBRANCH   4  34
TORSDOF 15
