REMARK  11 active torsions:
REMARK  status: ('A' for Active; 'I' for Inactive)
REMARK       I    between atoms: C1_4  and  N3_6 
REMARK    1  A    between atoms: N3_6  and  C2_8 
REMARK    2  A    between atoms: C2_8  and  C3_9 
REMARK    3  A    between atoms: C3_9  and  C4_10 
REMARK    4  A    between atoms: C4_10  and  N5_14 
REMARK    5  A    between atoms: N5_14  and  C5_16 
REMARK    6  A    between atoms: C5_16  and  C6_17 
REMARK    7  A    between atoms: C7_19  and  C8_20 
REMARK    8  A    between atoms: C8_20  and  N6_21 
REMARK    9  A    between atoms: C10_23  and  C11_24 
REMARK   10  A    between atoms: C11_24  and  N7_25 
REMARK   11  A    between atoms: N7_25  and  N8_26 
ROOT
HETATM    1  C6  UNL     1       0.405  -0.326   0.170  1.00  0.00     0.233 C 
HETATM    2  O1  UNL     1      -0.453  -0.026  -0.898  1.00  0.00    -0.349 OA
HETATM    3  C7  UNL     1      -1.704  -0.296  -0.423  1.00  0.00     0.243 C 
HETATM    4  N11 UNL     1      -1.542  -1.541   0.240  1.00  0.00    -0.331 N 
ATOM      5  H11 UNL     1      -2.167  -2.347   0.230  1.00  0.00     0.165 HD
HETATM    6  C12 UNL     1      -0.276  -1.395   0.936  1.00  0.00     0.250 C 
HETATM    7  O2  UNL     1       0.082  -2.051   1.936  1.00  0.00    -0.271 OA
ENDROOT
BRANCH   1   8
HETATM    8  C5  UNL     1       1.667  -0.988  -0.406  1.00  0.00     0.162 C 
BRANCH   8   9
HETATM    9  N5  UNL     1       2.616  -1.168   0.649  1.00  0.00    -0.377 N 
ATOM     10  H5  UNL     1       2.324  -0.980   1.608  1.00  0.00     0.160 HD
BRANCH   9  11
HETATM   11  C4  UNL     1       3.964  -1.603   0.412  1.00  0.00     0.072 C 
HETATM   12  N4  UNL     1       4.546  -2.530   1.054  1.00  0.00    -0.389 N 
ATOM     13  H42 UNL     1       5.503  -2.839   0.886  1.00  0.00     0.157 HD
ATOM     14  H41 UNL     1       4.076  -3.038   1.803  1.00  0.00     0.157 HD
BRANCH  11  15
HETATM   15  C3  UNL     1       4.657  -0.853  -0.694  1.00  0.00     0.095 C 
BRANCH  15  16
HETATM   16  C2  UNL     1       4.484   0.623  -0.499  1.00  0.00     0.130 C 
BRANCH  16  17
HETATM   17  N3  UNL     1       5.105   1.117   0.677  1.00  0.00    -0.364 N 
HETATM   18  C1  UNL     1       6.568   1.275   0.654  1.00  0.00     0.181 C 
HETATM   19  N1  UNL     1       7.261   0.432   1.228  1.00  0.00    -0.374 N 
HETATM   20  N2  UNL     1       7.016   2.434  -0.066  1.00  0.00    -0.064 NA
ATOM     21  H12 UNL     1       8.275   0.542   1.212  1.00  0.00     0.158 HD
ATOM     22  H11 UNL     1       6.943  -0.391   1.739  1.00  0.00     0.158 HD
ATOM     23  H3  UNL     1       4.559   1.353   1.506  1.00  0.00     0.162 HD
ENDBRANCH  16  17
ENDBRANCH  15  16
ENDBRANCH  11  15
ENDBRANCH   9  11
ENDBRANCH   8   9
ENDBRANCH   1   8
BRANCH   3  24
HETATM   24  C8  UNL     1      -2.730  -0.357  -1.539  1.00  0.00     0.199 C 
BRANCH  24  25
HETATM   25  N6  UNL     1      -4.006  -0.680  -0.943  1.00  0.00    -0.281 N 
HETATM   26  C9  UNL     1      -4.826   0.250  -0.439  1.00  0.00     0.135 A 
HETATM   27  C10 UNL     1      -5.989  -0.419   0.032  1.00  0.00     0.057 A 
HETATM   28  N9  UNL     1      -5.807  -1.682  -0.210  1.00  0.00    -0.285 N 
HETATM   29  N10 UNL     1      -4.608  -1.856  -0.806  1.00  0.00    -0.020 NA
ATOM     30  H9  UNL     1      -6.467  -2.426   0.015  1.00  0.00     0.184 HD
BRANCH  27  31
HETATM   31  C11 UNL     1      -7.091   0.395   0.649  1.00  0.00     0.194 C 
BRANCH  31  32
HETATM   32  N7  UNL     1      -7.702   1.164  -0.408  1.00  0.00    -0.142 NA
BRANCH  32  33
HETATM   33  N8  UNL     1      -7.622   2.519   0.002  1.00  0.00    -0.348 N 
ATOM     34  H82 UNL     1      -7.213   2.864   0.870  1.00  0.00     0.172 HD
ATOM     35  H81 UNL     1      -8.054   3.063  -0.745  1.00  0.00     0.172 HD
ENDBRANCH  32  33
ENDBRANCH  31  32
ENDBRANCH  27  31
ENDBRANCH  24  25
ENDBRANCH   3  24
TORSDOF 11
