REMARK  3 active torsions:
REMARK  status: ('A' for Active; 'I' for Inactive)
REMARK    1  A    between atoms: N1_1  and  N2_4 
REMARK    2  A    between atoms: N2_4  and  C1_6 
REMARK    3  A    between atoms: N6_16  and  C4_18 
ROOT
HETATM    1  C1  UNL     1      -0.026   0.297   0.068  1.00  0.00     0.170 A 
HETATM    2  N3  UNL     1      -1.319   0.145   0.454  1.00  0.00    -0.289 N 
ATOM      3  H3  UNL     1      -1.840   0.949   0.803  1.00  0.00     0.172 HD
HETATM    4  C2  UNL     1      -1.916  -1.053   0.380  1.00  0.00     0.340 A 
HETATM    5  O1  UNL     1      -3.113  -1.121   0.754  1.00  0.00    -0.245 OA
HETATM    6  N4  UNL     1      -1.223  -2.105  -0.079  1.00  0.00    -0.250 N 
ATOM      7  H4  UNL     1      -1.696  -3.008  -0.127  1.00  0.00     0.192 HD
HETATM    8  N5  UNL     1       0.029  -2.041  -0.471  1.00  0.00    -0.278 N 
ATOM      9  H5  UNL     1       0.521  -2.866  -0.815  1.00  0.00     0.189 HD
HETATM   10  C3  UNL     1       0.647  -0.820  -0.399  1.00  0.00     0.168 A 
HETATM   11  N6  UNL     1       1.856  -0.715  -0.768  1.00  0.00    -0.316 N 
ATOM     12  H6  UNL     1       2.318  -1.559  -1.106  1.00  0.00     0.170 HD
ENDROOT
BRANCH   1  13
HETATM   13  N2  UNL     1       0.558   1.444   0.134  1.00  0.00    -0.289 N 
ATOM     14  H2  UNL     1       1.529   1.560  -0.156  1.00  0.00     0.188 HD
BRANCH  13  15
HETATM   15  N1  UNL     1      -0.186   2.522   0.616  1.00  0.00    -0.344 N 
ATOM     16  H12 UNL     1      -1.156   2.390   0.902  1.00  0.00     0.176 HD
ATOM     17  H11 UNL     1       0.276   3.430   0.668  1.00  0.00     0.176 HD
ENDBRANCH  13  15
ENDBRANCH   1  13
BRANCH  11  18
HETATM   18  C4  UNL     1       2.610   0.468  -0.749  1.00  0.00     0.354 C 
HETATM   19  O2  UNL     1       3.465   0.735   0.155  1.00  0.00    -0.283 OA
ENDBRANCH  11  18
TORSDOF 3
