REMARK  7 active torsions:
REMARK  status: ('A' for Active; 'I' for Inactive)
REMARK       I    between atoms: C2_2  and  N1_4 
REMARK    1  A    between atoms: N1_4  and  N2_5 
REMARK       I    between atoms: N2_5  and  C3_7 
REMARK    2  A    between atoms: C3_7  and  C4_9 
REMARK    3  A    between atoms: C4_9  and  N3_10 
REMARK       I    between atoms: N3_10  and  C5_12 
REMARK    4  A    between atoms: C5_12  and  C6_14 
REMARK    5  A    between atoms: C6_14  and  N4_15 
REMARK    6  A    between atoms: C6_14  and  C15_28 
REMARK       I    between atoms: N4_15  and  C7_17 
REMARK       I    between atoms: C7_17  and  N5_19 
REMARK    7  A    between atoms: N5_19  and  C8_21 
ROOT
HETATM    1  C6  UNL     1      -0.228  -1.303   1.498  1.00  0.00     0.182 C 
ENDROOT
BRANCH   1   2
HETATM    2  C5  UNL     1       0.544  -0.529   0.553  1.00  0.00     0.244 C 
HETATM    3  N3  UNL     1       1.875  -0.075   0.791  1.00  0.00    -0.330 N 
ATOM      4  H3  UNL     1       2.368  -0.297   1.656  1.00  0.00     0.168 HD
HETATM    5  O3  UNL     1       0.135  -0.129  -0.610  1.00  0.00    -0.271 OA
BRANCH   3   6
HETATM    6  C4  UNL     1       2.488   0.707  -0.242  1.00  0.00     0.167 C 
BRANCH   6   7
HETATM    7  C3  UNL     1       3.859   1.077  -0.040  1.00  0.00     0.285 C 
HETATM    8  N2  UNL     1       4.669   0.805   1.121  1.00  0.00    -0.195 N 
ATOM      9  H2  UNL     1       4.276   0.339   1.939  1.00  0.00     0.205 HD
HETATM   10  O2  UNL     1       4.436   1.699  -0.976  1.00  0.00    -0.264 OA
BRANCH   8  11
HETATM   11  N1  UNL     1       6.004   1.198   1.090  1.00  0.00    -0.284 NA
HETATM   12  C2  UNL     1       7.250   1.561   1.073  1.00  0.00     0.308 C 
HETATM   13  C1  UNL     1       7.903   2.135  -0.193  1.00  0.00     0.137 C 
HETATM   14  O1  UNL     1       8.124   1.533   2.016  1.00  0.00    -0.256 OA
ENDBRANCH   8  11
ENDBRANCH   6   7
ENDBRANCH   3   6
ENDBRANCH   1   2
BRANCH   1  15
HETATM   15  N4  UNL     1      -1.546  -0.690   1.636  1.00  0.00    -0.329 N 
HETATM   16  C7  UNL     1      -2.359  -0.258   0.616  1.00  0.00     0.321 C 
HETATM   17  O4  UNL     1      -2.044  -0.390  -0.603  1.00  0.00    -0.247 OA
HETATM   18  N5  UNL     1      -3.629   0.391   0.822  1.00  0.00    -0.308 N 
ATOM     19  H5  UNL     1      -4.091   0.458   1.729  1.00  0.00     0.170 HD
ATOM     20  H4  UNL     1      -1.899  -0.570   2.586  1.00  0.00     0.165 HD
BRANCH  18  21
HETATM   21  C8  UNL     1      -4.178   0.940  -0.406  1.00  0.00     0.042 A 
HETATM   22  C9  UNL     1      -3.364   1.525  -1.267  1.00  0.00     0.030 A 
HETATM   23  C10 UNL     1      -3.787   2.137  -2.477  1.00  0.00     0.002 A 
HETATM   24  C11 UNL     1      -5.169   2.057  -2.671  1.00  0.00     0.001 A 
HETATM   25  C12 UNL     1      -5.991   1.471  -1.810  1.00  0.00     0.009 A 
HETATM   26  C13 UNL     1      -5.507   0.891  -0.637  1.00  0.00    -0.035 A 
HETATM   27  C14 UNL     1      -6.468   0.223   0.291  1.00  0.00     0.050 C 
ENDBRANCH  18  21
ENDBRANCH   1  15
BRANCH   1  28
HETATM   28  C15 UNL     1      -0.291  -2.791   1.226  1.00  0.00     0.009 C 
HETATM   29  C16 UNL     1      -0.988  -3.191  -0.049  1.00  0.00     0.012 C 
HETATM   30  C17 UNL     1       1.123  -3.366   1.043  1.00  0.00     0.012 C 
ENDBRANCH   1  28
TORSDOF 7
