REMARK  11 active torsions:
REMARK  status: ('A' for Active; 'I' for Inactive)
REMARK    1  A    between atoms: C5_7  and  N2_8 
REMARK       I    between atoms: N3_14  and  C11_15 
REMARK       I    between atoms: C11_15  and  N4_17 
REMARK    2  A    between atoms: N4_17  and  C12_18 
REMARK    3  A    between atoms: C12_18  and  C13_19 
REMARK    4  A    between atoms: C12_18  and  C19_31 
REMARK       I    between atoms: C13_19  and  N5_21 
REMARK    5  A    between atoms: N5_21  and  C14_23 
REMARK    6  A    between atoms: C14_23  and  C15_24 
REMARK    7  A    between atoms: C15_24  and  S1_25 
REMARK    8  A    between atoms: S1_25  and  S2_26 
REMARK    9  A    between atoms: S2_26  and  C16_27 
REMARK   10  A    between atoms: C16_27  and  C17_28 
REMARK   11  A    between atoms: C17_28  and  C18_29 
ROOT
HETATM    1  N2  UNL     1      -5.072   0.607   0.464  1.00  0.00    -0.374 N 
HETATM    2  C6  UNL     1      -4.001  -0.205   1.068  1.00  0.00     0.124 C 
HETATM    3  C7  UNL     1      -2.690   0.513   0.771  1.00  0.00     0.031 C 
HETATM    4  C8  UNL     1      -3.019   1.190  -0.520  1.00  0.00    -0.020 C 
HETATM    5  C9  UNL     1      -3.140   0.181  -1.613  1.00  0.00     0.031 C 
HETATM    6  C10 UNL     1      -1.914   0.336  -2.543  1.00  0.00     0.129 C 
HETATM    7  N3  UNL     1      -0.760   0.503  -1.702  1.00  0.00    -0.322 N 
HETATM    8  C11 UNL     1       0.204  -0.568  -1.605  1.00  0.00     0.391 C 
HETATM    9  O1  UNL     1      -0.104  -1.573  -2.322  1.00  0.00    -0.230 OA
HETATM   10  N4  UNL     1       1.286  -0.419  -0.799  1.00  0.00    -0.381 NA
HETATM   11  C22 UNL     1      -0.645   1.745  -0.973  1.00  0.00     0.129 C 
HETATM   12  C23 UNL     1      -2.068   2.309  -0.845  1.00  0.00     0.031 C 
HETATM   13  C24 UNL     1      -4.422   1.703  -0.172  1.00  0.00     0.133 C 
ENDROOT
BRANCH  10  14
HETATM   14  C12 UNL     1       2.389  -0.269   0.023  1.00  0.00     0.263 C 
BRANCH  14  15
HETATM   15  C13 UNL     1       3.708  -0.303  -0.698  1.00  0.00     0.254 C 
HETATM   16  O2  UNL     1       3.694  -0.448  -1.940  1.00  0.00    -0.270 OA
HETATM   17  N5  UNL     1       4.943  -0.182  -0.030  1.00  0.00    -0.358 N 
ATOM     18  H5  UNL     1       4.916  -0.064   0.983  1.00  0.00     0.162 HD
BRANCH  17  19
HETATM   19  C14 UNL     1       6.224  -0.211  -0.649  1.00  0.00     0.133 C 
BRANCH  19  20
HETATM   20  C15 UNL     1       6.476   0.881  -1.661  1.00  0.00     0.105 C 
BRANCH  20  21
HETATM   21  S1  UNL     1       8.131   0.727  -2.387  1.00  0.00    -0.096 SA
BRANCH  21  22
HETATM   22  S2  UNL     1       9.670   1.043  -0.968  1.00  0.00    -0.097 SA
BRANCH  22  23
HETATM   23  C16 UNL     1      10.145  -0.489  -0.173  1.00  0.00     0.093 C 
BRANCH  23  24
HETATM   24  C17 UNL     1      11.222  -0.276   0.844  1.00  0.00     0.080 C 
BRANCH  24  25
HETATM   25  C18 UNL     1      10.834   0.668   1.925  1.00  0.00     0.231 C 
HETATM   26  O3  UNL     1      10.417   1.768   1.606  1.00  0.00    -0.307 OA
ENDBRANCH  24  25
ENDBRANCH  23  24
ENDBRANCH  22  23
ENDBRANCH  21  22
ENDBRANCH  20  21
ENDBRANCH  19  20
ENDBRANCH  17  19
ENDBRANCH  14  15
BRANCH  14  27
HETATM   27  C19 UNL     1       2.460  -1.254   1.184  1.00  0.00     0.023 C 
HETATM   28  C20 UNL     1       1.260  -1.130   2.101  1.00  0.00     0.013 C 
HETATM   29  C21 UNL     1       2.473  -2.682   0.652  1.00  0.00     0.013 C 
ENDBRANCH  14  27
ENDBRANCH  10  14
BRANCH   1  30
HETATM   30  C5  UNL     1      -6.432   0.203   0.596  1.00  0.00     0.121 A 
HETATM   31  C3  UNL     1      -7.478   0.942   0.106  1.00  0.00     0.039 A 
HETATM   32  N1  UNL     1      -8.769   0.469   0.250  1.00  0.00    -0.348 N 
HETATM   33  C4  UNL     1      -7.285   2.237  -0.548  1.00  0.00     0.071 C 
HETATM   34  C2  UNL     1      -9.075  -0.677   0.845  1.00  0.00     0.080 A 
ATOM     35  H1  UNL     1      -9.532   1.034  -0.123  1.00  0.00     0.167 HD
HETATM   36  C1  UNL     1     -10.504  -1.137   0.973  1.00  0.00     0.089 C 
HETATM   37  N6  UNL     1      -8.070  -1.406   1.330  1.00  0.00    -0.311 N 
HETATM   38  C25 UNL     1      -6.792  -0.996   1.217  1.00  0.00     0.275 A 
ATOM     39  H6  UNL     1      -8.273  -2.291   1.795  1.00  0.00     0.170 HD
HETATM   40  O4  UNL     1      -5.857  -1.706   1.684  1.00  0.00    -0.266 OA
ENDBRANCH   1  30
TORSDOF 11
