REMARK  4 active torsions:
REMARK  status: ('A' for Active; 'I' for Inactive)
REMARK    1  A    between atoms: C2_2  and  C4_4 
REMARK    2  A    between atoms: C7_12  and  N3_13 
REMARK    3  A    between atoms: N3_13  and  C8_15 
REMARK    4  A    between atoms: C8_15  and  C9_16 
ROOT
HETATM    1  C4  UNL     1       4.092  -0.169   0.308  1.00  0.00     0.086 A 
HETATM    2  N1  UNL     1       3.380  -1.119   0.938  1.00  0.00    -0.338 N 
ATOM      3  H1  UNL     1       3.777  -1.822   1.562  1.00  0.00     0.167 HD
HETATM    4  C5  UNL     1       2.081  -1.018   0.636  1.00  0.00     0.148 A 
HETATM    5  C6  UNL     1       0.928  -1.700   0.978  1.00  0.00     0.290 A 
HETATM    6  O1  UNL     1       1.012  -2.672   1.762  1.00  0.00    -0.265 OA
HETATM    7  N2  UNL     1      -0.281  -1.358   0.501  1.00  0.00    -0.154 N 
ATOM      8  H2  UNL     1      -1.111  -1.883   0.775  1.00  0.00     0.187 HD
HETATM    9  C7  UNL     1      -0.384  -0.318  -0.340  1.00  0.00     0.682 A 
HETATM   10  N4  UNL     1       0.741   0.372  -0.693  1.00  0.00    -0.174 N 
ATOM     11  H4  UNL     1       0.655   1.162  -1.332  1.00  0.00     0.186 HD
HETATM   12  C14 UNL     1       1.952   0.044  -0.227  1.00  0.00     0.155 A 
HETATM   13  N5  UNL     1       3.205   0.544  -0.408  1.00  0.00    -0.329 N 
ATOM     14  H5  UNL     1       3.437   1.342  -1.000  1.00  0.00     0.168 HD
ENDROOT
BRANCH   9  15
HETATM   15  N3  UNL     1      -1.535   0.022  -0.805  1.00  0.00    -0.226 N 
ATOM     16  H3  UNL     1      -1.625   0.812  -1.444  1.00  0.00     0.177 HD
BRANCH  15  17
HETATM   17  C8  UNL     1      -2.695  -0.736  -0.404  1.00  0.00     0.142 C 
BRANCH  17  18
HETATM   18  C9  UNL     1      -3.967  -0.184  -1.016  1.00  0.00     0.004 C 
HETATM   19  C10 UNL     1      -4.119   1.230  -0.554  1.00  0.00     0.006 C 
HETATM   20  C11 UNL     1      -5.386   1.332   0.240  1.00  0.00     0.000 C 
HETATM   21  C12 UNL     1      -5.920  -0.052   0.420  1.00  0.00     0.000 C 
HETATM   22  C13 UNL     1      -5.137  -0.971  -0.471  1.00  0.00     0.006 C 
ENDBRANCH  17  18
ENDBRANCH  15  17
ENDBRANCH   9  15
BRANCH   1  23
HETATM   23  C2  UNL     1       5.566   0.080   0.364  1.00  0.00     0.045 C 
HETATM   24  C1  UNL     1       5.861   1.485   0.787  1.00  0.00     0.017 C 
HETATM   25  C3  UNL     1       6.193  -0.210  -1.005  1.00  0.00     0.017 C 
ENDBRANCH   1  23
TORSDOF 4
