REMARK  10 active torsions:
REMARK  status: ('A' for Active; 'I' for Inactive)
REMARK    1  A    between atoms: C2_2  and  C3_3 
REMARK    2  A    between atoms: C3_3  and  C4_4 
REMARK    3  A    between atoms: C6_6  and  C7_7 
REMARK    4  A    between atoms: C7_7  and  C8_8 
REMARK    5  A    between atoms: C9_9  and  O1_10 
REMARK    6  A    between atoms: C10_13  and  C11_14 
REMARK    7  A    between atoms: C11_14  and  O3_17 
REMARK    8  A    between atoms: C14_19  and  O4_21 
REMARK    9  A    between atoms: C27_36  and  O6_37 
REMARK   10  A    between atoms: O6_37  and  C28_38 
ROOT
HETATM    1  C8  UNL     1      -0.989   0.324  -0.045  1.00  0.00     0.047 C 
HETATM    2  C9  UNL     1       0.236   0.397   0.846  1.00  0.00     0.269 C 
HETATM    3  O2  UNL     1       1.439   0.181   0.290  1.00  0.00    -0.349 OA
HETATM    4  C10 UNL     1       2.698   0.673   0.138  1.00  0.00     0.192 C 
HETATM    5  C14 UNL     1       3.272   0.567  -1.283  1.00  0.00     0.083 C 
HETATM    6  C15 UNL     1       4.403   1.589  -1.411  1.00  0.00     0.049 C 
HETATM    7  C16 UNL     1       2.229   1.020  -2.255  1.00  0.00     0.042 C 
HETATM    8  C17 UNL     1       1.356  -0.018  -2.805  1.00  0.00     0.036 C 
HETATM    9  C18 UNL     1       0.573  -0.893  -1.933  1.00  0.00     0.132 C 
HETATM   10  O5  UNL     1       0.068  -1.803  -2.921  1.00  0.00    -0.374 OA
HETATM   11  C19 UNL     1      -0.847  -2.717  -2.668  1.00  0.00     0.058 C 
HETATM   12  C20 UNL     1      -0.023  -4.031  -2.509  1.00  0.00     0.046 C 
HETATM   13  C21 UNL     1      -1.749  -3.106  -3.826  1.00  0.00     0.046 C 
HETATM   14  C22 UNL     1      -1.722  -2.589  -1.461  1.00  0.00     0.029 C 
HETATM   15  C23 UNL     1      -2.968  -1.825  -1.488  1.00  0.00     0.014 C 
HETATM   16  C24 UNL     1      -3.254  -0.796  -0.485  1.00  0.00     0.009 C 
HETATM   17  C25 UNL     1      -4.474  -1.220   0.358  1.00  0.00     0.012 C 
HETATM   18  C26 UNL     1      -2.259  -0.234   0.479  1.00  0.00     0.084 C 
HETATM   19 CL1  UNL     1      -3.251   0.979   1.342  1.00  0.00    -0.115 Cl
HETATM   20  C27 UNL     1      -2.084  -1.357   1.513  1.00  0.00     0.186 C 
HETATM   21  C30 UNL     1      -0.991  -2.076   0.866  1.00  0.00    -0.047 C 
HETATM   22  C31 UNL     1      -0.297  -2.888   1.631  1.00  0.00    -0.025 C 
HETATM   23  C32 UNL     1       0.849  -3.735   1.249  1.00  0.00     0.036 C 
HETATM   24  C33 UNL     1      -0.772  -1.862  -0.563  1.00  0.00     0.035 C 
HETATM   25  C34 UNL     1      -0.616  -0.518  -1.185  1.00  0.00     0.005 C 
HETATM   26  C35 UNL     1      -1.239   0.166  -2.266  1.00  0.00     0.020 C 
ENDROOT
BRANCH   1  27
HETATM   27  C7  UNL     1      -1.156   1.825  -0.295  1.00  0.00     0.044 C 
BRANCH  27  28
HETATM   28  C6  UNL     1      -1.233   2.713   0.856  1.00  0.00    -0.023 C 
HETATM   29  C4  UNL     1      -0.507   3.820   0.944  1.00  0.00    -0.084 C 
HETATM   30  C5  UNL     1       0.428   4.154  -0.156  1.00  0.00     0.043 C 
BRANCH  29  31
HETATM   31  C3  UNL     1      -0.571   4.746   2.122  1.00  0.00     0.059 C 
BRANCH  31  32
HETATM   32  C2  UNL     1      -1.023   6.086   1.814  1.00  0.00    -0.033 C 
HETATM   33  C1  UNL     1      -1.471   6.499   0.655  1.00  0.00     0.007 C 
ENDBRANCH  31  32
ENDBRANCH  29  31
ENDBRANCH  27  28
ENDBRANCH   1  27
BRANCH   2  34
HETATM   34  O1  UNL     1       0.003   0.672   2.097  1.00  0.00    -0.370 OA
ATOM     35  H1  UNL     1       0.770   0.718   2.655  1.00  0.00     0.212 HD
ENDBRANCH   2  34
BRANCH  20  36
HETATM   36  O6  UNL     1      -2.109  -0.926   2.748  1.00  0.00    -0.310 OA
BRANCH  36  37
HETATM   37  C28 UNL     1      -2.761  -1.185   3.901  1.00  0.00     0.255 C 
HETATM   38  C29 UNL     1      -2.571  -0.498   5.198  1.00  0.00     0.126 C 
HETATM   39  O7  UNL     1      -3.579  -2.111   3.742  1.00  0.00    -0.266 OA
ENDBRANCH  36  37
ENDBRANCH  20  36
BRANCH   4  40
HETATM   40  C11 UNL     1       3.619  -0.170   1.039  1.00  0.00     0.079 C 
HETATM   41  C12 UNL     1       4.980   0.425   1.250  1.00  0.00     0.048 C 
HETATM   42  C13 UNL     1       3.002  -0.228   2.460  1.00  0.00     0.048 C 
BRANCH  40  43
HETATM   43  O3  UNL     1       3.664  -1.496   0.655  1.00  0.00    -0.388 OA
ATOM     44  H3  UNL     1       4.232  -2.016   1.211  1.00  0.00     0.210 HD
ENDBRANCH  40  43
ENDBRANCH   4  40
BRANCH   5  45
HETATM   45  O4  UNL     1       3.809  -0.661  -1.557  1.00  0.00    -0.388 OA
ATOM     46  H4  UNL     1       4.164  -0.727  -2.436  1.00  0.00     0.210 HD
ENDBRANCH   5  45
TORSDOF 10
