REMARK  5 active torsions:
REMARK  status: ('A' for Active; 'I' for Inactive)
REMARK    1  A    between atoms: N1_1  and  N2_4 
REMARK    2  A    between atoms: N2_4  and  N3_5 
REMARK    3  A    between atoms: N3_5  and  C1_7 
REMARK    4  A    between atoms: C3_9  and  S1_10 
REMARK    5  A    between atoms: S1_10  and  N4_11 
ROOT
HETATM    1  C1  UNL     1      -1.474  -0.872  -0.181  1.00  0.00     0.251 C 
HETATM    2  C2  UNL     1      -0.608   0.283  -0.597  1.00  0.00     0.080 C 
HETATM    3  C3  UNL     1       0.343   0.428   0.565  1.00  0.00     0.157 C 
HETATM    4  C4  UNL     1      -0.168  -0.517   1.599  1.00  0.00     0.192 C 
HETATM    5  O3  UNL     1      -1.404  -0.989   1.183  1.00  0.00    -0.363 OA
ENDROOT
BRANCH   1   6
HETATM    6  N3  UNL     1      -2.884  -0.624  -0.516  1.00  0.00    -0.223 N 
ATOM      7  H3  UNL     1      -3.293  -0.987  -1.377  1.00  0.00     0.200 HD
BRANCH   6   8
HETATM    8  N2  UNL     1      -3.564   0.046   0.288  1.00  0.00    -0.246 NA
BRANCH   8   9
HETATM    9  N1  UNL     1      -4.099   0.814   1.075  1.00  0.00    -0.261 N 
ATOM     10  H12 UNL     1      -3.259   1.385   0.979  1.00  0.00     0.193 HD
ATOM     11  H11 UNL     1      -4.655   1.362   1.732  1.00  0.00     0.193 HD
ENDBRANCH   8   9
ENDBRANCH   6   8
ENDBRANCH   1   6
BRANCH   3  12
HETATM   12  S1  UNL     1       1.990  -0.053   0.121  1.00  0.00     0.230 S 
HETATM   13  O1  UNL     1       2.862   0.059   1.337  1.00  0.00    -0.206 OA
HETATM   14  O2  UNL     1       1.931  -1.464  -0.393  1.00  0.00    -0.206 OA
BRANCH  12  15
HETATM   15  N4  UNL     1       2.653   0.957  -1.096  1.00  0.00    -0.328 N 
ATOM     16  H42 UNL     1       2.145   1.740  -1.507  1.00  0.00     0.168 HD
ATOM     17  H41 UNL     1       3.601   0.680  -1.352  1.00  0.00     0.168 HD
ENDBRANCH  12  15
ENDBRANCH   3  12
TORSDOF 5
