REMARK  10 active torsions:
REMARK  status: ('A' for Active; 'I' for Inactive)
REMARK    1  A    between atoms: O1_1  and  C1_3 
REMARK    2  A    between atoms: N1_7  and  C5_8 
REMARK    3  A    between atoms: C5_8  and  C6_9 
REMARK    4  A    between atoms: C6_9  and  O2_10 
REMARK    5  A    between atoms: C6_9  and  C7_12 
REMARK    6  A    between atoms: C7_12  and  O3_13 
REMARK    7  A    between atoms: C7_12  and  C8_15 
REMARK    8  A    between atoms: C8_15  and  O4_16 
REMARK    9  A    between atoms: C8_15  and  N2_18 
REMARK   10  A    between atoms: N2_18  and  C9_20 
ROOT
HETATM    1  C6  UNL     1      -0.272   0.081   0.194  1.00  0.00     0.169 C 
ENDROOT
BRANCH   1   2
HETATM    2  C5  UNL     1      -1.318  -0.909  -0.261  1.00  0.00     0.165 C 
BRANCH   2   3
HETATM    3  N1  UNL     1      -2.643  -0.544   0.190  1.00  0.00    -0.336 N 
HETATM    4  C1  UNL     1      -3.467   0.237  -0.526  1.00  0.00     0.141 A 
HETATM    5  C2  UNL     1      -4.648   0.406   0.155  1.00  0.00     0.057 A 
HETATM    6  C3  UNL     1      -4.528  -0.305   1.331  1.00  0.00     0.022 A 
HETATM    7  C4  UNL     1      -3.278  -0.873   1.309  1.00  0.00     0.093 A 
BRANCH   4   8
HETATM    8  O1  UNL     1      -3.222   0.820  -1.776  1.00  0.00    -0.346 OA
ATOM      9  H1  UNL     1      -2.405   0.703  -2.247  1.00  0.00     0.219 HD
ENDBRANCH   4   8
ENDBRANCH   2   3
ENDBRANCH   1   2
BRANCH   1  10
HETATM   10  O2  UNL     1      -0.249   0.143   1.580  1.00  0.00    -0.391 OA
ATOM     11  H2  UNL     1       0.409   0.766   1.866  1.00  0.00     0.210 HD
ENDBRANCH   1  10
BRANCH   1  12
HETATM   12  C7  UNL     1       1.065  -0.387  -0.366  1.00  0.00     0.197 C 
BRANCH  12  13
HETATM   13  O3  UNL     1       1.356  -1.648   0.123  1.00  0.00    -0.389 OA
ATOM     14  H3  UNL     1       2.190  -1.940  -0.226  1.00  0.00     0.210 HD
ENDBRANCH  12  13
BRANCH  12  15
HETATM   15  C8  UNL     1       2.174   0.592   0.040  1.00  0.00     0.249 C 
BRANCH  15  16
HETATM   16  O4  UNL     1       1.856   1.883  -0.298  1.00  0.00    -0.374 OA
ATOM     17  H4  UNL     1       2.543   2.489  -0.047  1.00  0.00     0.212 HD
ENDBRANCH  15  16
BRANCH  15  18
HETATM   18  N2  UNL     1       3.405   0.116  -0.519  1.00  0.00    -0.362 N 
ATOM     19  H2  UNL     1       3.346  -0.492  -1.336  1.00  0.00     0.162 HD
BRANCH  18  20
HETATM   20  C9  UNL     1       4.563   0.392  -0.077  1.00  0.00     0.030 A 
HETATM   21  C10 UNL     1       5.951   0.242  -0.189  1.00  0.00     0.031 A 
HETATM   22  C11 UNL     1       5.391   1.045   0.850  1.00  0.00     0.031 A 
ENDBRANCH  18  20
ENDBRANCH  15  18
ENDBRANCH  12  15
ENDBRANCH   1  12
TORSDOF 10
