REMARK  22 active torsions:
REMARK  status: ('A' for Active; 'I' for Inactive)
REMARK    1  A    between atoms: C3_3  and  N1_4 
REMARK    2  A    between atoms: N1_4  and  C4_5 
REMARK    3  A    between atoms: C4_5  and  C5_6 
REMARK    4  A    between atoms: C5_6  and  C6_7 
REMARK    5  A    between atoms: C6_7  and  C7_8 
REMARK    6  A    between atoms: C7_8  and  C8_9 
REMARK    7  A    between atoms: C8_9  and  C9_10 
REMARK    8  A    between atoms: C9_10  and  N2_12 
REMARK    9  A    between atoms: C9_10  and  C16_27 
REMARK       I    between atoms: N2_12  and  C11_14 
REMARK   10  A    between atoms: C11_14  and  C12_16 
REMARK   11  A    between atoms: C12_16  and  N3_17 
REMARK       I    between atoms: N3_17  and  C13_19 
REMARK       I    between atoms: C13_19  and  N5_23 
REMARK   12  A    between atoms: N5_23  and  C14_25 
REMARK   13  A    between atoms: C16_27  and  O3_29 
REMARK   14  A    between atoms: O3_29  and  C17_30 
REMARK   15  A    between atoms: C20_33  and  O4_34 
REMARK   16  A    between atoms: O4_34  and  C21_35 
REMARK   17  A    between atoms: C21_35  and  C22_37 
REMARK   18  A    between atoms: C22_37  and  C23_38 
REMARK   19  A    between atoms: C23_38  and  O6_39 
REMARK   20  A    between atoms: C23_38  and  C24_41 
REMARK   21  A    between atoms: C24_41  and  N6_42 
REMARK   22  A    between atoms: C24_41  and  C25_46 
ROOT
HETATM    1  C1  UNL     1      -4.927  -0.065  -3.677  1.00  0.00     0.013 C 
HETATM    2  C2  UNL     1      -3.970   0.370  -3.070  1.00  0.00    -0.089 C 
HETATM    3  C3  UNL     1      -2.855   0.913  -2.353  1.00  0.00     0.330 C 
ENDROOT
BRANCH   3   4
HETATM    4  N1  UNL     1      -1.979  -0.031  -1.697  1.00  0.00    -0.049 N 
HETATM    5  C19 UNL     1      -2.038   0.257  -0.282  1.00  0.00     0.271 C 
HETATM    6  C20 UNL     1      -3.259  -0.317   0.394  1.00  0.00     0.163 C 
HETATM    7  C27 UNL     1      -3.266  -1.836   0.278  1.00  0.00     0.115 C 
HETATM    8  C28 UNL     1      -2.520  -2.337  -0.889  1.00  0.00     0.270 C 
HETATM    9  F1  UNL     1      -1.374  -3.009  -0.425  1.00  0.00    -0.204 F 
HETATM   10  F2  UNL     1      -3.263  -3.392  -1.460  1.00  0.00    -0.204 F 
HETATM   11  C29 UNL     1      -2.214  -1.411  -2.000  1.00  0.00     0.317 C 
BRANCH   4  12
HETATM   12  C4  UNL     1      -0.634   0.318  -2.140  1.00  0.00     0.239 C 
BRANCH  12  13
HETATM   13  C5  UNL     1       0.460   0.108  -1.175  1.00  0.00     0.028 C 
BRANCH  13  14
HETATM   14  C6  UNL     1       1.760   0.491  -1.900  1.00  0.00     0.002 C 
BRANCH  14  15
HETATM   15  C7  UNL     1       2.971   0.327  -1.045  1.00  0.00     0.003 C 
BRANCH  15  16
HETATM   16  C8  UNL     1       3.168  -1.081  -0.555  1.00  0.00     0.041 C 
BRANCH  16  17
HETATM   17  C9  UNL     1       4.386  -1.281   0.292  1.00  0.00     0.117 C 
HETATM   18  C10 UNL     1       4.386  -2.768   0.686  1.00  0.00     0.049 C 
BRANCH  17  19
HETATM   19  N2  UNL     1       5.636  -0.989  -0.354  1.00  0.00    -0.341 N 
HETATM   20  C11 UNL     1       6.079  -1.658  -1.507  1.00  0.00     0.236 C 
HETATM   21  O1  UNL     1       5.323  -2.557  -2.000  1.00  0.00    -0.272 OA
ATOM     22  H2  UNL     1       6.230  -0.261   0.044  1.00  0.00     0.163 HD
BRANCH  20  23
HETATM   23  C12 UNL     1       7.341  -1.425  -2.218  1.00  0.00     0.240 C 
BRANCH  23  24
HETATM   24  N3  UNL     1       8.221  -0.448  -1.627  1.00  0.00    -0.218 N 
HETATM   25  C13 UNL     1       8.938  -0.611  -0.435  1.00  0.00     0.667 C 
HETATM   26  N4  UNL     1       8.853  -1.737   0.218  1.00  0.00    -0.235 N 
HETATM   27  N5  UNL     1       9.779   0.406   0.086  1.00  0.00    -0.227 N 
ATOM     28  H42 UNL     1       8.248  -2.468  -0.157  1.00  0.00     0.174 HD
ATOM     29  H41 UNL     1       9.375  -1.856   1.086  1.00  0.00     0.174 HD
ATOM     30  H5  UNL     1      10.717   0.501  -0.304  1.00  0.00     0.177 HD
ATOM     31  H3  UNL     1       8.331   0.438  -2.119  1.00  0.00     0.178 HD
BRANCH  27  32
HETATM   32  C14 UNL     1       9.385   1.311   1.134  1.00  0.00     0.133 C 
HETATM   33  C15 UNL     1       8.316   2.253   0.639  1.00  0.00     0.027 C 
ENDBRANCH  27  32
ENDBRANCH  23  24
ENDBRANCH  20  23
ENDBRANCH  17  19
BRANCH  17  34
HETATM   34  C16 UNL     1       4.303  -0.514   1.570  1.00  0.00     0.287 C 
HETATM   35  O2  UNL     1       5.207   0.250   1.986  1.00  0.00    -0.262 OA
BRANCH  34  36
HETATM   36  O3  UNL     1       3.165  -0.627   2.378  1.00  0.00    -0.320 OA
BRANCH  36  37
HETATM   37  C17 UNL     1       2.989   0.050   3.588  1.00  0.00     0.174 C 
HETATM   38  C18 UNL     1       1.621  -0.357   4.148  1.00  0.00     0.034 C 
ENDBRANCH  36  37
ENDBRANCH  34  36
ENDBRANCH  17  34
ENDBRANCH  16  17
ENDBRANCH  15  16
ENDBRANCH  14  15
ENDBRANCH  13  14
ENDBRANCH  12  13
ENDBRANCH   4  12
BRANCH   6  39
HETATM   39  O4  UNL     1      -4.480   0.148  -0.062  1.00  0.00    -0.314 OA
BRANCH  39  40
HETATM   40  C21 UNL     1      -5.471   0.797   0.636  1.00  0.00     0.261 C 
HETATM   41  O5  UNL     1      -5.270   1.020   1.842  1.00  0.00    -0.265 OA
BRANCH  40  42
HETATM   42  C22 UNL     1      -6.684   1.168  -0.105  1.00  0.00     0.144 C 
BRANCH  42  43
HETATM   43  C23 UNL     1      -7.739   1.796   0.736  1.00  0.00     0.157 C 
BRANCH  43  44
HETATM   44  O6  UNL     1      -8.815   2.103  -0.129  1.00  0.00    -0.393 OA
ATOM     45  H6  UNL     1      -9.488   2.504   0.408  1.00  0.00     0.210 HD
ENDBRANCH  43  44
BRANCH  43  46
HETATM   46  C24 UNL     1      -8.321   0.895   1.800  1.00  0.00     0.212 C 
BRANCH  46  47
HETATM   47  N6  UNL     1      -8.869  -0.318   1.248  1.00  0.00    -0.073 N 
ATOM     48  H63 UNL     1      -9.555  -0.115   0.521  1.00  0.00     0.274 HD
ATOM     49  H62 UNL     1      -8.177  -0.812   0.685  1.00  0.00     0.274 HD
ATOM     50  H61 UNL     1      -9.262  -0.926   1.966  1.00  0.00     0.274 HD
ENDBRANCH  46  47
BRANCH  46  51
HETATM   51  C25 UNL     1      -9.331   1.639   2.639  1.00  0.00     0.031 C 
HETATM   52  C26 UNL     1     -10.497   2.179   1.884  1.00  0.00     0.007 C 
ENDBRANCH  46  51
ENDBRANCH  43  46
ENDBRANCH  42  43
ENDBRANCH  40  42
ENDBRANCH  39  40
ENDBRANCH   6  39
ENDBRANCH   3   4
TORSDOF 22
