REMARK  9 active torsions:
REMARK  status: ('A' for Active; 'I' for Inactive)
REMARK    1  A    between atoms: O1_2  and  C2_3 
REMARK    2  A    between atoms: C2_3  and  C3_5 
REMARK    3  A    between atoms: C3_5  and  C4_6 
REMARK    4  A    between atoms: C4_6  and  C5_7 
REMARK    5  A    between atoms: C6_8  and  C7_9 
REMARK    6  A    between atoms: C10_12  and  C11_13 
REMARK    7  A    between atoms: C12_14  and  C13_15 
REMARK    8  A    between atoms: C25_29  and  O5_30 
REMARK    9  A    between atoms: C28_34  and  O6_35 
ROOT
HETATM    1  C7  UNL     1       1.656  -0.142   1.022  1.00  0.00     0.029 C 
HETATM    2  C8  UNL     1       0.499   0.759   0.628  1.00  0.00     0.010 C 
HETATM    3  C9  UNL     1      -0.590   0.556   1.603  1.00  0.00     0.010 C 
HETATM    4  C10 UNL     1      -1.647  -0.441   1.283  1.00  0.00     0.019 C 
HETATM    5  C20 UNL     1      -1.200  -1.848   1.053  1.00  0.00     0.064 C 
HETATM    6  C21 UNL     1      -1.681  -2.468  -0.239  1.00  0.00     0.013 C 
HETATM    7  C22 UNL     1      -0.529  -3.223  -0.925  1.00  0.00     0.008 C 
HETATM    8  C23 UNL     1       0.298  -2.155  -1.569  1.00  0.00     0.017 C 
HETATM    9  C24 UNL     1       0.708  -2.610  -2.979  1.00  0.00     0.013 C 
HETATM   10  C25 UNL     1       1.596  -1.902  -0.833  1.00  0.00     0.079 C 
HETATM   11  C26 UNL     1       2.351  -3.244  -0.906  1.00  0.00     0.042 C 
HETATM   12  C27 UNL     1       2.700  -3.595   0.533  1.00  0.00     0.036 C 
HETATM   13  C28 UNL     1       2.719  -2.256   1.157  1.00  0.00     0.138 C 
HETATM   14  C29 UNL     1       1.483  -1.549   0.579  1.00  0.00     0.085 C 
HETATM   15  C30 UNL     1       0.259  -2.061   1.259  1.00  0.00     0.146 C 
HETATM   16  O7  UNL     1       0.529  -2.809   2.173  1.00  0.00    -0.296 OA
ENDROOT
BRANCH   4  17
HETATM   17  C11 UNL     1      -2.539   0.125   0.236  1.00  0.00    -0.025 C 
HETATM   18  C12 UNL     1      -3.752   0.569   0.507  1.00  0.00    -0.026 C 
BRANCH  18  19
HETATM   19  C13 UNL     1      -4.692   1.135  -0.454  1.00  0.00     0.009 C 
HETATM   20  C14 UNL     1      -5.145   2.504  -0.059  1.00  0.00     0.016 C 
HETATM   21  C15 UNL     1      -6.478   2.626  -0.756  1.00  0.00     0.024 C 
HETATM   22  C16 UNL     1      -7.409   3.561  -0.016  1.00  0.00     0.184 C 
HETATM   23  C18 UNL     1      -7.122   1.284  -0.438  1.00  0.00     0.092 C 
HETATM   24  O3  UNL     1      -7.656   2.908   1.199  1.00  0.00    -0.321 OA
HETATM   25  C17 UNL     1      -7.622   1.542   0.942  1.00  0.00     0.263 C 
HETATM   26  O4  UNL     1      -7.958   0.621   1.738  1.00  0.00    -0.265 OA
HETATM   27  C19 UNL     1      -5.969   0.311  -0.459  1.00  0.00     0.023 C 
ENDBRANCH  18  19
ENDBRANCH   4  17
BRANCH   1  28
HETATM   28  C6  UNL     1       2.966   0.481   0.800  1.00  0.00    -0.025 C 
HETATM   29  C5  UNL     1       3.730   0.931   1.785  1.00  0.00    -0.030 C 
BRANCH  29  30
HETATM   30  C4  UNL     1       5.026   1.556   1.657  1.00  0.00     0.037 C 
BRANCH  30  31
HETATM   31  C3  UNL     1       5.416   1.657   0.191  1.00  0.00     0.115 C 
BRANCH  31  32
HETATM   32  C2  UNL     1       6.761   2.284   0.056  1.00  0.00     0.258 C 
HETATM   33  O2  UNL     1       7.772   1.645  -0.249  1.00  0.00    -0.265 OA
BRANCH  32  34
HETATM   34  O1  UNL     1       6.841   3.660   0.295  1.00  0.00    -0.326 OA
HETATM   35  C1  UNL     1       8.104   4.329   0.188  1.00  0.00     0.213 C 
ENDBRANCH  32  34
ENDBRANCH  31  32
ENDBRANCH  30  31
ENDBRANCH  29  30
ENDBRANCH   1  28
BRANCH  10  36
HETATM   36  O5  UNL     1       2.309  -1.035  -1.626  1.00  0.00    -0.388 OA
ATOM     37  H5  UNL     1       3.124  -0.876  -1.164  1.00  0.00     0.210 HD
ENDBRANCH  10  36
BRANCH  13  38
HETATM   38  O6  UNL     1       2.814  -2.187   2.502  1.00  0.00    -0.394 OA
ATOM     39  H6  UNL     1       2.826  -1.326   2.903  1.00  0.00     0.210 HD
ENDBRANCH  13  38
TORSDOF 9
