REMARK  1 active torsions:
REMARK  status: ('A' for Active; 'I' for Inactive)
REMARK    1  A    between atoms: C3_3  and  N1_4 
ROOT
HETATM    1  C1  UNL     1       2.685   0.948   0.956  1.00  0.00     0.013 C 
HETATM    2  C2  UNL     1       2.020   0.131   0.364  1.00  0.00    -0.089 C 
HETATM    3  C3  UNL     1       1.205  -0.848  -0.358  1.00  0.00     0.341 C 
ENDROOT
BRANCH   3   4
HETATM    4  N1  UNL     1      -0.140  -0.350  -0.419  1.00  0.00     0.015 N 
HETATM    5  C4  UNL     1      -0.908  -1.143  -1.365  1.00  0.00     0.286 C 
HETATM    6  C5  UNL     1      -0.230   1.035  -0.794  1.00  0.00     0.382 C 
HETATM    7  N2  UNL     1      -0.966   1.720   0.250  1.00  0.00    -0.110 NA
HETATM    8  N3  UNL     1      -1.010   0.874   1.344  1.00  0.00    -0.267 N 
HETATM    9  C6  UNL     1      -0.800  -0.447   0.835  1.00  0.00     0.291 C 
ATOM     10  H3  UNL     1      -1.162   1.139   2.317  1.00  0.00     0.185 HD
HETATM   11  N4  UNL     1      -1.124  -1.581   1.364  1.00  0.00    -0.364 N 
ATOM     12  H42 UNL     1      -0.974  -2.522   1.001  1.00  0.00     0.159 HD
ATOM     13  H41 UNL     1      -1.598  -1.651   2.265  1.00  0.00     0.159 HD
ENDBRANCH   3   4
TORSDOF 1
