REMARK  1 active torsions:
REMARK  status: ('A' for Active; 'I' for Inactive)
REMARK    1  A    between atoms: N1_3  and  C3_4 
ROOT
HETATM    1  C3  UNL     1      -0.032  -0.072   0.171  1.00  0.00     0.346 C 
HETATM    2  N2  UNL     1      -0.486   0.982   1.024  1.00  0.00    -0.092 NA
HETATM    3  N3  UNL     1      -1.851   0.988   1.151  1.00  0.00    -0.334 N 
ATOM      4  H3  UNL     1      -2.321   1.565   1.849  1.00  0.00     0.175 HD
HETATM    5  C4  UNL     1      -2.574   0.155   0.267  1.00  0.00     0.161 C 
HETATM    6  C5  UNL     1      -1.920  -0.171  -1.022  1.00  0.00     0.192 C 
HETATM    7  O1  UNL     1      -0.578   0.155  -1.094  1.00  0.00    -0.349 OA
ENDROOT
BRANCH   1   8
HETATM    8  N1  UNL     1       1.389  -0.234   0.156  1.00  0.00    -0.310 N 
HETATM    9  C2  UNL     1       2.373   0.536   0.649  1.00  0.00     0.113 A 
HETATM   10  C1  UNL     1       3.605  -0.052   0.382  1.00  0.00     0.106 A 
HETATM   11  N4  UNL     1       3.337  -1.171  -0.271  1.00  0.00    -0.361 N 
HETATM   12  C6  UNL     1       2.014  -1.289  -0.410  1.00  0.00     0.186 A 
ATOM     13  H4  UNL     1       4.030  -1.837  -0.613  1.00  0.00     0.166 HD
ENDBRANCH   1   8
TORSDOF 1
