REMARK  13 active torsions:
REMARK  status: ('A' for Active; 'I' for Inactive)
REMARK    1  A    between atoms: C2_2  and  C3_3 
REMARK    2  A    between atoms: C5_7  and  N2_8 
REMARK       I    between atoms: N3_11  and  C8_12 
REMARK    3  A    between atoms: C8_12  and  C9_14 
REMARK    4  A    between atoms: C9_14  and  N4_15 
REMARK    5  A    between atoms: C9_14  and  C24_42 
REMARK    6  A    between atoms: C10_17  and  O2_18 
REMARK    7  A    between atoms: C10_17  and  C11_20 
REMARK    8  A    between atoms: C11_20  and  N5_21 
REMARK    9  A    between atoms: C11_20  and  C20_38 
REMARK       I    between atoms: N5_21  and  C12_23 
REMARK   10  A    between atoms: C12_23  and  C13_25 
REMARK   11  A    between atoms: C13_25  and  N6_26 
REMARK       I    between atoms: N6_26  and  C14_28 
REMARK   12  A    between atoms: C14_28  and  C15_30 
REMARK   13  A    between atoms: C24_42  and  C26_44 
ROOT
HETATM    1  N4  UNL     1      -1.157   0.736   1.063  1.00  0.00    -0.359 N 
ATOM      2  H4  UNL     1      -1.339   0.659   2.064  1.00  0.00     0.162 HD
HETATM    3  C10 UNL     1      -2.024   0.066   0.254  1.00  0.00     0.136 C 
ENDROOT
BRANCH   1   4
HETATM    4  C9  UNL     1       0.019   1.564   0.686  1.00  0.00     0.179 C 
BRANCH   4   5
HETATM    5  C8  UNL     1       1.167   1.154   1.486  1.00  0.00     0.243 C 
HETATM    6  N3  UNL     1       2.504   1.038   1.038  1.00  0.00    -0.347 N 
HETATM    7  C7  UNL     1       3.576   0.639   1.964  1.00  0.00     0.145 C 
HETATM    8  C28 UNL     1       2.893   1.286  -0.333  1.00  0.00     0.145 C 
HETATM    9  C6  UNL     1       4.844   1.357   1.469  1.00  0.00     0.144 C 
HETATM   10  N2  UNL     1       5.215   0.673   0.247  1.00  0.00    -0.364 N 
HETATM   11  C29 UNL     1       4.162   0.600  -0.760  1.00  0.00     0.144 C 
HETATM   12  O1  UNL     1       0.999   0.856   2.732  1.00  0.00    -0.271 OA
BRANCH  10  13
HETATM   13  C5  UNL     1       6.493   0.104   0.031  1.00  0.00     0.103 A 
HETATM   14  N1  UNL     1       6.706  -0.643  -1.100  1.00  0.00    -0.352 N 
HETATM   15  C4  UNL     1       7.900  -1.210  -1.347  1.00  0.00     0.097 A 
ATOM     16  H1  UNL     1       5.944  -0.771  -1.766  1.00  0.00     0.166 HD
HETATM   17  C3  UNL     1       8.974  -1.085  -0.495  1.00  0.00    -0.037 A 
HETATM   18  C31 UNL     1       8.800  -0.349   0.641  1.00  0.00    -0.051 A 
HETATM   19  C30 UNL     1       7.562   0.225   0.871  1.00  0.00     0.055 A 
HETATM   20  C32 UNL     1       9.930  -0.190   1.583  1.00  0.00     0.049 C 
BRANCH  17  21
HETATM   21  C2  UNL     1      10.297  -1.718  -0.763  1.00  0.00     0.036 C 
HETATM   22  C1  UNL     1      10.435  -2.930   0.126  1.00  0.00     0.010 C 
ENDBRANCH  17  21
ENDBRANCH  10  13
ENDBRANCH   4   5
BRANCH   4  23
HETATM   23  C24 UNL     1      -0.459   2.959   0.799  1.00  0.00     0.013 C 
HETATM   24  C25 UNL     1      -1.656   3.234  -0.127  1.00  0.00     0.012 C 
BRANCH  23  25
HETATM   25  C26 UNL     1       0.457   4.101   0.686  1.00  0.00     0.002 C 
HETATM   26  C27 UNL     1       1.544   4.239   1.702  1.00  0.00     0.005 C 
ENDBRANCH  23  25
ENDBRANCH   4  23
ENDBRANCH   1   4
BRANCH   3  27
HETATM   27  O2  UNL     1      -1.765   0.214  -1.012  1.00  0.00    -0.348 OA
ATOM     28  H2  UNL     1      -2.370  -0.253  -1.576  1.00  0.00     0.219 HD
ENDBRANCH   3  27
BRANCH   3  29
HETATM   29  C11 UNL     1      -3.184  -0.787   0.553  1.00  0.00     0.166 C 
BRANCH  29  30
HETATM   30  N5  UNL     1      -3.861  -1.233  -0.652  1.00  0.00    -0.347 N 
HETATM   31  C12 UNL     1      -3.496  -2.320  -1.432  1.00  0.00     0.236 C 
HETATM   32  O3  UNL     1      -2.458  -2.971  -1.021  1.00  0.00    -0.272 OA
ATOM     33  H5  UNL     1      -4.677  -0.699  -0.951  1.00  0.00     0.163 HD
BRANCH  31  34
HETATM   34  C13 UNL     1      -4.112  -2.828  -2.657  1.00  0.00     0.225 C 
BRANCH  34  35
HETATM   35  N6  UNL     1      -5.325  -2.166  -3.091  1.00  0.00    -0.348 N 
HETATM   36  C14 UNL     1      -6.496  -2.241  -2.315  1.00  0.00     0.256 C 
HETATM   37  O4  UNL     1      -6.398  -2.935  -1.238  1.00  0.00    -0.267 OA
ATOM     38  H6  UNL     1      -5.330  -1.642  -3.966  1.00  0.00     0.163 HD
BRANCH  36  39
HETATM   39  C15 UNL     1      -7.776  -1.656  -2.555  1.00  0.00     0.087 A 
HETATM   40  C16 UNL     1      -8.213  -0.885  -3.599  1.00  0.00     0.047 A 
HETATM   41  C17 UNL     1      -7.474  -0.429  -4.791  1.00  0.00     0.071 C 
HETATM   42  N7  UNL     1      -9.533  -0.565  -3.371  1.00  0.00    -0.265 N 
HETATM   43  O5  UNL     1      -9.888  -1.103  -2.261  1.00  0.00    -0.242 OA
ATOM     44  H7  UNL     1     -10.125   0.001  -3.978  1.00  0.00     0.194 HD
HETATM   45  C18 UNL     1      -8.906  -1.756  -1.732  1.00  0.00     0.090 A 
HETATM   46  C19 UNL     1      -8.919  -2.513  -0.452  1.00  0.00     0.080 C 
ENDBRANCH  36  39
ENDBRANCH  34  35
ENDBRANCH  31  34
ENDBRANCH  29  30
BRANCH  29  47
HETATM   47  C20 UNL     1      -4.166  -0.352   1.549  1.00  0.00    -0.023 C 
HETATM   48  C21 UNL     1      -3.594  -0.142   2.960  1.00  0.00     0.017 C 
HETATM   49  C22 UNL     1      -5.235  -1.438   1.782  1.00  0.00     0.017 C 
HETATM   50  C23 UNL     1      -4.947   0.887   1.154  1.00  0.00     0.017 C 
ENDBRANCH  29  47
ENDBRANCH   3  29
TORSDOF 13
