REMARK  6 active torsions:
REMARK  status: ('A' for Active; 'I' for Inactive)
REMARK    1  A    between atoms: C7_7  and  N1_8 
REMARK       I    between atoms: N1_8  and  C8_10 
REMARK       I    between atoms: C8_10  and  N2_12 
REMARK    2  A    between atoms: N2_12  and  C9_14 
REMARK    3  A    between atoms: C13_22  and  O2_23 
REMARK    4  A    between atoms: C13_22  and  N5_25 
REMARK    5  A    between atoms: N5_25  and  C14_26 
REMARK    6  A    between atoms: N5_25  and  C17_29 
ROOT
HETATM    1  C9  UNL     1       1.564  -1.591  -1.737  1.00  0.00     0.111 A 
HETATM    2  C10 UNL     1       0.410  -1.945  -2.442  1.00  0.00     0.080 A 
HETATM    3  C11 UNL     1      -0.851  -1.673  -1.961  1.00  0.00     0.065 A 
HETATM    4  N3  UNL     1      -2.085  -1.896  -2.435  1.00  0.00    -0.299 N 
ATOM      5  H3  UNL     1      -2.297  -2.356  -3.320  1.00  0.00     0.187 HD
HETATM    6  N4  UNL     1      -2.964  -1.444  -1.607  1.00  0.00    -0.295 N 
ATOM      7  H4  UNL     1      -3.971  -1.503  -1.758  1.00  0.00     0.187 HD
HETATM    8  C12 UNL     1      -2.409  -0.896  -0.541  1.00  0.00     0.112 A 
HETATM    9  C13 UNL     1      -3.002  -0.285   0.598  1.00  0.00     0.169 C 
HETATM   10  C21 UNL     1      -1.023  -1.030  -0.744  1.00  0.00     0.040 A 
HETATM   11  C22 UNL     1       0.125  -0.697  -0.079  1.00  0.00     0.106 A 
HETATM   12  N6  UNL     1       1.374  -0.973  -0.569  1.00  0.00    -0.351 N 
ATOM     13  H6  UNL     1       2.189  -0.696  -0.021  1.00  0.00     0.166 HD
ENDROOT
BRANCH   1  14
HETATM   14  N2  UNL     1       2.706  -1.900  -2.245  1.00  0.00    -0.294 N 
HETATM   15  C8  UNL     1       3.970  -1.585  -1.611  1.00  0.00     0.326 C 
HETATM   16  N1  UNL     1       4.307  -0.261  -1.375  1.00  0.00    -0.309 N 
HETATM   17  O1  UNL     1       4.735  -2.534  -1.294  1.00  0.00    -0.247 OA
ATOM     18  H1  UNL     1       3.608   0.423  -1.664  1.00  0.00     0.170 HD
ATOM     19  H2  UNL     1       2.722  -2.391  -3.139  1.00  0.00     0.172 HD
BRANCH  16  20
HETATM   20  C7  UNL     1       5.470   0.278  -0.796  1.00  0.00     0.037 A 
HETATM   21  C6  UNL     1       5.549   1.661  -0.553  1.00  0.00     0.036 A 
HETATM   22  C4  UNL     1       6.642   2.278  -0.021  1.00  0.00    -0.059 A 
HETATM   23  C3  UNL     1       7.731   1.501   0.298  1.00  0.00     0.013 A 
HETATM   24  C5  UNL     1       6.641   3.766   0.201  1.00  0.00     0.048 C 
HETATM   25  C2  UNL     1       7.709   0.158   0.083  1.00  0.00    -0.059 A 
HETATM   26  C1  UNL     1       8.862  -0.701   0.412  1.00  0.00     0.048 C 
HETATM   27  C23 UNL     1       6.565  -0.442  -0.467  1.00  0.00     0.036 A 
ENDBRANCH  16  20
ENDBRANCH   1  14
BRANCH   9  28
HETATM   28  O2  UNL     1      -2.092   0.131   1.486  1.00  0.00    -0.344 OA
ATOM     29  H2  UNL     1      -2.488   0.539   2.247  1.00  0.00     0.219 HD
ENDBRANCH   9  28
BRANCH   9  30
HETATM   30  N5  UNL     1      -4.310  -0.015   1.015  1.00  0.00    -0.348 N 
BRANCH  30  31
HETATM   31  C14 UNL     1      -4.419   0.622   2.353  1.00  0.00     0.079 C 
HETATM   32  C15 UNL     1      -5.041  -0.342   3.333  1.00  0.00     0.032 C 
HETATM   33  C16 UNL     1      -4.995   1.987   2.337  1.00  0.00     0.032 C 
ENDBRANCH  30  31
BRANCH  30  34
HETATM   34  C17 UNL     1      -5.454  -0.295   0.251  1.00  0.00     0.024 C 
HETATM   35  C18 UNL     1      -5.612  -1.767  -0.003  1.00  0.00     0.037 C 
HETATM   36  C19 UNL     1      -5.375   0.448  -1.089  1.00  0.00     0.037 C 
HETATM   37  C20 UNL     1      -6.781   0.173   0.825  1.00  0.00     0.037 C 
ENDBRANCH  30  34
ENDBRANCH   9  30
TORSDOF 6
