REMARK  6 active torsions:
REMARK  status: ('A' for Active; 'I' for Inactive)
REMARK    1  A    between atoms: O1_1  and  C1_3 
REMARK    2  A    between atoms: C2_5  and  C3_6 
REMARK    3  A    between atoms: C9_16  and  N2_17 
REMARK    4  A    between atoms: N2_17  and  C10_19 
REMARK    5  A    between atoms: C10_19  and  C11_21 
REMARK    6  A    between atoms: C11_21  and  C12_22 
ROOT
HETATM    1  C1  UNL     1      -0.013  -0.871  -1.223  1.00  0.00     0.280 C 
HETATM    2  O2  UNL     1      -1.364  -0.777  -1.013  1.00  0.00    -0.348 OA
HETATM    3  C2  UNL     1      -1.781  -0.653   0.271  1.00  0.00     0.174 C 
HETATM    4  C7  UNL     1      -1.034   0.357   1.104  1.00  0.00     0.040 C 
HETATM    5  C8  UNL     1       0.446   0.018   0.982  1.00  0.00     0.033 C 
HETATM    6  C9  UNL     1       0.757   0.232  -0.506  1.00  0.00     0.137 C 
ENDROOT
BRANCH   3   7
HETATM    7  C3  UNL     1      -3.207  -0.188   0.226  1.00  0.00     0.040 A 
HETATM    8  C4  UNL     1      -4.155  -0.728  -0.616  1.00  0.00     0.049 A 
HETATM    9  C5  UNL     1      -5.340  -0.068  -0.392  1.00  0.00     0.047 A 
HETATM   10 BR1  UNL     1      -7.033  -0.348  -1.241  1.00  0.00    -0.048 Br
HETATM   11  C6  UNL     1      -5.081   0.871   0.597  1.00  0.00     0.097 A 
HETATM   12 BR2  UNL     1      -6.383   2.072   1.300  1.00  0.00    -0.030 Br
HETATM   13  N1  UNL     1      -3.797   0.780   0.950  1.00  0.00    -0.350 N 
ATOM     14  H1  UNL     1      -3.336   1.353   1.657  1.00  0.00     0.166 HD
ENDBRANCH   3   7
BRANCH   1  15
HETATM   15  O1  UNL     1       0.522  -2.121  -0.930  1.00  0.00    -0.369 OA
ATOM     16  H1  UNL     1       1.459  -2.186  -1.076  1.00  0.00     0.212 HD
ENDBRANCH   1  15
BRANCH   6  17
HETATM   17  N2  UNL     1       2.152   0.048  -0.695  1.00  0.00    -0.375 N 
ATOM     18  H2  UNL     1       2.486  -0.805  -1.144  1.00  0.00     0.160 HD
BRANCH  17  19
HETATM   19  C10 UNL     1       3.089   1.021  -0.275  1.00  0.00     0.074 C 
HETATM   20  S1  UNL     1       2.583   2.434   0.424  1.00  0.00    -0.066 SA
BRANCH  19  21
HETATM   21  C11 UNL     1       4.559   0.880  -0.431  1.00  0.00     0.084 C 
BRANCH  21  22
HETATM   22  C12 UNL     1       5.149  -0.177   0.448  1.00  0.00     0.121 C 
HETATM   23 CL1  UNL     1       4.544  -1.794   0.187  1.00  0.00    -0.130 Cl
ENDBRANCH  21  22
ENDBRANCH  19  21
ENDBRANCH  17  19
ENDBRANCH   6  17
TORSDOF 6
