REMARK  10 active torsions:
REMARK  status: ('A' for Active; 'I' for Inactive)
REMARK    1  A    between atoms: O1_2  and  C2_3 
REMARK    2  A    between atoms: C6_8  and  C7_9 
REMARK    3  A    between atoms: C19_22  and  C20_23 
REMARK    4  A    between atoms: C22_27  and  C23_28 
REMARK    5  A    between atoms: C23_28  and  C24_29 
REMARK    6  A    between atoms: C24_29  and  O3_30 
REMARK    7  A    between atoms: C24_29  and  C25_32 
REMARK    8  A    between atoms: C25_32  and  O4_33 
REMARK    9  A    between atoms: C25_32  and  C26_35 
REMARK   10  A    between atoms: C26_35  and  O5_36 
ROOT
HETATM    1  C7  UNL     1      -1.505  -0.346   0.218  1.00  0.00     0.102 C 
HETATM    2  C8  UNL     1      -0.752   0.043   1.451  1.00  0.00     0.054 C 
HETATM    3  C9  UNL     1       0.681   0.378   1.432  1.00  0.00    -0.032 C 
HETATM    4  C10 UNL     1       0.932   1.870   1.711  1.00  0.00     0.016 C 
HETATM    5  C11 UNL     1       1.679  -0.405   2.146  1.00  0.00     0.008 C 
HETATM    6  C12 UNL     1       1.174  -0.465   3.613  1.00  0.00     0.012 C 
HETATM    7  C13 UNL     1       2.166  -1.715   1.845  1.00  0.00     0.086 C 
HETATM    8 CL1  UNL     1       3.564  -1.971   2.985  1.00  0.00    -0.125 Cl
HETATM    9  C14 UNL     1       2.690  -2.168   0.548  1.00  0.00     0.021 C 
HETATM   10  C15 UNL     1       1.673  -2.122  -0.613  1.00  0.00     0.007 C 
HETATM   11  C16 UNL     1       0.684  -1.167  -0.223  1.00  0.00    -0.002 C 
HETATM   12  C17 UNL     1      -0.696  -1.068  -0.847  1.00  0.00     0.034 C 
HETATM   13  C18 UNL     1      -1.138  -2.422  -1.216  1.00  0.00     0.047 C 
HETATM   14  C19 UNL     1      -2.606  -2.646  -1.226  1.00  0.00    -0.029 C 
HETATM   15  C21 UNL     1      -3.239  -2.087  -0.199  1.00  0.00     0.141 C 
HETATM   16  O2  UNL     1      -2.400  -1.411   0.661  1.00  0.00    -0.346 OA
HETATM   17  C22 UNL     1       1.090   0.209  -0.066  1.00  0.00     0.001 C 
ENDROOT
BRANCH   1  18
HETATM   18  C6  UNL     1      -2.444   0.663  -0.290  1.00  0.00     0.019 A 
HETATM   19  C5  UNL     1      -2.486   1.201  -1.545  1.00  0.00     0.016 A 
HETATM   20  C4  UNL     1      -3.400   2.168  -1.947  1.00  0.00     0.046 A 
HETATM   21  C3  UNL     1      -4.320   2.628  -1.061  1.00  0.00     0.152 A 
HETATM   22  C2  UNL     1      -4.318   2.120   0.206  1.00  0.00     0.146 A 
HETATM   23  F1  UNL     1      -5.208   3.580  -1.479  1.00  0.00    -0.203 F 
HETATM   24  C27 UNL     1      -3.390   1.144   0.596  1.00  0.00     0.162 A 
HETATM   25  F3  UNL     1      -3.551   0.720   1.881  1.00  0.00    -0.202 F 
BRANCH  22  26
HETATM   26  O1  UNL     1      -5.261   2.594   1.106  1.00  0.00    -0.350 OA
HETATM   27  C1  UNL     1      -6.528   2.018   1.272  1.00  0.00     0.210 C 
ENDBRANCH  22  26
ENDBRANCH   1  18
BRANCH  17  28
HETATM   28  C23 UNL     1       2.397   0.794  -0.308  1.00  0.00     0.040 C 
BRANCH  28  29
HETATM   29  C24 UNL     1       2.966   0.788  -1.694  1.00  0.00     0.149 C 
BRANCH  29  30
HETATM   30  O3  UNL     1       2.103   1.475  -2.585  1.00  0.00    -0.393 OA
ATOM     31  H3  UNL     1       2.464   1.471  -3.464  1.00  0.00     0.210 HD
ENDBRANCH  29  30
BRANCH  29  32
HETATM   32  C25 UNL     1       4.324   1.508  -1.724  1.00  0.00     0.170 C 
BRANCH  32  33
HETATM   33  O4  UNL     1       4.098   2.805  -1.293  1.00  0.00    -0.391 OA
ATOM     34  H4  UNL     1       4.937   3.250  -1.312  1.00  0.00     0.210 HD
ENDBRANCH  32  33
BRANCH  32  35
HETATM   35  C26 UNL     1       5.389   0.840  -0.946  1.00  0.00     0.198 C 
BRANCH  35  36
HETATM   36  O5  UNL     1       6.626   1.525  -1.072  1.00  0.00    -0.398 OA
ATOM     37  H5  UNL     1       7.310   1.096  -0.572  1.00  0.00     0.209 HD
ENDBRANCH  35  36
ENDBRANCH  32  35
ENDBRANCH  29  32
ENDBRANCH  28  29
ENDBRANCH  17  28
BRANCH  14  38
HETATM   38  C20 UNL     1      -3.285  -3.408  -2.268  1.00  0.00     0.258 C 
HETATM   39  F2  UNL     1      -2.752  -4.701  -2.257  1.00  0.00    -0.251 F 
ENDBRANCH  14  38
TORSDOF 10
