REMARK  10 active torsions:
REMARK  status: ('A' for Active; 'I' for Inactive)
REMARK    1  A    between atoms: C4_4  and  N1_5 
REMARK       I    between atoms: N1_5  and  C5_7 
REMARK    2  A    between atoms: C5_7  and  C6_9 
REMARK    3  A    between atoms: C6_9  and  N2_10 
REMARK    4  A    between atoms: C10_14  and  C11_15 
REMARK    5  A    between atoms: C11_15  and  N3_16 
REMARK       I    between atoms: N3_16  and  C12_18 
REMARK    6  A    between atoms: C12_18  and  C13_20 
REMARK    7  A    between atoms: C13_20  and  C14_21 
REMARK    8  A    between atoms: C14_21  and  N4_22 
REMARK    9  A    between atoms: C14_21  and  C15_26 
REMARK   10  A    between atoms: C16_30  and  C17_31 
ROOT
HETATM    1  C17 UNL     1      -0.009   2.047   2.046  1.00  0.00     0.181 C 
HETATM    2  C18 UNL     1       0.553   3.341   2.502  1.00  0.00     0.065 C 
HETATM    3  N5  UNL     1       0.980   4.359   2.856  1.00  0.00    -0.197 NA
ENDROOT
BRANCH   1   4
HETATM    4  C16 UNL     1       0.468   1.874   0.629  1.00  0.00     0.033 A 
HETATM    5  N2  UNL     1      -0.182   2.016  -0.526  1.00  0.00    -0.344 N 
HETATM    6  C7  UNL     1       0.683   1.768  -1.566  1.00  0.00     0.009 A 
HETATM    7  C8  UNL     1       0.344   1.827  -2.990  1.00  0.00     0.068 C 
HETATM    8  C9  UNL     1       1.892   1.466  -0.982  1.00  0.00     0.035 A 
HETATM    9  C10 UNL     1       1.784   1.524   0.363  1.00  0.00    -0.015 A 
BRANCH   5  10
HETATM   10  C6  UNL     1      -1.556   2.393  -0.640  1.00  0.00     0.232 C 
BRANCH  10  11
HETATM   11  C5  UNL     1      -2.527   1.300  -0.777  1.00  0.00     0.240 C 
HETATM   12  N1  UNL     1      -3.258   0.769   0.289  1.00  0.00    -0.325 N 
ATOM     13  H1  UNL     1      -3.073   1.198   1.196  1.00  0.00     0.169 HD
HETATM   14  O1  UNL     1      -2.681   0.848  -1.929  1.00  0.00    -0.271 OA
BRANCH  12  15
HETATM   15  C4  UNL     1      -4.210  -0.266   0.304  1.00  0.00     0.041 A 
HETATM   16  C3  UNL     1      -4.624  -0.942  -0.811  1.00  0.00     0.038 A 
HETATM   17  C2  UNL     1      -5.582  -1.967  -0.770  1.00  0.00    -0.038 A 
HETATM   18  C1  UNL     1      -6.021  -2.692  -1.985  1.00  0.00     0.050 C 
HETATM   19  C22 UNL     1      -6.096  -2.269   0.465  1.00  0.00     0.040 A 
HETATM   20  C21 UNL     1      -5.699  -1.608   1.601  1.00  0.00     0.033 A 
HETATM   21 CL4  UNL     1      -7.303  -3.544   0.598  1.00  0.00    -0.084 Cl
HETATM   22  C19 UNL     1      -4.761  -0.607   1.546  1.00  0.00    -0.034 A 
HETATM   23  C20 UNL     1      -4.337   0.101   2.806  1.00  0.00     0.050 C 
ENDBRANCH  12  15
ENDBRANCH  10  11
ENDBRANCH   5  10
BRANCH   9  24
HETATM   24  C11 UNL     1       2.854   1.297   1.376  1.00  0.00     0.163 C 
BRANCH  24  25
HETATM   25  N3  UNL     1       4.098   0.904   0.755  1.00  0.00    -0.357 N 
HETATM   26  C12 UNL     1       4.256  -0.320   0.063  1.00  0.00     0.220 C 
HETATM   27  O2  UNL     1       3.303  -1.114  -0.024  1.00  0.00    -0.274 OA
ATOM     28  H3  UNL     1       4.896   1.536   0.818  1.00  0.00     0.162 HD
BRANCH  26  29
HETATM   29  C13 UNL     1       5.550  -0.651  -0.554  1.00  0.00     0.140 C 
BRANCH  29  30
HETATM   30  C14 UNL     1       5.516  -2.009  -1.226  1.00  0.00     0.246 C 
BRANCH  30  31
HETATM   31  N4  UNL     1       5.206  -3.059  -0.257  1.00  0.00    -0.070 N 
ATOM     32  H43 UNL     1       5.850  -3.045   0.534  1.00  0.00     0.274 HD
ATOM     33  H42 UNL     1       4.340  -2.865   0.246  1.00  0.00     0.274 HD
ATOM     34  H41 UNL     1       5.183  -3.973  -0.709  1.00  0.00     0.274 HD
ENDBRANCH  30  31
BRANCH  30  35
HETATM   35  C15 UNL     1       6.896  -2.310  -1.762  1.00  0.00     0.216 C 
HETATM   36 CL1  UNL     1       8.125  -2.344  -0.493  1.00  0.00    -0.082 Cl
HETATM   37 CL2  UNL     1       7.384  -1.106  -2.981  1.00  0.00    -0.082 Cl
HETATM   38 CL3  UNL     1       6.909  -3.927  -2.547  1.00  0.00    -0.082 Cl
ENDBRANCH  30  35
ENDBRANCH  29  30
ENDBRANCH  26  29
ENDBRANCH  24  25
ENDBRANCH   9  24
ENDBRANCH   1   4
TORSDOF 10
