REMARK  3 active torsions:
REMARK  status: ('A' for Active; 'I' for Inactive)
REMARK    1  A    between atoms: N1_3  and  N2_5 
REMARK    2  A    between atoms: N2_5  and  C3_7 
REMARK    3  A    between atoms: N4_11  and  C5_12 
ROOT
HETATM    1  C1  UNL     1       6.160  -0.145  -0.739  1.00  0.00     0.038 C 
HETATM    2  C2  UNL     1       5.062  -0.454  -0.346  1.00  0.00     0.015 C 
HETATM    3  N1  UNL     1       3.796  -0.820   0.123  1.00  0.00    -0.245 N 
ATOM      4  H1  UNL     1       3.411  -1.713  -0.186  1.00  0.00     0.198 HD
ENDROOT
BRANCH   3   5
HETATM    5  N2  UNL     1       3.027  -0.039   0.988  1.00  0.00    -0.124 N 
ATOM      6  H2  UNL     1       3.464   0.511   1.727  1.00  0.00     0.206 HD
BRANCH   5   7
HETATM    7  C3  UNL     1       1.747  -0.034   0.825  1.00  0.00     0.702 A 
HETATM    8  N3  UNL     1       1.126  -0.744  -0.135  1.00  0.00    -0.186 N 
HETATM    9  C4  UNL     1      -0.219  -0.710  -0.271  1.00  0.00     0.208 A 
ATOM     10  H3  UNL     1       1.680  -1.318  -0.771  1.00  0.00     0.185 HD
HETATM   11  N4  UNL     1      -0.921   0.054   0.583  1.00  0.00    -0.264 N 
HETATM   12  C8  UNL     1      -0.319   0.760   1.535  1.00  0.00     0.343 A 
HETATM   13  O3  UNL     1      -1.048   1.463   2.309  1.00  0.00    -0.246 OA
HETATM   14  N7  UNL     1       1.020   0.725   1.668  1.00  0.00    -0.139 N 
ATOM     15  H7  UNL     1       1.480   1.267   2.399  1.00  0.00     0.189 HD
BRANCH  11  16
HETATM   16  C5  UNL     1      -2.382   0.103   0.450  1.00  0.00     0.292 C 
HETATM   17  N5  UNL     1      -2.838  -1.076  -0.228  1.00  0.00    -0.313 N 
HETATM   18  C6  UNL     1      -3.532  -0.739  -1.410  1.00  0.00     0.324 C 
ATOM     19  H5  UNL     1      -2.682  -2.029   0.100  1.00  0.00     0.166 HD
HETATM   20  O1  UNL     1      -4.143  -1.534  -2.196  1.00  0.00    -0.247 OA
HETATM   21  N6  UNL     1      -3.438   0.663  -1.584  1.00  0.00    -0.276 N 
HETATM   22  C7  UNL     1      -2.684   1.201  -0.511  1.00  0.00     0.269 C 
ATOM     23  H6  UNL     1      -3.845   1.196  -2.352  1.00  0.00     0.173 HD
HETATM   24  O2  UNL     1      -2.290   2.384  -0.313  1.00  0.00    -0.269 OA
ENDBRANCH  11  16
ENDBRANCH   5   7
ENDBRANCH   3   5
TORSDOF 3
