REMARK  9 active torsions:
REMARK  status: ('A' for Active; 'I' for Inactive)
REMARK    1  A    between atoms: N3_8  and  N4_9 
REMARK    2  A    between atoms: N5_12  and  N6_13 
REMARK    3  A    between atoms: N6_13  and  C4_14 
REMARK    4  A    between atoms: C4_14  and  C5_15 
REMARK    5  A    between atoms: C6_16  and  C7_17 
REMARK    6  A    between atoms: C7_17  and  C8_18 
REMARK    7  A    between atoms: C8_18  and  O2_19 
REMARK    8  A    between atoms: C10_25  and  N8_26 
REMARK    9  A    between atoms: C15_35  and  O5_36 
ROOT
HETATM    1  C5  UNL     1      -0.214   0.199  -0.277  1.00  0.00     0.063 C 
HETATM    2  C6  UNL     1      -0.636   1.590  -0.197  1.00  0.00     0.195 C 
HETATM    3  N7  UNL     1      -1.624   1.760   0.892  1.00  0.00    -0.068 N 
ATOM      4  H71 UNL     1      -1.794   2.729   1.161  1.00  0.00     0.277 HD
ATOM      5  H72 UNL     1      -1.300   1.451   1.809  1.00  0.00     0.277 HD
HETATM    6  C9  UNL     1      -2.813   1.047   0.391  1.00  0.00     0.261 C 
HETATM    7  C10 UNL     1      -2.511  -0.406   0.653  1.00  0.00     0.148 C 
HETATM    8  C15 UNL     1      -1.116  -0.809   0.390  1.00  0.00     0.150 C 
ENDROOT
BRANCH   1   9
HETATM    9  C4  UNL     1       1.195  -0.146   0.148  1.00  0.00     0.146 C 
BRANCH   9  10
HETATM   10  N6  UNL     1       2.230   0.512  -0.616  1.00  0.00    -0.113 NA
BRANCH  10  11
HETATM   11  N5  UNL     1       3.458   0.032  -0.162  1.00  0.00    -0.146 N 
HETATM   12  C1  UNL     1       4.184   0.711   0.814  1.00  0.00     0.225 A 
HETATM   13  N1  UNL     1       3.763   1.935   1.432  1.00  0.00    -0.061 NA
HETATM   14  N2  UNL     1       5.314   0.258   1.223  1.00  0.00    -0.353 N 
HETATM   15  C2  UNL     1       5.969  -0.932   0.784  1.00  0.00     0.229 A 
ATOM     16  H2  UNL     1       5.794   0.806   1.937  1.00  0.00     0.162 HD
HETATM   17  C3  UNL     1       5.202  -1.653  -0.256  1.00  0.00     0.276 A 
HETATM   18  O1  UNL     1       5.655  -2.723  -0.750  1.00  0.00    -0.268 OA
HETATM   19  N3  UNL     1       3.951  -1.156  -0.713  1.00  0.00    -0.145 N 
BRANCH  19  20
HETATM   20  N4  UNL     1       3.226  -1.835  -1.695  1.00  0.00    -0.320 N 
ATOM     21  H42 UNL     1       3.585  -2.701  -2.097  1.00  0.00     0.179 HD
ATOM     22  H41 UNL     1       2.328  -1.478  -2.023  1.00  0.00     0.179 HD
ENDBRANCH  19  20
ENDBRANCH  10  11
ENDBRANCH   9  10
ENDBRANCH   1   9
BRANCH   2  23
HETATM   23  C7  UNL     1       0.368   2.677  -0.102  1.00  0.00     0.059 C 
BRANCH  23  24
HETATM   24  C8  UNL     1      -0.304   4.058  -0.028  1.00  0.00     0.166 C 
BRANCH  24  25
HETATM   25  O2  UNL     1      -1.074   4.321  -1.129  1.00  0.00    -0.401 OA
ATOM     26  H2  UNL     1      -1.489   5.174  -1.083  1.00  0.00     0.209 HD
ENDBRANCH  24  25
ENDBRANCH  23  24
ENDBRANCH   2  23
BRANCH   8  27
HETATM   27  O5  UNL     1      -0.477  -1.275   1.568  1.00  0.00    -0.393 OA
ATOM     28  H5  UNL     1      -1.045  -1.910   1.988  1.00  0.00     0.210 HD
ENDBRANCH   8  27
BRANCH   7  29
HETATM   29  N8  UNL     1      -3.522  -1.312   0.110  1.00  0.00    -0.301 N 
HETATM   30  C11 UNL     1      -4.312  -2.067   0.913  1.00  0.00     0.102 A 
HETATM   31  C12 UNL     1      -5.269  -2.926   0.430  1.00  0.00     0.092 A 
HETATM   32  C13 UNL     1      -5.423  -3.015  -0.935  1.00  0.00     0.250 A 
HETATM   33  O3  UNL     1      -6.287  -3.788  -1.472  1.00  0.00    -0.268 OA
HETATM   34  N9  UNL     1      -4.623  -2.253  -1.687  1.00  0.00    -0.275 N 
HETATM   35  C14 UNL     1      -3.694  -1.419  -1.219  1.00  0.00     0.329 A 
ATOM     36  H9  UNL     1      -4.732  -2.314  -2.699  1.00  0.00     0.173 HD
HETATM   37  O4  UNL     1      -2.967  -0.723  -1.996  1.00  0.00    -0.246 OA
ENDBRANCH   7  29
TORSDOF 9
