REMARK  8 active torsions:
REMARK  status: ('A' for Active; 'I' for Inactive)
REMARK    1  A    between atoms: O1_2  and  C2_3 
REMARK    2  A    between atoms: C3_4  and  O2_5 
REMARK    3  A    between atoms: C6_9  and  O3_10 
REMARK    4  A    between atoms: C8_12  and  O4_13 
REMARK    5  A    between atoms: C10_15  and  O5_16 
REMARK    6  A    between atoms: C11_20  and  C12_21 
REMARK    7  A    between atoms: C19_31  and  O8_32 
REMARK    8  A    between atoms: C24_37  and  O9_38 
ROOT
HETATM    1  C2  UNL     1       4.994  -1.197  -0.020  1.00  0.00     0.138 A 
HETATM    2  C3  UNL     1       3.975  -0.813   0.817  1.00  0.00     0.113 A 
HETATM    3  C4  UNL     1       2.703  -0.387   0.379  1.00  0.00     0.018 A 
HETATM    4  C5  UNL     1       2.510  -0.364  -0.982  1.00  0.00     0.064 A 
HETATM    5  C6  UNL     1       3.570  -0.763  -1.836  1.00  0.00     0.119 A 
HETATM    6  C8  UNL     1       4.801  -1.176  -1.366  1.00  0.00     0.139 A 
HETATM    7  C10 UNL     1       1.310   0.054  -1.708  1.00  0.00     0.150 C 
HETATM    8  N1  UNL     1       0.332   1.014  -1.535  1.00  0.00    -0.363 N 
ATOM      9  H1  UNL     1      -0.522   0.762  -2.032  1.00  0.00     0.162 HD
HETATM   10  C11 UNL     1       0.183   2.260  -0.855  1.00  0.00     0.115 C 
HETATM   11  C15 UNL     1      -1.329   2.553  -0.704  1.00  0.00     0.138 C 
HETATM   12  C16 UNL     1      -1.820   2.425   0.665  1.00  0.00     0.261 C 
HETATM   13  O6  UNL     1      -1.223   3.127   1.545  1.00  0.00    -0.265 OA
HETATM   14  O7  UNL     1      -2.844   1.639   1.105  1.00  0.00    -0.314 OA
HETATM   15  C17 UNL     1      -4.139   1.464   0.715  1.00  0.00     0.156 C 
HETATM   16  C18 UNL     1      -4.444   1.841  -0.714  1.00  0.00     0.042 C 
HETATM   17  C19 UNL     1      -4.632   0.050   0.927  1.00  0.00     0.150 C 
HETATM   18  C21 UNL     1      -3.575  -0.686   1.684  1.00  0.00     0.041 C 
HETATM   19  C22 UNL     1      -2.546  -1.367   0.866  1.00  0.00     0.013 C 
HETATM   20  C23 UNL     1      -3.110  -2.431  -0.053  1.00  0.00     0.012 C 
HETATM   21  C24 UNL     1      -1.467  -1.949   1.771  1.00  0.00     0.128 C 
HETATM   22  C26 UNL     1      -0.118  -1.593   1.257  1.00  0.00     0.066 C 
HETATM   23  C27 UNL     1       0.644  -0.515   1.884  1.00  0.00    -0.080 C 
HETATM   24  C28 UNL     1       0.059   0.115   3.137  1.00  0.00     0.043 C 
HETATM   25  C29 UNL     1       1.822  -0.046   1.478  1.00  0.00     0.018 C 
ENDROOT
BRANCH  10  26
HETATM   26  C12 UNL     1       0.653   3.474  -1.680  1.00  0.00     0.050 C 
HETATM   27  C13 UNL     1      -0.179   3.536  -2.938  1.00  0.00     0.034 C 
HETATM   28  C14 UNL     1       0.569   4.715  -0.867  1.00  0.00     0.034 C 
HETATM   29 CL1  UNL     1       2.349   3.274  -2.168  1.00  0.00    -0.118 Cl
ENDBRANCH  10  26
BRANCH   7  30
HETATM   30  O5  UNL     1       1.142  -0.689  -2.797  1.00  0.00    -0.346 OA
ATOM     31  H5  UNL     1       0.363  -0.418  -3.268  1.00  0.00     0.219 HD
ENDBRANCH   7  30
BRANCH   5  32
HETATM   32  O3  UNL     1       3.442  -0.771  -3.230  1.00  0.00    -0.352 OA
HETATM   33  C7  UNL     1       3.766   0.261  -4.098  1.00  0.00     0.210 C 
ENDBRANCH   5  32
BRANCH   2  34
HETATM   34  O2  UNL     1       4.298  -0.870   2.191  1.00  0.00    -0.357 OA
ATOM     35  H2  UNL     1       3.593  -0.604   2.770  1.00  0.00     0.217 HD
ENDBRANCH   2  34
BRANCH   6  36
HETATM   36  O4  UNL     1       5.778  -1.550  -2.292  1.00  0.00    -0.351 OA
HETATM   37  C9  UNL     1       5.796  -2.865  -2.758  1.00  0.00     0.210 C 
ENDBRANCH   6  36
BRANCH  17  38
HETATM   38  O8  UNL     1      -5.761   0.144   1.757  1.00  0.00    -0.388 OA
HETATM   39  C20 UNL     1      -6.882  -0.406   1.144  1.00  0.00     0.202 C 
ENDBRANCH  17  38
BRANCH   1  40
HETATM   40  O1  UNL     1       6.226  -1.606   0.480  1.00  0.00    -0.351 OA
HETATM   41  C1  UNL     1       6.561  -2.889   0.889  1.00  0.00     0.210 C 
ENDBRANCH   1  40
BRANCH  21  42
HETATM   42  O9  UNL     1      -1.769  -1.617   3.069  1.00  0.00    -0.390 OA
HETATM   43  C25 UNL     1      -2.142  -2.681   3.871  1.00  0.00     0.202 C 
ENDBRANCH  21  42
TORSDOF 8
