REMARK  9 active torsions:
REMARK  status: ('A' for Active; 'I' for Inactive)
REMARK    1  A    between atoms: C2_2  and  N1_4 
REMARK    2  A    between atoms: N1_4  and  C4_5 
REMARK    3  A    between atoms: N1_4  and  C14_26 
REMARK    4  A    between atoms: C4_5  and  C5_6 
REMARK    5  A    between atoms: C8_10  and  O1_11 
REMARK    6  A    between atoms: O1_11  and  C9_12 
REMARK    7  A    between atoms: C9_12  and  C10_13 
REMARK    8  A    between atoms: C12_15  and  C13_16 
REMARK    9  A    between atoms: C14_26  and  C15_27 
ROOT
HETATM    1  C5  UNL     1       0.404  -0.171  -0.892  1.00  0.00     0.045 A 
HETATM    2  C6  UNL     1       0.909  -1.439  -0.694  1.00  0.00     0.051 A 
HETATM    3  C7  UNL     1       2.277  -1.685  -0.763  1.00  0.00     0.065 A 
HETATM    4 BR1  UNL     1       2.979  -3.443  -0.493  1.00  0.00    -0.046 Br
HETATM    5  C8  UNL     1       3.139  -0.655  -1.032  1.00  0.00     0.175 A 
HETATM    6  N3  UNL     1       2.599   0.573  -1.220  1.00  0.00    -0.279 N 
ATOM      7  H3  UNL     1       3.216   1.360  -1.423  1.00  0.00     0.189 HD
HETATM    8  N4  UNL     1       1.303   0.780  -1.148  1.00  0.00    -0.301 N 
ATOM      9  H4  UNL     1       0.963   1.730  -1.298  1.00  0.00     0.186 HD
ENDROOT
BRANCH   1  10
HETATM   10  C4  UNL     1      -1.028   0.060  -0.839  1.00  0.00     0.180 C 
BRANCH  10  11
HETATM   11  N1  UNL     1      -1.668  -0.061   0.412  1.00  0.00    -0.383 N 
BRANCH  11  12
HETATM   12  C2  UNL     1      -1.276   0.787   1.439  1.00  0.00     0.075 C 
HETATM   13  C1  UNL     1      -1.571   2.230   1.106  1.00  0.00     0.032 C 
HETATM   14  C3  UNL     1      -1.869   0.511   2.791  1.00  0.00     0.032 C 
ENDBRANCH  11  12
BRANCH  11  15
HETATM   15  C14 UNL     1      -2.650  -1.036   0.554  1.00  0.00     0.063 C 
BRANCH  15  16
HETATM   16  C15 UNL     1      -4.069  -0.512   0.686  1.00  0.00     0.024 C 
HETATM   17  C16 UNL     1      -4.387   0.269  -0.581  1.00  0.00     0.010 C 
HETATM   18  C17 UNL     1      -5.728   0.932  -0.376  1.00  0.00     0.001 C 
HETATM   19  C18 UNL     1      -6.786  -0.151  -0.278  1.00  0.00     0.000 C 
HETATM   20  C19 UNL     1      -6.439  -1.149   0.806  1.00  0.00     0.001 C 
HETATM   21  C20 UNL     1      -5.049  -1.687   0.713  1.00  0.00     0.010 C 
ENDBRANCH  15  16
ENDBRANCH  11  15
ENDBRANCH  10  11
ENDBRANCH   1  10
BRANCH   5  22
HETATM   22  O1  UNL     1       4.526  -0.842  -1.115  1.00  0.00    -0.328 OA
BRANCH  22  23
HETATM   23  C9  UNL     1       5.381   0.248  -1.401  1.00  0.00     0.236 C 
BRANCH  23  24
HETATM   24  C10 UNL     1       6.815  -0.126  -1.453  1.00  0.00     0.059 A 
HETATM   25  C11 UNL     1       7.824   0.271  -0.567  1.00  0.00     0.069 A 
HETATM   26  C12 UNL     1       9.009  -0.295  -0.975  1.00  0.00     0.142 A 
HETATM   27  O2  UNL     1       8.723  -0.999  -2.058  1.00  0.00    -0.236 OA
HETATM   28  N2  UNL     1       7.456  -0.907  -2.342  1.00  0.00    -0.263 N 
ATOM     29  H2  UNL     1       7.008  -1.367  -3.135  1.00  0.00     0.194 HD
BRANCH  26  30
HETATM   30  C13 UNL     1      10.343  -0.155  -0.343  1.00  0.00     0.412 C 
HETATM   31  F1  UNL     1      10.736   1.168  -0.268  1.00  0.00    -0.207 F 
HETATM   32  F2  UNL     1      10.393  -0.683   0.935  1.00  0.00    -0.207 F 
ENDBRANCH  26  30
ENDBRANCH  23  24
ENDBRANCH  22  23
ENDBRANCH   5  22
TORSDOF 9
