REMARK  7 active torsions:
REMARK  status: ('A' for Active; 'I' for Inactive)
REMARK    1  A    between atoms: C2_2  and  C3_3 
REMARK    2  A    between atoms: C3_3  and  C4_4 
REMARK    3  A    between atoms: C4_4  and  C5_5 
REMARK    4  A    between atoms: C5_5  and  N1_6 
REMARK    5  A    between atoms: C6_7  and  O1_8 
REMARK    6  A    between atoms: C9_12  and  O2_13 
REMARK    7  A    between atoms: C13_18  and  C14_19 
ROOT
HETATM    1  N1  UNL     1       0.007  -0.952   0.088  1.00  0.00    -0.307 N 
HETATM    2  C6  UNL     1      -0.680  -0.725  -1.044  1.00  0.00     0.156 A 
HETATM    3  C7  UNL     1      -2.002  -0.391  -0.737  1.00  0.00     0.036 A 
HETATM    4  C8  UNL     1      -2.075  -0.428   0.628  1.00  0.00     0.015 A 
HETATM    5  C9  UNL     1      -0.822  -0.777   1.136  1.00  0.00     0.152 A 
HETATM    6  C10 UNL     1      -3.446  -0.085   1.025  1.00  0.00     0.043 A 
HETATM    7  C11 UNL     1      -3.447   1.171   1.909  1.00  0.00     0.019 C 
HETATM    8  C12 UNL     1      -4.155   0.153  -0.235  1.00  0.00    -0.005 A 
HETATM    9  C13 UNL     1      -3.319  -0.025  -1.242  1.00  0.00     0.008 A 
ENDROOT
BRANCH   1  10
HETATM   10  C5  UNL     1       1.400  -1.324   0.258  1.00  0.00     0.133 C 
BRANCH  10  11
HETATM   11  C4  UNL     1       2.242  -0.053   0.373  1.00  0.00     0.020 C 
BRANCH  11  12
HETATM   12  C3  UNL     1       3.683  -0.484   0.548  1.00  0.00     0.001 C 
BRANCH  12  13
HETATM   13  C2  UNL     1       4.558   0.767   0.667  1.00  0.00    -0.004 C 
HETATM   14  C1  UNL     1       4.385   1.564  -0.608  1.00  0.00     0.005 C 
ENDBRANCH  12  13
ENDBRANCH  11  12
ENDBRANCH  10  11
ENDBRANCH   1  10
BRANCH   2  15
HETATM   15  O1  UNL     1      -0.162  -0.809  -2.311  1.00  0.00    -0.345 OA
ATOM     16  H1  UNL     1      -0.648  -0.648  -3.111  1.00  0.00     0.219 HD
ENDBRANCH   2  15
BRANCH   5  17
HETATM   17  O2  UNL     1      -0.556  -0.902   2.492  1.00  0.00    -0.345 OA
ATOM     18  H2  UNL     1      -1.140  -0.779   3.231  1.00  0.00     0.219 HD
ENDBRANCH   5  17
BRANCH   9  19
HETATM   19  C14 UNL     1      -3.601   0.109  -2.712  1.00  0.00     0.216 C 
HETATM   20 CL1  UNL     1      -3.277  -1.450  -3.492  1.00  0.00    -0.078 Cl
HETATM   21 CL2  UNL     1      -5.309   0.565  -2.889  1.00  0.00    -0.078 Cl
HETATM   22 CL3  UNL     1      -2.531   1.368  -3.387  1.00  0.00    -0.078 Cl
ENDBRANCH   9  19
TORSDOF 7
