REMARK  5 active torsions:
REMARK  status: ('A' for Active; 'I' for Inactive)
REMARK    1  A    between atoms: C2_2  and  O1_3 
REMARK    2  A    between atoms: C2_2  and  C3_5 
REMARK    3  A    between atoms: C3_5  and  O2_6 
REMARK    4  A    between atoms: C3_5  and  C4_8 
REMARK    5  A    between atoms: C7_13  and  O5_14 
ROOT
HETATM    1  C4  UNL     1      -0.094  -0.321   0.365  1.00  0.00     0.182 C 
HETATM    2  C5  UNL     1       0.921  -1.320   0.083  1.00  0.00     0.206 C 
HETATM    3  O3  UNL     1       1.905  -1.172  -0.800  1.00  0.00    -0.353 OA
HETATM    4  C6  UNL     1       2.571  -0.058  -1.007  1.00  0.00     0.330 A 
HETATM    5  O4  UNL     1       3.886   0.248  -0.987  1.00  0.00    -0.311 OA
HETATM    6  C7  UNL     1       3.362   0.434   0.228  1.00  0.00     0.237 A 
HETATM    7  C8  UNL     1       2.569   1.588   0.708  1.00  0.00     0.070 C 
HETATM    8  C9  UNL     1       1.271   1.821   0.774  1.00  0.00     0.137 C 
HETATM    9  O6  UNL     1       0.194   1.032   0.399  1.00  0.00    -0.353 OA
ENDROOT
BRANCH   1  10
HETATM   10  C3  UNL     1      -1.310  -0.468  -0.569  1.00  0.00     0.178 C 
BRANCH  10  11
HETATM   11  C2  UNL     1      -2.474   0.341  -0.089  1.00  0.00     0.145 C 
HETATM   12  C1  UNL     1      -3.600   0.152  -1.084  1.00  0.00     0.042 C 
BRANCH  11  13
HETATM   13  O1  UNL     1      -2.926  -0.114   1.146  1.00  0.00    -0.393 OA
ATOM     14  H1  UNL     1      -2.220   0.005   1.770  1.00  0.00     0.210 HD
ENDBRANCH  11  13
ENDBRANCH  10  11
BRANCH  10  15
HETATM   15  O2  UNL     1      -1.704  -1.786  -0.693  1.00  0.00    -0.390 OA
ATOM     16  H2  UNL     1      -0.965  -2.300  -0.998  1.00  0.00     0.210 HD
ENDBRANCH  10  15
ENDBRANCH   1  10
BRANCH   6  17
HETATM   17  O5  UNL     1       3.552  -0.525   1.238  1.00  0.00    -0.358 OA
ATOM     18  H5  UNL     1       4.038  -0.223   1.996  1.00  0.00     0.213 HD
ENDBRANCH   6  17
TORSDOF 5
