REMARK  5 active torsions:
REMARK  status: ('A' for Active; 'I' for Inactive)
REMARK    1  A    between atoms: C3_4  and  C4_5 
REMARK       I    between atoms: C4_5  and  N2_7 
REMARK    2  A    between atoms: C10_15  and  C11_16 
REMARK    3  A    between atoms: C11_16  and  C12_17 
REMARK       I    between atoms: C12_17  and  N3_19 
REMARK    4  A    between atoms: N3_19  and  C13_21 
REMARK    5  A    between atoms: C13_21  and  C14_22 
ROOT
HETATM    1  C1  UNL     1       1.029  -0.232   1.795  1.00  0.00     0.152 C 
HETATM    2  N1  UNL     1       1.624   0.140   0.580  1.00  0.00    -0.355 N 
HETATM    3  C2  UNL     1       2.806  -0.488   0.031  1.00  0.00     0.139 C 
HETATM    4  C3  UNL     1       3.424   0.613  -0.848  1.00  0.00     0.097 C 
HETATM    5  C9  UNL     1       2.616   0.737  -2.086  1.00  0.00     0.030 C 
HETATM    6  C10 UNL     1       1.159   1.084  -1.719  1.00  0.00     0.087 C 
HETATM    7  C24 UNL     1       1.088   1.212  -0.227  1.00  0.00     0.224 C 
HETATM    8  O4  UNL     1       0.582   2.219   0.294  1.00  0.00    -0.273 OA
ENDROOT
BRANCH   6   9
HETATM    9  C11 UNL     1       0.253   0.018  -2.226  1.00  0.00     0.117 C 
BRANCH   9  10
HETATM   10  C12 UNL     1      -1.182   0.360  -1.912  1.00  0.00     0.222 C 
HETATM   11  O3  UNL     1      -1.393   1.483  -1.438  1.00  0.00    -0.273 OA
HETATM   12  N3  UNL     1      -2.131  -0.635  -2.190  1.00  0.00    -0.340 N 
ATOM     13  H3  UNL     1      -1.766  -1.495  -2.598  1.00  0.00     0.167 HD
BRANCH  12  14
HETATM   14  C13 UNL     1      -3.504  -0.600  -1.981  1.00  0.00     0.073 C 
BRANCH  14  15
HETATM   15  C14 UNL     1      -4.060  -0.595  -0.609  1.00  0.00    -0.007 C 
HETATM   16  C15 UNL     1      -3.597  -1.872   0.108  1.00  0.00     0.019 C 
HETATM   17  C16 UNL     1      -4.286  -1.974   1.422  1.00  0.00    -0.013 C 
HETATM   18  C17 UNL     1      -5.783  -2.097   1.195  1.00  0.00     0.009 C 
HETATM   19  C21 UNL     1      -4.060  -0.784   2.302  1.00  0.00     0.009 C 
HETATM   20  C18 UNL     1      -6.284  -0.870   0.495  1.00  0.00    -0.013 C 
HETATM   21  C19 UNL     1      -6.029   0.408   1.297  1.00  0.00     0.009 C 
HETATM   22  C23 UNL     1      -5.589  -0.698  -0.807  1.00  0.00     0.019 C 
HETATM   23  C20 UNL     1      -4.568   0.441   1.582  1.00  0.00    -0.013 C 
HETATM   24  C22 UNL     1      -3.761   0.543   0.284  1.00  0.00     0.019 C 
ENDBRANCH  14  15
ENDBRANCH  12  14
ENDBRANCH   9  10
ENDBRANCH   6   9
BRANCH   4  25
HETATM   25  C4  UNL     1       4.856   0.427  -1.076  1.00  0.00     0.225 C 
HETATM   26  O1  UNL     1       5.299  -0.046  -2.164  1.00  0.00    -0.273 OA
HETATM   27  N2  UNL     1       5.792   0.776  -0.067  1.00  0.00    -0.347 N 
HETATM   28  C5  UNL     1       7.236   0.561  -0.297  1.00  0.00     0.152 C 
HETATM   29  C8  UNL     1       5.446   1.373   1.205  1.00  0.00     0.169 C 
HETATM   30  C6  UNL     1       7.984   1.483   0.603  1.00  0.00     0.189 C 
HETATM   31  O2  UNL     1       7.749   1.291   1.937  1.00  0.00    -0.372 OA
HETATM   32  C7  UNL     1       6.451   0.902   2.229  1.00  0.00     0.210 C 
HETATM   33 BR1  UNL     1       6.411  -1.028   2.280  1.00  0.00    -0.060 Br
ENDBRANCH   4  25
TORSDOF 5
