REMARK  6 active torsions:
REMARK  status: ('A' for Active; 'I' for Inactive)
REMARK    1  A    between atoms: C6_6  and  N1_7 
REMARK    2  A    between atoms: C9_10  and  N2_11 
REMARK       I    between atoms: N2_11  and  C10_13 
REMARK    3  A    between atoms: C10_13  and  C11_15 
REMARK    4  A    between atoms: C17_21  and  C18_22 
REMARK       I    between atoms: C18_22  and  N3_24 
REMARK    5  A    between atoms: N4_32  and  C24_33 
REMARK    6  A    between atoms: C24_33  and  C25_34 
ROOT
HETATM    1  C1  UNL     1      -0.376  -0.435  -2.955  1.00  0.00     0.026 C 
HETATM    2  C2  UNL     1      -0.551  -1.601  -2.011  1.00  0.00     0.043 C 
HETATM    3  C3  UNL     1       0.249  -2.804  -2.475  1.00  0.00     0.019 C 
HETATM    4  C4  UNL     1       0.861  -3.469  -1.288  1.00  0.00     0.003 C 
HETATM    5  C5  UNL     1       1.848  -2.523  -0.623  1.00  0.00     0.036 C 
HETATM    6  C6  UNL     1       1.300  -1.095  -0.567  1.00  0.00     0.228 C 
HETATM    7  C15 UNL     1      -0.189  -1.242  -0.588  1.00  0.00     0.039 C 
HETATM    8  C16 UNL     1      -0.973  -0.107  -0.054  1.00  0.00     0.043 C 
HETATM    9  C17 UNL     1      -2.449  -0.315  -0.220  1.00  0.00     0.179 C 
HETATM   10  N4  UNL     1      -2.834  -1.411  -1.046  1.00  0.00    -0.338 N 
HETATM   11  C28 UNL     1      -1.979  -1.985  -2.022  1.00  0.00     0.229 C 
HETATM   12  O3  UNL     1      -2.414  -2.807  -2.887  1.00  0.00    -0.272 OA
ENDROOT
BRANCH   6  13
HETATM   13  N1  UNL     1       1.864  -0.297   0.459  1.00  0.00     0.095 N 
HETATM   14  C7  UNL     1       1.872   1.110   0.191  1.00  0.00     0.275 C 
HETATM   15  C8  UNL     1       3.226   1.632   0.593  1.00  0.00     0.057 C 
HETATM   16  C9  UNL     1       4.112   0.429   0.358  1.00  0.00     0.114 C 
HETATM   17  C14 UNL     1       3.206  -0.681   0.867  1.00  0.00     0.298 C 
BRANCH  16  18
HETATM   18  N2  UNL     1       5.364   0.527   1.027  1.00  0.00    -0.354 N 
HETATM   19  C10 UNL     1       6.607   0.559   0.359  1.00  0.00     0.222 C 
HETATM   20  O1  UNL     1       6.578   0.489  -0.915  1.00  0.00    -0.273 OA
ATOM     21  H2  UNL     1       5.363   0.577   2.046  1.00  0.00     0.162 HD
BRANCH  19  22
HETATM   22  C11 UNL     1       7.908   0.667   1.019  1.00  0.00     0.078 A 
HETATM   23  C12 UNL     1       7.952   1.871   1.989  1.00  0.00     0.015 A 
HETATM   24  C13 UNL     1       8.140   0.451   2.453  1.00  0.00     0.015 A 
ENDBRANCH  19  22
ENDBRANCH  16  18
ENDBRANCH   6  13
BRANCH   9  25
HETATM   25  C18 UNL     1      -3.093   0.904  -0.836  1.00  0.00     0.242 C 
HETATM   26  O2  UNL     1      -3.632   0.810  -1.994  1.00  0.00    -0.271 OA
HETATM   27  N3  UNL     1      -3.149   2.165  -0.224  1.00  0.00    -0.350 N 
HETATM   28  C19 UNL     1      -3.772   3.276  -0.951  1.00  0.00     0.131 C 
HETATM   29  C23 UNL     1      -2.665   2.481   1.089  1.00  0.00     0.131 C 
HETATM   30  C20 UNL     1      -4.113   4.339   0.088  1.00  0.00     0.099 C 
HETATM   31  C21 UNL     1      -4.739   3.740   1.330  1.00  0.00     0.246 C 
HETATM   32  F1  UNL     1      -4.881   4.760   2.246  1.00  0.00    -0.206 F 
HETATM   33  F2  UNL     1      -5.995   3.262   0.948  1.00  0.00    -0.206 F 
HETATM   34  C22 UNL     1      -3.910   2.667   1.963  1.00  0.00     0.099 C 
ENDBRANCH   9  25
BRANCH  10  35
HETATM   35  C24 UNL     1      -4.162  -1.961  -0.959  1.00  0.00     0.131 C 
BRANCH  35  36
HETATM   36  C25 UNL     1      -4.347  -3.132  -0.080  1.00  0.00     0.004 A 
HETATM   37  C26 UNL     1      -4.081  -3.155   1.399  1.00  0.00     0.007 A 
HETATM   38  C27 UNL     1      -5.488  -2.979   0.934  1.00  0.00     0.007 A 
ENDBRANCH  35  36
ENDBRANCH  10  35
TORSDOF 6
