REMARK  13 active torsions:
REMARK  status: ('A' for Active; 'I' for Inactive)
REMARK    1  A    between atoms: O1_2  and  C2_3 
REMARK    2  A    between atoms: C2_3  and  C3_5 
REMARK    3  A    between atoms: C3_5  and  O3_6 
REMARK    4  A    between atoms: O3_6  and  C4_7 
REMARK    5  A    between atoms: C4_7  and  C5_9 
REMARK    6  A    between atoms: C10_14  and  O5_15 
REMARK    7  A    between atoms: C13_19  and  N1_20 
REMARK    8  A    between atoms: C15_22  and  O6_23 
REMARK    9  A    between atoms: C19_27  and  C20_28 
REMARK   10  A    between atoms: C20_28  and  O7_30 
REMARK   11  A    between atoms: C24_37  and  O8_38 
REMARK   12  A    between atoms: C24_37  and  C25_40 
REMARK   13  A    between atoms: C25_40  and  N3_41 
ROOT
HETATM    1  C3  UNL     1       2.627  -0.197  -0.337  1.00  0.00     0.240 C 
HETATM    2  C9  UNL     1       1.214  -0.025  -0.032  1.00  0.00     0.054 A 
HETATM    3  C10 UNL     1       0.372  -0.100   1.085  1.00  0.00     0.086 A 
HETATM    4  C11 UNL     1      -1.034   0.050   0.980  1.00  0.00     0.000 A 
HETATM    5  C12 UNL     1      -1.835  -0.013   2.263  1.00  0.00     0.054 C 
HETATM    6  C13 UNL     1      -1.574   0.272  -0.233  1.00  0.00     0.063 A 
HETATM    7  C22 UNL     1      -0.746   0.352  -1.342  1.00  0.00     0.088 A 
HETATM    8 CL1  UNL     1      -1.503   0.636  -2.909  1.00  0.00    -0.079 Cl
HETATM    9  C23 UNL     1       0.607   0.215  -1.280  1.00  0.00     0.067 A 
HETATM   10  N2  UNL     1       1.657   0.345  -2.283  1.00  0.00    -0.352 N 
ATOM     11  H2  UNL     1       1.636   0.107  -3.275  1.00  0.00     0.163 HD
HETATM   12  C24 UNL     1       2.739   0.902  -1.495  1.00  0.00     0.203 C 
ENDROOT
BRANCH   6  13
HETATM   13  N1  UNL     1      -2.996   0.390  -0.395  1.00  0.00    -0.369 N 
HETATM   14  C14 UNL     1      -3.696   1.669  -0.188  1.00  0.00     0.156 C 
HETATM   15  C15 UNL     1      -5.120   1.229   0.178  1.00  0.00     0.144 C 
HETATM   16  C17 UNL     1      -5.259   0.081  -0.789  1.00  0.00     0.037 C 
HETATM   17  C18 UNL     1      -6.515  -0.702  -0.603  1.00  0.00     0.015 C 
HETATM   18  C19 UNL     1      -3.974  -0.568  -0.826  1.00  0.00     0.119 C 
BRANCH  15  19
HETATM   19  O6  UNL     1      -6.036   2.237  -0.099  1.00  0.00    -0.389 OA
HETATM   20  C16 UNL     1      -6.749   2.557   1.063  1.00  0.00     0.202 C 
ENDBRANCH  15  19
BRANCH  18  21
HETATM   21  C20 UNL     1      -3.775  -1.861  -0.129  1.00  0.00     0.137 C 
HETATM   22  C21 UNL     1      -4.654  -2.995  -0.589  1.00  0.00     0.041 C 
BRANCH  21  23
HETATM   23  O7  UNL     1      -2.480  -2.285  -0.442  1.00  0.00    -0.394 OA
ATOM     24  H7  UNL     1      -2.352  -3.114   0.005  1.00  0.00     0.210 HD
ENDBRANCH  21  23
ENDBRANCH  18  21
ENDBRANCH   6  13
BRANCH   3  25
HETATM   25  O5  UNL     1       0.802  -0.314   2.353  1.00  0.00    -0.359 OA
ATOM     26  H5  UNL     1       0.231  -0.365   3.111  1.00  0.00     0.217 HD
ENDBRANCH   3  25
BRANCH   1  27
HETATM   27  C2  UNL     1       2.788  -1.503  -1.109  1.00  0.00     0.304 C 
HETATM   28  O2  UNL     1       1.887  -1.974  -1.839  1.00  0.00    -0.261 OA
BRANCH  27  29
HETATM   29  O1  UNL     1       3.951  -2.251  -1.053  1.00  0.00    -0.324 OA
HETATM   30  C1  UNL     1       4.155  -3.448  -1.739  1.00  0.00     0.213 C 
ENDBRANCH  27  29
ENDBRANCH   1  27
BRANCH   1  31
HETATM   31  O3  UNL     1       3.646   0.044   0.504  1.00  0.00    -0.289 OA
BRANCH  31  32
HETATM   32  C4  UNL     1       4.168  -0.731   1.479  1.00  0.00     0.264 C 
HETATM   33  O4  UNL     1       3.706  -1.870   1.704  1.00  0.00    -0.265 OA
BRANCH  32  34
HETATM   34  C5  UNL     1       5.315  -0.244   2.316  1.00  0.00     0.085 C 
HETATM   35  C6  UNL     1       6.543   0.083   1.512  1.00  0.00     0.014 C 
HETATM   36  C7  UNL     1       6.574   1.441   2.165  1.00  0.00     0.002 C 
HETATM   37  C8  UNL     1       5.147   1.246   2.590  1.00  0.00     0.014 C 
ENDBRANCH  32  34
ENDBRANCH  31  32
ENDBRANCH   1  31
BRANCH  12  38
HETATM   38  O8  UNL     1       2.316   2.066  -0.902  1.00  0.00    -0.366 OA
ATOM     39  H8  UNL     1       2.382   2.718  -1.589  1.00  0.00     0.212 HD
ENDBRANCH  12  38
BRANCH  12  40
HETATM   40  C25 UNL     1       4.072   0.887  -2.092  1.00  0.00     0.294 C 
BRANCH  40  41
HETATM   41  N3  UNL     1       4.137   1.895  -3.132  1.00  0.00    -0.075 N 
ATOM     42  H33 UNL     1       3.399   1.783  -3.827  1.00  0.00     0.274 HD
ATOM     43  H32 UNL     1       3.874   2.820  -2.792  1.00  0.00     0.274 HD
ATOM     44  H31 UNL     1       5.068   1.885  -3.549  1.00  0.00     0.274 HD
ENDBRANCH  40  41
ENDBRANCH  12  40
TORSDOF 13
