REMARK  5 active torsions:
REMARK  status: ('A' for Active; 'I' for Inactive)
REMARK    1  A    between atoms: C4_4  and  C5_5 
REMARK    2  A    between atoms: C5_5  and  C6_6 
REMARK    3  A    between atoms: C6_6  and  C7_7 
REMARK    4  A    between atoms: C7_7  and  C8_8 
REMARK    5  A    between atoms: C8_8  and  C9_9 
ROOT
HETATM    1  C9  UNL     1      -1.241   0.066  -1.166  1.00  0.00    -0.057 A 
HETATM    2  C10 UNL     1      -1.615  -0.625  -2.307  1.00  0.00     0.010 A 
HETATM    3  C11 UNL     1      -2.906  -1.070  -2.501  1.00  0.00     0.039 A 
HETATM    4  C12 UNL     1      -3.859  -0.821  -1.530  1.00  0.00     0.087 A 
HETATM    5  O1  UNL     1      -5.138  -1.106  -1.420  1.00  0.00    -0.309 OA
HETATM    6  C13 UNL     1      -5.640  -0.656  -0.293  1.00  0.00     0.087 A 
HETATM    7  C14 UNL     1      -6.918  -0.711   0.259  1.00  0.00     0.038 A 
HETATM    8  C15 UNL     1      -7.161  -0.138   1.490  1.00  0.00     0.003 A 
HETATM    9  C16 UNL     1      -6.181   0.503   2.223  1.00  0.00     0.001 A 
HETATM   10  C17 UNL     1      -4.919   0.544   1.651  1.00  0.00     0.015 A 
HETATM   11  C18 UNL     1      -4.649  -0.020   0.423  1.00  0.00     0.011 A 
HETATM   12  C19 UNL     1      -3.523  -0.135  -0.379  1.00  0.00     0.011 A 
HETATM   13  C20 UNL     1      -2.213   0.297  -0.219  1.00  0.00     0.022 A 
ENDROOT
BRANCH   1  14
HETATM   14  C8  UNL     1       0.155   0.529  -0.992  1.00  0.00     0.038 C 
BRANCH  14  15
HETATM   15  C7  UNL     1       1.018  -0.496  -0.300  1.00  0.00     0.005 C 
BRANCH  15  16
HETATM   16  C6  UNL     1       2.407   0.117  -0.194  1.00  0.00     0.005 C 
BRANCH  16  17
HETATM   17  C5  UNL     1       3.384  -0.812   0.486  1.00  0.00     0.038 C 
BRANCH  17  18
HETATM   18  C4  UNL     1       4.689  -0.134   0.540  1.00  0.00    -0.058 A 
HETATM   19  C3  UNL     1       5.588  -0.283  -0.485  1.00  0.00     0.007 A 
HETATM   20  C2  UNL     1       6.828   0.362  -0.433  1.00  0.00     0.001 A 
HETATM   21  C1  UNL     1       7.137   1.145   0.651  1.00  0.00     0.000 A 
HETATM   22  C22 UNL     1       6.240   1.310   1.701  1.00  0.00     0.001 A 
HETATM   23  C21 UNL     1       5.021   0.652   1.610  1.00  0.00     0.007 A 
ENDBRANCH  17  18
ENDBRANCH  16  17
ENDBRANCH  15  16
ENDBRANCH  14  15
ENDBRANCH   1  14
TORSDOF 5
