REMARK  10 active torsions:
REMARK  status: ('A' for Active; 'I' for Inactive)
REMARK    1  A    between atoms: N1_1  and  C1_5 
REMARK    2  A    between atoms: C1_5  and  C2_6 
REMARK    3  A    between atoms: C3_8  and  O2_9 
REMARK    4  A    between atoms: O2_9  and  C4_10 
REMARK    5  A    between atoms: C8_15  and  N2_16 
REMARK       I    between atoms: N2_16  and  C9_18 
REMARK    6  A    between atoms: C9_18  and  C10_20 
REMARK    7  A    between atoms: C13_23  and  O4_24 
REMARK    8  A    between atoms: O4_24  and  C14_25 
REMARK    9  A    between atoms: C16_30  and  O5_31 
REMARK   10  A    between atoms: C19_39  and  O7_40 
ROOT
HETATM    1  C2  UNL     1      -4.577  -2.243   0.731  1.00  0.00     0.206 C 
HETATM    2  O1  UNL     1      -3.851  -1.899  -0.396  1.00  0.00    -0.346 OA
HETATM    3  C3  UNL     1      -2.948  -0.881  -0.186  1.00  0.00     0.311 C 
HETATM    4  C8  UNL     1      -1.983  -1.113   0.942  1.00  0.00     0.345 C 
HETATM    5  N4  UNL     1      -2.296  -2.382   1.577  1.00  0.00    -0.021 N 
ATOM      6  H41 UNL     1      -1.673  -2.616   2.350  1.00  0.00     0.283 HD
ATOM      7  H42 UNL     1      -2.080  -3.193   0.997  1.00  0.00     0.283 HD
HETATM    8  C19 UNL     1      -3.699  -2.298   1.963  1.00  0.00     0.352 C 
ENDROOT
BRANCH   4   9
HETATM    9  N2  UNL     1      -0.633  -1.086   0.448  1.00  0.00    -0.325 N 
HETATM   10  C9  UNL     1       0.265  -0.110   0.916  1.00  0.00     0.253 C 
HETATM   11  O3  UNL     1      -0.123   0.739   1.770  1.00  0.00    -0.268 OA
ATOM     12  H2  UNL     1      -0.327  -1.773  -0.241  1.00  0.00     0.165 HD
BRANCH  10  13
HETATM   13  C10 UNL     1       1.664  -0.029   0.447  1.00  0.00     0.032 A 
HETATM   14  C11 UNL     1       2.194  -0.907  -0.458  1.00  0.00     0.020 A 
HETATM   15  C12 UNL     1       3.495  -0.816  -0.882  1.00  0.00     0.038 A 
HETATM   16  C13 UNL     1       4.349   0.183  -0.410  1.00  0.00     0.073 A 
HETATM   17  C17 UNL     1       3.803   1.055   0.495  1.00  0.00     0.038 A 
HETATM   18  C18 UNL     1       2.482   0.969   0.931  1.00  0.00     0.020 A 
BRANCH  16  19
HETATM   19  O4  UNL     1       5.635   0.209  -0.881  1.00  0.00    -0.297 OA
BRANCH  19  20
HETATM   20  C14 UNL     1       6.582   1.140  -0.500  1.00  0.00     0.477 C 
HETATM   21  N3  UNL     1       7.124   1.856  -1.661  1.00  0.00    -0.020 N 
HETATM   22  C15 UNL     1       8.448   2.288  -1.224  1.00  0.00     0.298 C 
ATOM     23  H32 UNL     1       7.124   1.314  -2.525  1.00  0.00     0.283 HD
ATOM     24  H31 UNL     1       6.529   2.610  -2.004  1.00  0.00     0.283 HD
HETATM   25  C16 UNL     1       8.622   1.570   0.105  1.00  0.00     0.287 C 
HETATM   26  O6  UNL     1       7.734   0.493  -0.003  1.00  0.00    -0.306 OA
BRANCH  25  27
HETATM   27  O5  UNL     1       8.184   2.388   1.167  1.00  0.00    -0.369 OA
ATOM     28  H5  UNL     1       8.293   1.939   1.997  1.00  0.00     0.212 HD
ENDBRANCH  25  27
ENDBRANCH  19  20
ENDBRANCH  16  19
ENDBRANCH  10  13
ENDBRANCH   4   9
BRANCH   3  29
HETATM   29  O2  UNL     1      -3.708   0.245   0.157  1.00  0.00    -0.351 OA
BRANCH  29  30
HETATM   30  C4  UNL     1      -3.542   1.291  -0.716  1.00  0.00     0.135 C 
HETATM   31  C5  UNL     1      -4.875   1.680  -1.281  1.00  0.00     0.043 C 
HETATM   32  C6  UNL     1      -4.669   2.928  -2.108  1.00  0.00     0.076 C 
HETATM   33  S1  UNL     1      -3.499   3.850  -1.033  1.00  0.00    -0.166 SA
HETATM   34  C7  UNL     1      -3.085   2.489   0.129  1.00  0.00     0.105 C 
ENDBRANCH  29  30
ENDBRANCH   3  29
BRANCH   8  35
HETATM   35  O7  UNL     1      -4.106  -3.356   2.745  1.00  0.00    -0.368 OA
ATOM     36  H7  UNL     1      -3.555  -3.391   3.518  1.00  0.00     0.212 HD
ENDBRANCH   8  35
BRANCH   1  37
HETATM   37  C1  UNL     1      -5.291  -3.551   0.601  1.00  0.00     0.266 C 
BRANCH  37  38
HETATM   38  N1  UNL     1      -6.234  -3.531  -0.508  1.00  0.00    -0.077 N 
ATOM     39  H13 UNL     1      -6.889  -2.753  -0.428  1.00  0.00     0.274 HD
ATOM     40  H12 UNL     1      -5.779  -3.264  -1.381  1.00  0.00     0.274 HD
ATOM     41  H11 UNL     1      -6.721  -4.423  -0.597  1.00  0.00     0.274 HD
ENDBRANCH  37  38
ENDBRANCH   1  37
TORSDOF 10
