REMARK  1 active torsions:
REMARK  status: ('A' for Active; 'I' for Inactive)
REMARK    1  A    between atoms: C2_2  and  C4_4 
ROOT
HETATM    1  C4  UNL     1       0.196  -0.086   0.135  1.00  0.00     0.324 C 
HETATM    2  N1  UNL     1       1.174   0.725  -0.578  1.00  0.00    -0.046 N 
ATOM      3  H11 UNL     1       1.029   1.732  -0.502  1.00  0.00     0.280 HD
ATOM      4  H12 UNL     1       1.099   0.687  -1.595  1.00  0.00     0.280 HD
HETATM    5  C5  UNL     1       2.438   0.252  -0.045  1.00  0.00     0.261 C 
HETATM    6  C6  UNL     1       2.043  -0.968   0.793  1.00  0.00     0.198 C 
HETATM    7  O1  UNL     1       0.839  -1.323   0.143  1.00  0.00    -0.357 OA
ENDROOT
BRANCH   1   8
HETATM    8  C2  UNL     1      -1.119  -0.145  -0.607  1.00  0.00     0.034 C 
HETATM    9  C1  UNL     1      -1.686   1.249  -0.767  1.00  0.00     0.014 C 
HETATM   10  C3  UNL     1      -2.088  -0.922   0.265  1.00  0.00     0.014 C 
ENDBRANCH   1   8
TORSDOF 1
