REMARK  4 active torsions:
REMARK  status: ('A' for Active; 'I' for Inactive)
REMARK    1  A    between atoms: N1_1  and  C1_4 
REMARK    2  A    between atoms: N3_8  and  C3_10 
REMARK    3  A    between atoms: C3_10  and  C4_11 
REMARK    4  A    between atoms: C4_11  and  N4_12 
REMARK       I    between atoms: N7_23  and  C8_24 
REMARK       I    between atoms: C8_24  and  N8_25 
REMARK       I    between atoms: C8_24  and  N9_29 
ROOT
HETATM    1  C1  UNL     1       0.259  -2.274   0.361  1.00  0.00     0.145 A 
HETATM    2  N2  UNL     1       1.224  -1.416   0.076  1.00  0.00    -0.175 N 
ATOM      3  H2  UNL     1       2.190  -1.739   0.123  1.00  0.00     0.186 HD
HETATM    4  C2  UNL     1       0.996  -0.150  -0.270  1.00  0.00     0.681 A 
HETATM    5  N3  UNL     1       1.929   0.692  -0.549  1.00  0.00    -0.224 N 
ATOM      6  H3  UNL     1       1.640   1.637  -0.801  1.00  0.00     0.177 HD
HETATM    7  N5  UNL     1      -0.271   0.295  -0.337  1.00  0.00    -0.174 N 
ATOM      8  H5  UNL     1      -0.453   1.263  -0.601  1.00  0.00     0.186 HD
HETATM    9  C5  UNL     1      -1.313  -0.535  -0.056  1.00  0.00     0.158 A 
HETATM   10  C6  UNL     1      -1.059  -1.844   0.300  1.00  0.00     0.123 A 
HETATM   11  N6  UNL     1      -2.234  -2.473   0.531  1.00  0.00    -0.346 N 
ATOM     12  H6  UNL     1      -2.363  -3.445   0.811  1.00  0.00     0.167 HD
HETATM   13  C7  UNL     1      -3.191  -1.567   0.320  1.00  0.00     0.189 A 
HETATM   14  N7  UNL     1      -2.641  -0.393  -0.035  1.00  0.00    -0.276 N 
HETATM   15  C8  UNL     1      -3.385   0.802  -0.337  1.00  0.00     0.489 C 
HETATM   16  N8  UNL     1      -3.288   1.756   0.750  1.00  0.00    -0.032 N 
ATOM     17  H81 UNL     1      -3.815   2.603   0.536  1.00  0.00     0.279 HD
ATOM     18  H82 UNL     1      -2.317   1.964   0.984  1.00  0.00     0.279 HD
ATOM     19  H83 UNL     1      -3.576   1.346   1.639  1.00  0.00     0.279 HD
HETATM   20  N9  UNL     1      -4.787   0.537  -0.554  1.00  0.00    -0.032 N 
ATOM     21  H91 UNL     1      -5.314   1.384  -0.768  1.00  0.00     0.279 HD
ATOM     22  H92 UNL     1      -5.194   0.041   0.239  1.00  0.00     0.279 HD
ATOM     23  H93 UNL     1      -4.920  -0.171  -1.276  1.00  0.00     0.279 HD
ENDROOT
BRANCH   1  24
HETATM   24  N1  UNL     1       0.519  -3.484   0.689  1.00  0.00    -0.383 N 
ATOM     25  H12 UNL     1       1.488  -3.800   0.734  1.00  0.00     0.157 HD
ATOM     26  H11 UNL     1      -0.225  -4.146   0.909  1.00  0.00     0.157 HD
ENDBRANCH   1  24
BRANCH   5  27
HETATM   27  C3  UNL     1       3.327   0.425  -0.538  1.00  0.00     0.165 C 
BRANCH  27  28
HETATM   28  C4  UNL     1       4.122   1.711  -0.277  1.00  0.00     0.249 C 
BRANCH  28  29
HETATM   29  N4  UNL     1       5.531   1.431  -0.268  1.00  0.00    -0.078 N 
ATOM     30  H43 UNL     1       5.769   0.695   0.397  1.00  0.00     0.274 HD
ATOM     31  H42 UNL     1       5.832   0.964  -1.124  1.00  0.00     0.274 HD
ATOM     32  H41 UNL     1       6.060   2.286  -0.094  1.00  0.00     0.274 HD
ENDBRANCH  28  29
ENDBRANCH  27  28
ENDBRANCH   5  27
TORSDOF 4
