REMARK  2 active torsions:
REMARK  status: ('A' for Active; 'I' for Inactive)
REMARK    1  A    between atoms: N1_2  and  C2_4 
REMARK    2  A    between atoms: C2_4  and  C3_8 
ROOT
HETATM    1  C2  UNL     1       0.756  -0.418   0.227  1.00  0.00     0.144 C 
HETATM    2  N2  UNL     1       1.342  -1.548   0.072  1.00  0.00    -0.383 N 
ATOM      3  H21 UNL     1       2.361  -1.574   0.047  1.00  0.00     0.157 HD
ATOM      4  H22 UNL     1       0.766  -2.385  -0.021  1.00  0.00     0.157 HD
ENDROOT
BRANCH   1   5
HETATM    5  N1  UNL     1      -0.658  -0.382   0.262  1.00  0.00    -0.278 N 
HETATM    6  C1  UNL     1      -1.451   0.439  -0.620  1.00  0.00     0.173 C 
HETATM    7 CL1  UNL     1      -1.465  -1.383   1.432  1.00  0.00     0.014 Cl
ENDBRANCH   1   5
BRANCH   1   8
HETATM    8  C3  UNL     1       1.577   0.776   0.360  1.00  0.00     0.145 C 
HETATM    9  S1  UNL     1       0.880   2.262   0.563  1.00  0.00    -0.063 SA
HETATM   10 CL2  UNL     1       3.317   0.736   0.318  1.00  0.00    -0.067 Cl
ENDBRANCH   1   8
TORSDOF 2
