REMARK  9 active torsions:
REMARK  status: ('A' for Active; 'I' for Inactive)
REMARK    1  A    between atoms: C2_2  and  O1_4 
REMARK    2  A    between atoms: C2_2  and  C13_41 
REMARK    3  A    between atoms: O1_4  and  N1_5 
REMARK       I    between atoms: N1_5  and  C4_7 
REMARK    4  A    between atoms: C4_7  and  C5_9 
REMARK    5  A    between atoms: C5_9  and  O3_10 
REMARK    6  A    between atoms: C5_9  and  C6_12 
REMARK    7  A    between atoms: C11_24  and  N6_25 
REMARK    8  A    between atoms: N6_25  and  N7_27 
REMARK    9  A    between atoms: C12_33  and  N11_34 
ROOT
HETATM    1  C6  UNL     1      -0.715  -0.284  -0.991  1.00  0.00     0.151 A 
HETATM    2  N2  UNL     1      -0.016   0.863  -0.853  1.00  0.00    -0.173 N 
ATOM      3  H2  UNL     1      -0.387   1.802  -0.999  1.00  0.00     0.185 HD
HETATM    4  C7  UNL     1       1.245   0.573  -0.494  1.00  0.00     0.718 A 
HETATM    5  N3  UNL     1       1.325  -0.772  -0.409  1.00  0.00    -0.091 N 
HETATM    6  N4  UNL     1       0.129  -1.273  -0.714  1.00  0.00    -0.267 N 
ATOM      7  H4  UNL     1      -0.104  -2.266  -0.732  1.00  0.00     0.189 HD
HETATM    8  C8  UNL     1       2.413  -1.654  -0.059  1.00  0.00     0.152 C 
HETATM    9  C9  UNL     1       2.246  -2.966  -0.836  1.00  0.00     0.066 C 
HETATM   10  C10 UNL     1       2.273  -2.066   1.412  1.00  0.00     0.066 C 
HETATM   11  N5  UNL     1       3.719  -1.179  -0.278  1.00  0.00    -0.195 N 
ATOM     12  H5  UNL     1       4.390  -1.940  -0.378  1.00  0.00     0.180 HD
HETATM   13  C11 UNL     1       4.276  -0.034  -0.383  1.00  0.00     0.711 C 
HETATM   14  N12 UNL     1       3.654   1.242  -0.299  1.00  0.00    -0.117 N 
ATOM     15  H12 UNL     1       4.285   2.042  -0.265  1.00  0.00     0.206 HD
HETATM   16  N13 UNL     1       2.290   1.541  -0.257  1.00  0.00    -0.116 N 
ATOM     17  H13 UNL     1       2.016   2.501  -0.046  1.00  0.00     0.206 HD
ENDROOT
BRANCH   1  18
HETATM   18  C5  UNL     1      -2.168  -0.411  -1.381  1.00  0.00     0.281 C 
BRANCH  18  19
HETATM   19  C4  UNL     1      -3.069  -0.357  -0.226  1.00  0.00     0.277 C 
HETATM   20  N1  UNL     1      -4.175   0.565  -0.242  1.00  0.00    -0.231 N 
ATOM     21  H1  UNL     1      -4.325   1.174  -1.046  1.00  0.00     0.197 HD
HETATM   22  O2  UNL     1      -2.910  -1.084   0.767  1.00  0.00    -0.268 OA
BRANCH  20  23
HETATM   23  O1  UNL     1      -5.024   0.617   0.833  1.00  0.00    -0.256 OA
BRANCH  23  24
HETATM   24  C2  UNL     1      -6.335   0.623   0.326  1.00  0.00     0.169 C 
HETATM   25  C1  UNL     1      -6.517  -0.643  -0.468  1.00  0.00     0.060 C 
HETATM   26  C3  UNL     1      -6.467   1.805  -0.604  1.00  0.00     0.060 C 
BRANCH  24  27
HETATM   27  C13 UNL     1      -7.318   0.738   1.433  1.00  0.00     0.211 C 
HETATM   28  O4  UNL     1      -8.538   0.758   1.127  1.00  0.00    -0.646 OA
HETATM   29  O5  UNL     1      -6.939   0.822   2.765  1.00  0.00    -0.646 OA
ENDBRANCH  24  27
ENDBRANCH  23  24
ENDBRANCH  20  23
ENDBRANCH  18  19
BRANCH  18  30
HETATM   30  O3  UNL     1      -2.492   0.441  -2.407  1.00  0.00    -0.378 OA
ATOM     31  H3  UNL     1      -1.908   0.406  -3.156  1.00  0.00     0.211 HD
ENDBRANCH  18  30
ENDBRANCH   1  18
BRANCH  13  32
HETATM   32  N6  UNL     1       5.690   0.009  -0.615  1.00  0.00    -0.093 N 
ATOM     33  H6  UNL     1       6.063  -0.484  -1.426  1.00  0.00     0.208 HD
BRANCH  32  34
HETATM   34  N7  UNL     1       6.578   0.688   0.209  1.00  0.00     0.008 N 
HETATM   35  N8  UNL     1       6.252   1.369   1.290  1.00  0.00    -0.189 N 
HETATM   36  N9  UNL     1       7.338   1.896   1.850  1.00  0.00     0.010 NA
ATOM     37  H8  UNL     1       5.302   1.477   1.646  1.00  0.00     0.208 HD
HETATM   38  N10 UNL     1       8.388   1.551   1.120  1.00  0.00    -0.112 N 
HETATM   39  C12 UNL     1       7.900   0.801   0.106  1.00  0.00     0.727 A 
ATOM     40  H10 UNL     1       9.363   1.800   1.288  1.00  0.00     0.203 HD
BRANCH  39  41
HETATM   41  N11 UNL     1       8.676   0.297  -0.804  1.00  0.00    -0.230 N 
ATOM     42 2H11 UNL     1       8.308  -0.269  -1.569  1.00  0.00     0.174 HD
ATOM     43 1H11 UNL     1       9.689   0.384  -0.883  1.00  0.00     0.174 HD
ENDBRANCH  39  41
ENDBRANCH  32  34
ENDBRANCH  13  32
TORSDOF 9
