REMARK  1 active torsions:
REMARK  status: ('A' for Active; 'I' for Inactive)
REMARK    1  A    between atoms: C1_4  and  C2_5 
ROOT
HETATM    1  C2  UNL     1       0.620  -0.218  -0.016  1.00  0.00     0.063 A 
HETATM    2  C3  UNL     1      -0.209   0.864   0.241  1.00  0.00     0.119 A 
HETATM    3  N2  UNL     1      -1.499   0.520   0.036  1.00  0.00    -0.360 N 
ATOM      4  H2  UNL     1      -2.319   1.116   0.149  1.00  0.00     0.166 HD
HETATM    5  C4  UNL     1      -1.481  -0.777  -0.350  1.00  0.00     0.180 A 
HETATM    6  N3  UNL     1      -0.208  -1.208  -0.377  1.00  0.00    -0.350 N 
ATOM      7  H3  UNL     1       0.085  -2.151  -0.635  1.00  0.00     0.166 HD
ENDROOT
BRANCH   1   8
HETATM    8  C1  UNL     1       2.072  -0.228   0.097  1.00  0.00     0.111 C 
HETATM    9  N1  UNL     1       2.732  -1.292  -0.169  1.00  0.00    -0.406 N 
ATOM     10  H12 UNL     1       2.224  -2.127  -0.460  1.00  0.00     0.155 HD
ATOM     11  H11 UNL     1       3.749  -1.299  -0.090  1.00  0.00     0.155 HD
ENDBRANCH   1   8
TORSDOF 1
