REMARK  7 active torsions:
REMARK  status: ('A' for Active; 'I' for Inactive)
REMARK    1  A    between atoms: C1_2  and  C2_4 
REMARK    2  A    between atoms: N3_7  and  C4_8 
REMARK    3  A    between atoms: C5_10  and  O3_11 
REMARK    4  A    between atoms: C5_10  and  C6_13 
REMARK    5  A    between atoms: C7_16  and  C8_17 
REMARK    6  A    between atoms: C8_17  and  O5_18 
REMARK    7  A    between atoms: C9_20  and  O6_21 
ROOT
HETATM    1  C4  UNL     1      -0.207   0.185   0.605  1.00  0.00     0.267 C 
HETATM    2  O2  UNL     1      -1.021   1.269   0.248  1.00  0.00    -0.319 OA
HETATM    3  C5  UNL     1      -2.324   0.889   0.535  1.00  0.00     0.253 C 
HETATM    4  C7  UNL     1      -2.414  -0.560   0.182  1.00  0.00     0.114 C 
HETATM    5  C9  UNL     1      -0.997  -1.063   0.301  1.00  0.00     0.179 C 
ENDROOT
BRANCH   1   6
HETATM    6  N3  UNL     1       1.057   0.227  -0.069  1.00  0.00    -0.256 N 
HETATM    7  C3  UNL     1       2.190  -0.109   0.574  1.00  0.00     0.145 A 
HETATM    8  C2  UNL     1       3.433  -0.087  -0.022  1.00  0.00     0.138 A 
HETATM    9  N2  UNL     1       2.064  -0.503   1.945  1.00  0.00    -0.081 NA
HETATM   10  C11 UNL     1       3.517   0.296  -1.340  1.00  0.00     0.268 A 
HETATM   11  N5  UNL     1       2.387   0.630  -1.976  1.00  0.00    -0.274 N 
HETATM   12  O8  UNL     1       4.645   0.333  -1.937  1.00  0.00    -0.267 OA
HETATM   13  C10 UNL     1       1.182   0.596  -1.356  1.00  0.00     0.332 A 
ATOM     14  H5  UNL     1       2.434   0.918  -2.953  1.00  0.00     0.173 HD
HETATM   15  O7  UNL     1       0.180   0.924  -2.029  1.00  0.00    -0.246 OA
BRANCH   8  16
HETATM   16  C1  UNL     1       4.636  -0.456   0.702  1.00  0.00     0.273 C 
HETATM   17  N1  UNL     1       5.899  -0.424   0.063  1.00  0.00    -0.057 NA
HETATM   18  O1  UNL     1       4.553  -0.802   1.893  1.00  0.00    -0.271 OA
ENDBRANCH   8  16
ENDBRANCH   1   6
BRANCH   5  19
HETATM   19  O6  UNL     1      -0.567  -1.695  -0.857  1.00  0.00    -0.391 OA
ATOM     20  H6  UNL     1      -1.065  -2.481  -1.049  1.00  0.00     0.210 HD
ENDBRANCH   5  19
BRANCH   3  21
HETATM   21  O3  UNL     1      -2.624   1.040   1.902  1.00  0.00    -0.358 OA
ATOM     22  H3  UNL     1      -3.516   0.780   2.099  1.00  0.00     0.213 HD
ENDBRANCH   3  21
BRANCH   3  23
HETATM   23  C6  UNL     1      -3.279   1.741  -0.218  1.00  0.00     0.294 C 
HETATM   24  N4  UNL     1      -4.284   2.531   0.446  1.00  0.00    -0.057 NA
HETATM   25  O4  UNL     1      -3.271   1.825  -1.474  1.00  0.00    -0.271 OA
ENDBRANCH   3  23
BRANCH   4  26
HETATM   26  C8  UNL     1      -3.005  -0.824  -1.173  1.00  0.00     0.177 C 
BRANCH  26  27
HETATM   27  O5  UNL     1      -3.017  -2.222  -1.344  1.00  0.00    -0.400 OA
ATOM     28  H5  UNL     1      -3.391  -2.389  -2.201  1.00  0.00     0.209 HD
ENDBRANCH  26  27
ENDBRANCH   4  26
TORSDOF 7
