REMARK  8 active torsions:
REMARK  status: ('A' for Active; 'I' for Inactive)
REMARK    1  A    between atoms: C2_2  and  C3_3 
REMARK    2  A    between atoms: C3_3  and  O1_4 
REMARK    3  A    between atoms: O1_4  and  C4_5 
REMARK    4  A    between atoms: C4_5  and  C5_6 
REMARK    5  A    between atoms: C5_6  and  C7_8 
REMARK    6  A    between atoms: C7_8  and  O2_9 
REMARK    7  A    between atoms: O2_9  and  C8_10 
REMARK    8  A    between atoms: C8_10  and  C9_11 
ROOT
HETATM    1  O2  UNL     1       1.837  -0.641  -1.594  1.00  0.00    -0.383 OA
ENDROOT
BRANCH   1   2
HETATM    2  C7  UNL     1       0.699  -0.017  -1.272  1.00  0.00     0.174 C 
BRANCH   2   3
HETATM    3  C5  UNL     1      -0.380  -0.719  -0.534  1.00  0.00     0.029 C 
HETATM    4  C6  UNL     1      -0.014  -1.254   0.803  1.00  0.00     0.014 C 
BRANCH   3   5
HETATM    5  C4  UNL     1      -1.584   0.237  -0.319  1.00  0.00     0.174 C 
BRANCH   5   6
HETATM    6  O1  UNL     1      -2.586  -0.523   0.229  1.00  0.00    -0.387 OA
BRANCH   6   7
HETATM    7  C3  UNL     1      -3.750   0.159   0.494  1.00  0.00     0.194 C 
BRANCH   7   8
HETATM    8  C2  UNL     1      -4.384   0.771  -0.666  1.00  0.00    -0.011 C 
HETATM    9  C1  UNL     1      -5.610   0.424  -1.013  1.00  0.00     0.009 C 
ENDBRANCH   7   8
ENDBRANCH   6   7
ENDBRANCH   5   6
ENDBRANCH   3   5
ENDBRANCH   2   3
ENDBRANCH   1   2
BRANCH   1  10
HETATM   10  C8  UNL     1       2.751  -1.095  -0.741  1.00  0.00     0.243 C 
BRANCH  10  11
HETATM   11  C9  UNL     1       3.416  -0.037   0.114  1.00  0.00     0.105 A 
HETATM   12  N1  UNL     1       3.316   1.292   0.043  1.00  0.00    -0.353 N 
HETATM   13  C10 UNL     1       4.074   1.866   0.994  1.00  0.00     0.106 A 
ATOM     14  H1  UNL     1       2.747   1.799  -0.635  1.00  0.00     0.166 HD
HETATM   15  C11 UNL     1       4.673   0.829   1.686  1.00  0.00     0.106 A 
HETATM   16  N2  UNL     1       4.259  -0.299   1.136  1.00  0.00    -0.353 N 
ATOM     17  H2  UNL     1       4.536  -1.233   1.439  1.00  0.00     0.166 HD
ENDBRANCH  10  11
ENDBRANCH   1  10
TORSDOF 8
