REMARK  10 active torsions:
REMARK  status: ('A' for Active; 'I' for Inactive)
REMARK    1  A    between atoms: C2_2  and  O1_3 
REMARK    2  A    between atoms: O1_3  and  C3_4 
REMARK    3  A    between atoms: C3_4  and  C4_5 
REMARK    4  A    between atoms: C4_5  and  C5_6 
REMARK    5  A    between atoms: C5_6  and  O2_7 
REMARK    6  A    between atoms: O2_7  and  C6_8 
REMARK    7  A    between atoms: C6_8  and  C7_9 
REMARK    8  A    between atoms: C7_9  and  C10_12 
REMARK    9  A    between atoms: C10_12  and  N1_13 
REMARK   10  A    between atoms: N1_13  and  C11_16 
ROOT
HETATM    1  C7  UNL     1      -1.235  -1.699   0.230  1.00  0.00    -0.002 C 
HETATM    2  C8  UNL     1      -1.003  -2.021   1.674  1.00  0.00     0.019 C 
HETATM    3  C9  UNL     1      -2.301  -2.560  -0.333  1.00  0.00     0.019 C 
ENDROOT
BRANCH   1   4
HETATM    4  C6  UNL     1       0.050  -1.861  -0.591  1.00  0.00     0.177 C 
BRANCH   4   5
HETATM    5  O2  UNL     1       0.995  -0.988  -0.108  1.00  0.00    -0.390 OA
BRANCH   5   6
HETATM    6  C5  UNL     1       2.190  -1.098  -0.793  1.00  0.00     0.169 C 
BRANCH   6   7
HETATM    7  C4  UNL     1       3.180  -0.033  -0.284  1.00  0.00     0.053 C 
BRANCH   7   8
HETATM    8  C3  UNL     1       4.478  -0.198  -1.048  1.00  0.00     0.176 C 
BRANCH   8   9
HETATM    9  O1  UNL     1       5.443   0.714  -0.755  1.00  0.00    -0.364 OA
BRANCH   9  10
HETATM   10  C2  UNL     1       6.172   1.148   0.258  1.00  0.00     0.124 C 
HETATM   11  C1  UNL     1       5.699   2.077   1.087  1.00  0.00     0.037 C 
ENDBRANCH   9  10
ENDBRANCH   8   9
ENDBRANCH   7   8
ENDBRANCH   6   7
ENDBRANCH   5   6
ENDBRANCH   4   5
ENDBRANCH   1   4
BRANCH   1  12
HETATM   12  C10 UNL     1      -1.670  -0.233   0.068  1.00  0.00     0.243 C 
BRANCH  12  13
HETATM   13  N1  UNL     1      -2.867   0.004   0.828  1.00  0.00    -0.070 N 
ATOM     14  H12 UNL     1      -3.657  -0.564   0.524  1.00  0.00     0.277 HD
ATOM     15  H11 UNL     1      -2.815  -0.351   1.783  1.00  0.00     0.277 HD
BRANCH  13  16
HETATM   16  C11 UNL     1      -3.124   1.423   0.759  1.00  0.00     0.186 C 
HETATM   17  C12 UNL     1      -4.564   1.874   0.726  1.00  0.00     0.033 C 
HETATM   18  C13 UNL     1      -4.067   2.961  -0.245  1.00  0.00     0.004 C 
HETATM   19  C14 UNL     1      -3.034   1.917  -0.697  1.00  0.00     0.033 C 
ENDBRANCH  13  16
ENDBRANCH  12  13
ENDBRANCH   1  12
TORSDOF 10
