REMARK  3 active torsions:
REMARK  status: ('A' for Active; 'I' for Inactive)
REMARK    1  A    between atoms: N1_3  and  C3_4 
REMARK    2  A    between atoms: N3_14  and  C10_15 
REMARK    3  A    between atoms: C10_15  and  C11_16 
ROOT
HETATM    1  C3  UNL     1      -0.477  -0.021  -0.791  1.00  0.00     0.320 C 
HETATM    2  C4  UNL     1      -0.774   1.463  -0.802  1.00  0.00     0.064 C 
HETATM    3  C5  UNL     1      -0.633   2.053   0.567  1.00  0.00     0.022 C 
HETATM    4  C6  UNL     1      -0.964   3.521   0.529  1.00  0.00     0.237 C 
HETATM    5  N2  UNL     1       0.265   4.244   0.765  1.00  0.00    -0.074 N 
ATOM      6  H21 UNL     1       0.342   4.611   1.714  1.00  0.00     0.277 HD
ATOM      7  H22 UNL     1       0.306   5.140   0.279  1.00  0.00     0.277 HD
HETATM    8  C7  UNL     1       1.343   3.350   0.409  1.00  0.00     0.239 C 
HETATM    9  C8  UNL     1       0.834   2.017   0.907  1.00  0.00     0.045 C 
HETATM   10  C9  UNL     1       1.525   0.935   0.106  1.00  0.00     0.281 C 
HETATM   11  N3  UNL     1       0.715  -0.271  -0.015  1.00  0.00     0.112 N 
ENDROOT
BRANCH   1  12
HETATM   12  N1  UNL     1      -1.643  -0.659  -0.237  1.00  0.00    -0.380 N 
HETATM   13  C2  UNL     1      -1.442  -1.715   0.677  1.00  0.00     0.145 C 
HETATM   14  C1  UNL     1      -2.624  -2.687   0.539  1.00  0.00     0.187 C 
HETATM   15  O1  UNL     1      -3.837  -2.038   0.612  1.00  0.00    -0.388 OA
HETATM   16  C15 UNL     1      -3.993  -1.049  -0.355  1.00  0.00     0.187 C 
HETATM   17  C14 UNL     1      -2.702  -0.882  -1.160  1.00  0.00     0.145 C 
ENDBRANCH   1  12
BRANCH  11  18
HETATM   18  C10 UNL     1       1.576  -1.264  -0.646  1.00  0.00     0.279 C 
BRANCH  18  19
HETATM   19  C11 UNL     1       2.562  -1.858   0.343  1.00  0.00     0.014 A 
HETATM   20  C12 UNL     1       3.345  -3.031  -0.219  1.00  0.00     0.007 A 
HETATM   21  C13 UNL     1       4.037  -1.773   0.093  1.00  0.00     0.007 A 
ENDBRANCH  18  19
ENDBRANCH  11  18
TORSDOF 3
