REMARK  1 active torsions:
REMARK  status: ('A' for Active; 'I' for Inactive)
REMARK    1  A    between atoms: C1_2  and  C2_4 
ROOT
HETATM    1  C2  UNL     1      -0.561   0.682  -0.491  1.00  0.00     0.044 C 
HETATM    2  C3  UNL     1      -0.185   0.866   0.950  1.00  0.00     0.011 C 
HETATM    3  C4  UNL     1       1.102   0.224   1.336  1.00  0.00     0.001 C 
HETATM    4  C5  UNL     1       2.067   0.065   0.186  1.00  0.00     0.000 C 
HETATM    5  C6  UNL     1       1.435  -0.807  -0.843  1.00  0.00     0.001 C 
HETATM    6  C7  UNL     1       0.009  -0.547  -1.119  1.00  0.00     0.011 C 
ENDROOT
BRANCH   1   7
HETATM    7  C1  UNL     1      -2.060   0.517  -0.518  1.00  0.00     0.094 C 
HETATM    8  N1  UNL     1      -2.582  -0.590   0.218  1.00  0.00    -0.094 NA
HETATM    9  S1  UNL     1      -3.023   1.542  -1.339  1.00  0.00    -0.068 SA
ENDBRANCH   1   7
TORSDOF 1
