REMARK  5 active torsions:
REMARK  status: ('A' for Active; 'I' for Inactive)
REMARK    1  A    between atoms: O1_2  and  C2_3 
REMARK    2  A    between atoms: C2_3  and  C3_5 
REMARK    3  A    between atoms: C4_8  and  O3_9 
REMARK    4  A    between atoms: N2_14  and  O5_15 
REMARK    5  A    between atoms: C10_24  and  O6_25 
ROOT
HETATM    1  C3  UNL     1       0.849   1.076   0.555  1.00  0.00     0.146 A 
HETATM    2  N1  UNL     1      -0.383   1.592   0.415  1.00  0.00    -0.329 N 
ATOM      3  H1  UNL     1      -0.546   2.567   0.665  1.00  0.00     0.168 HD
HETATM    4  C4  UNL     1      -1.416   0.845  -0.052  1.00  0.00     0.161 A 
HETATM    5  C6  UNL     1      -1.260  -0.473  -0.406  1.00  0.00     0.116 A 
HETATM    6  C7  UNL     1      -2.334  -1.199  -0.876  1.00  0.00     0.305 A 
HETATM    7  O4  UNL     1      -3.491  -0.676  -0.997  1.00  0.00    -0.264 OA
HETATM    8  N2  UNL     1      -2.118  -2.492  -1.208  1.00  0.00    -0.013 N 
HETATM    9  C8  UNL     1      -0.878  -3.031  -1.073  1.00  0.00     0.706 A 
HETATM   10  N3  UNL     1      -0.694  -4.277  -1.399  1.00  0.00    -0.232 N 
ATOM     11  H31 UNL     1       0.237  -4.682  -1.298  1.00  0.00     0.174 HD
ATOM     12  H32 UNL     1      -1.482  -4.822  -1.748  1.00  0.00     0.174 HD
HETATM   13  N4  UNL     1       0.161  -2.312  -0.613  1.00  0.00    -0.186 N 
ATOM     14  H4  UNL     1       1.078  -2.749  -0.525  1.00  0.00     0.184 HD
HETATM   15  C9  UNL     1       0.003  -1.023  -0.268  1.00  0.00     0.105 A 
HETATM   16  C10 UNL     1       1.038  -0.244   0.209  1.00  0.00     0.127 A 
ENDROOT
BRANCH   1  17
HETATM   17  C2  UNL     1       1.967   1.893   1.064  1.00  0.00     0.312 C 
HETATM   18  O2  UNL     1       1.806   3.097   1.382  1.00  0.00    -0.258 OA
BRANCH  17  19
HETATM   19  O1  UNL     1       3.227   1.359   1.205  1.00  0.00    -0.321 OA
HETATM   20  C1  UNL     1       4.328   2.080   1.681  1.00  0.00     0.213 C 
ENDBRANCH  17  19
ENDBRANCH   1  17
BRANCH  16  21
HETATM   21  O6  UNL     1       2.312  -0.755   0.361  1.00  0.00    -0.356 OA
ATOM     22  H6  UNL     1       2.442  -1.665   0.122  1.00  0.00     0.218 HD
ENDBRANCH  16  21
BRANCH   4  23
HETATM   23  O3  UNL     1      -2.696   1.374  -0.200  1.00  0.00    -0.340 OA
HETATM   24  C5  UNL     1      -2.893   2.735   0.156  1.00  0.00     0.211 C 
ENDBRANCH   4  23
BRANCH   8  25
HETATM   25  O5  UNL     1      -3.175  -3.227  -1.678  1.00  0.00    -0.266 OA
ATOM     26  H5  UNL     1      -3.023  -4.135  -1.911  1.00  0.00     0.246 HD
ENDBRANCH   8  25
TORSDOF 5
