REMARK  9 active torsions:
REMARK  status: ('A' for Active; 'I' for Inactive)
REMARK    1  A    between atoms: N1_3  and  N2_5 
REMARK       I    between atoms: N2_5  and  C3_7 
REMARK    2  A    between atoms: C3_7  and  C4_9 
REMARK    3  A    between atoms: C6_12  and  N3_13 
REMARK    4  A    between atoms: C8_16  and  C9_17 
REMARK    5  A    between atoms: C9_17  and  O3_19 
REMARK    6  A    between atoms: C11_21  and  C12_22 
REMARK    7  A    between atoms: C12_22  and  O4_23 
REMARK    8  A    between atoms: C12_22  and  C13_25 
REMARK    9  A    between atoms: S2_29  and  N4_30 
ROOT
HETATM    1  N3  UNL     1       0.120  -0.980   0.488  1.00  0.00    -0.330 N 
ATOM      2  H3  UNL     1      -0.143  -1.951   0.321  1.00  0.00     0.168 HD
HETATM    3  C7  UNL     1      -0.757  -0.023   0.348  1.00  0.00     0.097 A 
HETATM    4  C8  UNL     1      -2.187  -0.096  -0.043  1.00  0.00     0.083 A 
HETATM    5  C11 UNL     1      -2.816   1.043  -0.097  1.00  0.00     0.001 A 
HETATM    6  C16 UNL     1      -1.992   2.234   0.243  1.00  0.00     0.133 A 
HETATM    7  S2  UNL     1      -0.505   1.723   0.590  1.00  0.00    -0.077 SA
ENDROOT
BRANCH   1   8
HETATM    8  C6  UNL     1       1.457  -0.646   0.879  1.00  0.00     0.150 A 
HETATM    9  S1  UNL     1       2.235  -0.546   2.391  1.00  0.00    -0.063 SA
HETATM   10  C5  UNL     1       3.791  -0.084   1.850  1.00  0.00     0.088 A 
HETATM   11  C4  UNL     1       3.603  -0.035   0.487  1.00  0.00     0.111 A 
HETATM   12  N5  UNL     1       2.422  -0.323   0.042  1.00  0.00    -0.332 N 
ATOM     13  H5  UNL     1       2.238  -0.300  -0.961  1.00  0.00     0.168 HD
BRANCH  11  14
HETATM   14  C3  UNL     1       4.733   0.337  -0.400  1.00  0.00     0.287 C 
HETATM   15  N2  UNL     1       6.013   0.648   0.093  1.00  0.00    -0.265 N 
ATOM     16  H2  UNL     1       6.203   0.625   1.095  1.00  0.00     0.190 HD
HETATM   17  O1  UNL     1       4.508   0.366  -1.632  1.00  0.00    -0.264 OA
BRANCH  15  18
HETATM   18  N1  UNL     1       7.015   0.987  -0.810  1.00  0.00    -0.313 N 
HETATM   19  C2  UNL     1       8.043   0.291  -1.053  1.00  0.00     0.076 C 
HETATM   20  C1  UNL     1       8.240  -0.995  -0.344  1.00  0.00     0.056 C 
ATOM     21  H1  UNL     1       6.913   1.866  -1.316  1.00  0.00     0.185 HD
ENDBRANCH  15  18
ENDBRANCH  11  14
ENDBRANCH   1   8
BRANCH   4  22
HETATM   22  C9  UNL     1      -2.677  -1.467  -0.355  1.00  0.00     0.296 C 
HETATM   23  O2  UNL     1      -3.776  -1.847  -0.716  1.00  0.00    -0.259 OA
BRANCH  22  24
HETATM   24  O3  UNL     1      -1.773  -2.565  -0.235  1.00  0.00    -0.322 OA
HETATM   25  C10 UNL     1      -2.203  -3.882  -0.522  1.00  0.00     0.213 C 
ENDBRANCH  22  24
ENDBRANCH   4  22
BRANCH   7  26
HETATM   26  N4  UNL     1       0.912   2.523   1.307  1.00  0.00    -0.378 N 
ATOM     27  H42 UNL     1       1.854   2.199   1.527  1.00  0.00     0.163 HD
ATOM     28  H41 UNL     1       1.056   3.523   1.446  1.00  0.00     0.163 HD
ENDBRANCH   7  26
BRANCH   5  29
HETATM   29  C12 UNL     1      -4.222   1.329  -0.437  1.00  0.00     0.055 C 
BRANCH  29  30
HETATM   30  O4  UNL     1      -4.487   2.644  -0.415  1.00  0.00    -0.364 OA
ATOM     31  H4  UNL     1      -5.393   2.828  -0.634  1.00  0.00     0.217 HD
ENDBRANCH  29  30
BRANCH  29  32
HETATM   32  C13 UNL     1      -5.392   0.578  -0.775  1.00  0.00     0.035 C 
HETATM   33  C14 UNL     1      -6.447   1.628  -1.311  1.00  0.00     0.016 C 
HETATM   34  C15 UNL     1      -6.157   0.086   0.490  1.00  0.00     0.016 C 
ENDBRANCH  29  32
ENDBRANCH   5  29
TORSDOF 9
