REMARK  8 active torsions:
REMARK  status: ('A' for Active; 'I' for Inactive)
REMARK    1  A    between atoms: O1_2  and  C2_3 
REMARK    2  A    between atoms: C4_5  and  C5_6 
REMARK    3  A    between atoms: C6_7  and  N1_8 
REMARK    4  A    between atoms: N1_8  and  N2_10 
REMARK    5  A    between atoms: N2_10  and  C7_11 
REMARK    6  A    between atoms: C8_15  and  N4_16 
REMARK    7  A    between atoms: C14_29  and  O3_30 
REMARK    8  A    between atoms: C16_33  and  O4_34 
ROOT
HETATM    1  O3  UNL     1      -4.000   2.361  -1.340  1.00  0.00    -0.238 OA
HETATM    2  C15 UNL     1      -3.851   3.711  -1.264  1.00  0.00     0.234 C 
HETATM    3  N6  UNL     1      -3.723   4.840  -1.220  1.00  0.00    -0.164 NA
ENDROOT
BRANCH   1   4
HETATM    4  C14 UNL     1      -3.276   1.438  -0.620  1.00  0.00     0.126 A 
HETATM    5  C13 UNL     1      -2.286   1.839   0.284  1.00  0.00     0.053 A 
HETATM    6  C4  UNL     1      -1.567   0.910   0.999  1.00  0.00    -0.022 A 
HETATM    7  C3  UNL     1      -1.834  -0.422   0.813  1.00  0.00     0.052 A 
HETATM    8  C2  UNL     1      -2.811  -0.861  -0.078  1.00  0.00     0.105 A 
HETATM    9  C16 UNL     1      -3.511   0.089  -0.776  1.00  0.00     0.136 A 
BRANCH   6  10
HETATM   10  C5  UNL     1      -0.524   1.346   1.904  1.00  0.00    -0.013 C 
HETATM   11  C6  UNL     1       0.702   0.799   1.835  1.00  0.00     0.046 C 
HETATM   12  C10 UNL     1       1.744   1.255   2.785  1.00  0.00     0.070 C 
HETATM   13  C11 UNL     1       2.074   2.722   2.646  1.00  0.00     0.080 C 
HETATM   14  S1  UNL     1       0.509   3.644   2.857  1.00  0.00    -0.164 SA
HETATM   15  C12 UNL     1      -0.818   2.396   2.897  1.00  0.00     0.115 C 
BRANCH  11  16
HETATM   16  N1  UNL     1       0.926  -0.188   0.864  1.00  0.00    -0.242 N 
ATOM     17  H1  UNL     1       0.059  -0.655   0.597  1.00  0.00     0.201 HD
BRANCH  16  18
HETATM   18  N2  UNL     1       1.822  -0.607   0.293  1.00  0.00    -0.326 NA
BRANCH  18  19
HETATM   19  C7  UNL     1       2.850  -1.117  -0.388  1.00  0.00     0.480 C 
HETATM   20  N3  UNL     1       2.565  -1.455  -1.809  1.00  0.00     0.014 N 
HETATM   21  C8  UNL     1       3.895  -1.799  -2.268  1.00  0.00     0.489 C 
ATOM     22  H32 UNL     1       1.848  -2.165  -1.959  1.00  0.00     0.286 HD
ATOM     23  H31 UNL     1       2.084  -0.734  -2.347  1.00  0.00     0.286 HD
HETATM   24  N5  UNL     1       4.675  -0.671  -1.769  1.00  0.00    -0.307 N 
HETATM   25  C9  UNL     1       4.005  -0.160  -0.640  1.00  0.00     0.286 C 
ATOM     26  H5  UNL     1       5.546  -0.317  -2.165  1.00  0.00     0.166 HD
HETATM   27  O2  UNL     1       4.259   0.852   0.043  1.00  0.00    -0.268 OA
BRANCH  21  28
HETATM   28  N4  UNL     1       4.325  -3.017  -1.614  1.00  0.00    -0.032 N 
ATOM     29  H43 UNL     1       4.272  -2.950  -0.598  1.00  0.00     0.278 HD
ATOM     30  H42 UNL     1       3.661  -3.781  -1.743  1.00  0.00     0.278 HD
ATOM     31  H41 UNL     1       5.262  -3.259  -1.937  1.00  0.00     0.278 HD
ENDBRANCH  21  28
ENDBRANCH  18  19
ENDBRANCH  16  18
ENDBRANCH  11  16
ENDBRANCH   6  10
BRANCH   8  32
HETATM   32  O1  UNL     1      -3.085  -2.185  -0.274  1.00  0.00    -0.353 OA
HETATM   33  C1  UNL     1      -2.441  -3.248   0.370  1.00  0.00     0.210 C 
ENDBRANCH   8  32
BRANCH   9  34
HETATM   34  O4  UNL     1      -4.509  -0.278  -1.690  1.00  0.00    -0.351 OA
HETATM   35  C17 UNL     1      -4.213  -0.519  -3.055  1.00  0.00     0.210 C 
ENDBRANCH   9  34
ENDBRANCH   1   4
TORSDOF 8
