REMARK  2 active torsions:
REMARK  status: ('A' for Active; 'I' for Inactive)
REMARK    1  A    between atoms: C3_5  and  N3_8 
REMARK    2  A    between atoms: N3_8  and  C5_10 
ROOT
HETATM    1  C1  UNL     1       3.793   1.367   0.256  1.00  0.00     0.088 C 
HETATM    2  C2  UNL     1       2.522   0.564   0.238  1.00  0.00     0.071 C 
HETATM    3  N1  UNL     1       1.785   0.303  -0.770  1.00  0.00    -0.341 N 
ATOM      4  H1  UNL     1       1.962   0.609  -1.727  1.00  0.00     0.164 HD
HETATM    5  C3  UNL     1       0.658  -0.496  -0.342  1.00  0.00     0.209 C 
HETATM    6  C4  UNL     1       0.380  -1.551  -1.319  1.00  0.00     0.115 C 
HETATM    7  N2  UNL     1       0.196  -2.381  -2.107  1.00  0.00    -0.193 NA
HETATM    8  C9  UNL     1       1.209  -1.150   0.935  1.00  0.00     0.190 C 
HETATM    9  N4  UNL     1       2.003  -0.028   1.423  1.00  0.00    -0.375 N 
ATOM     10  H4  UNL     1       2.152   0.264   2.389  1.00  0.00     0.160 HD
ENDROOT
BRANCH   5  11
HETATM   11  N3  UNL     1      -0.403   0.373  -0.075  1.00  0.00    -0.380 N 
ATOM     12  H3  UNL     1      -0.303   1.348  -0.356  1.00  0.00     0.157 HD
BRANCH  11  13
HETATM   13  C5  UNL     1      -1.588  -0.006   0.550  1.00  0.00     0.080 C 
HETATM   14  C6  UNL     1      -2.538  -0.997  -0.049  1.00  0.00     0.025 C 
HETATM   15  C7  UNL     1      -2.957   0.123  -1.016  1.00  0.00     0.004 C 
HETATM   16  C8  UNL     1      -2.682   1.040   0.189  1.00  0.00     0.025 C 
ENDBRANCH  11  13
ENDBRANCH   5  11
TORSDOF 2
