REMARK  6 active torsions:
REMARK  status: ('A' for Active; 'I' for Inactive)
REMARK    1  A    between atoms: C3_3  and  C4_4 
REMARK    2  A    between atoms: C4_4  and  C5_5 
REMARK       I    between atoms: N2_15  and  C13_17 
REMARK    3  A    between atoms: C13_17  and  C14_19 
REMARK    4  A    between atoms: C14_19  and  C15_20 
REMARK    5  A    between atoms: C14_19  and  N3_24 
REMARK    6  A    between atoms: C15_20  and  C16_21 
REMARK       I    between atoms: N3_24  and  C19_26 
ROOT
HETATM    1  C1  UNL     1      -1.852   5.420  -0.759  1.00  0.00     0.012 C 
HETATM    2  C2  UNL     1      -2.189   4.277  -0.559  1.00  0.00    -0.117 C 
HETATM    3  C3  UNL     1      -2.608   2.889  -0.286  1.00  0.00     0.096 C 
ENDROOT
BRANCH   3   4
HETATM    4  C4  UNL     1      -1.445   1.931  -0.467  1.00  0.00     0.048 C 
BRANCH   4   5
HETATM    5  C5  UNL     1      -1.948   0.529  -0.178  1.00  0.00     0.062 C 
HETATM    6  C6  UNL     1      -2.451   0.508   1.239  1.00  0.00     0.044 C 
HETATM    7  N1  UNL     1      -2.940   0.225  -1.148  1.00  0.00    -0.400 N 
HETATM    8  C7  UNL     1      -3.257  -1.147  -1.343  1.00  0.00     0.019 C 
ATOM      9  H1  UNL     1      -3.405   0.959  -1.682  1.00  0.00     0.155 HD
HETATM   10  C8  UNL     1      -4.273  -1.562  -0.272  1.00  0.00     0.037 C 
HETATM   11  C9  UNL     1      -4.008  -1.232  -2.678  1.00  0.00     0.037 C 
HETATM   12  C10 UNL     1      -2.108  -2.092  -1.411  1.00  0.00     0.035 C 
HETATM   13  C11 UNL     1      -0.796  -1.349  -1.409  1.00  0.00     0.057 C 
HETATM   14  C12 UNL     1      -0.791  -0.442  -0.235  1.00  0.00     0.017 C 
HETATM   15  N2  UNL     1       0.076  -0.401   0.683  1.00  0.00    -0.330 N 
HETATM   16  C13 UNL     1       1.225  -1.162   0.885  1.00  0.00     0.244 C 
ATOM     17  H2  UNL     1      -0.094   0.308   1.396  1.00  0.00     0.168 HD
HETATM   18  O1  UNL     1       1.200  -2.419   0.632  1.00  0.00    -0.271 OA
BRANCH  16  19
HETATM   19  C14 UNL     1       2.493  -0.615   1.384  1.00  0.00     0.177 C 
BRANCH  19  20
HETATM   20  C15 UNL     1       3.413  -0.259   0.242  1.00  0.00     0.038 C 
BRANCH  20  21
HETATM   21  C16 UNL     1       2.875   0.767  -0.712  1.00  0.00    -0.020 C 
HETATM   22  C17 UNL     1       3.939   1.017  -1.795  1.00  0.00     0.009 C 
HETATM   23  C18 UNL     1       2.667   2.096  -0.039  1.00  0.00     0.009 C 
ENDBRANCH  20  21
ENDBRANCH  19  20
BRANCH  19  24
HETATM   24  N3  UNL     1       3.207  -1.719   2.082  1.00  0.00    -0.348 N 
HETATM   25  C19 UNL     1       3.552  -1.613   3.439  1.00  0.00     0.214 C 
HETATM   26  C20 UNL     1       4.261  -2.722   4.118  1.00  0.00     0.117 C 
HETATM   27  O2  UNL     1       3.236  -0.538   4.062  1.00  0.00    -0.274 OA
ATOM     28  H3  UNL     1       3.449  -2.565   1.567  1.00  0.00     0.163 HD
ENDBRANCH  19  24
ENDBRANCH  16  19
ENDBRANCH   4   5
ENDBRANCH   3   4
TORSDOF 6
