REMARK  7 active torsions:
REMARK  status: ('A' for Active; 'I' for Inactive)
REMARK    1  A    between atoms: S1_2  and  C1_4 
REMARK    2  A    between atoms: S1_2  and  N1_11 
REMARK    3  A    between atoms: C1_4  and  C2_5 
REMARK    4  A    between atoms: N1_11  and  C8_13 
REMARK    5  A    between atoms: C8_13  and  C9_14 
REMARK    6  A    between atoms: C15_20  and  C16_21 
REMARK    7  A    between atoms: C16_21  and  O3_22 
ROOT
HETATM    1  C9  UNL     1      -1.879  -0.642  -0.071  1.00  0.00    -0.022 C 
HETATM    2  C10 UNL     1      -2.643  -1.558   0.833  1.00  0.00     0.015 C 
HETATM    3  C11 UNL     1      -4.116  -1.337   0.605  1.00  0.00    -0.013 C 
HETATM    4  C12 UNL     1      -4.485  -1.626  -0.816  1.00  0.00     0.009 C 
HETATM    5  C13 UNL     1      -3.751  -0.659  -1.709  1.00  0.00    -0.013 C 
HETATM    6  C14 UNL     1      -4.104   0.773  -1.369  1.00  0.00     0.016 C 
HETATM    7  C15 UNL     1      -3.718   1.010   0.060  1.00  0.00    -0.018 C 
HETATM    8  C17 UNL     1      -4.525   0.071   0.926  1.00  0.00     0.016 C 
HETATM    9  C18 UNL     1      -2.240   0.786   0.291  1.00  0.00     0.023 C 
HETATM   10  C19 UNL     1      -2.269  -0.830  -1.528  1.00  0.00     0.015 C 
ENDROOT
BRANCH   1  11
HETATM   11  C8  UNL     1      -0.386  -0.809   0.032  1.00  0.00     0.141 C 
BRANCH  11  12
HETATM   12  N1  UNL     1       0.047  -0.536   1.389  1.00  0.00    -0.319 N 
ATOM     13  H1  UNL     1      -0.579  -0.272   2.149  1.00  0.00     0.172 HD
BRANCH  12  14
HETATM   14  S1  UNL     1       1.757  -0.715   1.555  1.00  0.00     0.226 S 
HETATM   15  O1  UNL     1       2.100  -0.611   2.984  1.00  0.00    -0.206 OA
HETATM   16  O2  UNL     1       2.079  -2.136   1.112  1.00  0.00    -0.206 OA
BRANCH  14  17
HETATM   17  C1  UNL     1       2.571   0.429   0.514  1.00  0.00     0.167 C 
BRANCH  17  18
HETATM   18  C2  UNL     1       4.055   0.388   0.554  1.00  0.00     0.001 C 
HETATM   19  C3  UNL     1       4.678  -0.905   0.165  1.00  0.00     0.005 C 
HETATM   20  C4  UNL     1       6.182  -0.711   0.088  1.00  0.00     0.000 C 
HETATM   21  C5  UNL     1       6.586   0.252  -0.980  1.00  0.00     0.000 C 
HETATM   22  C6  UNL     1       5.313   0.871  -1.543  1.00  0.00     0.000 C 
HETATM   23  C7  UNL     1       4.583   1.484  -0.350  1.00  0.00     0.005 C 
ENDBRANCH  17  18
ENDBRANCH  14  17
ENDBRANCH  12  14
ENDBRANCH  11  12
ENDBRANCH   1  11
BRANCH   7  24
HETATM   24  C16 UNL     1      -4.032   2.420   0.516  1.00  0.00     0.173 C 
BRANCH  24  25
HETATM   25  O3  UNL     1      -3.628   2.511   1.854  1.00  0.00    -0.400 OA
ATOM     26  H3  UNL     1      -3.825   3.395   2.140  1.00  0.00     0.209 HD
ENDBRANCH  24  25
ENDBRANCH   7  24
TORSDOF 7
