REMARK  14 active torsions:
REMARK  status: ('A' for Active; 'I' for Inactive)
REMARK    1  A    between atoms: C5_10  and  C6_11 
REMARK    2  A    between atoms: C6_11  and  C7_12 
REMARK    3  A    between atoms: C7_12  and  C8_13 
REMARK    4  A    between atoms: C8_13  and  C9_14 
REMARK    5  A    between atoms: C9_14  and  C10_15 
REMARK    6  A    between atoms: C10_15  and  C11_16 
REMARK    7  A    between atoms: C11_16  and  N3_17 
REMARK    8  A    between atoms: N3_17  and  C14_20 
REMARK    9  A    between atoms: C14_20  and  C15_21 
REMARK   10  A    between atoms: C15_21  and  C16_22 
REMARK   11  A    between atoms: C16_22  and  C17_23 
REMARK   12  A    between atoms: C17_23  and  C18_24 
REMARK   13  A    between atoms: C18_24  and  N4_25 
REMARK   14  A    between atoms: C26_36  and  O2_37 
ROOT
HETATM    1  C1  UNL     1       9.977  -0.179  -0.209  1.00  0.00     0.155 C 
HETATM    2  N1  UNL     1       8.651   0.416  -0.228  1.00  0.00    -0.323 N 
HETATM    3  C2  UNL     1       7.960   0.462  -1.457  1.00  0.00     0.259 C 
HETATM    4  O1  UNL     1       8.690   0.463  -2.471  1.00  0.00    -0.270 OA
HETATM    5  C3  UNL     1       6.507   0.509  -1.756  1.00  0.00     0.272 C 
HETATM    6 CL1  UNL     1       5.918   2.144  -2.053  1.00  0.00    -0.092 Cl
HETATM    7  N2  UNL     1       5.735  -0.117  -0.689  1.00  0.00    -0.364 N 
ATOM      8  H2  UNL     1       5.009  -0.753  -1.019  1.00  0.00     0.161 HD
HETATM    9  C4  UNL     1       5.807  -0.006   0.711  1.00  0.00     0.050 A 
HETATM   10  C5  UNL     1       4.608  -0.416   1.304  1.00  0.00    -0.007 A 
HETATM   11  C22 UNL     1       4.589  -0.342   2.703  1.00  0.00     0.066 A 
HETATM   12 CL2  UNL     1       3.113  -0.844   3.500  1.00  0.00    -0.082 Cl
HETATM   13  C23 UNL     1       5.635   0.089   3.451  1.00  0.00     0.078 A 
HETATM   14 CL3  UNL     1       5.482   0.134   5.194  1.00  0.00    -0.081 Cl
HETATM   15  C24 UNL     1       6.789   0.483   2.855  1.00  0.00     0.070 A 
HETATM   16 CL4  UNL     1       8.177   1.051   3.765  1.00  0.00    -0.082 Cl
HETATM   17  C25 UNL     1       6.869   0.432   1.464  1.00  0.00     0.041 A 
HETATM   18  C26 UNL     1       8.182   0.901   1.025  1.00  0.00     0.260 C 
ENDROOT
BRANCH  10  19
HETATM   19  C6  UNL     1       3.470  -0.882   0.507  1.00  0.00     0.043 C 
BRANCH  19  20
HETATM   20  C7  UNL     1       2.704   0.202  -0.176  1.00  0.00     0.005 C 
BRANCH  20  21
HETATM   21  C8  UNL     1       1.572  -0.407  -0.966  1.00  0.00     0.000 C 
BRANCH  21  22
HETATM   22  C9  UNL     1       0.604  -1.182  -0.095  1.00  0.00     0.002 C 
BRANCH  22  23
HETATM   23  C10 UNL     1      -0.509  -1.760  -0.896  1.00  0.00     0.028 C 
BRANCH  23  24
HETATM   24  C11 UNL     1      -1.393  -0.835  -1.627  1.00  0.00     0.236 C 
BRANCH  24  25
HETATM   25  N3  UNL     1      -2.163   0.111  -0.943  1.00  0.00    -0.075 N 
HETATM   26  C12 UNL     1      -1.840   1.476  -1.341  1.00  0.00     0.272 C 
HETATM   27  C13 UNL     1      -2.213   0.067   0.485  1.00  0.00     0.272 C 
BRANCH  25  28
HETATM   28  C14 UNL     1      -3.565  -0.071  -1.383  1.00  0.00     0.236 C 
BRANCH  28  29
HETATM   29  C15 UNL     1      -4.109  -1.380  -0.861  1.00  0.00     0.028 C 
BRANCH  29  30
HETATM   30  C16 UNL     1      -5.541  -1.590  -1.301  1.00  0.00     0.003 C 
BRANCH  30  31
HETATM   31  C17 UNL     1      -6.487  -0.535  -0.838  1.00  0.00     0.028 C 
BRANCH  31  32
HETATM   32  C18 UNL     1      -6.552  -0.433   0.663  1.00  0.00     0.236 C 
BRANCH  32  33
HETATM   33  N4  UNL     1      -7.479   0.597   1.094  1.00  0.00    -0.079 N 
HETATM   34  C19 UNL     1      -8.755   0.517   0.455  1.00  0.00     0.271 C 
HETATM   35  C20 UNL     1      -6.814   1.875   0.837  1.00  0.00     0.271 C 
HETATM   36  C21 UNL     1      -7.650   0.461   2.517  1.00  0.00     0.271 C 
ENDBRANCH  32  33
ENDBRANCH  31  32
ENDBRANCH  30  31
ENDBRANCH  29  30
ENDBRANCH  28  29
ENDBRANCH  25  28
ENDBRANCH  24  25
ENDBRANCH  23  24
ENDBRANCH  22  23
ENDBRANCH  21  22
ENDBRANCH  20  21
ENDBRANCH  19  20
ENDBRANCH  10  19
BRANCH  18  37
HETATM   37  O2  UNL     1       8.258   2.314   1.021  1.00  0.00    -0.372 OA
ATOM     38  H2  UNL     1       7.945   2.638   1.857  1.00  0.00     0.212 HD
ENDBRANCH  18  37
TORSDOF 14
