REMARK  4 active torsions:
REMARK  status: ('A' for Active; 'I' for Inactive)
REMARK    1  A    between atoms: N1_6  and  C5_7 
REMARK    2  A    between atoms: C5_7  and  C6_8 
REMARK    3  A    between atoms: C6_8  and  O3_10 
REMARK    4  A    between atoms: O3_10  and  C7_11 
ROOT
HETATM    1  C5  UNL     1      -0.917  -0.871   0.990  1.00  0.00     0.231 C 
ENDROOT
BRANCH   1   2
HETATM    2  N1  UNL     1      -2.213  -0.301   0.793  1.00  0.00    -0.183 NA
HETATM    3  C4  UNL     1      -3.198  -1.287   1.213  1.00  0.00     0.147 C 
HETATM    4  C3  UNL     1      -3.895  -1.835  -0.008  1.00  0.00     0.187 C 
HETATM    5  O1  UNL     1      -4.671  -0.783  -0.535  1.00  0.00    -0.359 OA
HETATM    6  C2  UNL     1      -3.786   0.273  -0.745  1.00  0.00     0.277 C 
HETATM    7  C1  UNL     1      -3.936   0.748  -2.168  1.00  0.00     0.072 C 
HETATM    8  O4  UNL     1      -2.465  -0.075  -0.539  1.00  0.00    -0.271 OA
ENDBRANCH   1   2
BRANCH   1   9
HETATM    9  C6  UNL     1       0.183   0.047   0.595  1.00  0.00     0.274 C 
HETATM   10  O2  UNL     1      -0.140   1.177   0.150  1.00  0.00    -0.264 OA
BRANCH   9  11
HETATM   11  O3  UNL     1       1.511  -0.269   0.689  1.00  0.00    -0.315 OA
BRANCH  11  12
HETATM   12  C7  UNL     1       2.534   0.602   0.315  1.00  0.00     0.132 C 
HETATM   13  C8  UNL     1       3.564   0.813   1.421  1.00  0.00     0.032 C 
HETATM   14  C9  UNL     1       4.874   1.059   0.701  1.00  0.00     0.002 C 
HETATM   15  C10 UNL     1       4.580   0.926  -0.780  1.00  0.00     0.002 C 
HETATM   16  C11 UNL     1       3.409  -0.035  -0.761  1.00  0.00     0.032 C 
ENDBRANCH  11  12
ENDBRANCH   9  11
ENDBRANCH   1   9
TORSDOF 4
