REMARK  6 active torsions:
REMARK  status: ('A' for Active; 'I' for Inactive)
REMARK    1  A    between atoms: C2_2  and  C3_3 
REMARK    2  A    between atoms: C3_3  and  N1_4 
REMARK    3  A    between atoms: C5_6  and  C6_7 
REMARK    4  A    between atoms: C7_10  and  C8_11 
REMARK    5  A    between atoms: C8_11  and  N3_12 
REMARK    6  A    between atoms: N3_12  and  C9_15 
ROOT
HETATM    1  C6  UNL     1       2.817   0.850   0.181  1.00  0.00     0.091 A 
HETATM    2  N2  UNL     1       1.716   0.116   0.405  1.00  0.00    -0.340 N 
ATOM      3  H2  UNL     1       1.704  -0.897   0.525  1.00  0.00     0.167 HD
HETATM    4  C7  UNL     1       0.629   0.910   0.448  1.00  0.00     0.115 A 
HETATM    5  N4  UNL     1       1.055   2.171   0.247  1.00  0.00    -0.294 N 
HETATM    6  C19 UNL     1       0.420   3.371   0.186  1.00  0.00     0.101 A 
HETATM    7  C20 UNL     1       1.077   4.563  -0.036  1.00  0.00     0.035 A 
HETATM    8  C21 UNL     1       2.440   4.505  -0.200  1.00  0.00     0.091 A 
HETATM    9  N5  UNL     1       3.071   3.321  -0.140  1.00  0.00    -0.350 N 
ATOM     10  H5  UNL     1       4.083   3.296  -0.263  1.00  0.00     0.166 HD
HETATM   11  C22 UNL     1       2.411   2.162   0.078  1.00  0.00     0.141 A 
ENDROOT
BRANCH   4  12
HETATM   12  C8  UNL     1      -0.787   0.544   0.670  1.00  0.00     0.309 C 
BRANCH  12  13
HETATM   13  N3  UNL     1      -1.454   0.191  -0.544  1.00  0.00    -0.060 N 
ATOM     14  H32 UNL     1      -1.373   0.934  -1.238  1.00  0.00     0.278 HD
ATOM     15  H31 UNL     1      -0.954  -0.548  -1.038  1.00  0.00     0.278 HD
BRANCH  13  16
HETATM   16  C9  UNL     1      -2.819  -0.166  -0.327  1.00  0.00     0.127 C 
HETATM   17  C10 UNL     1      -3.669   0.933   0.224  1.00  0.00     0.043 C 
HETATM   18  C11 UNL     1      -5.085   0.449   0.384  1.00  0.00    -0.012 C 
HETATM   19  C12 UNL     1      -5.652   0.156  -0.972  1.00  0.00     0.009 C 
HETATM   20  C16 UNL     1      -5.144  -0.740   1.308  1.00  0.00     0.009 C 
HETATM   21  C13 UNL     1      -4.836  -0.954  -1.594  1.00  0.00    -0.012 C 
HETATM   22  C14 UNL     1      -4.975  -2.170  -0.698  1.00  0.00     0.009 C 
HETATM   23  C18 UNL     1      -3.388  -0.583  -1.690  1.00  0.00     0.043 C 
HETATM   24  C15 UNL     1      -4.362  -1.859   0.626  1.00  0.00    -0.012 C 
HETATM   25  C17 UNL     1      -2.936  -1.404   0.560  1.00  0.00     0.043 C 
ENDBRANCH  13  16
ENDBRANCH  12  13
ENDBRANCH   4  12
BRANCH   1  26
HETATM   26  C5  UNL     1       4.215   0.384   0.059  1.00  0.00     0.028 A 
HETATM   27  C4  UNL     1       4.852  -0.523   0.873  1.00  0.00     0.125 A 
HETATM   28  N1  UNL     1       6.107  -0.681   0.437  1.00  0.00    -0.299 N 
HETATM   29  N6  UNL     1       6.256   0.098  -0.615  1.00  0.00    -0.309 N 
HETATM   30  C23 UNL     1       5.135   0.771  -0.891  1.00  0.00     0.122 A 
ATOM     31  H6  UNL     1       7.120   0.178  -1.152  1.00  0.00     0.186 HD
BRANCH  28  32
HETATM   32  C3  UNL     1       7.148  -1.554   1.003  1.00  0.00     0.174 C 
BRANCH  32  33
HETATM   33  C2  UNL     1       7.065  -2.875   0.354  1.00  0.00    -0.015 C 
HETATM   34  C1  UNL     1       8.071  -3.379  -0.323  1.00  0.00     0.008 C 
ENDBRANCH  32  33
ENDBRANCH  28  32
ENDBRANCH   1  26
TORSDOF 6
