REMARK  8 active torsions:
REMARK  status: ('A' for Active; 'I' for Inactive)
REMARK    1  A    between atoms: C5_5  and  N2_8 
REMARK    2  A    between atoms: N2_8  and  C7_10 
REMARK    3  A    between atoms: C7_10  and  C9_12 
REMARK       I    between atoms: C9_12  and  N3_14 
REMARK    4  A    between atoms: N3_14  and  C10_16 
REMARK    5  A    between atoms: C12_18  and  C13_19 
REMARK    6  A    between atoms: C13_19  and  N4_20 
REMARK    7  A    between atoms: N5_23  and  C16_24 
REMARK    8  A    between atoms: C16_24  and  C17_25 
ROOT
HETATM    1  C1  UNL     1      -6.325   0.597   2.927  1.00  0.00     0.010 C 
HETATM    2  C2  UNL     1      -6.749  -0.463   1.946  1.00  0.00    -0.014 C 
HETATM    3  C3  UNL     1      -6.616   0.041   0.546  1.00  0.00     0.008 C 
HETATM    4  C4  UNL     1      -6.797  -1.031  -0.507  1.00  0.00     0.051 C 
HETATM    5  C5  UNL     1      -5.864  -2.201  -0.264  1.00  0.00     0.167 C 
HETATM    6  C6  UNL     1      -6.222  -3.278  -1.166  1.00  0.00     0.095 C 
HETATM    7  N1  UNL     1      -6.526  -4.146  -1.872  1.00  0.00    -0.194 NA
HETATM    8  C25 UNL     1      -6.209  -2.706   1.153  1.00  0.00     0.217 C 
HETATM    9  F1  UNL     1      -5.437  -3.816   1.380  1.00  0.00    -0.222 F 
HETATM   10 CL2  UNL     1      -7.943  -3.061   1.277  1.00  0.00    -0.079 Cl
HETATM   11  C26 UNL     1      -5.810  -1.636   2.131  1.00  0.00     0.068 C 
ENDROOT
BRANCH   5  12
HETATM   12  N2  UNL     1      -4.500  -1.831  -0.230  1.00  0.00    -0.385 N 
ATOM     13  H2  UNL     1      -3.942  -1.960   0.614  1.00  0.00     0.156 HD
BRANCH  12  14
HETATM   14  C7  UNL     1      -3.929  -1.274  -1.407  1.00  0.00     0.167 C 
HETATM   15  C8  UNL     1      -3.866  -2.201  -2.577  1.00  0.00     0.042 C 
BRANCH  14  16
HETATM   16  C9  UNL     1      -2.555  -0.788  -1.101  1.00  0.00     0.244 C 
HETATM   17  O1  UNL     1      -2.136  -0.976   0.052  1.00  0.00    -0.271 OA
HETATM   18  N3  UNL     1      -1.769  -0.143  -2.064  1.00  0.00    -0.324 N 
ATOM     19  H3  UNL     1      -2.208  -0.041  -2.979  1.00  0.00     0.169 HD
BRANCH  18  20
HETATM   20  C10 UNL     1      -0.470   0.386  -1.967  1.00  0.00     0.057 A 
HETATM   21  C11 UNL     1       0.300   0.388  -0.826  1.00  0.00     0.044 A 
HETATM   22  C12 UNL     1       1.583   0.947  -0.785  1.00  0.00    -0.019 A 
HETATM   23  C22 UNL     1       2.112   1.517  -1.906  1.00  0.00     0.014 A 
HETATM   24  C23 UNL     1       1.358   1.532  -3.086  1.00  0.00     0.027 A 
HETATM   25  C24 UNL     1       0.113   0.981  -3.096  1.00  0.00     0.060 A 
HETATM   26 CL1  UNL     1      -0.782   1.031  -4.597  1.00  0.00    -0.082 Cl
BRANCH  22  27
HETATM   27  C13 UNL     1       2.363   0.939   0.473  1.00  0.00     0.097 C 
BRANCH  27  28
HETATM   28  N4  UNL     1       3.685   1.370   0.417  1.00  0.00    -0.386 N 
HETATM   29  C14 UNL     1       4.665   0.705  -0.320  1.00  0.00     0.152 C 
HETATM   30  C15 UNL     1       5.804   0.307   0.643  1.00  0.00     0.292 C 
HETATM   31  N5  UNL     1       6.300   1.506   1.235  1.00  0.00     0.096 N 
HETATM   32  C20 UNL     1       5.272   2.115   2.037  1.00  0.00     0.292 C 
HETATM   33  C21 UNL     1       4.096   2.499   1.155  1.00  0.00     0.152 C 
BRANCH  31  34
HETATM   34  C16 UNL     1       7.481   1.276   1.980  1.00  0.00     0.320 C 
BRANCH  34  35
HETATM   35  C17 UNL     1       8.567   0.823   1.038  1.00  0.00     0.027 A 
HETATM   36  C18 UNL     1       9.374   1.638   0.272  1.00  0.00     0.104 A 
HETATM   37  N6  UNL     1      10.259   1.068  -0.477  1.00  0.00    -0.368 N 
HETATM   38  C19 UNL     1      10.365  -0.252  -0.491  1.00  0.00     0.138 A 
ATOM     39  H6  UNL     1      10.877   1.635  -1.058  1.00  0.00     0.165 HD
HETATM   40  S1  UNL     1       9.150  -0.724   0.615  1.00  0.00    -0.086 SA
ENDBRANCH  34  35
ENDBRANCH  31  34
ENDBRANCH  27  28
ENDBRANCH  22  27
ENDBRANCH  18  20
ENDBRANCH  14  16
ENDBRANCH  12  14
ENDBRANCH   5  12
TORSDOF 8
