REMARK  9 active torsions:
REMARK  status: ('A' for Active; 'I' for Inactive)
REMARK    1  A    between atoms: S1_2  and  N1_4 
REMARK    2  A    between atoms: S1_2  and  C20_32 
REMARK    3  A    between atoms: N1_4  and  C1_6 
REMARK    4  A    between atoms: C1_6  and  C2_7 
REMARK    5  A    between atoms: C2_7  and  C3_8 
REMARK    6  A    between atoms: C3_8  and  C4_9 
REMARK    7  A    between atoms: C4_9  and  N2_10 
REMARK    8  A    between atoms: C7_13  and  C8_14 
REMARK    9  A    between atoms: C17_27  and  O3_28 
ROOT
HETATM    1  C1  UNL     1      -2.490  -0.917  -0.199  1.00  0.00     0.041 C 
HETATM    2  C15 UNL     1      -1.764  -2.149   0.532  1.00  0.00     0.034 C 
HETATM    3  C16 UNL     1      -2.881  -3.099   0.961  1.00  0.00     0.034 C 
HETATM    4  C17 UNL     1      -3.459  -3.680  -0.281  1.00  0.00     0.118 C 
HETATM    5  C18 UNL     1      -2.922  -3.030  -1.521  1.00  0.00     0.034 C 
HETATM    6  C19 UNL     1      -2.885  -1.515  -1.478  1.00  0.00     0.034 C 
ENDROOT
BRANCH   1   7
HETATM    7  N1  UNL     1      -3.345  -0.534   0.781  1.00  0.00    -0.305 N 
ATOM      8  H1  UNL     1      -2.982  -0.784   1.701  1.00  0.00     0.173 HD
BRANCH   7   9
HETATM    9  S1  UNL     1      -4.764   0.200   0.906  1.00  0.00     0.266 S 
HETATM   10  O1  UNL     1      -5.977  -0.488   0.297  1.00  0.00    -0.200 OA
HETATM   11  O2  UNL     1      -5.184   0.257   2.392  1.00  0.00    -0.200 OA
BRANCH   9  12
HETATM   12  C20 UNL     1      -4.840   1.844   0.348  1.00  0.00     0.121 A 
HETATM   13  C21 UNL     1      -5.750   2.452  -0.478  1.00  0.00     0.035 A 
HETATM   14  C22 UNL     1      -5.644   3.758  -0.707  1.00  0.00     0.033 A 
HETATM   15  C23 UNL     1      -4.610   4.418  -0.086  1.00  0.00     0.075 A 
HETATM   16 CL3  UNL     1      -4.226   6.159  -0.186  1.00  0.00    -0.076 Cl
HETATM   17  S2  UNL     1      -3.833   3.189   0.783  1.00  0.00    -0.064 SA
ENDBRANCH   9  12
ENDBRANCH   7   9
ENDBRANCH   1   7
BRANCH   1  18
HETATM   18  C2  UNL     1      -1.319   0.009  -0.385  1.00  0.00     0.033 C 
BRANCH  18  19
HETATM   19  C3  UNL     1      -0.391   0.092   0.781  1.00  0.00     0.033 C 
BRANCH  19  20
HETATM   20  C4  UNL     1       0.758   1.026   0.490  1.00  0.00     0.272 C 
BRANCH  20  21
HETATM   21  N2  UNL     1       1.517   0.662  -0.692  1.00  0.00     0.089 N 
HETATM   22  C5  UNL     1       2.196  -0.583  -0.614  1.00  0.00     0.276 C 
HETATM   23  C6  UNL     1       3.661  -0.508  -0.841  1.00  0.00     0.065 C 
HETATM   24  C7  UNL     1       4.271   0.649  -0.124  1.00  0.00    -0.063 C 
HETATM   25  C13 UNL     1       3.578   1.930  -0.185  1.00  0.00     0.065 C 
HETATM   26  C14 UNL     1       2.311   1.802  -1.050  1.00  0.00     0.276 C 
BRANCH  24  27
HETATM   27  C8  UNL     1       5.708   0.543   0.102  1.00  0.00     0.013 A 
HETATM   28  C9  UNL     1       6.670   1.408  -0.435  1.00  0.00     0.061 A 
HETATM   29 CL1  UNL     1       6.226   2.519  -1.691  1.00  0.00    -0.082 Cl
HETATM   30  C10 UNL     1       7.996   1.379  -0.075  1.00  0.00     0.112 A 
HETATM   31  N3  UNL     1       8.436   0.494   0.829  1.00  0.00    -0.372 N 
HETATM   32  C11 UNL     1       7.590  -0.359   1.383  1.00  0.00     0.112 A 
ATOM     33  H3  UNL     1       9.422   0.478   1.090  1.00  0.00     0.164 HD
HETATM   34  C12 UNL     1       6.276  -0.343   1.042  1.00  0.00     0.061 A 
HETATM   35 CL2  UNL     1       5.207  -1.467   1.864  1.00  0.00    -0.082 Cl
ENDBRANCH  24  27
ENDBRANCH  20  21
ENDBRANCH  19  20
ENDBRANCH  18  19
ENDBRANCH   1  18
BRANCH   4  36
HETATM   36  O3  UNL     1      -4.844  -3.794  -0.270  1.00  0.00    -0.396 OA
ATOM     37  H3  UNL     1      -5.213  -4.165  -1.063  1.00  0.00     0.210 HD
ENDBRANCH   4  36
TORSDOF 9
