REMARK  4 active torsions:
REMARK  status: ('A' for Active; 'I' for Inactive)
REMARK    1  A    between atoms: C3_3  and  C4_4 
REMARK    2  A    between atoms: C8_9  and  O2_10 
REMARK    3  A    between atoms: N1_14  and  O3_16 
REMARK    4  A    between atoms: C15_23  and  O5_24 
ROOT
HETATM    1  C4  UNL     1       1.203   0.883   0.352  1.00  0.00     0.208 C 
HETATM    2  O1  UNL     1      -0.019   1.405   0.525  1.00  0.00    -0.359 OA
HETATM    3  C5  UNL     1      -1.116   0.630   0.412  1.00  0.00     0.105 C 
HETATM    4  C6  UNL     1      -2.089   1.171   1.486  1.00  0.00     0.047 C 
HETATM    5  C7  UNL     1      -3.462   0.974   0.951  1.00  0.00     0.035 C 
HETATM    6  C8  UNL     1      -3.337   0.868  -0.543  1.00  0.00     0.121 C 
HETATM    7  C9  UNL     1      -1.888   0.730  -0.867  1.00  0.00     0.076 C 
HETATM    8  C10 UNL     1      -0.938  -0.808   0.811  1.00  0.00     0.054 C 
HETATM    9  N1  UNL     1      -1.953  -1.466   1.237  1.00  0.00    -0.274 N 
ATOM     10  H1  UNL     1      -2.862  -1.008   1.299  1.00  0.00     0.193 HD
HETATM   11  C11 UNL     1       0.372  -1.422   0.714  1.00  0.00     0.102 C 
HETATM   12  C12 UNL     1       0.458  -2.822   0.242  1.00  0.00     0.018 C 
HETATM   13  C13 UNL     1       1.686  -3.176  -0.541  1.00  0.00     0.027 C 
HETATM   14  C14 UNL     1       2.789  -2.201  -0.528  1.00  0.00     0.171 C 
HETATM   15  O4  UNL     1       2.570  -1.031   0.142  1.00  0.00    -0.352 OA
HETATM   16  C15 UNL     1       1.270  -0.532  -0.127  1.00  0.00     0.201 C 
ENDROOT
BRANCH   1  17
HETATM   17  C3  UNL     1       1.977   1.794  -0.572  1.00  0.00     0.006 C 
HETATM   18  C2  UNL     1       2.317   3.002  -0.187  1.00  0.00    -0.032 C 
HETATM   19  C1  UNL     1       3.072   3.891  -1.088  1.00  0.00     0.036 C 
ENDBRANCH   1  17
BRANCH   6  20
HETATM   20  O2  UNL     1      -4.099  -0.164  -1.058  1.00  0.00    -0.395 OA
ATOM     21  H2  UNL     1      -4.020  -0.231  -2.002  1.00  0.00     0.210 HD
ENDBRANCH   6  20
BRANCH   9  22
HETATM   22  O3  UNL     1      -1.829  -2.766   1.606  1.00  0.00    -0.290 OA
ATOM     23  H3  UNL     1      -2.581  -3.253   1.922  1.00  0.00     0.244 HD
ENDBRANCH   9  22
BRANCH  16  24
HETATM   24  O5  UNL     1       1.087  -0.681  -1.489  1.00  0.00    -0.362 OA
ATOM     25  H5  UNL     1       1.130  -1.580  -1.793  1.00  0.00     0.213 HD
ENDBRANCH  16  24
TORSDOF 4
