REMARK  11 active torsions:
REMARK  status: ('A' for Active; 'I' for Inactive)
REMARK       I    between atoms: C2_2  and  N1_4 
REMARK    1  A    between atoms: N1_4  and  N2_6 
REMARK    2  A    between atoms: C3_7  and  S1_8 
REMARK    3  A    between atoms: S1_8  and  C4_9 
REMARK    4  A    between atoms: C4_9  and  C5_10 
REMARK    5  A    between atoms: C11_19  and  C12_20 
REMARK    6  A    between atoms: C13_23  and  C14_24 
REMARK       I    between atoms: C14_24  and  N6_26 
REMARK    7  A    between atoms: N6_26  and  N7_28 
REMARK       I    between atoms: N7_28  and  C15_30 
REMARK    8  A    between atoms: C15_30  and  C16_32 
REMARK    9  A    between atoms: C16_32  and  N8_33 
REMARK   10  A    between atoms: C16_32  and  C17_37 
REMARK   11  A    between atoms: C17_37  and  N9_38 
ROOT
HETATM    1  C12 UNL     1      -0.140  -0.054  -1.098  1.00  0.00     0.201 A 
HETATM    2  N5  UNL     1       1.141  -0.209  -0.760  1.00  0.00    -0.313 N 
ATOM      3  H5  UNL     1       1.639   0.348  -0.066  1.00  0.00     0.170 HD
HETATM    4  C13 UNL     1       1.680  -1.225  -1.484  1.00  0.00     0.198 A 
HETATM    5  N10 UNL     1       0.683  -1.665  -2.257  1.00  0.00    -0.238 N 
ATOM      6  H10 UNL     1       0.746  -2.429  -2.930  1.00  0.00     0.197 HD
HETATM    7  O4  UNL     1      -0.382  -0.957  -2.010  1.00  0.00    -0.215 OA
ENDROOT
BRANCH   1   8
HETATM    8  C11 UNL     1      -1.131   0.900  -0.600  1.00  0.00     0.118 A 
HETATM    9  N4  UNL     1      -2.389   0.917  -1.053  1.00  0.00    -0.330 N 
HETATM   10  C3  UNL     1      -3.299   1.785  -0.601  1.00  0.00     0.170 A 
ATOM     11  H4  UNL     1      -2.664   0.244  -1.769  1.00  0.00     0.168 HD
HETATM   12  N2  UNL     1      -2.994   2.725   0.368  1.00  0.00    -0.193 N 
HETATM   13  C19 UNL     1      -1.749   2.749   0.854  1.00  0.00     0.295 A 
HETATM   14  C18 UNL     1      -0.819   1.825   0.359  1.00  0.00     0.147 A 
HETATM   15  O5  UNL     1      -1.366   3.552   1.728  1.00  0.00    -0.264 OA
HETATM   16  N11 UNL     1       0.513   1.838   0.867  1.00  0.00    -0.094 NA
BRANCH  10  17
HETATM   17  S1  UNL     1      -4.987   1.752  -1.243  1.00  0.00    -0.087 SA
BRANCH  17  18
HETATM   18  C4  UNL     1      -5.982   0.627  -0.225  1.00  0.00     0.121 C 
BRANCH  18  19
HETATM   19  C5  UNL     1      -5.546  -0.770  -0.356  1.00  0.00    -0.047 A 
HETATM   20  C6  UNL     1      -6.124  -1.570  -1.320  1.00  0.00     0.008 A 
HETATM   21  C7  UNL     1      -5.768  -2.876  -1.505  1.00  0.00     0.002 A 
HETATM   22  C8  UNL     1      -4.782  -3.434  -0.694  1.00  0.00     0.026 A 
HETATM   23  C9  UNL     1      -4.183  -2.664   0.279  1.00  0.00     0.046 A 
HETATM   24  N3  UNL     1      -3.172  -3.202   1.124  1.00  0.00    -0.102 NA
HETATM   25  C10 UNL     1      -4.574  -1.348   0.431  1.00  0.00     0.034 A 
ENDBRANCH  18  19
ENDBRANCH  17  18
ENDBRANCH  10  17
BRANCH  12  26
HETATM   26  N1  UNL     1      -4.014   3.564   0.750  1.00  0.00    -0.259 N 
HETATM   27  C2  UNL     1      -4.087   4.591   1.666  1.00  0.00     0.232 C 
HETATM   28  C1  UNL     1      -5.422   5.337   1.841  1.00  0.00     0.119 C 
HETATM   29  O1  UNL     1      -3.207   5.025   2.401  1.00  0.00    -0.272 OA
ATOM     30  H1  UNL     1      -4.891   3.392   0.258  1.00  0.00     0.190 HD
ENDBRANCH  12  26
ENDBRANCH   1   8
BRANCH   4  31
HETATM   31  C14 UNL     1       3.044  -1.724  -1.419  1.00  0.00     0.305 C 
HETATM   32  O2  UNL     1       3.367  -2.668  -2.181  1.00  0.00    -0.263 OA
HETATM   33  N6  UNL     1       4.009  -1.178  -0.529  1.00  0.00    -0.261 N 
ATOM     34  H6  UNL     1       3.712  -0.411   0.074  1.00  0.00     0.190 HD
BRANCH  33  35
HETATM   35  N7  UNL     1       5.315  -1.604  -0.418  1.00  0.00    -0.265 N 
HETATM   36  C15 UNL     1       6.447  -0.781  -0.615  1.00  0.00     0.268 C 
HETATM   37  O3  UNL     1       6.245   0.429  -0.917  1.00  0.00    -0.269 OA
ATOM     38  H7  UNL     1       5.476  -2.582  -0.177  1.00  0.00     0.190 HD
BRANCH  36  39
HETATM   39  C16 UNL     1       7.833  -1.239  -0.493  1.00  0.00     0.301 C 
BRANCH  39  40
HETATM   40  N8  UNL     1       7.904  -2.634  -0.135  1.00  0.00    -0.065 N 
ATOM     41  H83 UNL     1       7.372  -2.828   0.714  1.00  0.00     0.275 HD
ATOM     42  H82 UNL     1       7.377  -3.213  -0.789  1.00  0.00     0.275 HD
ATOM     43  H81 UNL     1       8.869  -2.953  -0.050  1.00  0.00     0.275 HD
ENDBRANCH  39  40
BRANCH  39  44
HETATM   44  C17 UNL     1       8.613  -0.455   0.548  1.00  0.00     0.272 C 
BRANCH  44  45
HETATM   45  N9  UNL     1       9.957  -0.998   0.575  1.00  0.00    -0.077 N 
ATOM     46  H93 UNL     1       9.978  -2.005   0.735  1.00  0.00     0.274 HD
ATOM     47  H92 UNL     1      10.405  -1.001  -0.341  1.00  0.00     0.274 HD
ATOM     48  H91 UNL     1      10.481  -0.471   1.274  1.00  0.00     0.274 HD
ENDBRANCH  44  45
ENDBRANCH  39  44
ENDBRANCH  36  39
ENDBRANCH  33  35
ENDBRANCH   4  31
TORSDOF 11
