REMARK  4 active torsions:
REMARK  status: ('A' for Active; 'I' for Inactive)
REMARK    1  A    between atoms: C2_2  and  C3_3 
REMARK    2  A    between atoms: C3_3  and  C6_6 
REMARK    3  A    between atoms: C7_7  and  O1_8 
REMARK    4  A    between atoms: C8_10  and  N1_11 
ROOT
HETATM    1  C6  UNL     1      -0.295   0.386  -0.209  1.00  0.00     0.045 C 
HETATM    2  C7  UNL     1       0.828   0.756   0.690  1.00  0.00     0.148 C 
HETATM    3  C8  UNL     1       1.657  -0.213  -0.175  1.00  0.00     0.132 C 
HETATM    4  C10 UNL     1       0.326  -0.972  -0.341  1.00  0.00     0.044 C 
HETATM    5  C11 UNL     1       0.177  -1.616  -1.692  1.00  0.00     0.030 C 
HETATM    6 BR1  UNL     1       0.142  -2.182   1.106  1.00  0.00    -0.083 Br
ENDROOT
BRANCH   1   7
HETATM    7  C3  UNL     1      -1.688   0.525   0.197  1.00  0.00    -0.040 C 
HETATM    8  C4  UNL     1      -2.169  -0.215   1.385  1.00  0.00     0.015 C 
HETATM    9  C5  UNL     1      -1.978   2.007   0.429  1.00  0.00     0.015 C 
BRANCH   7  10
HETATM   10  C2  UNL     1      -2.559   0.053  -0.981  1.00  0.00     0.005 C 
HETATM   11  C1  UNL     1      -4.014   0.356  -0.719  1.00  0.00     0.006 C 
ENDBRANCH   7  10
ENDBRANCH   1   7
BRANCH   2  12
HETATM   12  O1  UNL     1       0.831   0.316   1.983  1.00  0.00    -0.393 OA
ATOM     13  H1  UNL     1       1.549   0.553   2.558  1.00  0.00     0.210 HD
ENDBRANCH   2  12
BRANCH   3  14
HETATM   14  N1  UNL     1       2.658  -0.936   0.534  1.00  0.00    -0.358 N 
HETATM   15  C9  UNL     1       3.889  -0.687   0.321  1.00  0.00     0.197 C 
HETATM   16  N2  UNL     1       4.279   0.294  -0.605  1.00  0.00    -0.067 NA
HETATM   17  N3  UNL     1       4.873  -1.408   1.029  1.00  0.00    -0.067 NA
ATOM     18  H1  UNL     1       2.390  -1.651   1.210  1.00  0.00     0.162 HD
ENDBRANCH   3  14
TORSDOF 4
