REMARK  6 active torsions:
REMARK  status: ('A' for Active; 'I' for Inactive)
REMARK    1  A    between atoms: C2_2  and  C4_4 
REMARK    2  A    between atoms: C11_11  and  O1_12 
REMARK    3  A    between atoms: C15_17  and  O2_18 
REMARK    4  A    between atoms: C15_17  and  C16_20 
REMARK    5  A    between atoms: C16_20  and  O3_21 
REMARK    6  A    between atoms: C22_29  and  C24_31 
ROOT
HETATM    1  C4  UNL     1      -3.322   0.740   0.144  1.00  0.00     0.024 C 
HETATM    2  C5  UNL     1      -3.106   1.392  -1.235  1.00  0.00     0.011 C 
HETATM    3  C6  UNL     1      -1.640   1.570  -1.445  1.00  0.00     0.013 C 
HETATM    4  C7  UNL     1      -0.981   0.256  -1.442  1.00  0.00    -0.011 C 
HETATM    5  C8  UNL     1      -1.116  -0.341  -2.850  1.00  0.00     0.018 C 
HETATM    6  C9  UNL     1       0.535   0.352  -1.203  1.00  0.00     0.028 C 
HETATM    7  C10 UNL     1       0.873   1.619  -0.426  1.00  0.00     0.040 C 
HETATM    8  C11 UNL     1       2.301   1.541   0.008  1.00  0.00     0.127 C 
HETATM    9  C12 UNL     1       2.575   0.396   0.967  1.00  0.00    -0.009 C 
HETATM   10  C13 UNL     1       1.828   0.761   2.260  1.00  0.00     0.018 C 
HETATM   11  C14 UNL     1       4.017   0.373   1.320  1.00  0.00     0.052 C 
HETATM   12  C15 UNL     1       4.869  -0.658   0.705  1.00  0.00     0.080 C 
HETATM   13  C17 UNL     1       4.161  -1.909   0.268  1.00  0.00     0.040 C 
HETATM   14  C18 UNL     1       2.984  -1.502  -0.552  1.00  0.00     0.011 C 
HETATM   15  C19 UNL     1       2.003  -0.858   0.443  1.00  0.00     0.026 C 
HETATM   16  C20 UNL     1       0.712  -0.786  -0.237  1.00  0.00     0.132 C 
HETATM   17  O4  UNL     1      -0.419  -0.671   0.528  1.00  0.00    -0.378 OA
HETATM   18  C21 UNL     1      -1.412  -0.739  -0.472  1.00  0.00     0.139 C 
HETATM   19  C22 UNL     1      -2.804  -0.657   0.099  1.00  0.00    -0.010 C 
HETATM   20  C23 UNL     1      -3.693  -1.492  -0.781  1.00  0.00     0.018 C 
ENDROOT
BRANCH  12  21
HETATM   21  O2  UNL     1       5.894  -1.080   1.589  1.00  0.00    -0.388 OA
ATOM     22  H2  UNL     1       6.444  -1.745   1.192  1.00  0.00     0.210 HD
ENDBRANCH  12  21
BRANCH  12  23
HETATM   23  C16 UNL     1       5.609  -0.116  -0.517  1.00  0.00     0.201 C 
BRANCH  23  24
HETATM   24  O3  UNL     1       6.440   0.953  -0.152  1.00  0.00    -0.398 OA
ATOM     25  H3  UNL     1       6.900   1.290  -0.912  1.00  0.00     0.209 HD
ENDBRANCH  23  24
ENDBRANCH  12  23
BRANCH   8  26
HETATM   26  O1  UNL     1       2.611   2.725   0.695  1.00  0.00    -0.395 OA
ATOM     27  H1  UNL     1       3.519   2.675   0.971  1.00  0.00     0.210 HD
ENDBRANCH   8  26
BRANCH  19  28
HETATM   28  C24 UNL     1      -2.817  -1.300   1.475  1.00  0.00     0.008 C 
HETATM   29  C25 UNL     1      -2.313  -2.703   1.483  1.00  0.00     0.006 C 
ENDBRANCH  19  28
BRANCH   1  30
HETATM   30  C2  UNL     1      -4.710   0.997   0.470  1.00  0.00    -0.088 C 
HETATM   31  C1  UNL     1      -5.721   0.228   0.746  1.00  0.00     0.014 C 
HETATM   32  C3  UNL     1      -5.082   2.487   0.513  1.00  0.00     0.043 C 
ENDBRANCH   1  30
TORSDOF 6
