REMARK  2 active torsions:
REMARK  status: ('A' for Active; 'I' for Inactive)
REMARK    1  A    between atoms: C3_5  and  O1_6 
REMARK    2  A    between atoms: C6_12  and  C7_13 
ROOT
HETATM    1  C1  UNL     1      -1.620  -2.493  -0.440  1.00  0.00     0.064 C 
HETATM    2  C2  UNL     1      -1.806  -1.064  -0.150  1.00  0.00    -0.009 C 
HETATM    3  N1  UNL     1      -2.982  -0.748   0.319  1.00  0.00    -0.370 N 
ATOM      4  H1  UNL     1      -3.679  -1.481   0.454  1.00  0.00     0.161 HD
HETATM    5  C3  UNL     1      -3.316   0.609   0.649  1.00  0.00     0.222 C 
HETATM    6  C4  UNL     1      -2.251   1.120   1.582  1.00  0.00     0.106 C 
HETATM    7  C5  UNL     1      -0.943   0.968   0.818  1.00  0.00    -0.003 C 
HETATM    8  N2  UNL     1       0.173   1.526   0.952  1.00  0.00    -0.387 N 
ATOM      9  H2  UNL     1       0.370   2.230   1.664  1.00  0.00     0.159 HD
HETATM   10  C6  UNL     1       1.133   1.074   0.008  1.00  0.00     0.128 C 
HETATM   11  C9  UNL     1       0.594  -0.259  -0.400  1.00  0.00    -0.011 C 
HETATM   12  C10 UNL     1       1.091  -1.424   0.338  1.00  0.00     0.018 C 
HETATM   13  C11 UNL     1       0.912  -0.418  -1.876  1.00  0.00     0.018 C 
HETATM   14  C12 UNL     1      -0.877   0.024  -0.321  1.00  0.00     0.086 C 
ENDROOT
BRANCH  10  15
HETATM   15  C7  UNL     1       2.454   1.186   0.639  1.00  0.00     0.130 C 
HETATM   16  C8  UNL     1       3.645   0.761  -0.169  1.00  0.00     0.052 C 
HETATM   17 CL1  UNL     1       2.674   2.984   0.850  1.00  0.00    -0.100 Cl
HETATM   18 CL2  UNL     1       2.538   0.580   2.303  1.00  0.00    -0.100 Cl
ENDBRANCH  10  15
BRANCH   5  19
HETATM   19  O1  UNL     1      -3.337   1.445  -0.470  1.00  0.00    -0.377 OA
ATOM     20  H1  UNL     1      -3.558   2.343  -0.252  1.00  0.00     0.212 HD
ENDBRANCH   5  19
TORSDOF 2
