REMARK  11 active torsions:
REMARK  status: ('A' for Active; 'I' for Inactive)
REMARK    1  A    between atoms: C5_8  and  C6_9 
REMARK    2  A    between atoms: C6_9  and  O1_10 
REMARK    3  A    between atoms: O1_10  and  C7_11 
REMARK    4  A    between atoms: C7_11  and  C8_12 
REMARK    5  A    between atoms: C8_12  and  O2_13 
REMARK    6  A    between atoms: O2_13  and  C9_14 
REMARK    7  A    between atoms: C12_17  and  C13_18 
REMARK    8  A    between atoms: N3_19  and  N4_21 
REMARK    9  A    between atoms: N4_21  and  C14_23 
REMARK   10  A    between atoms: C15_26  and  N6_27 
REMARK   11  A    between atoms: C20_35  and  N8_36 
ROOT
HETATM    1  N4  UNL     1      -2.252   0.803  -2.060  1.00  0.00    -0.131 N 
ATOM      2  H4  UNL     1      -1.834   1.697  -2.319  1.00  0.00     0.205 HD
ENDROOT
BRANCH   1   3
HETATM    3  N3  UNL     1      -1.803  -0.377  -2.572  1.00  0.00    -0.297 N 
HETATM    4  C13 UNL     1      -0.856  -1.115  -2.382  1.00  0.00     0.119 C 
ATOM      5  H3  UNL     1      -2.420  -0.732  -3.302  1.00  0.00     0.186 HD
BRANCH   4   6
HETATM    6  C12 UNL     1       0.267  -0.993  -1.462  1.00  0.00    -0.019 A 
HETATM    7  C11 UNL     1       1.038  -2.104  -1.147  1.00  0.00     0.015 A 
HETATM    8  C10 UNL     1       2.121  -1.976  -0.285  1.00  0.00     0.037 A 
HETATM    9  C9  UNL     1       2.497  -0.756   0.297  1.00  0.00     0.068 A 
HETATM   10  C26 UNL     1       1.718   0.345  -0.043  1.00  0.00     0.037 A 
HETATM   11  C25 UNL     1       0.619   0.212  -0.913  1.00  0.00     0.015 A 
BRANCH   9  12
HETATM   12  O2  UNL     1       3.518  -0.696   1.109  1.00  0.00    -0.349 OA
BRANCH  12  13
HETATM   13  C8  UNL     1       4.383  -0.150   1.922  1.00  0.00     0.201 C 
BRANCH  13  14
HETATM   14  C7  UNL     1       5.217   1.009   1.356  1.00  0.00     0.194 C 
BRANCH  14  15
HETATM   15  O1  UNL     1       5.953   0.903   0.378  1.00  0.00    -0.384 OA
BRANCH  15  16
HETATM   16  C6  UNL     1       6.735   0.732  -0.598  1.00  0.00     0.209 C 
BRANCH  16  17
HETATM   17  C5  UNL     1       8.135   0.319  -0.178  1.00  0.00     0.006 A 
HETATM   18  C2  UNL     1       9.253   1.105  -0.214  1.00  0.00     0.032 A 
HETATM   19  C1  UNL     1       9.190   2.594  -0.313  1.00  0.00     0.070 C 
HETATM   20  N1  UNL     1      10.317   0.333   0.006  1.00  0.00    -0.303 N 
HETATM   21  N2  UNL     1       9.893  -0.926   0.183  1.00  0.00    -0.307 N 
ATOM     22  H1  UNL     1      11.287   0.647   0.035  1.00  0.00     0.186 HD
HETATM   23  C3  UNL     1      10.738  -2.061   0.453  1.00  0.00     0.177 C 
HETATM   24  C4  UNL     1       8.547  -0.937   0.069  1.00  0.00     0.120 A 
ENDBRANCH  16  17
ENDBRANCH  15  16
ENDBRANCH  14  15
ENDBRANCH  13  14
ENDBRANCH  12  13
ENDBRANCH   9  12
ENDBRANCH   4   6
ENDBRANCH   1   3
BRANCH   1  25
HETATM   25  C14 UNL     1      -3.278   0.723  -1.194  1.00  0.00     0.726 A 
HETATM   26  N5  UNL     1      -3.791   1.799  -0.652  1.00  0.00    -0.020 N 
HETATM   27  C15 UNL     1      -4.856   1.704   0.201  1.00  0.00     0.709 A 
ATOM     28  H5  UNL     1      -3.394   2.714  -0.867  1.00  0.00     0.203 HD
HETATM   29  N7  UNL     1      -5.301   0.430   0.427  1.00  0.00    -0.021 N 
HETATM   30  C20 UNL     1      -4.799  -0.681  -0.108  1.00  0.00     0.709 A 
ATOM     31  H7  UNL     1      -6.090   0.321   1.064  1.00  0.00     0.203 HD
HETATM   32  N9  UNL     1      -3.747  -0.524  -0.950  1.00  0.00    -0.020 N 
ATOM     33  H9  UNL     1      -3.315  -1.334  -1.394  1.00  0.00     0.203 HD
BRANCH  27  34
HETATM   34  N6  UNL     1      -5.559   2.781   0.738  1.00  0.00    -0.213 N 
HETATM   35  C16 UNL     1      -6.545   2.676   1.784  1.00  0.00     0.167 C 
HETATM   36  C17 UNL     1      -7.872   2.850   1.017  1.00  0.00     0.188 C 
HETATM   37  O3  UNL     1      -7.702   3.183  -0.299  1.00  0.00    -0.388 OA
HETATM   38  C18 UNL     1      -6.813   4.136  -0.676  1.00  0.00     0.188 C 
HETATM   39  C19 UNL     1      -5.491   4.109   0.163  1.00  0.00     0.167 C 
ENDBRANCH  27  34
BRANCH  30  40
HETATM   40  N8  UNL     1      -5.290  -1.987   0.119  1.00  0.00    -0.213 N 
HETATM   41  C21 UNL     1      -5.021  -2.980  -0.915  1.00  0.00     0.167 C 
HETATM   42  C22 UNL     1      -4.306  -4.138  -0.277  1.00  0.00     0.188 C 
HETATM   43  O4  UNL     1      -4.849  -4.510   0.929  1.00  0.00    -0.388 OA
HETATM   44  C23 UNL     1      -6.075  -3.935   1.198  1.00  0.00     0.188 C 
HETATM   45  C24 UNL     1      -5.998  -2.396   1.279  1.00  0.00     0.167 C 
ENDBRANCH  30  40
ENDBRANCH   1  25
TORSDOF 11
