REMARK  8 active torsions:
REMARK  status: ('A' for Active; 'I' for Inactive)
REMARK    1  A    between atoms: C2_2  and  N3_8 
REMARK    2  A    between atoms: N1_3  and  N2_5 
REMARK    3  A    between atoms: N3_8  and  C3_10 
REMARK    4  A    between atoms: C6_14  and  C7_15 
REMARK    5  A    between atoms: C7_15  and  N4_16 
REMARK    6  A    between atoms: C7_15  and  C8_20 
REMARK       I    between atoms: C8_20  and  N5_22 
REMARK    7  A    between atoms: N5_22  and  C9_24 
REMARK    8  A    between atoms: C9_24  and  C10_25 
ROOT
HETATM    1  C3  UNL     1      -1.209  -0.054  -0.707  1.00  0.00     0.116 C 
HETATM    2  C4  UNL     1      -1.374   1.475  -0.462  1.00  0.00     0.054 C 
HETATM    3  C5  UNL     1      -0.824   1.516   0.964  1.00  0.00     0.170 C 
HETATM    4  O1  UNL     1      -0.064   0.365   1.151  1.00  0.00    -0.381 OA
HETATM    5  C6  UNL     1       0.171  -0.143  -0.106  1.00  0.00     0.183 C 
ENDROOT
BRANCH   5   6
HETATM    6  C7  UNL     1       0.860  -1.441  -0.195  1.00  0.00     0.305 C 
BRANCH   6   7
HETATM    7  N4  UNL     1       0.171  -2.513   0.461  1.00  0.00    -0.064 N 
ATOM      8  H43 UNL     1      -0.019  -2.274   1.434  1.00  0.00     0.275 HD
ATOM      9  H42 UNL     1      -0.785  -2.590   0.113  1.00  0.00     0.275 HD
ATOM     10  H41 UNL     1       0.648  -3.412   0.399  1.00  0.00     0.275 HD
ENDBRANCH   6   7
BRANCH   6  11
HETATM   11  C8  UNL     1       2.191  -1.271   0.484  1.00  0.00     0.251 C 
HETATM   12  O2  UNL     1       2.471  -2.025   1.435  1.00  0.00    -0.271 OA
HETATM   13  N5  UNL     1       3.121  -0.294   0.078  1.00  0.00    -0.351 N 
ATOM     14  H5  UNL     1       2.889   0.321  -0.702  1.00  0.00     0.163 HD
BRANCH  13  15
HETATM   15  C9  UNL     1       4.396  -0.144   0.741  1.00  0.00     0.222 C 
BRANCH  15  16
HETATM   16  C10 UNL     1       5.213   0.935   0.159  1.00  0.00     0.248 C 
HETATM   17  N6  UNL     1       6.490   1.225   0.681  1.00  0.00    -0.061 NA
HETATM   18  O3  UNL     1       4.773   1.597  -0.801  1.00  0.00    -0.275 OA
ENDBRANCH  15  16
ENDBRANCH  13  15
ENDBRANCH   6  11
ENDBRANCH   5   6
BRANCH   1  19
HETATM   19  N3  UNL     1      -2.245  -0.680   0.069  1.00  0.00    -0.372 N 
ATOM     20  H3  UNL     1      -2.031  -1.325   0.829  1.00  0.00     0.161 HD
BRANCH  19  21
HETATM   21  C2  UNL     1      -3.594  -0.349  -0.283  1.00  0.00     0.087 C 
HETATM   22  C1  UNL     1      -3.969  -0.240  -1.710  1.00  0.00     0.090 C 
HETATM   23  N1  UNL     1      -4.488  -0.144   0.606  1.00  0.00    -0.296 N 
ATOM     24  H1  UNL     1      -4.256  -0.212   1.597  1.00  0.00     0.187 HD
BRANCH  23  25
HETATM   25  N2  UNL     1      -5.783   0.174   0.206  1.00  0.00    -0.344 N 
ATOM     26  H22 UNL     1      -5.999   0.239  -0.789  1.00  0.00     0.176 HD
ATOM     27  H21 UNL     1      -6.497   0.338   0.916  1.00  0.00     0.176 HD
ENDBRANCH  23  25
ENDBRANCH  19  21
ENDBRANCH   1  19
TORSDOF 8
