REMARK  6 active torsions:
REMARK  status: ('A' for Active; 'I' for Inactive)
REMARK    1  A    between atoms: C2_2  and  N1_4 
REMARK    2  A    between atoms: C2_2  and  C4_8 
REMARK       I    between atoms: C4_8  and  N2_10 
REMARK    3  A    between atoms: N2_10  and  C5_12 
REMARK    4  A    between atoms: C5_12  and  C6_13 
REMARK       I    between atoms: C6_13  and  N3_15 
REMARK    5  A    between atoms: N3_15  and  C7_17 
REMARK    6  A    between atoms: C7_17  and  C8_18 
ROOT
HETATM    1  C4  UNL     1       2.580   0.936  -0.046  1.00  0.00     0.253 C 
HETATM    2  O1  UNL     1       2.528   2.220  -0.068  1.00  0.00    -0.271 OA
HETATM    3  N2  UNL     1       1.362   0.267  -0.022  1.00  0.00    -0.350 N 
ATOM      4  H2  UNL     1       1.369  -0.752   0.021  1.00  0.00     0.163 HD
ENDROOT
BRANCH   3   5
HETATM    5  C5  UNL     1       0.073   0.953  -0.055  1.00  0.00     0.225 C 
BRANCH   5   6
HETATM    6  C6  UNL     1      -1.068   0.035  -0.014  1.00  0.00     0.236 C 
HETATM    7  O2  UNL     1      -0.818  -1.226   0.055  1.00  0.00    -0.272 OA
HETATM    8  N3  UNL     1      -2.429   0.530  -0.075  1.00  0.00    -0.342 N 
ATOM      9  H3  UNL     1      -2.561   1.541  -0.107  1.00  0.00     0.163 HD
BRANCH   8  10
HETATM   10  C7  UNL     1      -3.593  -0.284  -0.094  1.00  0.00     0.111 A 
HETATM   11  C9  UNL     1      -3.673  -1.666  -0.590  1.00  0.00     0.043 A 
HETATM   12  C10 UNL     1      -3.665  -1.442   0.887  1.00  0.00     0.043 A 
BRANCH  10  13
HETATM   13  C8  UNL     1      -4.865   0.476  -0.153  1.00  0.00     0.259 C 
HETATM   14  N4  UNL     1      -5.260   1.428   0.802  1.00  0.00    -0.060 NA
HETATM   15  O3  UNL     1      -5.653   0.215  -1.140  1.00  0.00    -0.274 OA
ENDBRANCH  10  13
ENDBRANCH   8  10
ENDBRANCH   5   6
ENDBRANCH   3   5
BRANCH   1  16
HETATM   16  C2  UNL     1       3.861   0.233  -0.056  1.00  0.00     0.196 C 
HETATM   17  C1  UNL     1       3.865  -0.999   0.789  1.00  0.00     0.056 C 
HETATM   18  C3  UNL     1       4.079  -0.162  -1.552  1.00  0.00     0.056 C 
BRANCH  16  19
HETATM   19  N1  UNL     1       4.953   1.149   0.237  1.00  0.00    -0.062 N 
ATOM     20  H13 UNL     1       4.962   1.393   1.227  1.00  0.00     0.275 HD
ATOM     21  H12 UNL     1       5.851   0.670   0.170  1.00  0.00     0.275 HD
ATOM     22  H11 UNL     1       4.950   1.990  -0.340  1.00  0.00     0.275 HD
ENDBRANCH  16  19
ENDBRANCH   1  16
TORSDOF 6
