REMARK  12 active torsions:
REMARK  status: ('A' for Active; 'I' for Inactive)
REMARK       I    between atoms: C2_4  and  N2_5 
REMARK       I    between atoms: C2_4  and  N4_28 
REMARK    1  A    between atoms: N2_5  and  C3_7 
REMARK    2  A    between atoms: C3_7  and  C4_8 
REMARK    3  A    between atoms: C4_8  and  S1_9 
REMARK    4  A    between atoms: S1_9  and  S2_10 
REMARK    5  A    between atoms: S2_10  and  C5_11 
REMARK    6  A    between atoms: C6_13  and  C7_14 
REMARK    7  A    between atoms: C7_14  and  S3_15 
REMARK    8  A    between atoms: S3_15  and  C8_16 
REMARK    9  A    between atoms: C9_19  and  O3_20 
REMARK   10  A    between atoms: C10_22  and  O4_23 
REMARK   11  A    between atoms: C11_25  and  O5_26 
REMARK   12  A    between atoms: C15_32  and  O6_33 
ROOT
HETATM    1  C5  UNL     1       2.799  -0.685   0.583  1.00  0.00     0.225 C 
HETATM    2  O1  UNL     1       3.831  -0.196   1.328  1.00  0.00    -0.363 OA
HETATM    3  C6  UNL     1       5.069  -0.173   0.760  1.00  0.00     0.164 C 
HETATM    4  C9  UNL     1       5.227  -0.802  -0.576  1.00  0.00     0.179 C 
HETATM    5  C10 UNL     1       4.270  -1.893  -0.910  1.00  0.00     0.181 C 
HETATM    6  C11 UNL     1       3.162  -2.067   0.085  1.00  0.00     0.189 C 
ENDROOT
BRANCH   1   7
HETATM    7  S2  UNL     1       1.338  -0.893   1.641  1.00  0.00    -0.063 SA
BRANCH   7   8
HETATM    8  S1  UNL     1      -0.296  -1.689   0.544  1.00  0.00    -0.093 SA
BRANCH   8   9
HETATM    9  C4  UNL     1      -1.318  -0.356  -0.192  1.00  0.00     0.106 C 
BRANCH   9  10
HETATM   10  C3  UNL     1      -2.434  -0.994  -0.945  1.00  0.00     0.149 C 
BRANCH  10  11
HETATM   11  N2  UNL     1      -3.262   0.019  -1.545  1.00  0.00    -0.226 N 
HETATM   12  C2  UNL     1      -4.052   0.852  -0.716  1.00  0.00     0.673 C 
HETATM   13  N1  UNL     1      -3.569   1.856  -0.126  1.00  0.00    -0.231 N 
HETATM   14  N4  UNL     1      -5.414   0.518  -0.578  1.00  0.00    -0.192 N 
HETATM   15  C1  UNL     1      -4.210   2.793   0.735  1.00  0.00     0.165 C 
ATOM     16  H1  UNL     1      -2.576   2.021  -0.289  1.00  0.00     0.177 HD
HETATM   17  C12 UNL     1      -6.608   1.307  -0.823  1.00  0.00     0.144 C 
HETATM   18  C15 UNL     1      -5.849  -0.806  -0.129  1.00  0.00     0.237 C 
HETATM   19  C13 UNL     1      -7.533   0.836   0.274  1.00  0.00     0.025 C 
HETATM   20  C14 UNL     1      -7.262  -0.647   0.325  1.00  0.00     0.056 C 
ATOM     21  H2  UNL     1      -3.280   0.136  -2.558  1.00  0.00     0.177 HD
BRANCH  18  22
HETATM   22  O6  UNL     1      -5.775  -1.682  -1.224  1.00  0.00    -0.376 OA
ATOM     23  H6  UNL     1      -6.057  -2.541  -0.933  1.00  0.00     0.212 HD
ENDBRANCH  18  22
ENDBRANCH  10  11
ENDBRANCH   9  10
ENDBRANCH   8   9
ENDBRANCH   7   8
ENDBRANCH   1   7
BRANCH   6  24
HETATM   24  O5  UNL     1       3.448  -2.916   1.124  1.00  0.00    -0.389 OA
ATOM     25  H5  UNL     1       3.676  -3.784   0.811  1.00  0.00     0.210 HD
ENDBRANCH   6  24
BRANCH   3  26
HETATM   26  C7  UNL     1       6.077  -0.669   1.777  1.00  0.00     0.118 C 
BRANCH  26  27
HETATM   27  S3  UNL     1       7.763  -0.706   1.180  1.00  0.00    -0.070 SA
BRANCH  27  28
HETATM   28  C8  UNL     1       8.406   0.925   0.858  1.00  0.00     0.292 C 
HETATM   29  N3  UNL     1       7.599   2.067   1.092  1.00  0.00    -0.051 NA
HETATM   30  O2  UNL     1       9.570   1.106   0.424  1.00  0.00    -0.264 OA
ENDBRANCH  27  28
ENDBRANCH  26  27
ENDBRANCH   3  26
BRANCH   5  31
HETATM   31  O4  UNL     1       3.666  -1.728  -2.156  1.00  0.00    -0.390 OA
ATOM     32  H4  UNL     1       3.056  -2.424  -2.369  1.00  0.00     0.210 HD
ENDBRANCH   5  31
BRANCH   4  33
HETATM   33  O3  UNL     1       5.294   0.166  -1.611  1.00  0.00    -0.390 OA
ATOM     34  H3  UNL     1       5.395  -0.236  -2.466  1.00  0.00     0.210 HD
ENDBRANCH   4  33
TORSDOF 12
