REMARK  7 active torsions:
REMARK  status: ('A' for Active; 'I' for Inactive)
REMARK    1  A    between atoms: C2_2  and  C4_4 
REMARK    2  A    between atoms: C4_4  and  C5_5 
REMARK       I    between atoms: C5_5  and  N1_7 
REMARK    3  A    between atoms: N1_7  and  C6_9 
REMARK    4  A    between atoms: C6_9  and  C8_11 
REMARK    5  A    between atoms: C8_11  and  N2_12 
REMARK    6  A    between atoms: N4_19  and  C11_20 
REMARK    7  A    between atoms: C11_20  and  C12_21 
ROOT
HETATM    1  N2  UNL     1       1.014  -0.696  -0.827  1.00  0.00    -0.249 N 
HETATM    2  C9  UNL     1       1.148   0.210  -1.806  1.00  0.00     0.332 A 
HETATM    3  O2  UNL     1       2.167   0.210  -2.578  1.00  0.00    -0.246 OA
HETATM    4  N3  UNL     1       0.225   1.153  -2.024  1.00  0.00    -0.284 N 
ATOM      5  H3  UNL     1       0.357   1.827  -2.778  1.00  0.00     0.173 HD
HETATM    6  C10 UNL     1      -0.871   1.218  -1.259  1.00  0.00     0.186 A 
HETATM    7  S1  UNL     1      -1.955   2.451  -1.515  1.00  0.00    -0.040 SA
HETATM    8  N4  UNL     1      -1.043   0.329  -0.272  1.00  0.00    -0.275 N 
HETATM    9  C21 UNL     1      -0.085  -0.621  -0.072  1.00  0.00     0.335 A 
HETATM   10  O3  UNL     1      -0.257  -1.443   0.854  1.00  0.00    -0.246 OA
ENDROOT
BRANCH   1  11
HETATM   11  C8  UNL     1       2.051  -1.674  -0.655  1.00  0.00     0.163 C 
BRANCH  11  12
HETATM   12  C6  UNL     1       3.145  -1.283   0.293  1.00  0.00     0.099 C 
HETATM   13  C7  UNL     1       2.709  -1.162   1.728  1.00  0.00     0.034 C 
BRANCH  12  14
HETATM   14  N1  UNL     1       3.863  -0.101  -0.054  1.00  0.00    -0.355 N 
HETATM   15  C5  UNL     1       5.229  -0.143  -0.397  1.00  0.00     0.218 C 
HETATM   16  O1  UNL     1       5.835  -1.244  -0.397  1.00  0.00    -0.274 OA
ATOM     17  H1  UNL     1       3.377   0.796  -0.054  1.00  0.00     0.162 HD
BRANCH  15  18
HETATM   18  C4  UNL     1       6.007   1.075  -0.765  1.00  0.00     0.106 C 
BRANCH  18  19
HETATM   19  C2  UNL     1       7.443   0.729  -1.082  1.00  0.00    -0.014 C 
HETATM   20  C1  UNL     1       8.087   0.086   0.146  1.00  0.00     0.010 C 
HETATM   21  C3  UNL     1       8.176   1.984  -1.458  1.00  0.00     0.010 C 
ENDBRANCH  18  19
ENDBRANCH  15  18
ENDBRANCH  12  14
ENDBRANCH  11  12
ENDBRANCH   1  11
BRANCH   8  22
HETATM   22  C11 UNL     1      -2.240   0.304   0.553  1.00  0.00     0.142 C 
BRANCH  22  23
HETATM   23  C12 UNL     1      -3.227  -0.720   0.159  1.00  0.00     0.027 C 
HETATM   24  C13 UNL     1      -3.838  -0.723  -1.168  1.00  0.00     0.009 C 
HETATM   25  C14 UNL     1      -5.032   0.131  -1.297  1.00  0.00     0.009 C 
HETATM   26  C15 UNL     1      -5.761   0.570  -0.105  1.00  0.00    -0.046 C 
HETATM   27  C16 UNL     1      -5.622   2.101  -0.011  1.00  0.00     0.015 C 
HETATM   28  C17 UNL     1      -7.269   0.371  -0.359  1.00  0.00     0.015 C 
HETATM   29  C18 UNL     1      -5.402  -0.007   1.205  1.00  0.00     0.034 C 
HETATM   30  C19 UNL     1      -4.276  -0.979   1.219  1.00  0.00     0.039 C 
HETATM   31  C20 UNL     1      -4.772  -2.395   1.005  1.00  0.00     0.033 C 
HETATM   32 CL1  UNL     1      -3.429  -0.953   2.785  1.00  0.00    -0.119 Cl
ENDBRANCH  22  23
ENDBRANCH   8  22
TORSDOF 7
