REMARK  4 active torsions:
REMARK  status: ('A' for Active; 'I' for Inactive)
REMARK    1  A    between atoms: C4_5  and  N1_6 
REMARK    2  A    between atoms: C9_14  and  C10_15 
REMARK    3  A    between atoms: N3_18  and  C13_19 
REMARK    4  A    between atoms: C13_19  and  C14_20 
ROOT
HETATM    1 CL1  UNL     1       1.144  -3.712  -1.770  1.00  0.00    -0.082 Cl
HETATM    2  C1  UNL     1      -0.079  -2.540  -1.340  1.00  0.00     0.061 A 
HETATM    3  C2  UNL     1      -1.399  -2.983  -1.513  1.00  0.00     0.030 A 
HETATM    4  C3  UNL     1      -2.412  -2.150  -1.144  1.00  0.00     0.051 A 
HETATM    5  C4  UNL     1      -2.159  -0.910  -0.618  1.00  0.00     0.113 A 
HETATM    6  N2  UNL     1      -0.884  -0.553  -0.484  1.00  0.00    -0.340 N 
ATOM      7  H2  UNL     1      -0.691   0.370  -0.094  1.00  0.00     0.167 HD
HETATM    8  C9  UNL     1       0.176  -1.321  -0.826  1.00  0.00     0.062 A 
ENDROOT
BRANCH   8   9
HETATM    9  C10 UNL     1       1.521  -0.729  -0.671  1.00  0.00    -0.024 C 
HETATM   10  C11 UNL     1       2.629  -1.151  -1.177  1.00  0.00     0.027 C 
HETATM   11  C12 UNL     1       3.930  -0.498  -0.964  1.00  0.00     0.090 C 
HETATM   12  N3  UNL     1       3.985   0.483   0.010  1.00  0.00    -0.368 N 
HETATM   13  C15 UNL     1       2.824   1.171   0.370  1.00  0.00     0.068 C 
HETATM   14  C16 UNL     1       1.546   0.489   0.203  1.00  0.00     0.085 C 
BRANCH  12  15
HETATM   15  C13 UNL     1       5.122   0.548   0.845  1.00  0.00     0.159 C 
BRANCH  15  16
HETATM   16  C14 UNL     1       6.311   0.990  -0.013  1.00  0.00     0.172 C 
HETATM   17 CL2  UNL     1       7.785   1.100   0.958  1.00  0.00    -0.111 Cl
HETATM   18 BR1  UNL     1       5.976   2.688  -0.840  1.00  0.00    -0.073 Br
ENDBRANCH  15  16
ENDBRANCH  12  15
ENDBRANCH   8   9
BRANCH   5  19
HETATM   19  N1  UNL     1      -3.218  -0.059  -0.227  1.00  0.00    -0.307 N 
HETATM   20  C5  UNL     1      -4.604  -0.418  -0.121  1.00  0.00     0.138 C 
HETATM   21  C6  UNL     1      -5.107   0.103   1.209  1.00  0.00     0.022 C 
HETATM   22  C7  UNL     1      -5.368   1.560   1.261  1.00  0.00     0.013 C 
HETATM   23  C8  UNL     1      -4.497   2.405   0.365  1.00  0.00     0.098 C 
HETATM   24  S1  UNL     1      -2.845   1.621   0.167  1.00  0.00    -0.052 SA
ENDBRANCH   5  19
TORSDOF 4
