REMARK  4 active torsions:
REMARK  status: ('A' for Active; 'I' for Inactive)
REMARK       I    between atoms: N2_3  and  C2_5 
REMARK       I    between atoms: C2_5  and  N5_15 
REMARK    1  A    between atoms: N3_6  and  C3_8 
REMARK    2  A    between atoms: C3_8  and  C4_10 
REMARK    3  A    between atoms: C4_10  and  N4_11 
REMARK    4  A    between atoms: N5_15  and  C5_17 
ROOT
HETATM    1  N1  UNL     1       1.186  -2.891  -3.011  1.00  0.00    -0.171 NA
HETATM    2  C1  UNL     1       1.178  -2.681  -1.876  1.00  0.00     0.196 C 
HETATM    3  N2  UNL     1       1.157  -2.437  -0.507  1.00  0.00    -0.126 N 
ATOM      4  H2  UNL     1       1.058  -3.202   0.160  1.00  0.00     0.197 HD
HETATM    5  C2  UNL     1       1.279  -1.075  -0.057  1.00  0.00     0.688 C 
HETATM    6  N3  UNL     1       2.229  -0.857   0.785  1.00  0.00    -0.183 N 
ATOM      7  H3  UNL     1       2.837  -1.615   1.094  1.00  0.00     0.185 HD
HETATM    8  N5  UNL     1       0.422  -0.052  -0.504  1.00  0.00    -0.221 N 
ATOM      9  H5  UNL     1       0.775   0.899  -0.609  1.00  0.00     0.178 HD
ENDROOT
BRANCH   6  10
HETATM   10  C3  UNL     1       2.409   0.467   1.273  1.00  0.00     0.119 C 
HETATM   11  S1  UNL     1       1.535   1.009   2.528  1.00  0.00    -0.063 SA
BRANCH  10  12
HETATM   12  C4  UNL     1       3.393   1.337   0.629  1.00  0.00     0.299 C 
BRANCH  12  13
HETATM   13  N4  UNL     1       4.728   0.771   0.704  1.00  0.00    -0.073 N 
ATOM     14  H43 UNL     1       4.990   0.558   1.666  1.00  0.00     0.274 HD
ATOM     15  H42 UNL     1       4.756  -0.174   0.320  1.00  0.00     0.274 HD
ATOM     16  H41 UNL     1       5.414   1.378   0.255  1.00  0.00     0.274 HD
ENDBRANCH  12  13
ENDBRANCH  10  12
ENDBRANCH   6  10
BRANCH   8  17
HETATM   17  C5  UNL     1      -0.951  -0.347  -0.812  1.00  0.00     0.099 C 
HETATM   18  C6  UNL     1      -1.706   0.870  -1.292  1.00  0.00     0.026 C 
HETATM   19  C7  UNL     1      -3.148   0.725  -0.795  1.00  0.00     0.002 C 
HETATM   20  C8  UNL     1      -3.096   1.000   0.694  1.00  0.00     0.000 C 
HETATM   21  C9  UNL     1      -2.266  -0.078   1.325  1.00  0.00     0.002 C 
HETATM   22  C10 UNL     1      -1.581  -0.998   0.374  1.00  0.00     0.026 C 
ENDBRANCH   8  17
TORSDOF 4
