REMARK  4 active torsions:
REMARK  status: ('A' for Active; 'I' for Inactive)
REMARK    1  A    between atoms: C5_5  and  C6_6 
REMARK    2  A    between atoms: C6_6  and  O1_7 
REMARK       I    between atoms: N1_9  and  C7_10 
REMARK       I    between atoms: C7_10  and  N3_14 
REMARK    3  A    between atoms: N3_14  and  C8_16 
REMARK    4  A    between atoms: C8_16  and  C10_20 
ROOT
HETATM    1  C1  UNL     1      -4.067   2.202   1.453  1.00  0.00     0.014 C 
HETATM    2  C2  UNL     1      -3.362   1.777   0.565  1.00  0.00    -0.091 C 
HETATM    3  C3  UNL     1      -2.510   1.262  -0.497  1.00  0.00     0.183 C 
HETATM    4  C4  UNL     1      -3.323   0.424  -1.461  1.00  0.00     0.067 C 
HETATM    5  C5  UNL     1      -3.097  -0.649  -0.397  1.00  0.00     0.130 C 
HETATM    6  N1  UNL     1      -1.852   0.012  -0.088  1.00  0.00    -0.196 N 
HETATM    7  C7  UNL     1      -0.557  -0.238   0.377  1.00  0.00     0.676 C 
HETATM    8  N2  UNL     1      -0.367  -0.474   1.644  1.00  0.00    -0.234 N 
ATOM      9  H21 UNL     1       0.578  -0.656   1.983  1.00  0.00     0.174 HD
ATOM     10  H22 UNL     1      -1.152  -0.478   2.296  1.00  0.00     0.174 HD
HETATM   11  N3  UNL     1       0.528  -0.232  -0.524  1.00  0.00    -0.181 N 
ATOM     12  H3  UNL     1       0.560  -0.904  -1.290  1.00  0.00     0.185 HD
ENDROOT
BRANCH   5  13
HETATM   13  C6  UNL     1      -2.977  -2.029  -0.986  1.00  0.00     0.190 C 
BRANCH  13  14
HETATM   14  O1  UNL     1      -2.306  -2.838  -0.079  1.00  0.00    -0.399 OA
ATOM     15  H1  UNL     1      -2.230  -3.709  -0.451  1.00  0.00     0.209 HD
ENDBRANCH  13  14
ENDBRANCH   5  13
BRANCH  11  16
HETATM   16  C8  UNL     1       1.566   0.704  -0.363  1.00  0.00     0.097 C 
HETATM   17  N4  UNL     1       1.317   1.936  -0.639  1.00  0.00    -0.383 N 
HETATM   18  C9  UNL     1       2.283   3.005  -0.520  1.00  0.00     0.147 C 
ATOM     19  H4  UNL     1       0.379   2.173  -0.962  1.00  0.00     0.160 HD
BRANCH  16  20
HETATM   20  C10 UNL     1       2.880   0.250   0.109  1.00  0.00     0.058 A 
HETATM   21  C11 UNL     1       3.677  -0.752  -0.623  1.00  0.00     0.017 A 
HETATM   22  C12 UNL     1       2.937  -1.183   0.586  1.00  0.00    -0.007 A 
HETATM   23  C13 UNL     1       3.616  -1.408   1.895  1.00  0.00     0.011 C 
ENDBRANCH  16  20
ENDBRANCH  11  16
TORSDOF 4
