REMARK  11 active torsions:
REMARK  status: ('A' for Active; 'I' for Inactive)
REMARK    1  A    between atoms: C2_2  and  N1_3 
REMARK    2  A    between atoms: N1_3  and  C3_4 
REMARK    3  A    between atoms: N1_3  and  C5_6 
REMARK    4  A    between atoms: C5_6  and  O1_7 
REMARK    5  A    between atoms: C5_6  and  N2_9 
REMARK    6  A    between atoms: C6_10  and  C7_11 
REMARK    7  A    between atoms: C7_11  and  C8_12 
REMARK    8  A    between atoms: C11_17  and  C12_18 
REMARK    9  A    between atoms: C12_18  and  O4_19 
REMARK   10  A    between atoms: C12_18  and  N3_21 
REMARK   11  A    between atoms: N3_21  and  C13_23 
ROOT
HETATM    1  N2  UNL     1      -1.833   0.172  -1.083  1.00  0.00    -0.330 N 
HETATM    2  C6  UNL     1      -2.386   1.445  -1.263  1.00  0.00     0.098 C 
HETATM    3  C9  UNL     1      -2.244   1.739  -2.769  1.00  0.00     0.028 C 
HETATM    4  C10 UNL     1      -1.035   0.972  -3.143  1.00  0.00     0.036 C 
HETATM    5  C11 UNL     1      -0.904  -0.144  -2.184  1.00  0.00     0.162 C 
ENDROOT
BRANCH   5   6
HETATM    6  C12 UNL     1       0.472  -0.382  -1.800  1.00  0.00     0.135 C 
BRANCH   6   7
HETATM    7  O4  UNL     1       1.233  -0.766  -2.791  1.00  0.00    -0.348 OA
ATOM      8  H4  UNL     1       2.136  -0.922  -2.539  1.00  0.00     0.219 HD
ENDBRANCH   6   7
BRANCH   6   9
HETATM    9  N3  UNL     1       1.116  -0.275  -0.571  1.00  0.00    -0.368 N 
ATOM     10  H3  UNL     1       0.567   0.027   0.234  1.00  0.00     0.161 HD
BRANCH   9  11
HETATM   11  C13 UNL     1       2.528  -0.569  -0.368  1.00  0.00     0.083 C 
HETATM   12  C14 UNL     1       3.268   0.669   0.073  1.00  0.00     0.025 C 
HETATM   13  C15 UNL     1       4.759   0.431  -0.087  1.00  0.00     0.002 C 
HETATM   14  C16 UNL     1       5.105  -1.006   0.162  1.00  0.00     0.004 C 
HETATM   15  C17 UNL     1       4.147  -1.679   1.115  1.00  0.00    -0.017 C 
HETATM   16  C18 UNL     1       4.332  -1.081   2.492  1.00  0.00     0.010 C 
HETATM   17  C19 UNL     1       2.724  -1.643   0.661  1.00  0.00     0.029 C 
ENDBRANCH   9  11
ENDBRANCH   6   9
ENDBRANCH   5   6
BRANCH   1  18
HETATM   18  C5  UNL     1      -2.084  -0.830  -0.111  1.00  0.00     0.218 C 
BRANCH  18  19
HETATM   19  N1  UNL     1      -2.974  -0.918   0.951  1.00  0.00    -0.348 N 
BRANCH  19  20
HETATM   20  C2  UNL     1      -3.987   0.010   1.357  1.00  0.00     0.122 C 
HETATM   21  C1  UNL     1      -5.301  -0.335   0.657  1.00  0.00     0.026 C 
ENDBRANCH  19  20
BRANCH  19  22
HETATM   22  C3  UNL     1      -2.850  -2.155   1.779  1.00  0.00     0.122 C 
HETATM   23  C4  UNL     1      -1.889  -1.962   2.899  1.00  0.00     0.026 C 
ENDBRANCH  19  22
ENDBRANCH  18  19
BRANCH  18  24
HETATM   24  O1  UNL     1      -1.328  -1.912  -0.225  1.00  0.00    -0.332 OA
ATOM     25  H1  UNL     1      -0.719  -1.852  -0.952  1.00  0.00     0.220 HD
ENDBRANCH  18  24
ENDBRANCH   1  18
BRANCH   2  26
HETATM   26  C7  UNL     1      -1.932   2.648  -0.563  1.00  0.00     0.138 C 
BRANCH  26  27
HETATM   27  C8  UNL     1      -0.592   3.161  -0.691  1.00  0.00     0.174 C 
HETATM   28  O2  UNL     1       0.347   2.939   0.101  1.00  0.00    -0.648 OA
HETATM   29  O3  UNL     1      -0.271   3.989  -1.785  1.00  0.00    -0.648 OA
ENDBRANCH  26  27
ENDBRANCH   2  26
TORSDOF 11
