REMARK  10 active torsions:
REMARK  status: ('A' for Active; 'I' for Inactive)
REMARK    1  A    between atoms: C4_5  and  N2_7 
REMARK    2  A    between atoms: N2_7  and  N3_9 
REMARK    3  A    between atoms: C7_11  and  C8_12 
REMARK    4  A    between atoms: C8_12  and  N4_13 
REMARK    5  A    between atoms: C8_12  and  C10_19 
REMARK    6  A    between atoms: C10_19  and  C11_20 
REMARK    7  A    between atoms: C11_20  and  C12_21 
REMARK    8  A    between atoms: C12_21  and  C13_22 
REMARK    9  A    between atoms: C13_22  and  N6_23 
REMARK   10  A    between atoms: C13_22  and  N7_27 
ROOT
HETATM    1  C8  UNL     1       1.141  -0.907  -0.421  1.00  0.00     0.243 C 
HETATM    2  C9  UNL     1       0.723   0.153  -1.320  1.00  0.00     0.104 C 
HETATM    3  N5  UNL     1       0.407   0.999  -2.047  1.00  0.00    -0.194 NA
ENDROOT
BRANCH   1   4
HETATM    4  C7  UNL     1      -0.004  -1.847  -0.182  1.00  0.00     0.128 C 
HETATM    5  N3  UNL     1      -1.065  -1.604   0.425  1.00  0.00    -0.330 N 
ATOM      6  H3  UNL     1      -1.720  -2.384   0.479  1.00  0.00     0.179 HD
BRANCH   5   7
HETATM    7  N2  UNL     1      -1.486  -0.451   1.030  1.00  0.00    -0.224 NA
HETATM    8  C6  UNL     1      -1.263  -0.601   2.470  1.00  0.00     0.137 C 
BRANCH   7   9
HETATM    9  C4  UNL     1      -2.917  -0.237   0.880  1.00  0.00     0.074 C 
HETATM   10  C3  UNL     1      -3.244   1.066   1.580  1.00  0.00     0.060 C 
HETATM   11  C2  UNL     1      -3.430   2.072   0.471  1.00  0.00     0.276 C 
HETATM   12  N1  UNL     1      -3.033   1.419  -0.752  1.00  0.00     0.104 N 
HETATM   13  C1  UNL     1      -3.800   2.002  -1.832  1.00  0.00     0.311 C 
HETATM   14  C14 UNL     1      -3.328   0.042  -0.526  1.00  0.00     0.352 C 
HETATM   15  C15 UNL     1      -4.796  -0.125  -0.600  1.00  0.00     0.097 C 
HETATM   16  N8  UNL     1      -5.948  -0.243  -0.646  1.00  0.00    -0.195 NA
HETATM   17  C5  UNL     1      -3.733  -1.330   1.519  1.00  0.00     0.037 C 
ENDBRANCH   7   9
ENDBRANCH   5   7
ENDBRANCH   1   4
BRANCH   1  18
HETATM   18  N4  UNL     1       1.604  -0.387   0.856  1.00  0.00    -0.052 N 
ATOM     19  H43 UNL     1       0.853   0.045   1.394  1.00  0.00     0.276 HD
ATOM     20  H42 UNL     1       1.842  -1.129   1.514  1.00  0.00     0.276 HD
ATOM     21  H41 UNL     1       2.382   0.252   0.694  1.00  0.00     0.276 HD
ENDBRANCH   1  18
BRANCH   1  22
HETATM   22  C10 UNL     1       2.299  -1.622  -1.054  1.00  0.00     0.060 C 
BRANCH  22  23
HETATM   23  C11 UNL     1       3.434  -0.717  -1.359  1.00  0.00     0.008 C 
BRANCH  23  24
HETATM   24  C12 UNL     1       4.103   0.023  -0.275  1.00  0.00     0.062 C 
BRANCH  24  25
HETATM   25  C13 UNL     1       5.277   0.802  -0.910  1.00  0.00     0.378 C 
BRANCH  25  26
HETATM   26  N6  UNL     1       6.211  -0.099  -1.539  1.00  0.00    -0.051 N 
ATOM     27  H63 UNL     1       6.540  -0.814  -0.890  1.00  0.00     0.276 HD
ATOM     28  H62 UNL     1       5.751  -0.706  -2.217  1.00  0.00     0.276 HD
ATOM     29  H61 UNL     1       6.986   0.415  -1.958  1.00  0.00     0.276 HD
ENDBRANCH  25  26
BRANCH  25  30
HETATM   30  N7  UNL     1       5.964   1.458   0.186  1.00  0.00    -0.051 N 
ATOM     31  H73 UNL     1       5.353   2.040   0.759  1.00  0.00     0.276 HD
ATOM     32  H72 UNL     1       6.254   0.818   0.925  1.00  0.00     0.276 HD
ATOM     33  H71 UNL     1       6.739   1.972  -0.233  1.00  0.00     0.276 HD
ENDBRANCH  25  30
ENDBRANCH  24  25
ENDBRANCH  23  24
ENDBRANCH  22  23
ENDBRANCH   1  22
TORSDOF 10
