REMARK  6 active torsions:
REMARK  status: ('A' for Active; 'I' for Inactive)
REMARK    1  A    between atoms: C1_2  and  C2_3 
REMARK       I    between atoms: C1_2  and  N1_7 
REMARK    2  A    between atoms: C2_3  and  C3_4 
REMARK    3  A    between atoms: N1_7  and  C5_9 
REMARK    4  A    between atoms: C5_9  and  C6_10 
REMARK       I    between atoms: C6_10  and  N2_12 
REMARK    5  A    between atoms: N2_12  and  C7_14 
REMARK    6  A    between atoms: C7_14  and  C8_15 
ROOT
HETATM    1  C6  UNL     1       0.728  -0.752   0.586  1.00  0.00     0.238 C 
HETATM    2  O2  UNL     1       0.830   0.362   0.062  1.00  0.00    -0.271 OA
HETATM    3  N2  UNL     1      -0.373  -1.142   1.345  1.00  0.00    -0.339 N 
ATOM      4  H2  UNL     1      -0.327  -2.084   1.734  1.00  0.00     0.167 HD
ENDROOT
BRANCH   1   5
HETATM    5  C5  UNL     1       1.851  -1.704   0.379  1.00  0.00     0.225 C 
BRANCH   5   6
HETATM    6  N1  UNL     1       2.904  -1.126  -0.400  1.00  0.00    -0.352 N 
HETATM    7  C1  UNL     1       3.639  -0.005   0.045  1.00  0.00     0.221 C 
HETATM    8  O1  UNL     1       3.390   0.515   1.151  1.00  0.00    -0.273 OA
ATOM      9  H1  UNL     1       3.131  -1.537  -1.306  1.00  0.00     0.162 HD
BRANCH   7  10
HETATM   10  C2  UNL     1       4.707   0.558  -0.798  1.00  0.00     0.130 C 
BRANCH  10  11
HETATM   11  C3  UNL     1       5.366   1.727  -0.172  1.00  0.00    -0.006 C 
HETATM   12  C4  UNL     1       6.666   1.717   0.094  1.00  0.00     0.081 C 
HETATM   13 CL1  UNL     1       7.654   0.312  -0.290  1.00  0.00    -0.097 Cl
ENDBRANCH  10  11
ENDBRANCH   7  10
ENDBRANCH   5   6
ENDBRANCH   1   5
BRANCH   3  14
HETATM   14  C7  UNL     1      -1.533  -0.421   1.647  1.00  0.00     0.068 C 
BRANCH  14  15
HETATM   15  C8  UNL     1      -2.515  -0.034   0.629  1.00  0.00     0.024 C 
HETATM   16  C9  UNL     1      -2.151   0.836  -0.508  1.00  0.00     0.010 C 
HETATM   17  C10 UNL     1      -3.417   1.273  -1.263  1.00  0.00     0.001 C 
HETATM   18  C11 UNL     1      -4.640   0.665  -0.634  1.00  0.00     0.000 C 
HETATM   19  C12 UNL     1      -4.606  -0.794  -0.393  1.00  0.00     0.001 C 
HETATM   20  C13 UNL     1      -3.248  -1.251   0.035  1.00  0.00     0.010 C 
ENDBRANCH  14  15
ENDBRANCH   3  14
TORSDOF 6
