REMARK  5 active torsions:
REMARK  status: ('A' for Active; 'I' for Inactive)
REMARK    1  A    between atoms: N1_4  and  O1_5 
REMARK    2  A    between atoms: C5_9  and  C6_11 
REMARK    3  A    between atoms: C6_11  and  C7_12 
REMARK    4  A    between atoms: C7_12  and  N2_13 
REMARK    5  A    between atoms: N2_13  and  N3_15 
ROOT
HETATM    1  C1  UNL     1      -1.627   1.327   0.139  1.00  0.00     0.043 C 
HETATM    2  C2  UNL     1      -1.060  -0.064   0.177  1.00  0.00     0.086 C 
HETATM    3  C3  UNL     1      -0.590  -0.506   1.531  1.00  0.00     0.043 C 
HETATM    4  N1  UNL     1      -2.062  -1.013  -0.318  1.00  0.00    -0.215 N 
HETATM    5  C4  UNL     1      -0.989  -1.733  -0.904  1.00  0.00     0.270 C 
HETATM    6  O2  UNL     1      -0.861  -2.948  -1.181  1.00  0.00    -0.269 OA
HETATM    7  C5  UNL     1      -0.226  -0.466  -0.994  1.00  0.00     0.148 C 
HETATM    8 CL1  UNL     1      -0.574   0.510  -2.430  1.00  0.00    -0.106 Cl
ENDROOT
BRANCH   7   9
HETATM    9  C6  UNL     1       1.232  -0.644  -0.766  1.00  0.00     0.059 C 
BRANCH   9  10
HETATM   10  C7  UNL     1       1.934   0.602  -0.274  1.00  0.00     0.143 C 
BRANCH  10  11
HETATM   11  N2  UNL     1       3.339   0.244  -0.108  1.00  0.00    -0.323 N 
ATOM     12  H2  UNL     1       3.801  -0.388  -0.762  1.00  0.00     0.181 HD
BRANCH  11  13
HETATM   13  N3  UNL     1       3.953   0.731   0.850  1.00  0.00    -0.254 N 
HETATM   14  N4  UNL     1       4.872   1.320   1.418  1.00  0.00    -0.331 N 
ATOM     15  H42 UNL     1       5.465   1.510   0.610  1.00  0.00     0.178 HD
ATOM     16  H41 UNL     1       5.378   1.721   2.207  1.00  0.00     0.178 HD
ATOM     17  H3  UNL     1       3.328   0.519   1.628  1.00  0.00     0.207 HD
ENDBRANCH  11  13
ENDBRANCH  10  11
ENDBRANCH   9  10
ENDBRANCH   7   9
BRANCH   4  18
HETATM   18  O1  UNL     1      -3.402  -1.116  -0.231  1.00  0.00    -0.284 OA
ATOM     19  H1  UNL     1      -4.051  -1.731  -0.552  1.00  0.00     0.245 HD
ENDBRANCH   4  18
TORSDOF 5
