REMARK  8 active torsions:
REMARK  status: ('A' for Active; 'I' for Inactive)
REMARK    1  A    between atoms: N3_4  and  C2_6 
REMARK    2  A    between atoms: C2_6  and  C3_7 
REMARK    3  A    between atoms: C3_7  and  C4_8 
REMARK    4  A    between atoms: C4_8  and  C5_9 
REMARK    5  A    between atoms: C5_9  and  C6_10 
REMARK    6  A    between atoms: C6_10  and  C7_11 
REMARK    7  A    between atoms: C7_11  and  C8_12 
REMARK       I    between atoms: C8_12  and  N4_14 
REMARK    8  A    between atoms: N4_14  and  C9_16 
ROOT
HETATM    1  C8  UNL     1      -0.726  -0.523  -1.207  1.00  0.00     0.219 C 
HETATM    2  O1  UNL     1      -1.151  -0.692  -2.379  1.00  0.00    -0.274 OA
HETATM    3  N4  UNL     1      -1.580  -0.218  -0.117  1.00  0.00    -0.340 N 
ATOM      4  H4  UNL     1      -1.193  -0.089   0.818  1.00  0.00     0.164 HD
ENDROOT
BRANCH   1   5
HETATM    5  C7  UNL     1       0.759  -0.665  -1.029  1.00  0.00     0.103 C 
BRANCH   5   6
HETATM    6  C6  UNL     1       1.451  -0.985  -2.305  1.00  0.00     0.009 C 
BRANCH   6   7
HETATM    7  C5  UNL     1       2.930  -1.122  -2.059  1.00  0.00     0.001 C 
BRANCH   7   8
HETATM    8  C4  UNL     1       3.554   0.126  -1.514  1.00  0.00     0.002 C 
BRANCH   8   9
HETATM    9  C3  UNL     1       5.055  -0.061  -1.294  1.00  0.00     0.020 C 
BRANCH   9  10
HETATM   10  C2  UNL     1       5.332  -1.174  -0.320  1.00  0.00     0.122 C 
BRANCH  10  11
HETATM   11  N3  UNL     1       4.704  -0.840   0.937  1.00  0.00    -0.367 N 
HETATM   12  C1  UNL     1       5.315  -0.217   1.861  1.00  0.00     0.196 C 
HETATM   13  N1  UNL     1       6.661   0.200   1.731  1.00  0.00    -0.067 NA
HETATM   14  N2  UNL     1       4.653   0.090   3.083  1.00  0.00    -0.067 NA
ATOM     15  H3  UNL     1       3.733  -1.114   1.089  1.00  0.00     0.161 HD
ENDBRANCH  10  11
ENDBRANCH   9  10
ENDBRANCH   8   9
ENDBRANCH   7   8
ENDBRANCH   6   7
ENDBRANCH   5   6
ENDBRANCH   1   5
BRANCH   3  16
HETATM   16  C9  UNL     1      -2.977  -0.093  -0.335  1.00  0.00     0.183 C 
HETATM   17  N5  UNL     1      -3.788  -1.017   0.408  1.00  0.00    -0.396 N 
HETATM   18  C10 UNL     1      -5.077  -0.566   0.767  1.00  0.00     0.086 C 
ATOM     19  H5  UNL     1      -3.452  -1.946   0.662  1.00  0.00     0.155 HD
HETATM   20  C11 UNL     1      -5.736   0.402  -0.142  1.00  0.00     0.009 C 
HETATM   21  C15 UNL     1      -5.039   0.549   1.821  1.00  0.00     0.009 C 
HETATM   22  C12 UNL     1      -4.800   1.421  -0.744  1.00  0.00     0.015 C 
HETATM   23  C16 UNL     1      -6.292   1.091   1.118  1.00  0.00     0.013 C 
HETATM   24  C13 UNL     1      -3.490   1.307   0.036  1.00  0.00     0.029 C 
HETATM   25  C14 UNL     1      -3.836   1.389   1.502  1.00  0.00     0.015 C 
ENDBRANCH   3  16
TORSDOF 8
