REMARK  3 active torsions:
REMARK  status: ('A' for Active; 'I' for Inactive)
REMARK    1  A    between atoms: N1_1  and  C1_5 
REMARK    2  A    between atoms: C5_10  and  O1_11 
REMARK    3  A    between atoms: C5_10  and  C6_13 
ROOT
HETATM    1  C1  UNL     1      -2.666  -0.277   0.467  1.00  0.00     0.185 C 
HETATM    2  C2  UNL     1      -2.478   0.200  -0.941  1.00  0.00     0.034 C 
HETATM    3  C3  UNL     1      -1.075   0.536  -1.291  1.00  0.00     0.022 C 
HETATM    4  C4  UNL     1      -0.230  -0.740  -1.150  1.00  0.00     0.125 C 
HETATM    5  N2  UNL     1       0.175  -0.867   0.189  1.00  0.00    -0.360 N 
HETATM    6  C5  UNL     1       1.307  -0.373   0.761  1.00  0.00     0.174 C 
HETATM    7  C10 UNL     1      -0.660  -1.620   1.194  1.00  0.00     0.127 C 
HETATM    8  C11 UNL     1      -2.069  -1.606   0.757  1.00  0.00     0.052 C 
ENDROOT
BRANCH   6   9
HETATM    9  O1  UNL     1       1.329  -0.718   2.092  1.00  0.00    -0.344 OA
ATOM     10  H1  UNL     1       2.119  -0.373   2.491  1.00  0.00     0.219 HD
ENDBRANCH   6   9
BRANCH   6  11
HETATM   11  C6  UNL     1       2.472   0.384   0.426  1.00  0.00     0.151 A 
HETATM   12  O2  UNL     1       3.379   0.645   1.415  1.00  0.00    -0.291 OA
HETATM   13  C7  UNL     1       4.377   1.321   1.022  1.00  0.00     0.169 A 
HETATM   14 CL1  UNL     1       5.741   1.847   2.001  1.00  0.00    -0.055 Cl
HETATM   15  C8  UNL     1       4.211   1.572  -0.297  1.00  0.00     0.104 A 
HETATM   16 CL2  UNL     1       5.261   2.461  -1.390  1.00  0.00    -0.078 Cl
HETATM   17  C9  UNL     1       2.991   0.965  -0.656  1.00  0.00     0.097 A 
HETATM   18 CL3  UNL     1       2.428   1.070  -2.297  1.00  0.00    -0.079 Cl
ENDBRANCH   6  11
BRANCH   1  19
HETATM   19  N1  UNL     1      -2.280   0.726   1.426  1.00  0.00    -0.075 N 
ATOM     20  H13 UNL     1      -1.324   1.045   1.266  1.00  0.00     0.274 HD
ATOM     21  H12 UNL     1      -2.771   1.605   1.263  1.00  0.00     0.274 HD
ATOM     22  H11 UNL     1      -2.408   0.401   2.384  1.00  0.00     0.274 HD
ENDBRANCH   1  19
TORSDOF 3
