REMARK  3 active torsions:
REMARK  status: ('A' for Active; 'I' for Inactive)
REMARK    1  A    between atoms: N1_2  and  C2_5 
REMARK    2  A    between atoms: C4_10  and  N3_11 
REMARK       I    between atoms: N3_11  and  C5_13 
REMARK       I    between atoms: C5_13  and  N5_17 
REMARK    3  A    between atoms: N5_17  and  C6_19 
ROOT
HETATM    1  C2  UNL     1      -0.823   0.225  -0.131  1.00  0.00     0.261 C 
HETATM    2  C3  UNL     1      -1.906  -0.851  -0.355  1.00  0.00     0.271 C 
HETATM    3  N2  UNL     1      -0.730  -1.757  -0.436  1.00  0.00    -0.050 N 
ATOM      4  H21 UNL     1      -0.217  -1.920  -1.303  1.00  0.00     0.279 HD
ATOM      5  H22 UNL     1      -0.808  -2.771  -0.360  1.00  0.00     0.279 HD
HETATM    6  C4  UNL     1      -0.210  -0.918   0.648  1.00  0.00     0.331 C 
ENDROOT
BRANCH   6   7
HETATM    7  N3  UNL     1       1.182  -0.934   0.869  1.00  0.00    -0.195 N 
HETATM    8  C5  UNL     1       2.128  -0.986  -0.180  1.00  0.00     0.675 C 
HETATM    9  N4  UNL     1       2.188  -2.052  -0.918  1.00  0.00    -0.235 N 
HETATM   10  N5  UNL     1       3.009   0.104  -0.433  1.00  0.00    -0.168 N 
ATOM     11  H42 UNL     1       1.557  -2.833  -0.737  1.00  0.00     0.174 HD
ATOM     12  H41 UNL     1       2.871  -2.090  -1.675  1.00  0.00     0.174 HD
ATOM     13  H5  UNL     1       3.674   0.059  -1.205  1.00  0.00     0.186 HD
ATOM     14  H3  UNL     1       1.522  -0.907   1.830  1.00  0.00     0.180 HD
BRANCH  10  15
HETATM   15  C6  UNL     1       2.955   1.241   0.390  1.00  0.00     0.368 C 
HETATM   16  O1  UNL     1       2.189   1.400   1.361  1.00  0.00    -0.283 OA
ENDBRANCH  10  15
ENDBRANCH   6   7
BRANCH   1  17
HETATM   17  N1  UNL     1      -1.398   1.289   0.647  1.00  0.00    -0.069 N 
HETATM   18  C1  UNL     1      -2.487   1.855  -0.161  1.00  0.00     0.267 C 
ATOM     19  H12 UNL     1      -0.715   1.984   0.948  1.00  0.00     0.277 HD
ATOM     20  H11 UNL     1      -1.696   0.994   1.577  1.00  0.00     0.277 HD
ENDBRANCH   1  17
TORSDOF 3
