REMARK  16 active torsions:
REMARK  status: ('A' for Active; 'I' for Inactive)
REMARK    1  A    between atoms: C2_2  and  C3_3 
REMARK    2  A    between atoms: C3_3  and  C4_4 
REMARK    3  A    between atoms: C4_4  and  C5_5 
REMARK    4  A    between atoms: C8_8  and  O1_9 
REMARK    5  A    between atoms: O1_9  and  C9_10 
REMARK    6  A    between atoms: C9_10  and  C10_11 
REMARK    7  A    between atoms: C10_11  and  S1_12 
REMARK    8  A    between atoms: S1_12  and  C11_13 
REMARK    9  A    between atoms: C11_13  and  C12_14 
REMARK   10  A    between atoms: C12_14  and  N1_15 
REMARK   11  A    between atoms: N1_15  and  C13_18 
REMARK   12  A    between atoms: C13_18  and  C14_19 
REMARK   13  A    between atoms: C14_19  and  C15_20 
REMARK   14  A    between atoms: C15_20  and  N2_21 
REMARK   15  A    between atoms: N2_21  and  C16_24 
REMARK   16  A    between atoms: C16_24  and  C17_25 
ROOT
HETATM    1  C11 UNL     1       1.120  -1.138   0.669  1.00  0.00     0.101 C 
ENDROOT
BRANCH   1   2
HETATM    2  S1  UNL     1      -0.576  -1.764   0.337  1.00  0.00    -0.165 SA
BRANCH   2   3
HETATM    3  C10 UNL     1      -1.261  -0.681  -0.991  1.00  0.00     0.100 C 
BRANCH   3   4
HETATM    4  C9  UNL     1      -1.487   0.651  -0.317  1.00  0.00     0.186 C 
BRANCH   4   5
HETATM    5  O1  UNL     1      -2.409   0.450   0.715  1.00  0.00    -0.350 OA
BRANCH   5   6
HETATM    6  C8  UNL     1      -3.729   0.129   0.451  1.00  0.00     0.068 A 
HETATM    7  C7  UNL     1      -4.291   0.054  -0.800  1.00  0.00     0.037 A 
HETATM    8  C6  UNL     1      -5.617  -0.286  -0.976  1.00  0.00     0.010 A 
HETATM    9  C5  UNL     1      -6.469  -0.572   0.077  1.00  0.00    -0.058 A 
HETATM   10  C21 UNL     1      -5.885  -0.489   1.346  1.00  0.00     0.010 A 
HETATM   11  C20 UNL     1      -4.578  -0.155   1.536  1.00  0.00     0.037 A 
BRANCH   9  12
HETATM   12  C4  UNL     1      -7.869  -0.948  -0.078  1.00  0.00     0.038 C 
BRANCH  12  13
HETATM   13  C3  UNL     1      -8.889   0.088   0.121  1.00  0.00     0.004 C 
BRANCH  13  14
HETATM   14  C2  UNL     1      -8.858   1.255  -0.764  1.00  0.00    -0.004 C 
HETATM   15  C1  UNL     1      -7.709   2.195  -0.691  1.00  0.00     0.005 C 
ENDBRANCH  13  14
ENDBRANCH  12  13
ENDBRANCH   9  12
ENDBRANCH   5   6
ENDBRANCH   4   5
ENDBRANCH   3   4
ENDBRANCH   2   3
ENDBRANCH   1   2
BRANCH   1  16
HETATM   16  C12 UNL     1       1.963  -1.488  -0.516  1.00  0.00     0.242 C 
BRANCH  16  17
HETATM   17  N1  UNL     1       3.333  -1.058  -0.396  1.00  0.00    -0.074 N 
ATOM     18  H12 UNL     1       3.841  -1.135  -1.277  1.00  0.00     0.277 HD
ATOM     19  H11 UNL     1       3.412  -0.049  -0.271  1.00  0.00     0.277 HD
BRANCH  17  20
HETATM   20  C13 UNL     1       3.964  -1.783   0.655  1.00  0.00     0.234 C 
BRANCH  20  21
HETATM   21  C14 UNL     1       5.436  -1.630   0.785  1.00  0.00     0.055 C 
BRANCH  21  22
HETATM   22  C15 UNL     1       5.948  -0.242   0.963  1.00  0.00     0.233 C 
BRANCH  22  23
HETATM   23  N2  UNL     1       7.410  -0.359   1.118  1.00  0.00    -0.075 N 
ATOM     24  H22 UNL     1       7.648  -0.931   1.928  1.00  0.00     0.277 HD
ATOM     25  H21 UNL     1       7.811  -0.941   0.383  1.00  0.00     0.277 HD
BRANCH  23  26
HETATM   26  C16 UNL     1       8.059   0.915   1.178  1.00  0.00     0.237 C 
BRANCH  26  27
HETATM   27  C17 UNL     1       7.986   1.571  -0.193  1.00  0.00     0.011 A 
HETATM   28  C18 UNL     1       8.652   0.759  -1.294  1.00  0.00     0.007 A 
HETATM   29  C19 UNL     1       9.277   2.025  -0.793  1.00  0.00     0.007 A 
ENDBRANCH  26  27
ENDBRANCH  23  26
ENDBRANCH  22  23
ENDBRANCH  21  22
ENDBRANCH  20  21
ENDBRANCH  17  20
ENDBRANCH  16  17
ENDBRANCH   1  16
TORSDOF 16
