REMARK  4 active torsions:
REMARK  status: ('A' for Active; 'I' for Inactive)
REMARK    1  A    between atoms: N1_2  and  C3_4 
REMARK    2  A    between atoms: C3_4  and  C4_5 
REMARK    3  A    between atoms: C5_6  and  C6_7 
REMARK    4  A    between atoms: C6_7  and  N2_8 
ROOT
HETATM    1  N2  UNL     1      -1.286   0.660  -0.407  1.00  0.00    -0.125 N 
HETATM    2  C7  UNL     1      -1.816  -0.645  -0.393  1.00  0.00     0.686 C 
HETATM    3  N3  UNL     1      -1.058  -1.633  -0.470  1.00  0.00    -0.234 N 
ATOM      4  H31 UNL     1      -1.442  -2.578  -0.460  1.00  0.00     0.174 HD
ATOM      5  H32 UNL     1      -0.057  -1.446  -0.531  1.00  0.00     0.174 HD
HETATM    6  N4  UNL     1      -3.246  -0.912  -0.306  1.00  0.00    -0.200 N 
HETATM    7  C8  UNL     1      -3.585  -2.276   0.131  1.00  0.00     0.174 C 
HETATM    8  C9  UNL     1      -4.315  -0.041  -0.600  1.00  0.00     0.101 C 
HETATM    9  C10 UNL     1      -4.452   1.222   0.121  1.00  0.00     0.167 C 
HETATM   10  N5  UNL     1      -3.297   2.014   0.324  1.00  0.00    -0.361 N 
ATOM     11  H5  UNL     1      -3.523   2.909   0.757  1.00  0.00     0.162 HD
HETATM   12  C11 UNL     1      -1.907   1.883   0.080  1.00  0.00     0.194 C 
HETATM   13  S1  UNL     1      -0.923   3.152   0.347  1.00  0.00    -0.040 SA
ENDROOT
BRANCH   1  14
HETATM   14  C6  UNL     1       0.021   0.892  -0.929  1.00  0.00     0.182 C 
BRANCH  14  15
HETATM   15  C5  UNL     1       1.155   0.494  -0.166  1.00  0.00    -0.059 C 
HETATM   16  C4  UNL     1       2.119   0.202   0.463  1.00  0.00    -0.070 C 
BRANCH  16  17
HETATM   17  C3  UNL     1       3.348  -0.126   1.234  1.00  0.00     0.365 C 
BRANCH  17  18
HETATM   18  N1  UNL     1       4.483   0.261   0.426  1.00  0.00     0.090 N 
HETATM   19  C1  UNL     1       4.611  -0.595  -0.731  1.00  0.00     0.310 C 
HETATM   20  C2  UNL     1       5.689   0.140   1.213  1.00  0.00     0.310 C 
ENDBRANCH  17  18
ENDBRANCH  16  17
ENDBRANCH  14  15
ENDBRANCH   1  14
TORSDOF 4
