REMARK  15 active torsions:
REMARK  status: ('A' for Active; 'I' for Inactive)
REMARK    1  A    between atoms: N2_9  and  C7_11 
REMARK    2  A    between atoms: C7_11  and  C8_12 
REMARK    3  A    between atoms: C8_12  and  C9_13 
REMARK    4  A    between atoms: C9_13  and  C10_14 
REMARK    5  A    between atoms: C10_14  and  N3_15 
REMARK    6  A    between atoms: N3_15  and  C11_16 
REMARK    7  A    between atoms: C11_16  and  C12_17 
REMARK    8  A    between atoms: C12_17  and  N4_18 
REMARK       I    between atoms: C13_20  and  N6_22 
REMARK    9  A    between atoms: N6_22  and  C14_24 
REMARK   10  A    between atoms: C14_24  and  C15_25 
REMARK   11  A    between atoms: C15_25  and  C16_26 
REMARK   12  A    between atoms: C16_26  and  C17_27 
REMARK   13  A    between atoms: C17_27  and  C18_28 
REMARK   14  A    between atoms: C18_28  and  C19_29 
REMARK   15  A    between atoms: C19_29  and  N7_30 
ROOT
HETATM    1  N3  UNL     1      -1.870  -0.866  -0.453  1.00  0.00    -0.062 N 
HETATM    2  C21 UNL     1      -1.351  -1.668  -1.565  1.00  0.00     0.238 C 
HETATM    3  C22 UNL     1      -1.558  -1.032  -2.895  1.00  0.00     0.028 C 
HETATM    4  C23 UNL     1      -3.050  -0.828  -3.053  1.00  0.00     0.004 C 
HETATM    5  C24 UNL     1      -3.415   0.241  -2.051  1.00  0.00     0.033 C 
HETATM    6  C25 UNL     1      -2.423   0.344  -0.908  1.00  0.00     0.186 C 
HETATM    7  C26 UNL     1      -2.932   1.250   0.174  1.00  0.00     0.040 C 
ENDROOT
BRANCH   1   8
HETATM    8  C10 UNL     1      -2.683  -1.713   0.362  1.00  0.00     0.238 C 
BRANCH   8   9
HETATM    9  C9  UNL     1      -2.905  -1.458   1.778  1.00  0.00     0.030 C 
BRANCH   9  10
HETATM   10  C8  UNL     1      -3.789  -2.505   2.432  1.00  0.00     0.021 C 
BRANCH  10  11
HETATM   11  C7  UNL     1      -5.159  -2.612   1.795  1.00  0.00     0.121 C 
BRANCH  11  12
HETATM   12  N2  UNL     1      -5.908  -1.402   1.824  1.00  0.00    -0.376 N 
HETATM   13  C6  UNL     1      -6.622  -0.882   0.922  1.00  0.00     0.103 A 
HETATM   14  C5  UNL     1      -6.827  -1.473  -0.418  1.00  0.00     0.065 A 
HETATM   15  N10 UNL     1      -7.294   0.346   1.146  1.00  0.00    -0.329 N 
HETATM   16  C4  UNL     1      -7.583  -0.883  -1.320  1.00  0.00     0.093 A 
HETATM   17  N1  UNL     1      -8.255   0.337  -1.111  1.00  0.00    -0.352 N 
HETATM   18  C3  UNL     1      -8.115   0.979   0.153  1.00  0.00     0.102 A 
ATOM     19  H1  UNL     1      -8.828   0.751  -1.847  1.00  0.00     0.166 HD
HETATM   20  C2  UNL     1      -8.728   2.117   0.375  1.00  0.00     0.017 C 
HETATM   21  C1  UNL     1      -9.560   2.747  -0.657  1.00  0.00     0.040 C 
ATOM     22  H10 UNL     1      -7.189   0.800   2.053  1.00  0.00     0.169 HD
ATOM     23  H2  UNL     1      -5.861  -0.880   2.699  1.00  0.00     0.161 HD
ENDBRANCH  11  12
ENDBRANCH  10  11
ENDBRANCH   9  10
ENDBRANCH   8   9
ENDBRANCH   1   8
BRANCH   1  24
HETATM   24  C11 UNL     1      -0.699  -0.592   0.355  1.00  0.00     0.257 C 
BRANCH  24  25
HETATM   25  C12 UNL     1       0.424   0.120  -0.276  1.00  0.00     0.150 C 
BRANCH  25  26
HETATM   26  N4  UNL     1       1.503   0.256   0.687  1.00  0.00    -0.363 N 
HETATM   27  C13 UNL     1       2.710   0.193   0.274  1.00  0.00     0.184 C 
HETATM   28  N5  UNL     1       2.933  -0.013  -1.138  1.00  0.00    -0.064 NA
HETATM   29  N6  UNL     1       3.868   0.308   1.105  1.00  0.00    -0.365 N 
ATOM     30  H6  UNL     1       4.306  -0.551   1.437  1.00  0.00     0.162 HD
ATOM     31  H4  UNL     1       1.300   0.399   1.676  1.00  0.00     0.162 HD
BRANCH  29  32
HETATM   32  C14 UNL     1       4.444   1.542   1.495  1.00  0.00     0.122 C 
BRANCH  32  33
HETATM   33  C15 UNL     1       5.761   1.502   2.171  1.00  0.00     0.020 C 
BRANCH  33  34
HETATM   34  C16 UNL     1       6.941   1.050   1.379  1.00  0.00     0.002 C 
BRANCH  34  35
HETATM   35  C17 UNL     1       6.844  -0.307   0.841  1.00  0.00     0.002 C 
BRANCH  35  36
HETATM   36  C18 UNL     1       8.060  -0.845   0.124  1.00  0.00     0.020 C 
BRANCH  36  37
HETATM   37  C19 UNL     1       8.523  -0.137  -1.077  1.00  0.00     0.122 C 
BRANCH  37  38
HETATM   38  N7  UNL     1       8.936   1.220  -0.918  1.00  0.00    -0.367 N 
HETATM   39  C20 UNL     1      10.154   1.550  -0.593  1.00  0.00     0.196 C 
HETATM   40  N8  UNL     1      10.519   2.917  -0.447  1.00  0.00    -0.067 NA
HETATM   41  N9  UNL     1      11.081   0.501  -0.394  1.00  0.00    -0.067 NA
ATOM     42  H7  UNL     1       8.250   1.961  -1.065  1.00  0.00     0.161 HD
ENDBRANCH  37  38
ENDBRANCH  36  37
ENDBRANCH  35  36
ENDBRANCH  34  35
ENDBRANCH  33  34
ENDBRANCH  32  33
ENDBRANCH  29  32
ENDBRANCH  25  26
ENDBRANCH  24  25
ENDBRANCH   1  24
TORSDOF 15
