REMARK  7 active torsions:
REMARK  status: ('A' for Active; 'I' for Inactive)
REMARK    1  A    between atoms: C2_2  and  C6_16 
REMARK    2  A    between atoms: N1_3  and  C3_5 
REMARK    3  A    between atoms: C4_6  and  O1_7 
REMARK    4  A    between atoms: N3_13  and  O3_14 
REMARK    5  A    between atoms: C7_17  and  N4_18 
REMARK    6  A    between atoms: N4_18  and  N5_20 
REMARK    7  A    between atoms: N5_20  and  C8_21 
ROOT
HETATM    1  C6  UNL     1      -1.130   1.490  -0.058  1.00  0.00     0.099 A 
HETATM    2  C7  UNL     1       0.201   1.790  -0.061  1.00  0.00     0.139 A 
HETATM    3  N6  UNL     1       0.637   3.081  -0.237  1.00  0.00    -0.313 N 
HETATM    4  C11 UNL     1       2.045   3.315  -0.233  1.00  0.00     0.160 C 
HETATM    5  C12 UNL     1      -0.268   4.061  -0.410  1.00  0.00     0.182 A 
HETATM    6  S3  UNL     1       0.325   5.591  -0.619  1.00  0.00    -0.040 SA
HETATM    7  N7  UNL     1      -1.589   3.822  -0.416  1.00  0.00    -0.299 N 
ATOM      8  H7  UNL     1      -2.256   4.582  -0.549  1.00  0.00     0.171 HD
HETATM    9  C13 UNL     1      -2.007   2.575  -0.245  1.00  0.00     0.263 A 
HETATM   10  O4  UNL     1      -3.250   2.372  -0.255  1.00  0.00    -0.267 OA
ENDROOT
BRANCH   1  11
HETATM   11  C2  UNL     1      -1.655   0.152   0.113  1.00  0.00     0.026 C 
HETATM   12  C1  UNL     1      -0.923  -1.089   0.289  1.00  0.00     0.069 C 
HETATM   13  N1  UNL     1      -2.972   0.064   0.092  1.00  0.00    -0.340 N 
ATOM     14  H1  UNL     1      -3.501   0.927  -0.032  1.00  0.00     0.167 HD
BRANCH  13  15
HETATM   15  C3  UNL     1      -3.698  -1.129   0.227  1.00  0.00     0.190 A 
HETATM   16  C4  UNL     1      -3.975  -1.845   1.358  1.00  0.00     0.192 A 
HETATM   17  N2  UNL     1      -4.701  -2.910   1.002  1.00  0.00    -0.284 N 
HETATM   18  C5  UNL     1      -4.871  -2.856  -0.329  1.00  0.00     0.354 A 
ATOM     19  H2  UNL     1      -5.060  -3.632   1.627  1.00  0.00     0.172 HD
HETATM   20  O2  UNL     1      -5.516  -3.709  -1.025  1.00  0.00    -0.244 OA
HETATM   21  N3  UNL     1      -4.260  -1.768  -0.812  1.00  0.00    -0.151 N 
BRANCH  16  22
HETATM   22  O1  UNL     1      -3.594  -1.556   2.654  1.00  0.00    -0.343 OA
ATOM     23  H1  UNL     1      -3.787  -2.054   3.440  1.00  0.00     0.219 HD
ENDBRANCH  16  22
BRANCH  21  24
HETATM   24  O3  UNL     1      -4.212  -1.365  -2.150  1.00  0.00    -0.277 OA
ATOM     25  H3  UNL     1      -4.610  -1.817  -2.885  1.00  0.00     0.245 HD
ENDBRANCH  21  24
ENDBRANCH  13  15
ENDBRANCH   1  11
BRANCH   2  26
HETATM   26  N4  UNL     1       1.185   0.824   0.107  1.00  0.00    -0.286 N 
ATOM     27  H4  UNL     1       1.196   0.316   0.991  1.00  0.00     0.184 HD
BRANCH  26  28
HETATM   28  N5  UNL     1       2.175   0.486  -0.849  1.00  0.00    -0.113 NA
BRANCH  28  29
HETATM   29  C8  UNL     1       3.384   0.020  -0.244  1.00  0.00     0.222 C 
HETATM   30  S1  UNL     1       3.194  -1.464   0.768  1.00  0.00    -0.135 SA
HETATM   31  C9  UNL     1       4.410  -2.630   0.204  1.00  0.00     0.086 C 
HETATM   32  C10 UNL     1       5.315  -2.019  -0.801  1.00  0.00     0.086 C 
HETATM   33  S2  UNL     1       4.471  -0.624  -1.564  1.00  0.00    -0.135 SA
ENDBRANCH  28  29
ENDBRANCH  26  28
ENDBRANCH   2  26
TORSDOF 7
