REMARK  8 active torsions:
REMARK  status: ('A' for Active; 'I' for Inactive)
REMARK    1  A    between atoms: C2_2  and  O1_3 
REMARK    2  A    between atoms: O1_3  and  C3_4 
REMARK    3  A    between atoms: C3_4  and  C4_5 
REMARK    4  A    between atoms: C3_4  and  C17_28 
REMARK    5  A    between atoms: C9_10  and  O2_11 
REMARK    6  A    between atoms: C10_13  and  O3_14 
REMARK    7  A    between atoms: C11_18  and  O4_19 
REMARK    8  A    between atoms: O4_19  and  C12_20 
ROOT
HETATM    1  C4  UNL     1      -0.994  -0.065  -0.142  1.00  0.00     0.016 A 
HETATM    2  C5  UNL     1       0.001   0.449   0.664  1.00  0.00    -0.034 A 
HETATM    3  C6  UNL     1      -0.389   1.312   1.756  1.00  0.00     0.050 C 
HETATM    4  C7  UNL     1       1.344   0.235   0.462  1.00  0.00     0.047 A 
HETATM    5  C8  UNL     1       1.759  -0.535  -0.605  1.00  0.00     0.081 A 
HETATM    6  C9  UNL     1       0.824  -1.073  -1.440  1.00  0.00     0.127 A 
HETATM    7  C10 UNL     1      -0.524  -0.844  -1.216  1.00  0.00     0.110 A 
HETATM    8  N1  UNL     1       3.172  -0.693  -0.756  1.00  0.00    -0.359 N 
ATOM      9  H1  UNL     1       3.561  -1.579  -1.079  1.00  0.00     0.162 HD
HETATM   10  C11 UNL     1       4.036   0.410  -0.448  1.00  0.00     0.256 C 
HETATM   11  C14 UNL     1       3.704   1.085   0.837  1.00  0.00     0.216 C 
HETATM   12  C15 UNL     1       4.659   0.520   1.843  1.00  0.00     0.076 C 
HETATM   13  N2  UNL     1       5.406   0.102   2.618  1.00  0.00    -0.196 NA
HETATM   14  C16 UNL     1       2.370   0.748   1.333  1.00  0.00     0.184 C 
HETATM   15  O6  UNL     1       2.046   0.889   2.561  1.00  0.00    -0.291 OA
ENDROOT
BRANCH  10  16
HETATM   16  O4  UNL     1       5.363  -0.115  -0.448  1.00  0.00    -0.294 OA
BRANCH  16  17
HETATM   17  C12 UNL     1       6.326   0.310  -1.348  1.00  0.00     0.256 C 
HETATM   18  C13 UNL     1       7.725  -0.224  -1.364  1.00  0.00     0.126 C 
HETATM   19  O5  UNL     1       6.028   1.173  -2.184  1.00  0.00    -0.266 OA
ENDBRANCH  16  17
ENDBRANCH  10  16
BRANCH   6  20
HETATM   20  O2  UNL     1       1.269  -1.852  -2.516  1.00  0.00    -0.356 OA
ATOM     21  H2  UNL     1       0.618  -2.227  -3.097  1.00  0.00     0.218 HD
ENDBRANCH   6  20
BRANCH   1  22
HETATM   22  C3  UNL     1      -2.402   0.023  -0.001  1.00  0.00     0.196 C 
BRANCH  22  23
HETATM   23  O1  UNL     1      -2.793  -0.913   0.967  1.00  0.00    -0.379 OA
BRANCH  23  24
HETATM   24  C2  UNL     1      -3.423  -0.589   2.075  1.00  0.00     0.164 C 
HETATM   25  C1  UNL     1      -3.784  -1.827   2.936  1.00  0.00     0.033 C 
ENDBRANCH  23  24
ENDBRANCH  22  23
BRANCH  22  26
HETATM   26  C17 UNL     1      -3.356  -0.093  -1.109  1.00  0.00     0.288 C 
HETATM   27  N3  UNL     1      -4.697   0.227  -0.529  1.00  0.00    -0.061 N 
HETATM   28  C18 UNL     1      -5.501   0.604  -1.661  1.00  0.00     0.240 C 
ATOM     29  H32 UNL     1      -5.097  -0.524   0.033  1.00  0.00     0.278 HD
ATOM     30  H31 UNL     1      -4.673   0.925   0.214  1.00  0.00     0.278 HD
HETATM   31  C19 UNL     1      -4.614   1.032  -2.777  1.00  0.00     0.108 C 
HETATM   32  C20 UNL     1      -3.275   0.998  -2.124  1.00  0.00     0.162 C 
HETATM   33  O7  UNL     1      -2.321   1.739  -2.398  1.00  0.00    -0.296 OA
ENDBRANCH  22  26
ENDBRANCH   1  22
BRANCH   7  34
HETATM   34  O3  UNL     1      -1.371  -1.447  -2.132  1.00  0.00    -0.357 OA
ATOM     35  H3  UNL     1      -1.054  -1.973  -2.857  1.00  0.00     0.217 HD
ENDBRANCH   7  34
TORSDOF 8
