REMARK  7 active torsions:
REMARK  status: ('A' for Active; 'I' for Inactive)
REMARK    1  A    between atoms: S1_2  and  C2_3 
REMARK    2  A    between atoms: C2_3  and  O2_5 
REMARK    3  A    between atoms: O2_5  and  C3_6 
REMARK    4  A    between atoms: C5_8  and  C6_9 
REMARK    5  A    between atoms: C7_12  and  N1_13 
REMARK       I    between atoms: N1_13  and  C8_15 
REMARK    6  A    between atoms: C8_15  and  C9_17 
REMARK       I    between atoms: C9_17  and  N2_19 
REMARK    7  A    between atoms: N2_19  and  C10_21 
ROOT
HETATM    1  N1  UNL     1       1.062  -0.858   0.593  1.00  0.00    -0.345 N 
ATOM      2  H1  UNL     1       0.798  -1.836   0.712  1.00  0.00     0.163 HD
HETATM    3  C8  UNL     1       0.027   0.074   0.269  1.00  0.00     0.309 C 
HETATM    4  O5  UNL     1       0.252   1.296   0.105  1.00  0.00    -0.262 OA
ENDROOT
BRANCH   1   5
HETATM    5  C7  UNL     1       2.428  -0.521   0.761  1.00  0.00     0.129 C 
HETATM    6  C3  UNL     1       3.428  -1.388   0.022  1.00  0.00     0.157 C 
HETATM    7  C4  UNL     1       3.763  -2.062   1.340  1.00  0.00     0.052 C 
HETATM    8  C5  UNL     1       3.101  -0.914   2.043  1.00  0.00     0.114 C 
BRANCH   6   9
HETATM    9  O2  UNL     1       4.476  -0.589  -0.500  1.00  0.00    -0.305 OA
BRANCH   9  10
HETATM   10  C2  UNL     1       4.892  -0.666  -1.817  1.00  0.00     0.322 C 
HETATM   11  O1  UNL     1       4.294  -1.489  -2.555  1.00  0.00    -0.252 OA
BRANCH  10  12
HETATM   12  S1  UNL     1       6.217   0.351  -2.463  1.00  0.00    -0.066 SA
HETATM   13  C1  UNL     1       6.891   1.436  -1.190  1.00  0.00     0.101 C 
ENDBRANCH  10  12
ENDBRANCH   9  10
ENDBRANCH   6   9
BRANCH   8  14
HETATM   14  C6  UNL     1       4.128   0.058   2.512  1.00  0.00     0.179 C 
HETATM   15  O3  UNL     1       5.349  -0.090   2.331  1.00  0.00    -0.648 OA
HETATM   16  O4  UNL     1       3.672   1.185   3.187  1.00  0.00    -0.648 OA
ENDBRANCH   8  14
ENDBRANCH   1   5
BRANCH   3  17
HETATM   17  C9  UNL     1      -1.349  -0.356   0.115  1.00  0.00     0.309 C 
HETATM   18  O6  UNL     1      -1.695  -1.565   0.257  1.00  0.00    -0.262 OA
HETATM   19  N2  UNL     1      -2.338   0.607  -0.206  1.00  0.00    -0.348 N 
ATOM     20  H2  UNL     1      -2.067   1.583  -0.322  1.00  0.00     0.163 HD
BRANCH  19  21
HETATM   21  C10 UNL     1      -3.728   0.230  -0.372  1.00  0.00     0.084 C 
HETATM   22  C11 UNL     1      -4.132   0.618  -1.780  1.00  0.00     0.025 C 
HETATM   23  C12 UNL     1      -5.641   0.761  -1.795  1.00  0.00     0.002 C 
HETATM   24  C13 UNL     1      -6.209  -0.232  -0.816  1.00  0.00     0.000 C 
HETATM   25  C14 UNL     1      -5.954   0.148   0.621  1.00  0.00     0.002 C 
HETATM   26  C15 UNL     1      -4.626   0.892   0.650  1.00  0.00     0.025 C 
ENDBRANCH  19  21
ENDBRANCH   3  17
TORSDOF 7
