REMARK  16 active torsions:
REMARK  status: ('A' for Active; 'I' for Inactive)
REMARK       I    between atoms: N1_2  and  C2_4 
REMARK    1  A    between atoms: C2_4  and  C3_6 
REMARK    2  A    between atoms: C3_6  and  C4_7 
REMARK    3  A    between atoms: C3_6  and  C13_22 
REMARK    4  A    between atoms: C4_7  and  N2_8 
REMARK    5  A    between atoms: C8_12  and  C9_13 
REMARK    6  A    between atoms: C9_13  and  C10_14 
REMARK    7  A    between atoms: C10_14  and  N3_15 
REMARK    8  A    between atoms: C10_14  and  C12_19 
REMARK    9  A    between atoms: N3_15  and  C11_17 
REMARK   10  A    between atoms: C13_22  and  C14_23 
REMARK   11  A    between atoms: C13_22  and  N4_30 
REMARK   12  A    between atoms: C14_23  and  C15_24 
REMARK   13  A    between atoms: N4_30  and  C21_32 
REMARK   14  A    between atoms: C21_32  and  O5_33 
REMARK   15  A    between atoms: C21_32  and  C22_35 
REMARK   16  A    between atoms: C22_35  and  C24_37 
ROOT
HETATM    1  C3  UNL     1      -0.483  -0.798  -1.160  1.00  0.00     0.047 C 
ENDROOT
BRANCH   1   2
HETATM    2  C2  UNL     1      -0.825  -0.707  -2.571  1.00  0.00     0.250 C 
HETATM    3  N1  UNL     1      -1.323   0.474  -3.206  1.00  0.00    -0.361 N 
HETATM    4  C1  UNL     1      -1.656   0.498  -4.629  1.00  0.00     0.149 C 
ATOM      5  H1  UNL     1      -1.449   1.321  -2.652  1.00  0.00     0.162 HD
HETATM    6  O1  UNL     1      -0.699  -1.720  -3.356  1.00  0.00    -0.268 OA
ENDBRANCH   1   2
BRANCH   1   7
HETATM    7  C4  UNL     1       0.554   0.114  -0.637  1.00  0.00     0.100 C 
BRANCH   7   8
HETATM    8  N2  UNL     1       1.844   0.010  -1.178  1.00  0.00    -0.384 N 
HETATM    9  C5  UNL     1       2.020   0.458  -2.484  1.00  0.00     0.122 C 
HETATM   10  C6  UNL     1       3.504   0.845  -2.568  1.00  0.00     0.022 C 
HETATM   11  C7  UNL     1       3.795   1.250  -1.103  1.00  0.00     0.027 C 
HETATM   12  C8  UNL     1       2.981   0.187  -0.409  1.00  0.00     0.086 C 
BRANCH  12  13
HETATM   13  C9  UNL     1       2.700   0.453   1.036  1.00  0.00     0.061 C 
BRANCH  13  14
HETATM   14  C10 UNL     1       3.918   0.651   1.898  1.00  0.00     0.186 C 
BRANCH  14  15
HETATM   15  N3  UNL     1       4.797  -0.482   1.894  1.00  0.00    -0.354 N 
ATOM     16  H3  UNL     1       5.310  -0.699   1.040  1.00  0.00     0.162 HD
BRANCH  15  17
HETATM   17  C11 UNL     1       4.983  -1.312   3.025  1.00  0.00     0.349 C 
HETATM   18  O2  UNL     1       4.348  -1.034   4.070  1.00  0.00    -0.284 OA
ENDBRANCH  15  17
ENDBRANCH  14  15
BRANCH  14  19
HETATM   19  C12 UNL     1       4.620   1.916   1.717  1.00  0.00     0.196 C 
HETATM   20  O3  UNL     1       5.858   2.058   1.552  1.00  0.00    -0.646 OA
HETATM   21  O4  UNL     1       3.876   3.106   1.724  1.00  0.00    -0.646 OA
ENDBRANCH  14  19
ENDBRANCH  13  14
ENDBRANCH  12  13
ENDBRANCH   7   8
ENDBRANCH   1   7
BRANCH   1  22
HETATM   22  C13 UNL     1      -1.628  -1.143  -0.238  1.00  0.00     0.119 C 
BRANCH  22  23
HETATM   23  C14 UNL     1      -2.792  -0.183  -0.253  1.00  0.00     0.034 C 
BRANCH  23  24
HETATM   24  C15 UNL     1      -2.569   1.202   0.179  1.00  0.00    -0.012 C 
HETATM   25  C16 UNL     1      -2.096   1.353   1.610  1.00  0.00     0.005 C 
HETATM   26  C17 UNL     1      -1.808   2.833   1.795  1.00  0.00     0.000 C 
HETATM   27  C18 UNL     1      -3.114   3.630   1.671  1.00  0.00     0.000 C 
HETATM   28  C19 UNL     1      -3.696   3.351   0.312  1.00  0.00     0.000 C 
HETATM   29  C20 UNL     1      -3.977   1.869   0.199  1.00  0.00     0.005 C 
ENDBRANCH  23  24
ENDBRANCH  22  23
BRANCH  22  30
HETATM   30  N4  UNL     1      -2.179  -2.430  -0.494  1.00  0.00    -0.388 N 
ATOM     31  H4  UNL     1      -3.148  -2.485  -0.806  1.00  0.00     0.156 HD
BRANCH  30  32
HETATM   32  C21 UNL     1      -1.477  -3.607  -0.344  1.00  0.00     0.224 C 
BRANCH  32  33
HETATM   33  O5  UNL     1      -2.332  -4.688  -0.740  1.00  0.00    -0.376 OA
ATOM     34  H5  UNL     1      -1.848  -5.499  -0.637  1.00  0.00     0.212 HD
ENDBRANCH  32  33
BRANCH  32  35
HETATM   35  C22 UNL     1      -1.071  -3.930   1.062  1.00  0.00     0.091 C 
HETATM   36  C23 UNL     1      -2.293  -4.021   1.975  1.00  0.00     0.022 C 
BRANCH  35  37
HETATM   37  C24 UNL     1       0.020  -3.160   1.642  1.00  0.00     0.239 C 
HETATM   38  O6  UNL     1       0.110  -3.052   2.864  1.00  0.00    -0.306 OA
ENDBRANCH  35  37
ENDBRANCH  32  35
ENDBRANCH  30  32
ENDBRANCH  22  30
ENDBRANCH   1  22
TORSDOF 16
