REMARK  3 active torsions:
REMARK  status: ('A' for Active; 'I' for Inactive)
REMARK    1  A    between atoms: C2_2  and  C3_3 
REMARK    2  A    between atoms: C3_3  and  N1_4 
REMARK    3  A    between atoms: C7_8  and  O1_9 
ROOT
HETATM    1  N1  UNL     1       0.834  -0.654   0.364  1.00  0.00    -0.284 NA
HETATM    2  C4  UNL     1      -0.259  -1.520  -0.118  1.00  0.00     0.127 C 
HETATM    3  C5  UNL     1      -1.219  -0.871  -1.029  1.00  0.00     0.137 C 
HETATM    4  C6  UNL     1      -2.479  -0.545  -0.213  1.00  0.00     0.065 C 
HETATM    5  C7  UNL     1      -2.222   0.784   0.462  1.00  0.00     0.122 C 
HETATM    6  C8  UNL     1      -0.952   0.661   1.237  1.00  0.00     0.054 C 
HETATM    7  C9  UNL     1       0.296   0.674   0.375  1.00  0.00     0.088 C 
HETATM    8  C10 UNL     1      -0.001   1.090  -1.052  1.00  0.00     0.188 C 
HETATM    9  O2  UNL     1      -0.772   0.198  -1.741  1.00  0.00    -0.383 OA
ENDROOT
BRANCH   1  10
HETATM   10  C3  UNL     1       1.907  -0.902  -0.511  1.00  0.00     0.059 C 
BRANCH  10  11
HETATM   11  C2  UNL     1       3.207  -0.299  -0.293  1.00  0.00     0.001 C 
HETATM   12  C1  UNL     1       3.654   0.487   0.640  1.00  0.00     0.012 C 
ENDBRANCH  10  11
ENDBRANCH   1  10
BRANCH   5  13
HETATM   13  O1  UNL     1      -3.251   0.972   1.414  1.00  0.00    -0.395 OA
ATOM     14  H1  UNL     1      -3.090   1.807   1.838  1.00  0.00     0.210 HD
ENDBRANCH   5  13
TORSDOF 3
