REMARK  4 active torsions:
REMARK  status: ('A' for Active; 'I' for Inactive)
REMARK    1  A    between atoms: N2_4  and  C1_6 
REMARK    2  A    between atoms: C1_6  and  C2_7 
REMARK    3  A    between atoms: N3_8  and  C3_10 
REMARK    4  A    between atoms: C3_10  and  N4_11 
REMARK       I    between atoms: N4_11  and  C4_13 
REMARK       I    between atoms: C4_13  and  N6_17 
ROOT
HETATM    1  N4  UNL     1       0.991   0.539  -0.246  1.00  0.00    -0.209 N 
ATOM      2  H4  UNL     1       0.249   0.695  -0.928  1.00  0.00     0.179 HD
HETATM    3  C4  UNL     1       2.322   0.891  -0.557  1.00  0.00     0.687 C 
HETATM    4  N5  UNL     1       2.515   1.913  -1.325  1.00  0.00    -0.234 N 
ATOM      5  H51 UNL     1       3.477   2.167  -1.550  1.00  0.00     0.174 HD
ATOM      6  H52 UNL     1       1.765   2.481  -1.719  1.00  0.00     0.174 HD
HETATM    7  N6  UNL     1       3.361   0.105  -0.012  1.00  0.00    -0.139 N 
ATOM      8  H6  UNL     1       3.646   0.228   0.960  1.00  0.00     0.205 HD
HETATM    9  N7  UNL     1       3.930  -0.747  -0.739  1.00  0.00    -0.331 N 
ATOM     10  H71 UNL     1       4.680  -1.315  -0.345  1.00  0.00     0.177 HD
ATOM     11  H72 UNL     1       3.633  -0.857  -1.709  1.00  0.00     0.177 HD
ENDROOT
BRANCH   1  12
HETATM   12  C3  UNL     1       0.683  -0.038   1.028  1.00  0.00     0.261 C 
BRANCH  12  13
HETATM   13  N3  UNL     1      -0.729  -0.299   1.087  1.00  0.00    -0.384 N 
HETATM   14  C2  UNL     1      -1.270  -0.842   0.065  1.00  0.00     0.078 C 
ATOM     15  H3  UNL     1      -1.278  -0.060   1.913  1.00  0.00     0.160 HD
BRANCH  14  16
HETATM   16  C1  UNL     1      -2.727  -1.118   0.110  1.00  0.00     0.182 C 
BRANCH  16  17
HETATM   17  N2  UNL     1      -3.416   0.121   0.236  1.00  0.00    -0.338 N 
HETATM   18  N1  UNL     1      -3.192   1.041  -0.562  1.00  0.00    -0.349 N 
ATOM     19  H12 UNL     1      -2.509   0.894  -1.305  1.00  0.00     0.176 HD
ATOM     20  H11 UNL     1      -3.686   1.929  -0.472  1.00  0.00     0.176 HD
ATOM     21  H2  UNL     1      -4.096   0.251   0.985  1.00  0.00     0.179 HD
ENDBRANCH  16  17
ENDBRANCH  14  16
ENDBRANCH  12  13
ENDBRANCH   1  12
TORSDOF 4
