REMARK  14 active torsions:
REMARK  status: ('A' for Active; 'I' for Inactive)
REMARK    1  A    between atoms: C2_2  and  C4_4 
REMARK    2  A    between atoms: C4_4  and  N1_5 
REMARK    3  A    between atoms: C4_4  and  C25_31 
REMARK    4  A    between atoms: N1_5  and  C5_7 
REMARK    5  A    between atoms: C5_7  and  O1_8 
REMARK       I    between atoms: N2_18  and  C14_19 
REMARK    6  A    between atoms: C14_19  and  C15_21 
REMARK       I    between atoms: C25_31  and  N3_33 
REMARK    7  A    between atoms: C27_35  and  O4_36 
REMARK    8  A    between atoms: C28_38  and  O5_39 
REMARK    9  A    between atoms: C29_41  and  C30_42 
REMARK   10  A    between atoms: C30_42  and  O6_43 
REMARK   11  A    between atoms: N4_45  and  C31_46 
REMARK   12  A    between atoms: N4_45  and  C33_49 
REMARK   13  A    between atoms: C31_46  and  C32_47 
REMARK   14  A    between atoms: C33_49  and  C34_50 
ROOT
HETATM    1  N1  UNL     1       0.613  -0.368  -0.263  1.00  0.00    -0.331 N 
ATOM      2  H1  UNL     1       0.970  -1.312  -0.407  1.00  0.00     0.168 HD
ENDROOT
BRANCH   1   3
HETATM    3  C4  UNL     1       1.565   0.712  -0.127  1.00  0.00     0.104 C 
BRANCH   3   4
HETATM    4  C2  UNL     1       1.634   1.330   1.244  1.00  0.00    -0.055 C 
HETATM    5  C1  UNL     1       2.098   0.554   2.386  1.00  0.00     0.045 C 
HETATM    6  C3  UNL     1       1.956   2.770   1.178  1.00  0.00     0.045 C 
ENDBRANCH   3   4
BRANCH   3   7
HETATM    7  C25 UNL     1       2.807   0.595  -0.875  1.00  0.00     0.271 C 
HETATM    8  O3  UNL     1       2.937   1.286  -1.958  1.00  0.00    -0.266 OA
HETATM    9  N3  UNL     1       3.917  -0.198  -0.580  1.00  0.00    -0.329 N 
HETATM   10  C26 UNL     1       3.917  -1.325   0.371  1.00  0.00     0.161 C 
HETATM   11  C29 UNL     1       5.286  -0.123  -1.039  1.00  0.00     0.193 C 
HETATM   12  C27 UNL     1       4.655  -2.352  -0.540  1.00  0.00     0.167 C 
HETATM   13  C28 UNL     1       5.889  -1.452  -0.772  1.00  0.00     0.179 C 
BRANCH  12  14
HETATM   14  O4  UNL     1       4.900  -3.506   0.095  1.00  0.00    -0.391 OA
ATOM     15  H4  UNL     1       5.350  -4.132  -0.460  1.00  0.00     0.210 HD
ENDBRANCH  12  14
BRANCH  13  16
HETATM   16  O5  UNL     1       6.568  -1.536   0.464  1.00  0.00    -0.390 OA
ATOM     17  H5  UNL     1       7.327  -0.983   0.321  1.00  0.00     0.210 HD
ENDBRANCH  13  16
BRANCH  11  18
HETATM   18  C30 UNL     1       6.035   1.003  -0.491  1.00  0.00     0.140 C 
HETATM   19  N4  UNL     1       7.268   1.569  -0.477  1.00  0.00    -0.362 N 
BRANCH  18  20
HETATM   20  O6  UNL     1       5.162   1.727   0.283  1.00  0.00    -0.348 OA
ATOM     21  H6  UNL     1       5.650   2.460   0.640  1.00  0.00     0.219 HD
ENDBRANCH  18  20
BRANCH  19  22
HETATM   22  C31 UNL     1       7.437   2.810   0.319  1.00  0.00     0.139 C 
BRANCH  22  23
HETATM   23  C32 UNL     1       7.757   2.556   1.748  1.00  0.00     0.134 C 
HETATM   24 CL1  UNL     1       7.961   4.120   2.606  1.00  0.00    -0.129 Cl
ENDBRANCH  22  23
ENDBRANCH  19  22
BRANCH  19  25
HETATM   25  C33 UNL     1       8.439   1.159  -1.173  1.00  0.00     0.139 C 
BRANCH  25  26
HETATM   26  C34 UNL     1       9.434   0.289  -0.512  1.00  0.00     0.134 C 
HETATM   27 CL2  UNL     1      10.777   0.059  -1.704  1.00  0.00    -0.129 Cl
ENDBRANCH  25  26
ENDBRANCH  19  25
ENDBRANCH  11  18
ENDBRANCH   3   7
ENDBRANCH   1   3
BRANCH   1  28
HETATM   28  C5  UNL     1      -0.791  -0.182  -0.207  1.00  0.00     0.164 C 
HETATM   29  C6  UNL     1      -1.849  -1.132  -0.243  1.00  0.00     0.070 C 
HETATM   30  C7  UNL     1      -1.873  -2.494  -0.738  1.00  0.00     0.046 C 
HETATM   31  N2  UNL     1      -3.214  -0.636  -0.414  1.00  0.00    -0.316 N 
HETATM   32  C8  UNL     1      -0.891  -3.470  -0.077  1.00  0.00     0.011 C 
HETATM   33  C12 UNL     1      -3.214  -2.969  -0.077  1.00  0.00     0.014 C 
HETATM   34  C9  UNL     1      -1.232  -4.871  -0.493  1.00  0.00     0.001 C 
HETATM   35  C10 UNL     1      -2.665  -5.271  -0.441  1.00  0.00     0.000 C 
HETATM   36  C11 UNL     1      -3.624  -4.146  -0.888  1.00  0.00     0.007 C 
HETATM   37  C13 UNL     1      -4.087  -1.785  -0.098  1.00  0.00     0.137 C 
HETATM   38  C14 UNL     1      -3.737   0.561  -0.918  1.00  0.00     0.228 C 
HETATM   39  O2  UNL     1      -2.996   1.228  -1.738  1.00  0.00    -0.273 OA
BRANCH  28  40
HETATM   40  O1  UNL     1      -1.113   1.091  -0.083  1.00  0.00    -0.345 OA
ATOM     41  H1  UNL     1      -2.054   1.216  -0.045  1.00  0.00     0.219 HD
ENDBRANCH  28  40
BRANCH  38  42
HETATM   42  C15 UNL     1      -5.015   1.192  -0.629  1.00  0.00     0.083 C 
HETATM   43  C16 UNL     1      -5.182   1.403   0.888  1.00  0.00     0.019 C 
HETATM   44  C17 UNL     1      -6.378   2.266   1.089  1.00  0.00    -0.009 C 
HETATM   45  C18 UNL     1      -6.496   3.432   0.154  1.00  0.00     0.010 C 
HETATM   46  C21 UNL     1      -7.622   1.395   0.851  1.00  0.00    -0.010 C 
HETATM   47  C19 UNL     1      -7.491   2.960  -0.855  1.00  0.00    -0.013 C 
HETATM   48  C20 UNL     1      -8.537   2.336   0.083  1.00  0.00     0.009 C 
HETATM   49  C24 UNL     1      -7.038   1.917  -1.811  1.00  0.00     0.010 C 
HETATM   50  C23 UNL     1      -6.311   0.735  -1.148  1.00  0.00    -0.001 C 
HETATM   51  C22 UNL     1      -7.270   0.240  -0.048  1.00  0.00     0.010 C 
ENDBRANCH  38  42
ENDBRANCH   1  28
TORSDOF 14
