REMARK  4 active torsions:
REMARK  status: ('A' for Active; 'I' for Inactive)
REMARK    1  A    between atoms: C2_2  and  O1_3 
REMARK    2  A    between atoms: C2_2  and  C3_5 
REMARK    3  A    between atoms: C3_5  and  N1_6 
REMARK    4  A    between atoms: N2_14  and  C9_15 
ROOT
HETATM    1  N1  UNL     1       1.724  -0.638  -0.362  1.00  0.00    -0.354 N 
HETATM    2  C4  UNL     1       2.121  -1.696  -1.191  1.00  0.00     0.137 C 
HETATM    3  S1  UNL     1       3.327  -1.851  -2.237  1.00  0.00    -0.053 SA
HETATM    4  S2  UNL     1       0.937  -3.035  -0.894  1.00  0.00    -0.098 SA
HETATM    5  C5  UNL     1      -0.240  -1.954   0.012  1.00  0.00     0.113 C 
HETATM    6  C6  UNL     1       0.292  -0.568  -0.193  1.00  0.00     0.046 C 
HETATM    7  C7  UNL     1      -0.173   0.264   0.952  1.00  0.00     0.062 C 
HETATM    8  C8  UNL     1      -1.408   1.083   0.568  1.00  0.00     0.275 C 
HETATM    9  N2  UNL     1      -2.288   0.193  -0.159  1.00  0.00     0.094 N 
HETATM   10  C12 UNL     1      -1.759  -0.030  -1.493  1.00  0.00     0.275 C 
HETATM   11  C13 UNL     1      -0.251   0.087  -1.458  1.00  0.00     0.062 C 
ENDROOT
BRANCH   1  12
HETATM   12  C3  UNL     1       2.636   0.286   0.244  1.00  0.00     0.156 C 
BRANCH  12  13
HETATM   13  C2  UNL     1       4.082   0.095   0.036  1.00  0.00     0.132 C 
HETATM   14  C1  UNL     1       4.810   1.124   0.899  1.00  0.00     0.041 C 
BRANCH  13  15
HETATM   15  O1  UNL     1       4.557  -1.136   0.525  1.00  0.00    -0.394 OA
ATOM     16  H1  UNL     1       4.104  -1.776  -0.012  1.00  0.00     0.210 HD
ENDBRANCH  13  15
ENDBRANCH  12  13
ENDBRANCH   1  12
BRANCH   9  17
HETATM   17  C9  UNL     1      -3.620   0.718  -0.305  1.00  0.00     0.241 C 
HETATM   18  C10 UNL     1      -4.511  -0.303  -0.973  1.00  0.00     0.110 C 
HETATM   19  S3  UNL     1      -4.608  -1.165   0.643  1.00  0.00    -0.165 SA
HETATM   20  C11 UNL     1      -4.500   0.618   0.912  1.00  0.00     0.110 C 
ENDBRANCH   9  17
TORSDOF 4
