REMARK  4 active torsions:
REMARK  status: ('A' for Active; 'I' for Inactive)
REMARK    1  A    between atoms: N1_1  and  S1_4 
REMARK    2  A    between atoms: S1_4  and  C1_7 
REMARK    3  A    between atoms: C4_10  and  N2_11 
REMARK    4  A    between atoms: C5_13  and  C6_14 
ROOT
HETATM    1  N2  UNL     1       0.643  -0.182  -0.657  1.00  0.00    -0.365 N 
ATOM      2  H2  UNL     1       0.376  -0.492  -1.591  1.00  0.00     0.165 HD
HETATM    3  C5  UNL     1      -0.242  -0.008   0.258  1.00  0.00     0.100 C 
ENDROOT
BRANCH   1   4
HETATM    4  C4  UNL     1       2.003   0.068  -0.333  1.00  0.00     0.032 A 
HETATM    5  C3  UNL     1       2.630   1.123  -1.004  1.00  0.00     0.031 A 
HETATM    6  C2  UNL     1       3.949   1.438  -0.753  1.00  0.00     0.027 A 
HETATM    7  C1  UNL     1       4.649   0.695   0.176  1.00  0.00     0.079 A 
HETATM    8  C15 UNL     1       4.032  -0.354   0.847  1.00  0.00     0.027 A 
HETATM    9  C14 UNL     1       2.712  -0.667   0.593  1.00  0.00     0.031 A 
BRANCH   7  10
HETATM   10  S1  UNL     1       6.334   1.112   0.485  1.00  0.00     0.256 S 
HETATM   11  O1  UNL     1       6.519   2.551   0.191  1.00  0.00    -0.201 OA
HETATM   12  O2  UNL     1       6.654   0.735   1.893  1.00  0.00    -0.201 OA
BRANCH  10  13
HETATM   13  N1  UNL     1       7.295   0.194  -0.614  1.00  0.00    -0.324 N 
ATOM     14  H12 UNL     1       7.888   0.592  -1.342  1.00  0.00     0.169 HD
ATOM     15  H11 UNL     1       7.168  -0.798  -0.411  1.00  0.00     0.169 HD
ENDBRANCH  10  13
ENDBRANCH   7  10
ENDBRANCH   1   4
BRANCH   3  16
HETATM   16  C6  UNL     1      -1.653  -0.254  -0.031  1.00  0.00    -0.018 A 
HETATM   17  C7  UNL     1      -2.041  -0.672  -1.284  1.00  0.00     0.016 A 
HETATM   18  C8  UNL     1      -3.379  -0.908  -1.567  1.00  0.00     0.040 A 
HETATM   19  C9  UNL     1      -4.337  -0.721  -0.581  1.00  0.00     0.102 A 
HETATM   20  C10 UNL     1      -3.969  -0.302   0.682  1.00  0.00     0.102 A 
HETATM   21  O4  UNL     1      -5.697  -0.954  -0.845  1.00  0.00    -0.346 OA
HETATM   22  C11 UNL     1      -2.635  -0.081   0.920  1.00  0.00     0.052 A 
HETATM   23  O3  UNL     1      -4.933  -0.110   1.688  1.00  0.00    -0.346 OA
HETATM   24  C12 UNL     1      -6.175  -0.793   1.463  1.00  0.00     0.202 C 
HETATM   25  C13 UNL     1      -6.616  -0.382   0.066  1.00  0.00     0.202 C 
ENDBRANCH   3  16
TORSDOF 4
