REMARK  8 active torsions:
REMARK  status: ('A' for Active; 'I' for Inactive)
REMARK    1  A    between atoms: N2_5  and  C4_6 
REMARK    2  A    between atoms: C4_6  and  C5_7 
REMARK       I    between atoms: C5_7  and  N3_9 
REMARK    3  A    between atoms: N3_9  and  C6_11 
REMARK    4  A    between atoms: C6_11  and  C8_13 
REMARK    5  A    between atoms: C6_11  and  C15_28 
REMARK       I    between atoms: C8_13  and  N4_15 
REMARK    6  A    between atoms: N4_15  and  C9_17 
REMARK    7  A    between atoms: C12_22  and  S1_23 
REMARK    8  A    between atoms: S1_23  and  C13_24 
ROOT
HETATM    1  C6  UNL     1      -0.035  -1.033   0.633  1.00  0.00     0.140 C 
HETATM    2  C7  UNL     1       0.421  -1.175   2.027  1.00  0.00     0.054 C 
ENDROOT
BRANCH   1   3
HETATM    3  N3  UNL     1       0.823  -0.065  -0.039  1.00  0.00    -0.338 N 
HETATM    4  C5  UNL     1       2.237  -0.376  -0.031  1.00  0.00     0.247 C 
HETATM    5  O1  UNL     1       2.677  -1.412   0.520  1.00  0.00    -0.272 OA
ATOM      6  H3  UNL     1       0.452   0.774  -0.485  1.00  0.00     0.164 HD
BRANCH   4   7
HETATM    7  C4  UNL     1       3.200   0.541  -0.685  1.00  0.00     0.374 C 
BRANCH   7   8
HETATM    8  N2  UNL     1       4.530   0.004  -0.529  1.00  0.00     0.100 N 
HETATM    9  C3  UNL     1       4.944   0.059   0.838  1.00  0.00     0.303 C 
HETATM   10  C2  UNL     1       6.349   0.614   0.959  1.00  0.00     0.302 C 
HETATM   11  N1  UNL     1       6.373   1.943   0.430  1.00  0.00     0.087 N 
HETATM   12  C1  UNL     1       7.749   2.367   0.290  1.00  0.00     0.310 C 
HETATM   13  C20 UNL     1       5.683   2.067  -0.843  1.00  0.00     0.302 C 
HETATM   14  C19 UNL     1       5.422   0.714  -1.424  1.00  0.00     0.303 C 
ENDBRANCH   7   8
ENDBRANCH   4   7
ENDBRANCH   1   3
BRANCH   1  15
HETATM   15  C8  UNL     1      -1.383  -0.341   0.709  1.00  0.00     0.251 C 
HETATM   16  O2  UNL     1      -1.315   0.874   1.089  1.00  0.00    -0.270 OA
HETATM   17  N4  UNL     1      -2.632  -0.845   0.422  1.00  0.00    -0.354 N 
ATOM     18  H4  UNL     1      -2.709  -1.811   0.103  1.00  0.00     0.163 HD
BRANCH  17  19
HETATM   19  C9  UNL     1      -3.861  -0.044   0.557  1.00  0.00     0.092 C 
HETATM   20  C10 UNL     1      -4.752  -0.583   1.619  1.00  0.00     0.045 C 
HETATM   21  C11 UNL     1      -6.037  -1.201   1.118  1.00  0.00     0.122 C 
HETATM   22  N5  UNL     1      -6.739  -0.214   0.314  1.00  0.00    -0.388 N 
HETATM   23  C12 UNL     1      -5.924   0.569  -0.538  1.00  0.00     0.049 C 
ATOM     24  H5  UNL     1      -7.751  -0.094   0.361  1.00  0.00     0.159 HD
HETATM   25  C14 UNL     1      -4.544   0.115  -0.779  1.00  0.00     0.089 C 
BRANCH  23  26
HETATM   26  S1  UNL     1      -6.454   1.928  -1.247  1.00  0.00    -0.048 SA
BRANCH  26  27
HETATM   27  C13 UNL     1      -8.176   2.520  -0.967  1.00  0.00     0.421 C 
HETATM   28  F1  UNL     1      -9.001   2.084  -1.989  1.00  0.00    -0.202 F 
HETATM   29  F2  UNL     1      -8.130   3.893  -0.939  1.00  0.00    -0.202 F 
ENDBRANCH  26  27
ENDBRANCH  23  26
ENDBRANCH  17  19
ENDBRANCH   1  15
BRANCH   1  30
HETATM   30  C15 UNL     1      -0.095  -2.291  -0.159  1.00  0.00     0.010 A 
HETATM   31  C16 UNL     1       0.429  -2.388  -1.410  1.00  0.00     0.043 A 
HETATM   32  C17 UNL     1       0.256  -3.566  -2.078  1.00  0.00     0.076 A 
HETATM   33 CL1  UNL     1       0.806  -4.018  -3.702  1.00  0.00    -0.076 Cl
HETATM   34  S2  UNL     1      -0.620  -4.518  -0.982  1.00  0.00    -0.065 SA
HETATM   35  C18 UNL     1      -0.752  -3.421   0.296  1.00  0.00     0.085 A 
HETATM   36 CL2  UNL     1      -1.504  -3.767   1.839  1.00  0.00    -0.076 Cl
ENDBRANCH   1  30
TORSDOF 8
