REMARK  7 active torsions:
REMARK  status: ('A' for Active; 'I' for Inactive)
REMARK    1  A    between atoms: C2_2  and  N1_3 
REMARK    2  A    between atoms: C3_4  and  C4_5 
REMARK    3  A    between atoms: C4_5  and  O2_7 
REMARK    4  A    between atoms: O2_7  and  C5_8 
REMARK    5  A    between atoms: C6_10  and  O3_11 
REMARK    6  A    between atoms: N2_13  and  C7_14 
REMARK    7  A    between atoms: C7_14  and  N3_15 
ROOT
HETATM    1  N1  UNL     1      -1.826   1.031  -0.491  1.00  0.00    -0.315 N 
HETATM    2  C3  UNL     1      -1.778  -0.182   0.082  1.00  0.00     0.164 A 
HETATM    3  C6  UNL     1      -0.456  -0.298   0.532  1.00  0.00     0.183 A 
HETATM    4  N2  UNL     1       0.227   0.816   0.224  1.00  0.00    -0.267 N 
HETATM    5  C12 UNL     1      -0.640   1.654  -0.422  1.00  0.00     0.188 A 
HETATM    6  S1  UNL     1      -0.207   3.132  -0.971  1.00  0.00    -0.040 SA
ENDROOT
BRANCH   4   7
HETATM    7  C7  UNL     1       1.618   1.102   0.499  1.00  0.00     0.164 C 
BRANCH   7   8
HETATM    8  N3  UNL     1       2.540   0.803  -0.520  1.00  0.00    -0.275 NA
HETATM    9  C8  UNL     1       3.915   1.136  -0.166  1.00  0.00     0.122 C 
HETATM   10  C9  UNL     1       4.627  -0.062   0.426  1.00  0.00     0.182 C 
HETATM   11  O4  UNL     1       4.545  -1.132  -0.434  1.00  0.00    -0.389 OA
HETATM   12  C10 UNL     1       3.199  -1.554  -0.458  1.00  0.00     0.182 C 
HETATM   13  C11 UNL     1       2.425  -0.450  -1.159  1.00  0.00     0.122 C 
ENDBRANCH   7   8
ENDBRANCH   4   7
BRANCH   3  14
HETATM   14  O3  UNL     1      -0.017  -1.443   1.192  1.00  0.00    -0.344 OA
ATOM     15  H3  UNL     1       0.879  -1.522   1.497  1.00  0.00     0.219 HD
ENDBRANCH   3  14
BRANCH   2  16
HETATM   16  C4  UNL     1      -2.831  -1.179   0.227  1.00  0.00     0.315 C 
HETATM   17  O1  UNL     1      -3.979  -0.969  -0.215  1.00  0.00    -0.257 OA
BRANCH  16  18
HETATM   18  O2  UNL     1      -2.575  -2.377   0.857  1.00  0.00    -0.301 OA
BRANCH  18  19
HETATM   19  C5  UNL     1      -3.576  -3.376   1.018  1.00  0.00     0.293 C 
HETATM   20 CL1  UNL     1      -4.114  -3.835  -0.616  1.00  0.00    -0.101 Cl
ENDBRANCH  18  19
ENDBRANCH  16  18
ENDBRANCH   2  16
BRANCH   1  21
HETATM   21  C2  UNL     1      -2.986   1.629  -1.117  1.00  0.00     0.127 C 
HETATM   22  C1  UNL     1      -3.830   2.422  -0.162  1.00  0.00     0.027 C 
ENDBRANCH   1  21
TORSDOF 7
