REMARK  5 active torsions:
REMARK  status: ('A' for Active; 'I' for Inactive)
REMARK    1  A    between atoms: S1_2  and  C2_3 
REMARK    2  A    between atoms: C6_8  and  C7_9 
REMARK    3  A    between atoms: N1_10  and  C8_12 
REMARK    4  A    between atoms: C8_12  and  C9_14 
REMARK    5  A    between atoms: C11_19  and  O4_20 
ROOT
HETATM    1  C7  UNL     1      -0.444  -1.131  -0.488  1.00  0.00     0.119 C 
HETATM    2  N1  UNL     1      -1.669  -0.748  -0.068  1.00  0.00    -0.352 N 
ATOM      3  H1  UNL     1      -2.392  -1.365  -0.439  1.00  0.00     0.166 HD
ENDROOT
BRANCH   2   4
HETATM    4  C8  UNL     1      -2.236   0.270   0.744  1.00  0.00     0.140 C 
HETATM    5  S2  UNL     1      -1.394   1.301   1.548  1.00  0.00    -0.057 SA
BRANCH   4   6
HETATM    6  C9  UNL     1      -3.708   0.196   0.850  1.00  0.00     0.177 A 
HETATM    7  O1  UNL     1      -4.594  -0.190   1.671  1.00  0.00    -0.247 OA
HETATM    8  C10 UNL     1      -5.818   0.034   1.202  1.00  0.00     0.419 A 
HETATM    9  O2  UNL     1      -6.939  -0.192   1.718  1.00  0.00    -0.229 OA
HETATM   10  O3  UNL     1      -5.698   0.583  -0.006  1.00  0.00    -0.228 OA
HETATM   11  C11 UNL     1      -4.426   0.701  -0.263  1.00  0.00     0.226 A 
BRANCH  11  12
HETATM   12  O4  UNL     1      -3.861   1.207  -1.403  1.00  0.00    -0.338 OA
ATOM     13  H4  UNL     1      -4.342   1.545  -2.149  1.00  0.00     0.220 HD
ENDBRANCH  11  12
ENDBRANCH   4   6
ENDBRANCH   2   4
BRANCH   1  14
HETATM   14  C6  UNL     1       0.935  -0.674  -0.239  1.00  0.00     0.059 A 
HETATM   15  C4  UNL     1       1.825  -1.662   0.255  1.00  0.00     0.008 A 
HETATM   16  C3  UNL     1       3.065  -1.186   0.087  1.00  0.00     0.158 A 
HETATM   17  C5  UNL     1       1.315  -2.895   0.918  1.00  0.00     0.054 C 
HETATM   18  C2  UNL     1       2.978   0.035  -0.488  1.00  0.00     0.111 A 
HETATM   19  F1  UNL     1       4.246  -1.859   0.439  1.00  0.00    -0.203 F 
HETATM   20  N2  UNL     1       1.650   0.344  -0.686  1.00  0.00    -0.342 N 
HETATM   21  C12 UNL     1       1.130   1.551  -1.315  1.00  0.00     0.157 C 
BRANCH  18  22
HETATM   22  S1  UNL     1       4.324   1.029  -1.045  1.00  0.00    -0.114 SA
HETATM   23  C1  UNL     1       4.921   2.070   0.334  1.00  0.00     0.097 C 
ENDBRANCH  18  22
ENDBRANCH   1  14
TORSDOF 5
