REMARK  6 active torsions:
REMARK  status: ('A' for Active; 'I' for Inactive)
REMARK    1  A    between atoms: C2_2  and  O1_4 
REMARK    2  A    between atoms: O1_4  and  C4_5 
REMARK    3  A    between atoms: C4_5  and  C5_7 
REMARK    4  A    between atoms: C5_7  and  N1_10 
REMARK       I    between atoms: N1_10  and  C8_12 
REMARK    5  A    between atoms: C8_12  and  C9_14 
REMARK    6  A    between atoms: C9_14  and  N2_15 
ROOT
HETATM    1  C9  UNL     1      -1.903  -0.128   0.066  1.00  0.00     0.118 C 
HETATM    2  C14 UNL     1      -2.471  -0.161   1.477  1.00  0.00     0.052 C 
HETATM    3  C15 UNL     1      -3.845   0.300   1.666  1.00  0.00     0.084 C 
HETATM    4  S1  UNL     1      -5.013  -1.109   1.519  1.00  0.00    -0.111 SA
HETATM    5  C16 UNL     1      -4.043  -2.474   0.825  1.00  0.00     0.091 A 
HETATM    6  N3  UNL     1      -4.015  -3.797   1.049  1.00  0.00    -0.320 N 
ATOM      7  H3  UNL     1      -4.532  -4.416   1.674  1.00  0.00     0.175 HD
HETATM    8  S2  UNL     1      -2.809  -4.046  -0.088  1.00  0.00    -0.015 SA
HETATM    9  C17 UNL     1      -3.059  -2.357  -0.164  1.00  0.00     0.040 A 
HETATM   10  C18 UNL     1      -2.641  -1.108  -0.825  1.00  0.00     0.063 C 
HETATM   11  C19 UNL     1      -3.809  -0.546  -1.567  1.00  0.00     0.018 C 
ENDROOT
BRANCH   1  12
HETATM   12  C8  UNL     1      -0.572  -0.758   0.275  1.00  0.00     0.247 C 
HETATM   13  N1  UNL     1       0.687  -0.196   0.133  1.00  0.00    -0.341 N 
ATOM     14  H1  UNL     1       0.746   0.781  -0.152  1.00  0.00     0.163 HD
HETATM   15  O3  UNL     1      -0.609  -1.980   0.634  1.00  0.00    -0.271 OA
BRANCH  13  16
HETATM   16  C5  UNL     1       1.931  -0.918   0.367  1.00  0.00     0.113 C 
HETATM   17  C6  UNL     1       2.088  -2.121  -0.509  1.00  0.00     0.049 C 
HETATM   18  C7  UNL     1       2.074  -1.355   1.807  1.00  0.00     0.049 C 
BRANCH  16  19
HETATM   19  C4  UNL     1       3.102  -0.024   0.113  1.00  0.00     0.287 C 
HETATM   20  O2  UNL     1       2.860   1.156  -0.246  1.00  0.00    -0.262 OA
BRANCH  19  21
HETATM   21  O1  UNL     1       4.398  -0.430   0.253  1.00  0.00    -0.315 OA
BRANCH  21  22
HETATM   22  C2  UNL     1       5.463   0.438   0.005  1.00  0.00     0.123 C 
HETATM   23  C1  UNL     1       6.274   0.697   1.278  1.00  0.00     0.040 C 
HETATM   24  C3  UNL     1       6.421  -0.021  -1.043  1.00  0.00     0.040 C 
ENDBRANCH  21  22
ENDBRANCH  19  21
ENDBRANCH  16  19
ENDBRANCH  13  16
ENDBRANCH   1  12
BRANCH   1  25
HETATM   25  N2  UNL     1      -1.930   1.170  -0.441  1.00  0.00    -0.391 N 
HETATM   26  C10 UNL     1      -1.435   1.451  -1.736  1.00  0.00     0.144 C 
HETATM   27  C11 UNL     1      -2.339   2.530  -2.367  1.00  0.00     0.187 C 
HETATM   28  O4  UNL     1      -3.206   3.046  -1.408  1.00  0.00    -0.388 OA
HETATM   29  C12 UNL     1      -2.556   3.442  -0.237  1.00  0.00     0.187 C 
HETATM   30  C13 UNL     1      -1.777   2.297   0.396  1.00  0.00     0.144 C 
ENDBRANCH   1  25
TORSDOF 6
