REMARK  13 active torsions:
REMARK  status: ('A' for Active; 'I' for Inactive)
REMARK    1  A    between atoms: C2_2  and  C3_3 
REMARK    2  A    between atoms: C6_8  and  N2_9 
REMARK    3  A    between atoms: N2_9  and  C7_11 
REMARK    4  A    between atoms: C7_11  and  C8_12 
REMARK    5  A    between atoms: C8_12  and  C9_13 
REMARK    6  A    between atoms: C9_13  and  C10_14 
REMARK    7  A    between atoms: C10_14  and  C11_15 
REMARK    8  A    between atoms: C11_15  and  C12_16 
REMARK    9  A    between atoms: C12_16  and  C13_17 
REMARK   10  A    between atoms: C13_17  and  N3_18 
REMARK   11  A    between atoms: N7_32  and  C18_34 
REMARK   12  A    between atoms: C18_34  and  C19_35 
REMARK   13  A    between atoms: C19_35  and  O1_36 
ROOT
HETATM    1  C3  UNL     1      -3.794  -2.273   0.750  1.00  0.00    -0.013 A 
HETATM    2  C4  UNL     1      -2.408  -2.322   0.846  1.00  0.00     0.043 A 
HETATM    3  C5  UNL     1      -1.666  -1.162   0.797  1.00  0.00     0.080 A 
HETATM    4  N1  UNL     1      -0.318  -1.128   0.884  1.00  0.00    -0.190 N 
ATOM      5  H1  UNL     1       0.184  -2.009   0.992  1.00  0.00     0.184 HD
HETATM    6  C6  UNL     1       0.386   0.003   0.835  1.00  0.00     0.680 A 
HETATM    7  N4  UNL     1      -0.264   1.178   0.693  1.00  0.00    -0.175 N 
ATOM      8  H4  UNL     1       0.258   2.054   0.654  1.00  0.00     0.186 HD
HETATM    9  C14 UNL     1      -1.612   1.183   0.603  1.00  0.00     0.145 A 
HETATM   10  N5  UNL     1      -2.268   2.277   0.467  1.00  0.00    -0.378 N 
ATOM     11  H5  UNL     1      -3.286   2.266   0.400  1.00  0.00     0.160 HD
HETATM   12  C15 UNL     1      -1.541   3.525   0.411  1.00  0.00     0.147 C 
HETATM   13  C16 UNL     1      -2.363   0.018   0.651  1.00  0.00     0.106 A 
HETATM   14  N6  UNL     1      -3.712   0.035   0.561  1.00  0.00    -0.337 N 
ATOM     15  H6  UNL     1      -4.179   0.936   0.454  1.00  0.00     0.167 HD
HETATM   16  C17 UNL     1      -4.468  -1.073   0.605  1.00  0.00     0.108 A 
HETATM   17  N7  UNL     1      -5.748  -1.095   0.524  1.00  0.00    -0.374 N 
ATOM     18  H7  UNL     1      -6.186  -2.015   0.573  1.00  0.00     0.161 HD
ENDROOT
BRANCH   6  19
HETATM   19  N2  UNL     1       1.669   0.018   0.921  1.00  0.00    -0.226 N 
ATOM     20  H2  UNL     1       2.169   0.906   0.880  1.00  0.00     0.177 HD
BRANCH  19  21
HETATM   21  C7  UNL     1       2.399  -1.199   1.074  1.00  0.00     0.138 C 
BRANCH  21  22
HETATM   22  C8  UNL     1       3.875  -0.974   1.306  1.00  0.00     0.020 C 
BRANCH  22  23
HETATM   23  C9  UNL     1       4.523  -0.234   0.167  1.00  0.00     0.002 C 
BRANCH  23  24
HETATM   24  C10 UNL     1       5.998  -0.032   0.443  1.00  0.00     0.000 C 
BRANCH  24  25
HETATM   25  C11 UNL     1       6.649   0.705  -0.687  1.00  0.00     0.002 C 
BRANCH  25  26
HETATM   26  C12 UNL     1       8.114   0.907  -0.415  1.00  0.00     0.027 C 
BRANCH  26  27
HETATM   27  C13 UNL     1       8.788   1.656  -1.557  1.00  0.00     0.229 C 
BRANCH  27  28
HETATM   28  N3  UNL     1      10.196   1.832  -1.257  1.00  0.00    -0.079 N 
ATOM     29  H33 UNL     1      10.344   2.288  -0.357  1.00  0.00     0.274 HD
ATOM     30  H32 UNL     1      10.659   0.947  -1.050  1.00  0.00     0.274 HD
ATOM     31  H31 UNL     1      10.647   2.334  -2.022  1.00  0.00     0.274 HD
ENDBRANCH  27  28
ENDBRANCH  26  27
ENDBRANCH  25  26
ENDBRANCH  24  25
ENDBRANCH  23  24
ENDBRANCH  22  23
ENDBRANCH  21  22
ENDBRANCH  19  21
ENDBRANCH   6  19
BRANCH   1  32
HETATM   32  C2  UNL     1      -4.596  -3.510   0.801  1.00  0.00     0.038 C 
HETATM   33  C1  UNL     1      -5.110  -3.946  -0.542  1.00  0.00     0.010 C 
ENDBRANCH   1  32
BRANCH  17  34
HETATM   34  C18 UNL     1      -6.632   0.018   0.373  1.00  0.00     0.147 C 
BRANCH  34  35
HETATM   35  C19 UNL     1      -7.193   0.167  -0.998  1.00  0.00     0.186 C 
BRANCH  35  36
HETATM   36  O1  UNL     1      -8.037   1.253  -1.068  1.00  0.00    -0.394 OA
HETATM   37  C20 UNL     1      -7.463   2.466  -0.794  1.00  0.00     0.201 C 
ENDBRANCH  35  36
ENDBRANCH  34  35
ENDBRANCH  17  34
TORSDOF 13
