REMARK  11 active torsions:
REMARK  status: ('A' for Active; 'I' for Inactive)
REMARK    1  A    between atoms: C1_4  and  C2_6 
REMARK    2  A    between atoms: C5_9  and  C6_10 
REMARK    3  A    between atoms: C6_10  and  C7_11 
REMARK    4  A    between atoms: C7_11  and  C8_12 
REMARK    5  A    between atoms: C8_12  and  C9_14 
REMARK    6  A    between atoms: C9_14  and  N3_15 
REMARK    7  A    between atoms: C9_14  and  C18_28 
REMARK    8  A    between atoms: N3_15  and  O2_17 
REMARK    9  A    between atoms: O2_17  and  C10_18 
REMARK   10  A    between atoms: C10_18  and  C11_19 
REMARK   11  A    between atoms: C12_20  and  C13_21 
ROOT
HETATM    1  C9  UNL     1       0.325   0.832   0.595  1.00  0.00     0.264 C 
ENDROOT
BRANCH   1   2
HETATM    2  C8  UNL     1      -0.366  -0.480   0.286  1.00  0.00     0.160 C 
HETATM    3  O1  UNL     1       0.277  -1.431  -0.097  1.00  0.00    -0.295 OA
BRANCH   2   4
HETATM    4  C7  UNL     1      -1.824  -0.565   0.452  1.00  0.00     0.086 C 
BRANCH   4   5
HETATM    5  C6  UNL     1      -2.418   0.340  -0.648  1.00  0.00     0.046 C 
BRANCH   5   6
HETATM    6  C5  UNL     1      -3.872   0.242  -0.518  1.00  0.00    -0.058 A 
HETATM    7  C4  UNL     1      -4.542   1.121   0.287  1.00  0.00     0.008 A 
HETATM    8  C3  UNL     1      -5.914   1.016   0.427  1.00  0.00     0.015 A 
HETATM    9  C2  UNL     1      -6.594   0.009  -0.255  1.00  0.00     0.004 A 
HETATM   10  C20 UNL     1      -5.923  -0.853  -1.046  1.00  0.00     0.015 A 
HETATM   11  C19 UNL     1      -4.555  -0.740  -1.180  1.00  0.00     0.008 A 
BRANCH   9  12
HETATM   12  C1  UNL     1      -8.037  -0.030  -0.127  1.00  0.00     0.120 C 
HETATM   13  N1  UNL     1      -8.776  -1.008  -0.612  1.00  0.00    -0.387 N 
ATOM     14  H12 UNL     1      -9.792  -1.035  -0.522  1.00  0.00     0.157 HD
ATOM     15  H11 UNL     1      -8.288  -1.774  -1.076  1.00  0.00     0.157 HD
HETATM   16  N2  UNL     1      -8.714   1.034   0.517  1.00  0.00    -0.082 NA
ENDBRANCH   9  12
ENDBRANCH   5   6
ENDBRANCH   4   5
ENDBRANCH   2   4
ENDBRANCH   1   2
BRANCH   1  17
HETATM   17  N3  UNL     1       1.630   0.741   0.158  1.00  0.00    -0.282 N 
ATOM     18  H3  UNL     1       1.924   1.507  -0.447  1.00  0.00     0.189 HD
BRANCH  17  19
HETATM   19  O2  UNL     1       2.557  -0.153   0.382  1.00  0.00    -0.280 OA
BRANCH  19  20
HETATM   20  C10 UNL     1       3.834   0.584   0.433  1.00  0.00     0.228 C 
BRANCH  20  21
HETATM   21  C11 UNL     1       4.485   0.308  -0.840  1.00  0.00     0.004 C 
HETATM   22  C12 UNL     1       5.544  -0.205  -1.223  1.00  0.00     0.027 C 
BRANCH  22  23
HETATM   23  C13 UNL     1       6.690  -0.789  -0.555  1.00  0.00     0.031 A 
HETATM   24  C14 UNL     1       7.674  -1.257  -1.275  1.00  0.00     0.029 A 
HETATM   25  C15 UNL     1       8.867  -1.848  -0.686  1.00  0.00     0.004 A 
HETATM   26  C16 UNL     1       8.921  -1.898   0.643  1.00  0.00     0.017 A 
HETATM   27  C17 UNL     1       7.831  -1.392   1.459  1.00  0.00     0.088 A 
HETATM   28  N4  UNL     1       6.796  -0.875   0.895  1.00  0.00    -0.366 N 
ATOM     29  H4  UNL     1       6.036  -0.519   1.474  1.00  0.00     0.165 HD
ENDBRANCH  22  23
ENDBRANCH  20  21
ENDBRANCH  19  20
ENDBRANCH  17  19
ENDBRANCH   1  17
BRANCH   1  30
HETATM   30  C18 UNL     1       0.135   1.112   2.014  1.00  0.00     0.263 C 
HETATM   31  N5  UNL     1      -0.751   2.087   2.451  1.00  0.00    -0.060 NA
HETATM   32  O3  UNL     1       0.832   0.437   2.829  1.00  0.00    -0.274 OA
ENDBRANCH   1  30
TORSDOF 11
