REMARK  18 active torsions:
REMARK  status: ('A' for Active; 'I' for Inactive)
REMARK    1  A    between atoms: O1_2  and  C2_3 
REMARK    2  A    between atoms: C2_3  and  C3_5 
REMARK    3  A    between atoms: C3_5  and  O3_6 
REMARK    4  A    between atoms: C3_5  and  C8_14 
REMARK    5  A    between atoms: O3_6  and  C4_7 
REMARK    6  A    between atoms: C10_16  and  O5_17 
REMARK    7  A    between atoms: C10_16  and  N2_19 
REMARK    8  A    between atoms: N2_19  and  C11_21 
REMARK    9  A    between atoms: C14_24  and  C15_25 
REMARK   10  A    between atoms: C15_25  and  C16_26 
REMARK   11  A    between atoms: C15_25  and  C17_31 
REMARK   12  A    between atoms: C16_26  and  O6_27 
REMARK   13  A    between atoms: C16_26  and  O7_29 
REMARK   14  A    between atoms: C17_31  and  O8_32 
REMARK   15  A    between atoms: C17_31  and  O9_34 
REMARK   16  A    between atoms: C17_31  and  O10_36 
REMARK   17  A    between atoms: O10_36  and  C18_37 
REMARK   18  A    between atoms: N3_39  and  N4_41 
ROOT
HETATM    1  C11 UNL     1       0.929  -0.475  -0.110  1.00  0.00     0.030 A 
HETATM    2  C12 UNL     1       1.620  -1.592  -0.599  1.00  0.00     0.030 A 
HETATM    3  C13 UNL     1       2.985  -1.538  -0.735  1.00  0.00     0.010 A 
HETATM    4  C14 UNL     1       3.733  -0.425  -0.413  1.00  0.00    -0.041 A 
HETATM    5  C20 UNL     1       3.009   0.671   0.072  1.00  0.00     0.010 A 
HETATM    6  C21 UNL     1       1.634   0.650   0.221  1.00  0.00     0.030 A 
ENDROOT
BRANCH   1   7
HETATM    7  N2  UNL     1      -0.470  -0.553   0.032  1.00  0.00    -0.358 N 
ATOM      8  H2  UNL     1      -0.921  -1.450  -0.147  1.00  0.00     0.162 HD
BRANCH   7   9
HETATM    9  C10 UNL     1      -1.290   0.543   0.410  1.00  0.00     0.141 C 
HETATM   10  C9  UNL     1      -2.741   0.138   0.570  1.00  0.00     0.080 C 
HETATM   11  C8  UNL     1      -3.361   0.017  -0.786  1.00  0.00     0.091 C 
HETATM   12  S1  UNL     1      -2.764   1.601  -1.508  1.00  0.00    -0.156 SA
HETATM   13  C22 UNL     1      -1.246   1.742  -0.475  1.00  0.00     0.135 C 
BRANCH  11  14
HETATM   14  C3  UNL     1      -4.859   0.014  -0.669  1.00  0.00     0.243 C 
BRANCH  14  15
HETATM   15  C2  UNL     1      -5.385   1.249  -0.047  1.00  0.00     0.289 C 
HETATM   16  O2  UNL     1      -6.041   1.241   1.050  1.00  0.00    -0.262 OA
BRANCH  15  17
HETATM   17  O1  UNL     1      -5.205   2.509  -0.611  1.00  0.00    -0.324 OA
HETATM   18  C1  UNL     1      -5.720   3.675   0.006  1.00  0.00     0.213 C 
ENDBRANCH  15  17
ENDBRANCH  14  15
BRANCH  14  19
HETATM   19  O3  UNL     1      -5.213  -1.085   0.150  1.00  0.00    -0.321 OA
BRANCH  19  20
HETATM   20  C4  UNL     1      -6.551  -1.327   0.374  1.00  0.00     0.138 C 
HETATM   21  N1  UNL     1      -7.400  -0.957  -0.505  1.00  0.00    -0.370 N 
HETATM   22  C5  UNL     1      -8.839  -1.177  -0.342  1.00  0.00     0.147 C 
ATOM     23  H1  UNL     1      -7.065  -0.493  -1.349  1.00  0.00     0.161 HD
HETATM   24  C6  UNL     1      -9.147  -2.039   0.849  1.00  0.00     0.187 C 
HETATM   25  O4  UNL     1      -8.079  -2.852   1.223  1.00  0.00    -0.382 OA
HETATM   26  C7  UNL     1      -7.041  -2.008   1.614  1.00  0.00     0.251 C 
ENDBRANCH  19  20
ENDBRANCH  14  19
ENDBRANCH  11  14
BRANCH   9  27
HETATM   27  O5  UNL     1      -0.903   0.958   1.706  1.00  0.00    -0.370 OA
ATOM     28  H5  UNL     1       0.007   1.212   1.606  1.00  0.00     0.212 HD
ENDBRANCH   9  27
ENDBRANCH   7   9
ENDBRANCH   1   7
BRANCH   4  29
HETATM   29  C15 UNL     1       5.197  -0.341  -0.549  1.00  0.00     0.167 C 
BRANCH  29  30
HETATM   30  C16 UNL     1       5.597  -0.479  -2.005  1.00  0.00     0.270 C 
BRANCH  30  31
HETATM   31  O6  UNL     1       5.219  -1.664  -2.572  1.00  0.00    -0.370 OA
ATOM     32  H6  UNL     1       5.470  -1.750  -3.484  1.00  0.00     0.212 HD
ENDBRANCH  30  31
BRANCH  30  33
HETATM   33  O7  UNL     1       4.928   0.548  -2.708  1.00  0.00    -0.370 OA
ATOM     34  H7  UNL     1       5.179   0.462  -3.620  1.00  0.00     0.212 HD
ENDBRANCH  30  33
ENDBRANCH  29  30
BRANCH  29  35
HETATM   35  C17 UNL     1       5.914  -1.291   0.357  1.00  0.00     0.296 C 
BRANCH  35  36
HETATM   36  O8  UNL     1       5.543  -0.957   1.673  1.00  0.00    -0.342 OA
ATOM     37  H8  UNL     1       5.998  -1.560   2.248  1.00  0.00     0.215 HD
ENDBRANCH  35  36
BRANCH  35  38
HETATM   38  O9  UNL     1       5.520  -2.585   0.114  1.00  0.00    -0.342 OA
ATOM     39  H9  UNL     1       5.975  -3.188   0.689  1.00  0.00     0.215 HD
ENDBRANCH  35  38
BRANCH  35  40
HETATM   40  O10 UNL     1       7.324  -1.210   0.215  1.00  0.00    -0.276 OA
BRANCH  40  41
HETATM   41  C18 UNL     1       7.957  -0.023   0.477  1.00  0.00     0.134 C 
HETATM   42  C19 UNL     1       9.162   0.381  -0.286  1.00  0.00     0.099 C 
HETATM   43  N3  UNL     1       7.497   0.744   1.394  1.00  0.00    -0.290 N 
ATOM     44  H3  UNL     1       6.668   0.476   1.925  1.00  0.00     0.188 HD
BRANCH  43  45
HETATM   45  N4  UNL     1       8.145   1.951   1.656  1.00  0.00    -0.343 N 
ATOM     46  H42 UNL     1       8.972   2.205   1.116  1.00  0.00     0.176 HD
ATOM     47  H41 UNL     1       7.779   2.562   2.386  1.00  0.00     0.176 HD
ENDBRANCH  43  45
ENDBRANCH  40  41
ENDBRANCH  35  40
ENDBRANCH  29  35
ENDBRANCH   4  29
TORSDOF 18
