REMARK  0 active torsions:
REMARK  status: ('A' for Active; 'I' for Inactive)
ROOT
HETATM    1  C1  UNL     1       2.177  -0.152   0.079  1.00  0.00     0.144 C 
HETATM    2  C2  UNL     1       1.143   0.872   0.545  1.00  0.00     0.294 C 
HETATM    3  N1  UNL     1       0.073   0.815  -0.410  1.00  0.00     0.123 N 
HETATM    4  C3  UNL     1      -0.983   1.740  -0.184  1.00  0.00     0.503 C 
HETATM    5  N2  UNL     1      -2.207   0.998  -0.063  1.00  0.00    -0.047 N 
ATOM      6  H21 UNL     1      -2.890   1.234  -0.783  1.00  0.00     0.279 HD
ATOM      7  H22 UNL     1      -2.765   1.277   0.744  1.00  0.00     0.279 HD
HETATM    8  C4  UNL     1      -1.859  -0.401  -0.052  1.00  0.00     0.271 C 
HETATM    9  C5  UNL     1      -0.454  -0.477  -0.653  1.00  0.00     0.267 C 
HETATM   10  C6  UNL     1       0.265  -1.613  -0.041  1.00  0.00     0.151 C 
HETATM   11  N3  UNL     1       1.664  -1.476   0.117  1.00  0.00    -0.417 N 
ATOM     12  H3  UNL     1       2.272  -2.284   0.251  1.00  0.00     0.153 HD
ENDROOT
TORSDOF 0
