REMARK  11 active torsions:
REMARK  status: ('A' for Active; 'I' for Inactive)
REMARK    1  A    between atoms: C2_2  and  C3_3 
REMARK    2  A    between atoms: C3_3  and  N1_4 
REMARK    3  A    between atoms: C4_5  and  C5_6 
REMARK    4  A    between atoms: C5_6  and  S1_7 
REMARK    5  A    between atoms: S1_7  and  C6_8 
REMARK    6  A    between atoms: C7_11  and  C8_12 
REMARK    7  A    between atoms: C12_18  and  N5_19 
REMARK    8  A    between atoms: N5_19  and  C13_21 
REMARK    9  A    between atoms: C18_28  and  C19_29 
REMARK   10  A    between atoms: C19_29  and  O1_30 
REMARK   11  A    between atoms: N7_32  and  O2_34 
ROOT
HETATM    1  C8  UNL     1       2.007   4.120  -0.448  1.00  0.00     0.182 C 
HETATM    2  C9  UNL     1       2.960   4.680  -1.390  1.00  0.00     0.065 C 
HETATM    3  N3  UNL     1       3.706   5.136  -2.140  1.00  0.00    -0.197 NA
ENDROOT
BRANCH   1   4
HETATM    4  C7  UNL     1       2.200   2.623  -0.450  1.00  0.00     0.049 A 
HETATM    5  N2  UNL     1       1.343   1.815  -1.073  1.00  0.00    -0.338 N 
HETATM    6  C6  UNL     1       1.464   0.476  -1.108  1.00  0.00     0.146 A 
ATOM      7  H2  UNL     1       0.548   2.237  -1.552  1.00  0.00     0.168 HD
HETATM    8  N6  UNL     1       2.544  -0.048  -0.454  1.00  0.00    -0.322 N 
HETATM    9  C12 UNL     1       3.468   0.648   0.203  1.00  0.00     0.126 A 
ATOM     10  H6  UNL     1       2.651  -1.062  -0.471  1.00  0.00     0.169 HD
HETATM   11  C10 UNL     1       3.265   2.046   0.190  1.00  0.00     0.111 A 
HETATM   12  C11 UNL     1       4.183   2.910   0.858  1.00  0.00     0.105 C 
HETATM   13  N4  UNL     1       4.924   3.630   1.400  1.00  0.00    -0.191 NA
BRANCH   6  14
HETATM   14  S1  UNL     1       0.340  -0.572  -1.978  1.00  0.00    -0.092 SA
BRANCH  14  15
HETATM   15  C5  UNL     1      -0.968  -1.337  -1.037  1.00  0.00     0.118 C 
BRANCH  15  16
HETATM   16  C4  UNL     1      -2.020  -0.416  -0.478  1.00  0.00     0.233 C 
HETATM   17  N1  UNL     1      -3.102  -1.046   0.204  1.00  0.00     0.106 N 
HETATM   18  C18 UNL     1      -3.386  -0.308   1.424  1.00  0.00     0.299 C 
HETATM   19  C17 UNL     1      -2.050   0.226   1.871  1.00  0.00     0.047 C 
HETATM   20  C16 UNL     1      -1.292   0.432   0.570  1.00  0.00     0.039 C 
BRANCH  17  21
HETATM   21  C3  UNL     1      -4.268  -1.229  -0.583  1.00  0.00     0.273 C 
BRANCH  21  22
HETATM   22  C2  UNL     1      -4.215  -2.254  -1.673  1.00  0.00     0.026 C 
HETATM   23  C1  UNL     1      -3.971  -3.653  -1.143  1.00  0.00     0.007 C 
ENDBRANCH  21  22
ENDBRANCH  17  21
BRANCH  18  24
HETATM   24  C19 UNL     1      -4.342   0.793   1.274  1.00  0.00     0.169 C 
HETATM   25  N7  UNL     1      -3.934   2.017   1.478  1.00  0.00    -0.249 N 
ATOM     26  H7  UNL     1      -2.963   2.193   1.737  1.00  0.00     0.196 HD
BRANCH  24  27
HETATM   27  O1  UNL     1      -5.669   0.630   0.926  1.00  0.00    -0.346 OA
ATOM     28  H1  UNL     1      -6.289   1.344   0.829  1.00  0.00     0.219 HD
ENDBRANCH  24  27
BRANCH  25  29
HETATM   29  O2  UNL     1      -4.805   3.062   1.345  1.00  0.00    -0.288 OA
ATOM     30  H2  UNL     1      -4.508   3.952   1.493  1.00  0.00     0.244 HD
ENDBRANCH  25  29
ENDBRANCH  18  24
ENDBRANCH  15  16
ENDBRANCH  14  15
ENDBRANCH   6  14
BRANCH   9  31
HETATM   31  N5  UNL     1       4.466   0.254   0.816  1.00  0.00    -0.371 N 
ATOM     32  H5  UNL     1       4.951   1.066   1.199  1.00  0.00     0.161 HD
BRANCH  31  33
HETATM   33  C13 UNL     1       5.163  -0.877   1.171  1.00  0.00     0.075 C 
HETATM   34  C14 UNL     1       6.598  -0.937   0.659  1.00  0.00     0.031 C 
HETATM   35  C15 UNL     1       4.559  -2.221   0.887  1.00  0.00     0.031 C 
ENDBRANCH  31  33
ENDBRANCH   9  31
ENDBRANCH   1   4
TORSDOF 11
