REMARK  9 active torsions:
REMARK  status: ('A' for Active; 'I' for Inactive)
REMARK    1  A    between atoms: N1_1  and  C1_5 
REMARK    2  A    between atoms: C1_5  and  O1_6 
REMARK    3  A    between atoms: C2_13  and  N5_14 
REMARK    4  A    between atoms: N5_14  and  C3_16 
REMARK    5  A    between atoms: C3_16  and  C4_17 
REMARK    6  A    between atoms: C6_23  and  N8_24 
REMARK    7  A    between atoms: C7_26  and  C8_27 
REMARK    8  A    between atoms: C12_31  and  C13_32 
REMARK    9  A    between atoms: C13_32  and  O2_33 
ROOT
HETATM    1  C4  UNL     1       0.970  -0.152   1.037  1.00  0.00     0.072 A 
HETATM    2  N6  UNL     1       1.920  -0.318   1.945  1.00  0.00    -0.351 N 
ATOM      3  H6  UNL     1       2.849   0.102   1.920  1.00  0.00     0.166 HD
HETATM    4  C5  UNL     1       1.448  -1.138   2.910  1.00  0.00     0.182 A 
HETATM    5  N7  UNL     1       0.193  -1.500   2.623  1.00  0.00    -0.337 N 
ATOM      6  H7  UNL     1      -0.409  -2.112   3.174  1.00  0.00     0.168 HD
HETATM    7  C6  UNL     1      -0.120  -0.890   1.452  1.00  0.00     0.130 A 
ENDROOT
BRANCH   1   8
HETATM    8  C3  UNL     1       0.950   0.645  -0.226  1.00  0.00     0.184 C 
BRANCH   8   9
HETATM    9  N5  UNL     1       2.175   1.331  -0.468  1.00  0.00    -0.349 N 
ATOM     10  H5  UNL     1       2.149   2.348  -0.538  1.00  0.00     0.163 HD
BRANCH   9  11
HETATM   11  C2  UNL     1       3.433   0.683  -0.618  1.00  0.00     0.240 C 
HETATM   12  N4  UNL     1       3.668  -0.175  -1.571  1.00  0.00    -0.253 N 
HETATM   13  N3  UNL     1       4.918  -0.781  -1.673  1.00  0.00    -0.237 N 
ATOM     14  H4  UNL     1       2.935  -0.403  -2.243  1.00  0.00     0.191 HD
HETATM   15  N2  UNL     1       6.034  -0.098  -1.201  1.00  0.00    -0.029 NA
ATOM     16  H3  UNL     1       5.013  -1.709  -2.086  1.00  0.00     0.204 HD
HETATM   17  C1  UNL     1       5.756   0.359   0.130  1.00  0.00     0.443 C 
HETATM   18  O3  UNL     1       4.467   0.945   0.255  1.00  0.00    -0.242 OA
BRANCH  17  19
HETATM   19  N1  UNL     1       5.813  -0.759   1.023  1.00  0.00    -0.003 N 
ATOM     20  H13 UNL     1       6.751  -1.160   1.054  1.00  0.00     0.282 HD
ATOM     21  H12 UNL     1       5.733  -0.460   1.995  1.00  0.00     0.282 HD
ATOM     22  H11 UNL     1       5.116  -1.468   0.796  1.00  0.00     0.282 HD
ENDBRANCH  17  19
BRANCH  17  23
HETATM   23  O1  UNL     1       6.716   1.335   0.442  1.00  0.00    -0.328 OA
ATOM     24  H1  UNL     1       6.678   2.077  -0.150  1.00  0.00     0.216 HD
ENDBRANCH  17  23
ENDBRANCH   9  11
ENDBRANCH   8   9
ENDBRANCH   1   8
BRANCH   7  25
HETATM   25  N8  UNL     1      -1.381  -1.031   0.814  1.00  0.00    -0.348 N 
HETATM   26  C7  UNL     1      -2.203  -0.045   0.666  1.00  0.00     0.119 C 
ATOM     27  H8  UNL     1      -1.649  -1.949   0.458  1.00  0.00     0.167 HD
BRANCH  26  28
HETATM   28  C8  UNL     1      -3.474  -0.286  -0.002  1.00  0.00     0.048 A 
HETATM   29  C9  UNL     1      -3.807  -1.532  -0.472  1.00  0.00     0.031 A 
HETATM   30  C10 UNL     1      -5.040  -1.669  -1.096  1.00  0.00     0.004 A 
HETATM   31  C11 UNL     1      -5.892  -0.591  -1.235  1.00  0.00     0.027 A 
HETATM   32  C12 UNL     1      -5.509   0.644  -0.744  1.00  0.00     0.033 A 
HETATM   33  N9  UNL     1      -4.325   0.742  -0.153  1.00  0.00    -0.357 N 
ATOM     34  H9  UNL     1      -4.044   1.653   0.209  1.00  0.00     0.166 HD
BRANCH  32  35
HETATM   35  C13 UNL     1      -6.396   1.838  -0.871  1.00  0.00     0.221 C 
BRANCH  35  36
HETATM   36  O2  UNL     1      -7.242   1.948   0.237  1.00  0.00    -0.395 OA
ATOM     37  H2  UNL     1      -7.806   2.708   0.156  1.00  0.00     0.209 HD
ENDBRANCH  35  36
ENDBRANCH  32  35
ENDBRANCH  26  28
ENDBRANCH   7  25
TORSDOF 9
