REMARK  3 active torsions:
REMARK  status: ('A' for Active; 'I' for Inactive)
REMARK    1  A    between atoms: N1_1  and  C1_5 
REMARK    2  A    between atoms: C1_5  and  C2_6 
REMARK    3  A    between atoms: C4_8  and  N2_9 
ROOT
HETATM    1  C2  UNL     1       0.165   0.179  -0.518  1.00  0.00    -0.023 A 
HETATM    2  C3  UNL     1      -0.772   1.179  -1.002  1.00  0.00     0.017 A 
HETATM    3  C4  UNL     1      -1.269  -0.110  -0.674  1.00  0.00     0.237 A 
ENDROOT
BRANCH   1   4
HETATM    4  C1  UNL     1       1.570  -0.063  -0.198  1.00  0.00     0.266 C 
BRANCH   4   5
HETATM    5  N1  UNL     1       1.806  -0.432   1.174  1.00  0.00    -0.076 N 
ATOM      6  H13 UNL     1       1.411   0.265   1.805  1.00  0.00     0.274 HD
ATOM      7  H12 UNL     1       1.237  -1.239   1.430  1.00  0.00     0.274 HD
ATOM      8  H11 UNL     1       2.787  -0.601   1.397  1.00  0.00     0.274 HD
ENDBRANCH   4   5
ENDBRANCH   1   4
BRANCH   3   9
HETATM    9  N2  UNL     1      -2.044  -0.313   0.517  1.00  0.00    -0.068 N 
ATOM     10  H23 UNL     1      -1.612  -1.048   1.077  1.00  0.00     0.275 HD
ATOM     11  H22 UNL     1      -1.929   0.491   1.133  1.00  0.00     0.275 HD
ATOM     12  H21 UNL     1      -3.038  -0.513   0.409  1.00  0.00     0.275 HD
ENDBRANCH   3   9
TORSDOF 3
