REMARK  3 active torsions:
REMARK  status: ('A' for Active; 'I' for Inactive)
REMARK    1  A    between atoms: C5_5  and  C6_6 
REMARK    2  A    between atoms: C6_6  and  C7_7 
REMARK    3  A    between atoms: C7_7  and  N1_8 
ROOT
HETATM    1  C1  UNL     1      -2.420   2.716  -0.328  1.00  0.00     0.049 C 
HETATM    2  C2  UNL     1      -2.061   1.307  -0.114  1.00  0.00    -0.043 A 
HETATM    3  C3  UNL     1      -0.726   0.919   0.056  1.00  0.00     0.022 A 
HETATM    4  C4  UNL     1      -0.336  -0.385   0.260  1.00  0.00     0.001 A 
HETATM    5  C5  UNL     1       0.897  -0.976   0.447  1.00  0.00    -0.029 A 
HETATM    6  C10 UNL     1       0.636  -2.332   0.599  1.00  0.00     0.096 A 
HETATM    7  N2  UNL     1      -0.686  -2.530   0.506  1.00  0.00    -0.363 N 
ATOM      8  H2  UNL     1      -1.150  -3.435   0.581  1.00  0.00     0.165 HD
HETATM    9  C11 UNL     1      -1.304  -1.365   0.300  1.00  0.00     0.071 A 
HETATM   10  C12 UNL     1      -2.638  -1.036   0.138  1.00  0.00     0.080 A 
HETATM   11  N3  UNL     1      -3.555  -2.030   0.185  1.00  0.00    -0.305 N 
ATOM     12  H3  UNL     1      -3.263  -2.995   0.338  1.00  0.00     0.171 HD
HETATM   13  C13 UNL     1      -4.856  -1.730   0.028  1.00  0.00     0.327 A 
HETATM   14  O1  UNL     1      -5.758  -2.615   0.061  1.00  0.00    -0.247 OA
HETATM   15  N4  UNL     1      -5.220  -0.452  -0.171  1.00  0.00    -0.275 N 
ATOM     16  H4  UNL     1      -6.209  -0.232  -0.289  1.00  0.00     0.173 HD
HETATM   17  C14 UNL     1      -4.312   0.555  -0.220  1.00  0.00     0.262 A 
HETATM   18  O2  UNL     1      -4.687   1.726  -0.404  1.00  0.00    -0.267 OA
HETATM   19  C15 UNL     1      -2.982   0.271  -0.062  1.00  0.00     0.067 A 
ENDROOT
BRANCH   5  20
HETATM   20  C6  UNL     1       2.212  -0.330   0.480  1.00  0.00     0.071 C 
BRANCH  20  21
HETATM   21  C7  UNL     1       2.758   0.063  -0.859  1.00  0.00     0.276 C 
BRANCH  21  22
HETATM   22  N1  UNL     1       4.040   0.683  -0.704  1.00  0.00     0.080 N 
HETATM   23  C8  UNL     1       5.063  -0.239  -0.256  1.00  0.00     0.309 C 
HETATM   24  C9  UNL     1       4.053   1.866   0.096  1.00  0.00     0.309 C 
ENDBRANCH  21  22
ENDBRANCH  20  21
ENDBRANCH   5  20
TORSDOF 3
