REMARK  5 active torsions:
REMARK  status: ('A' for Active; 'I' for Inactive)
REMARK    1  A    between atoms: C2_2  and  C3_3 
REMARK    2  A    between atoms: C3_3  and  C6_6 
REMARK    3  A    between atoms: C6_6  and  C7_7 
REMARK    4  A    between atoms: C7_7  and  O1_8 
REMARK    5  A    between atoms: N1_11  and  C9_12 
ROOT
HETATM    1  C7  UNL     1       0.215   0.398   0.672  1.00  0.00     0.070 C 
HETATM    2  C8  UNL     1      -1.032   0.120   0.437  1.00  0.00     0.083 C 
HETATM    3  N1  UNL     1      -2.077   1.161   0.369  1.00  0.00    -0.231 N 
HETATM    4  N3  UNL     1      -2.968   0.728  -0.674  1.00  0.00    -0.260 N 
ATOM      5  H3  UNL     1      -3.804   1.215  -0.996  1.00  0.00     0.190 HD
HETATM    6  C10 UNL     1      -2.467  -0.505  -1.172  1.00  0.00     0.250 C 
HETATM    7  O2  UNL     1      -2.543  -0.960  -2.299  1.00  0.00    -0.271 OA
HETATM    8  C11 UNL     1      -1.816  -1.081   0.098  1.00  0.00     0.082 C 
HETATM    9  C12 UNL     1      -2.982  -1.270   1.053  1.00  0.00     0.032 C 
HETATM   10  C13 UNL     1      -1.171  -2.358  -0.194  1.00  0.00     0.032 C 
ENDROOT
BRANCH   1  11
HETATM   11  C6  UNL     1       1.295  -0.572   0.762  1.00  0.00     0.079 C 
BRANCH  11  12
HETATM   12  C3  UNL     1       2.428  -0.371  -0.224  1.00  0.00    -0.025 C 
HETATM   13  C4  UNL     1       3.420  -1.476   0.060  1.00  0.00     0.019 C 
HETATM   14  C5  UNL     1       1.951  -0.380  -1.661  1.00  0.00     0.019 C 
BRANCH  12  15
HETATM   15  C2  UNL     1       3.119   0.932  -0.037  1.00  0.00    -0.028 C 
HETATM   16  C1  UNL     1       3.973   1.311  -1.002  1.00  0.00     0.007 C 
ENDBRANCH  12  15
ENDBRANCH  11  12
ENDBRANCH   1  11
BRANCH   1  17
HETATM   17  O1  UNL     1       0.632   1.736   0.860  1.00  0.00    -0.363 OA
ATOM     18  H1  UNL     1      -0.073   2.370   0.801  1.00  0.00     0.217 HD
ENDBRANCH   1  17
BRANCH   3  19
HETATM   19  C9  UNL     1      -2.290   2.285   1.165  1.00  0.00     0.206 C 
HETATM   20  N2  UNL     1      -3.386   3.162   0.831  1.00  0.00    -0.068 NA
HETATM   21  S1  UNL     1      -1.455   2.637   2.492  1.00  0.00    -0.042 SA
ENDBRANCH   3  19
TORSDOF 5
