REMARK  7 active torsions:
REMARK  status: ('A' for Active; 'I' for Inactive)
REMARK    1  A    between atoms: C2_2  and  N1_4 
REMARK    2  A    between atoms: C2_2  and  C15_21 
REMARK       I    between atoms: N1_4  and  C4_6 
REMARK       I    between atoms: C4_6  and  N2_8 
REMARK    3  A    between atoms: N2_8  and  C5_9 
REMARK    4  A    between atoms: C10_14  and  C11_15 
REMARK    5  A    between atoms: C15_21  and  O5_23 
REMARK    6  A    between atoms: O5_23  and  C16_24 
REMARK    7  A    between atoms: C16_24  and  C17_25 
ROOT
HETATM    1  N1  UNL     1       1.485  -0.705   0.493  1.00  0.00    -0.313 N 
ATOM      2  H1  UNL     1       0.959  -1.472   0.075  1.00  0.00     0.166 HD
HETATM    3  C4  UNL     1       0.750   0.239   1.345  1.00  0.00     0.390 C 
HETATM    4  O1  UNL     1       1.541   1.121   1.817  1.00  0.00    -0.231 OA
HETATM    5  N2  UNL     1      -0.569   0.139   1.565  1.00  0.00    -0.390 NA
ENDROOT
BRANCH   1   6
HETATM    6  C2  UNL     1       2.867  -0.628   0.210  1.00  0.00     0.116 C 
HETATM    7  C1  UNL     1       3.738  -0.522   1.450  1.00  0.00     0.049 C 
HETATM    8  C3  UNL     1       3.248  -2.052  -0.333  1.00  0.00     0.049 C 
BRANCH   6   9
HETATM    9  C15 UNL     1       3.275   0.374  -0.787  1.00  0.00     0.286 C 
HETATM   10  O4  UNL     1       2.342   1.077  -1.308  1.00  0.00    -0.262 OA
BRANCH   9  11
HETATM   11  O5  UNL     1       4.551   0.624  -1.211  1.00  0.00    -0.318 OA
BRANCH  11  12
HETATM   12  C16 UNL     1       4.960   1.566  -2.174  1.00  0.00     0.194 C 
BRANCH  12  13
HETATM   13  C17 UNL     1       6.490   1.519  -2.277  1.00  0.00     0.141 C 
HETATM   14 CL1  UNL     1       7.203   1.926  -0.678  1.00  0.00    -0.128 Cl
ENDBRANCH  12  13
ENDBRANCH  11  12
ENDBRANCH   9  11
ENDBRANCH   6   9
ENDBRANCH   1   6
BRANCH   5  15
HETATM   15  C5  UNL     1      -1.926   0.037   1.792  1.00  0.00     0.177 C 
HETATM   16  C6  UNL     1      -2.747   1.169   1.121  1.00  0.00     0.024 C 
HETATM   17  C7  UNL     1      -4.088   0.808   1.790  1.00  0.00     0.013 C 
HETATM   18  C12 UNL     1      -2.881   1.010  -0.346  1.00  0.00     0.028 C 
HETATM   19  C8  UNL     1      -4.132  -0.682   1.442  1.00  0.00    -0.006 C 
HETATM   20  C9  UNL     1      -4.695  -0.709   0.038  1.00  0.00     0.025 C 
HETATM   21  C14 UNL     1      -2.683  -1.141   1.299  1.00  0.00     0.027 C 
HETATM   22  C10 UNL     1      -3.429  -0.317  -0.755  1.00  0.00     0.050 C 
HETATM   23  C13 UNL     1      -2.478  -1.360  -0.210  1.00  0.00     0.028 C 
BRANCH  22  24
HETATM   24  C11 UNL     1      -3.668  -0.374  -2.187  1.00  0.00     0.181 C 
HETATM   25  O2  UNL     1      -3.009  -1.105  -2.957  1.00  0.00    -0.647 OA
HETATM   26  O3  UNL     1      -4.676   0.425  -2.704  1.00  0.00    -0.647 OA
ENDBRANCH  22  24
ENDBRANCH   5  15
TORSDOF 7
