REMARK  15 active torsions:
REMARK  status: ('A' for Active; 'I' for Inactive)
REMARK    1  A    between atoms: C2_2  and  C3_3 
REMARK    2  A    between atoms: C3_3  and  C4_4 
REMARK    3  A    between atoms: C4_4  and  C5_5 
REMARK    4  A    between atoms: C5_5  and  C6_6 
REMARK    5  A    between atoms: C6_6  and  C7_7 
REMARK    6  A    between atoms: C7_7  and  C8_8 
REMARK    7  A    between atoms: C8_8  and  O2_10 
REMARK    8  A    between atoms: O2_10  and  C9_11 
REMARK    9  A    between atoms: C10_12  and  O3_13 
REMARK   10  A    between atoms: C16_23  and  C17_24 
REMARK   11  A    between atoms: C17_24  and  O8_25 
REMARK   12  A    between atoms: C17_24  and  C18_27 
REMARK   13  A    between atoms: C18_27  and  O9_28 
REMARK   14  A    between atoms: C19_30  and  O10_31 
REMARK   15  A    between atoms: C21_33  and  O11_35 
ROOT
HETATM    1  C9  UNL     1       0.173   0.069   0.069  1.00  0.00     0.218 C 
HETATM    2  C10 UNL     1       0.131  -0.691   1.416  1.00  0.00     0.291 C 
HETATM    3  O4  UNL     1      -0.382  -1.915   1.078  1.00  0.00    -0.348 OA
HETATM    4  C12 UNL     1      -1.129  -1.829  -0.071  1.00  0.00     0.180 C 
HETATM    5  C13 UNL     1      -2.557  -2.257   0.177  1.00  0.00     0.208 C 
HETATM    6  O5  UNL     1      -3.362  -1.470  -0.643  1.00  0.00    -0.328 OA
HETATM    7  C14 UNL     1      -3.379  -0.182  -0.084  1.00  0.00     0.318 C 
HETATM    8  O6  UNL     1      -2.121   0.263   0.235  1.00  0.00    -0.319 OA
HETATM    9  C15 UNL     1      -1.095  -0.382  -0.501  1.00  0.00     0.193 C 
HETATM   10  O7  UNL     1      -4.130  -0.178   1.088  1.00  0.00    -0.319 OA
HETATM   11  C16 UNL     1      -5.421   0.217   0.779  1.00  0.00     0.190 C 
HETATM   12  C19 UNL     1      -5.275   1.189  -0.320  1.00  0.00     0.194 C 
HETATM   13  C21 UNL     1      -4.057   0.724  -1.068  1.00  0.00     0.166 C 
HETATM   14  C22 UNL     1      -4.475   0.046  -2.337  1.00  0.00     0.057 C 
ENDROOT
BRANCH  13  15
HETATM   15  O11 UNL     1      -3.238   1.829  -1.389  1.00  0.00    -0.379 OA
ATOM     16  H11 UNL     1      -3.668   2.403  -2.012  1.00  0.00     0.211 HD
ENDBRANCH  13  15
BRANCH  11  17
HETATM   17  C17 UNL     1      -6.233  -1.004   0.518  1.00  0.00     0.173 C 
BRANCH  17  18
HETATM   18  O8  UNL     1      -6.176  -1.769   1.713  1.00  0.00    -0.391 OA
ATOM     19  H8  UNL     1      -6.694  -2.548   1.547  1.00  0.00     0.210 HD
ENDBRANCH  17  18
BRANCH  17  20
HETATM   20  C18 UNL     1      -7.711  -0.743   0.314  1.00  0.00     0.198 C 
BRANCH  20  21
HETATM   21  O9  UNL     1      -8.214  -0.047   1.391  1.00  0.00    -0.398 OA
ATOM     22  H9  UNL     1      -9.141   0.117   1.263  1.00  0.00     0.209 HD
ENDBRANCH  20  21
ENDBRANCH  17  20
ENDBRANCH  11  17
BRANCH  12  23
HETATM   23  O10 UNL     1      -6.359   1.428  -1.111  1.00  0.00    -0.385 OA
HETATM   24  C20 UNL     1      -6.764   2.776  -1.101  1.00  0.00     0.202 C 
ENDBRANCH  12  23
BRANCH   1  25
HETATM   25  O2  UNL     1       1.364  -0.213  -0.496  1.00  0.00    -0.308 OA
BRANCH  25  26
HETATM   26  C8  UNL     1       2.455   0.560  -0.762  1.00  0.00     0.259 C 
HETATM   27  O1  UNL     1       2.332   1.759  -0.419  1.00  0.00    -0.265 OA
BRANCH  26  28
HETATM   28  C7  UNL     1       3.708   0.069  -1.401  1.00  0.00     0.111 C 
BRANCH  28  29
HETATM   29  C6  UNL     1       4.865   0.400  -0.446  1.00  0.00     0.010 C 
BRANCH  29  30
HETATM   30  C5  UNL     1       6.186  -0.043  -0.973  1.00  0.00     0.000 C 
BRANCH  30  31
HETATM   31  C4  UNL     1       7.229   0.320   0.078  1.00  0.00     0.000 C 
BRANCH  31  32
HETATM   32  C3  UNL     1       8.559  -0.133  -0.468  1.00  0.00    -0.000 C 
BRANCH  32  33
HETATM   33  C2  UNL     1       9.689   0.167   0.520  1.00  0.00    -0.005 C 
HETATM   34  C1  UNL     1      10.983  -0.306  -0.084  1.00  0.00     0.005 C 
ENDBRANCH  32  33
ENDBRANCH  31  32
ENDBRANCH  30  31
ENDBRANCH  29  30
ENDBRANCH  28  29
ENDBRANCH  26  28
ENDBRANCH  25  26
ENDBRANCH   1  25
BRANCH   2  35
HETATM   35  O3  UNL     1      -0.660  -0.001   2.311  1.00  0.00    -0.363 OA
HETATM   36  C11 UNL     1       0.107   0.385   3.389  1.00  0.00     0.204 C 
ENDBRANCH   2  35
TORSDOF 15
