REMARK  3 active torsions:
REMARK  status: ('A' for Active; 'I' for Inactive)
REMARK    1  A    between atoms: C2_9  and  C3_10 
REMARK    2  A    between atoms: C5_15  and  N6_16 
REMARK    3  A    between atoms: C9_25  and  N9_26 
ROOT
HETATM    1  C3  UNL     1      -1.838   0.438  -0.354  1.00  0.00     0.094 A 
HETATM    2  C4  UNL     1      -1.155  -0.480  -1.116  1.00  0.00     0.137 A 
HETATM    3 CL1  UNL     1      -2.023  -1.467  -2.249  1.00  0.00    -0.063 Cl
HETATM    4  N5  UNL     1       0.180  -0.631  -1.002  1.00  0.00    -0.180 N 
ATOM      5  H5  UNL     1       0.659  -1.321  -1.581  1.00  0.00     0.185 HD
HETATM    6  C5  UNL     1       0.888   0.111  -0.139  1.00  0.00     0.684 A 
HETATM    7  N8  UNL     1       0.236   1.027   0.626  1.00  0.00    -0.176 N 
ATOM      8  H8  UNL     1       0.766   1.597   1.285  1.00  0.00     0.186 HD
HETATM    9  C9  UNL     1      -1.105   1.196   0.529  1.00  0.00     0.132 A 
ENDROOT
BRANCH   1  10
HETATM   10  C2  UNL     1      -3.271   0.658  -0.420  1.00  0.00     0.156 A 
HETATM   11  N1  UNL     1      -4.193   0.024   0.316  1.00  0.00    -0.263 N 
HETATM   12  C1  UNL     1      -3.907  -1.009   1.321  1.00  0.00     0.181 C 
HETATM   13  N2  UNL     1      -5.378   0.498  -0.033  1.00  0.00    -0.225 N 
HETATM   14  N3  UNL     1      -5.241   1.417  -0.969  1.00  0.00    -0.226 N 
ATOM     15  H2  UNL     1      -6.268   0.197   0.364  1.00  0.00     0.210 HD
HETATM   16  N4  UNL     1      -3.948   1.529  -1.222  1.00  0.00    -0.268 N 
ATOM     17  H3  UNL     1      -5.992   1.943  -1.415  1.00  0.00     0.210 HD
ATOM     18  H4  UNL     1      -3.527   2.161  -1.903  1.00  0.00     0.190 HD
ENDBRANCH   1  10
BRANCH   9  19
HETATM   19  N9  UNL     1      -1.698   2.082   1.277  1.00  0.00    -0.384 N 
ATOM     20  H92 UNL     1      -2.707   2.209   1.204  1.00  0.00     0.157 HD
ATOM     21  H91 UNL     1      -1.154   2.644   1.932  1.00  0.00     0.157 HD
ENDBRANCH   9  19
BRANCH   6  22
HETATM   22  N6  UNL     1       2.299  -0.036  -0.006  1.00  0.00    -0.191 N 
HETATM   23  C6  UNL     1       3.196   0.687   0.874  1.00  0.00     0.170 C 
HETATM   24  C7  UNL     1       4.515  -0.037   0.663  1.00  0.00     0.254 C 
HETATM   25  N7  UNL     1       4.414  -0.378  -0.745  1.00  0.00    -0.057 N 
HETATM   26  C8  UNL     1       3.079  -0.983  -0.778  1.00  0.00     0.374 C 
ATOM     27  H72 UNL     1       4.567   0.391  -1.398  1.00  0.00     0.279 HD
ATOM     28  H71 UNL     1       5.170  -0.955  -1.115  1.00  0.00     0.279 HD
ENDBRANCH   6  22
TORSDOF 3
