REMARK  8 active torsions:
REMARK  status: ('A' for Active; 'I' for Inactive)
REMARK    1  A    between atoms: C2_2  and  O1_3 
REMARK    2  A    between atoms: O1_3  and  C3_4 
REMARK    3  A    between atoms: C3_4  and  C4_6 
REMARK       I    between atoms: N1_10  and  C8_11 
REMARK    4  A    between atoms: C8_11  and  C9_13 
REMARK    5  A    between atoms: N2_17  and  C12_18 
REMARK    6  A    between atoms: C12_18  and  N3_20 
REMARK    7  A    between atoms: N3_20  and  C13_22 
REMARK    8  A    between atoms: C13_22  and  C16_25 
ROOT
HETATM    1  C9  UNL     1      -0.459   1.219  -0.071  1.00  0.00     0.189 C 
HETATM    2  C10 UNL     1       0.274   2.150  -0.969  1.00  0.00     0.110 C 
HETATM    3  S1  UNL     1      -0.600   3.746  -0.679  1.00  0.00    -0.147 SA
HETATM    4  C11 UNL     1      -1.454   3.182   0.855  1.00  0.00     0.200 C 
HETATM    5  N2  UNL     1      -1.678   1.792   0.400  1.00  0.00    -0.335 N 
ENDROOT
BRANCH   1   6
HETATM    6  C8  UNL     1       0.337   0.682   1.063  1.00  0.00     0.244 C 
HETATM    7  N1  UNL     1       1.505  -0.098   0.944  1.00  0.00    -0.336 N 
HETATM    8  C4  UNL     1       2.242  -0.584  -0.181  1.00  0.00     0.187 C 
HETATM    9  C7  UNL     1       2.240  -0.622   2.109  1.00  0.00     0.127 C 
HETATM   10  C5  UNL     1       2.559  -2.023   0.221  1.00  0.00     0.037 C 
HETATM   11  C6  UNL     1       2.418  -2.067   1.722  1.00  0.00     0.022 C 
HETATM   12  O3  UNL     1      -0.080   0.953   2.219  1.00  0.00    -0.271 OA
BRANCH   8  13
HETATM   13  C3  UNL     1       3.523   0.095  -0.446  1.00  0.00     0.281 C 
HETATM   14  O2  UNL     1       4.002   1.056   0.169  1.00  0.00    -0.263 OA
BRANCH  13  15
HETATM   15  O1  UNL     1       4.273  -0.418  -1.519  1.00  0.00    -0.320 OA
BRANCH  15  16
HETATM   16  C2  UNL     1       5.518   0.176  -1.841  1.00  0.00     0.174 C 
HETATM   17  C1  UNL     1       6.484   0.101  -0.680  1.00  0.00     0.034 C 
ENDBRANCH  15  16
ENDBRANCH  13  15
ENDBRANCH   8  13
ENDBRANCH   1   6
BRANCH   5  18
HETATM   18  C12 UNL     1      -2.956   1.196   0.468  1.00  0.00     0.172 C 
HETATM   19  S2  UNL     1      -4.222   2.037   1.041  1.00  0.00    -0.041 SA
BRANCH  18  20
HETATM   20  N3  UNL     1      -3.150  -0.135   0.041  1.00  0.00    -0.350 N 
ATOM     21  H3  UNL     1      -2.357  -0.667  -0.318  1.00  0.00     0.163 HD
BRANCH  20  22
HETATM   22  C13 UNL     1      -4.468  -0.765   0.104  1.00  0.00     0.122 C 
HETATM   23  C14 UNL     1      -5.407   0.052  -0.770  1.00  0.00     0.047 C 
HETATM   24  C15 UNL     1      -4.921  -0.723   1.532  1.00  0.00     0.047 C 
BRANCH  22  25
HETATM   25  C16 UNL     1      -4.364  -2.172  -0.398  1.00  0.00     0.411 C 
HETATM   26  F1  UNL     1      -3.920  -2.188  -1.692  1.00  0.00    -0.168 F 
HETATM   27  F2  UNL     1      -5.589  -2.788  -0.242  1.00  0.00    -0.168 F 
HETATM   28  F3  UNL     1      -3.404  -2.821   0.379  1.00  0.00    -0.168 F 
ENDBRANCH  22  25
ENDBRANCH  20  22
ENDBRANCH  18  20
ENDBRANCH   5  18
TORSDOF 8
