REMARK  3 active torsions:
REMARK  status: ('A' for Active; 'I' for Inactive)
REMARK    1  A    between atoms: C7_9  and  C8_10 
REMARK    2  A    between atoms: C8_10  and  N1_11 
REMARK    3  A    between atoms: C15_20  and  C16_21 
ROOT
HETATM    1  C1  UNL     1      -4.881   0.092   0.993  1.00  0.00     0.078 C 
HETATM    2  C2  UNL     1      -3.741  -0.632   0.287  1.00  0.00     0.158 C 
HETATM    3  C3  UNL     1      -4.053  -2.101   0.291  1.00  0.00     0.078 C 
HETATM    4  O1  UNL     1      -3.675  -0.160  -1.006  1.00  0.00    -0.346 OA
HETATM    5  C4  UNL     1      -2.373   0.304  -1.203  1.00  0.00     0.179 C 
HETATM    6  C5  UNL     1      -2.409   1.792  -1.242  1.00  0.00     0.209 C 
HETATM    7  O2  UNL     1      -1.190   2.376  -1.669  1.00  0.00    -0.360 OA
HETATM    8  C6  UNL     1       0.030   1.672  -1.733  1.00  0.00     0.144 C 
HETATM    9  C7  UNL     1       0.456   0.711  -0.924  1.00  0.00    -0.005 C 
HETATM   10  C15 UNL     1      -0.278   0.192   0.236  1.00  0.00     0.143 C 
HETATM   11  C17 UNL     1      -1.642  -0.327  -0.092  1.00  0.00     0.173 C 
HETATM   12  O5  UNL     1      -2.545  -0.340   0.935  1.00  0.00    -0.347 OA
ENDROOT
BRANCH   9  13
HETATM   13  C8  UNL     1       1.778   0.192  -1.277  1.00  0.00     0.103 C 
BRANCH  13  14
HETATM   14  N1  UNL     1       2.820   0.290  -0.333  1.00  0.00    -0.334 N 
HETATM   15  C9  UNL     1       3.398   1.506   0.163  1.00  0.00     0.086 C 
HETATM   16 BR1  UNL     1       3.324   3.242  -0.622  1.00  0.00    -0.031 Br
HETATM   17  C10 UNL     1       4.023   1.260   1.299  1.00  0.00     0.090 C 
HETATM   18  C11 UNL     1       3.898  -0.162   1.632  1.00  0.00     0.179 C 
HETATM   19  O3  UNL     1       4.010  -0.800   2.679  1.00  0.00    -0.290 OA
HETATM   20  C12 UNL     1       3.565  -0.767   0.285  1.00  0.00     0.095 C 
HETATM   21  C13 UNL     1       4.888  -1.003  -0.452  1.00  0.00     0.047 C 
HETATM   22  C14 UNL     1       2.929  -2.080   0.451  1.00  0.00     0.047 C 
ENDBRANCH  13  14
ENDBRANCH   9  13
BRANCH  10  23
HETATM   23  C16 UNL     1      -0.454   1.248   1.291  1.00  0.00     0.242 C 
HETATM   24  N2  UNL     1      -1.093   0.870   2.486  1.00  0.00    -0.061 NA
HETATM   25  O4  UNL     1      -0.063   2.423   1.151  1.00  0.00    -0.276 OA
ENDBRANCH  10  23
TORSDOF 3
