REMARK  7 active torsions:
REMARK  status: ('A' for Active; 'I' for Inactive)
REMARK    1  A    between atoms: N1_2  and  C2_5 
REMARK    2  A    between atoms: C2_5  and  C3_6 
REMARK    3  A    between atoms: C3_6  and  C4_7 
REMARK    4  A    between atoms: C5_8  and  C6_9 
REMARK    5  A    between atoms: C6_9  and  C7_10 
REMARK    6  A    between atoms: C7_10  and  C8_11 
REMARK    7  A    between atoms: C8_11  and  C9_12 
ROOT
HETATM    1  C4  UNL     1      -1.638   1.255   0.691  1.00  0.00    -0.029 C 
HETATM    2  C5  UNL     1      -0.539   0.677   1.063  1.00  0.00    -0.031 C 
ENDROOT
BRANCH   1   3
HETATM    3  C3  UNL     1      -2.322   1.088  -0.591  1.00  0.00     0.054 C 
BRANCH   3   4
HETATM    4  C2  UNL     1      -3.725   0.546  -0.229  1.00  0.00     0.235 C 
BRANCH   4   5
HETATM    5  N1  UNL     1      -3.473  -0.701   0.461  1.00  0.00    -0.079 N 
HETATM    6  C1  UNL     1      -4.687  -1.361   0.881  1.00  0.00     0.266 C 
ATOM      7  H12 UNL     1      -2.841  -0.562   1.249  1.00  0.00     0.276 HD
ATOM      8  H11 UNL     1      -2.896  -1.323  -0.106  1.00  0.00     0.276 HD
ENDBRANCH   4   5
ENDBRANCH   3   4
ENDBRANCH   1   3
BRANCH   2   9
HETATM    9  C6  UNL     1       0.198  -0.270   0.198  1.00  0.00     0.027 C 
BRANCH   9  10
HETATM   10  C7  UNL     1       1.580   0.328  -0.004  1.00  0.00     0.004 C 
BRANCH  10  11
HETATM   11  C8  UNL     1       2.446  -0.554  -0.883  1.00  0.00     0.005 C 
BRANCH  11  12
HETATM   12  C9  UNL     1       3.789   0.153  -1.004  1.00  0.00    -0.014 A 
HETATM   13  C10 UNL     1       4.459   0.351   0.357  1.00  0.00     0.005 A 
HETATM   14  C11 UNL     1       5.049  -0.528  -0.718  1.00  0.00     0.005 A 
ENDBRANCH  11  12
ENDBRANCH  10  11
ENDBRANCH   9  10
ENDBRANCH   2   9
TORSDOF 7
