REMARK  6 active torsions:
REMARK  status: ('A' for Active; 'I' for Inactive)
REMARK    1  A    between atoms: C2_2  and  C3_3 
REMARK    2  A    between atoms: C3_3  and  C4_4 
REMARK    3  A    between atoms: C4_4  and  N1_5 
REMARK    4  A    between atoms: N1_5  and  C5_8 
REMARK    5  A    between atoms: C5_8  and  C6_9 
REMARK    6  A    between atoms: C7_10  and  C8_11 
ROOT
HETATM    1  N1  UNL     1       1.228  -0.222   0.120  1.00  0.00    -0.072 N 
ATOM      2  H11 UNL     1       1.010   0.772   0.187  1.00  0.00     0.277 HD
ATOM      3  H12 UNL     1       1.730  -0.339   1.000  1.00  0.00     0.277 HD
ENDROOT
BRANCH   1   4
HETATM    4  C4  UNL     1       2.080  -0.489  -0.999  1.00  0.00     0.236 C 
BRANCH   4   5
HETATM    5  C3  UNL     1       3.344   0.366  -0.877  1.00  0.00     0.054 C 
BRANCH   5   6
HETATM    6  C2  UNL     1       4.042   0.058   0.376  1.00  0.00    -0.035 C 
HETATM    7  C1  UNL     1       4.247   1.058   1.260  1.00  0.00     0.007 C 
ENDBRANCH   5   6
ENDBRANCH   4   5
ENDBRANCH   1   4
BRANCH   1   8
HETATM    8  C5  UNL     1       0.013  -1.024   0.099  1.00  0.00     0.259 C 
BRANCH   8   9
HETATM    9  C6  UNL     1      -0.845  -0.563  -0.989  1.00  0.00    -0.003 C 
HETATM   10  C7  UNL     1      -2.042  -0.114  -0.869  1.00  0.00    -0.025 C 
BRANCH  10  11
HETATM   11  C8  UNL     1      -2.769   0.020   0.401  1.00  0.00    -0.001 C 
HETATM   12  C9  UNL     1      -3.132   1.485   0.610  1.00  0.00     0.013 C 
HETATM   13  C10 UNL     1      -4.038  -0.828   0.379  1.00  0.00     0.013 C 
ENDBRANCH  10  11
ENDBRANCH   8   9
ENDBRANCH   1   8
TORSDOF 6
