REMARK  3 active torsions:
REMARK  status: ('A' for Active; 'I' for Inactive)
REMARK    1  A    between atoms: C4_4  and  C5_5 
REMARK    2  A    between atoms: C5_5  and  C6_6 
REMARK    3  A    between atoms: C8_10  and  N2_11 
ROOT
HETATM    1  C6  UNL     1       0.454  -0.400  -1.239  1.00  0.00     0.074 C 
HETATM    2  C7  UNL     1       1.576   0.454  -0.690  1.00  0.00     0.031 A 
HETATM    3  N1  UNL     1       1.617   1.747  -0.520  1.00  0.00    -0.339 N 
ATOM      4  H1  UNL     1       0.816   2.328  -0.768  1.00  0.00     0.168 HD
HETATM    5  C8  UNL     1       2.719   2.295  -0.019  1.00  0.00     0.142 A 
HETATM    6  S1  UNL     1       3.746   0.964   0.230  1.00  0.00    -0.057 SA
HETATM    7  C9  UNL     1       2.681  -0.269  -0.339  1.00  0.00     0.009 A 
HETATM    8  C10 UNL     1       2.753  -1.767  -0.502  1.00  0.00     0.051 C 
HETATM    9  C11 UNL     1       1.480  -2.275   0.135  1.00  0.00     0.043 C 
HETATM   10  C12 UNL     1       0.271  -1.622  -0.404  1.00  0.00     0.180 C 
HETATM   11  F1  UNL     1      -0.465  -2.520  -1.196  1.00  0.00    -0.249 F 
ENDROOT
BRANCH   1  12
HETATM   12  C5  UNL     1      -0.860   0.360  -1.255  1.00  0.00     0.041 C 
BRANCH  12  13
HETATM   13  C4  UNL     1      -1.313   0.782   0.086  1.00  0.00    -0.024 C 
HETATM   14  C2  UNL     1      -2.488   0.418   0.599  1.00  0.00    -0.091 C 
HETATM   15  C1  UNL     1      -3.395  -0.450  -0.199  1.00  0.00     0.042 C 
HETATM   16  C3  UNL     1      -2.913   0.861   1.952  1.00  0.00     0.042 C 
ENDBRANCH  12  13
ENDBRANCH   1  12
BRANCH   5  17
HETATM   17  N2  UNL     1       2.977   3.553   0.233  1.00  0.00    -0.380 N 
ATOM     18  H22 UNL     1       2.361   4.352   0.084  1.00  0.00     0.158 HD
ATOM     19  H21 UNL     1       3.823   3.974   0.618  1.00  0.00     0.158 HD
ENDBRANCH   5  17
TORSDOF 3
