REMARK  7 active torsions:
REMARK  status: ('A' for Active; 'I' for Inactive)
REMARK    1  A    between atoms: C5_6  and  C6_7 
REMARK    2  A    between atoms: C6_7  and  S1_8 
REMARK    3  A    between atoms: S1_8  and  C7_9 
REMARK    4  A    between atoms: C11_16  and  C12_17 
REMARK    5  A    between atoms: C12_17  and  O2_18 
REMARK    6  A    between atoms: O2_18  and  C13_19 
REMARK    7  A    between atoms: C13_19  and  C14_23 
ROOT
HETATM    1  C1  UNL     1      -0.630   6.512   0.088  1.00  0.00     0.052 C 
HETATM    2  C2  UNL     1      -1.028   5.090   0.164  1.00  0.00    -0.010 A 
HETATM    3  C3  UNL     1      -2.353   4.710   0.347  1.00  0.00     0.151 A 
HETATM    4  O1  UNL     1      -2.381   3.418   0.348  1.00  0.00    -0.319 OA
HETATM    5  C4  UNL     1      -1.142   2.916   0.181  1.00  0.00     0.110 A 
HETATM    6  C5  UNL     1      -0.683   1.625   0.114  1.00  0.00     0.001 A 
HETATM    7  C11 UNL     1       0.656   1.352  -0.061  1.00  0.00     0.032 A 
HETATM    8  C18 UNL     1       1.492   2.427  -0.169  1.00  0.00     0.198 A 
HETATM    9  F1  UNL     1       2.845   2.269  -0.359  1.00  0.00    -0.185 F 
HETATM   10  N3  UNL     1       1.065   3.697  -0.113  1.00  0.00    -0.330 N 
ATOM     11  H3  UNL     1       1.731   4.464  -0.201  1.00  0.00     0.168 HD
HETATM   12  C19 UNL     1      -0.272   3.963   0.063  1.00  0.00     0.077 A 
ENDROOT
BRANCH   7  13
HETATM   13  C12 UNL     1       1.137  -0.024  -0.113  1.00  0.00     0.221 C 
BRANCH  13  14
HETATM   14  O2  UNL     1       2.567  -0.126  -0.068  1.00  0.00    -0.334 OA
BRANCH  14  15
HETATM   15  C13 UNL     1       3.052  -1.487   0.062  1.00  0.00     0.119 C 
HETATM   16  N2  UNL     1       2.126  -2.336   0.154  1.00  0.00    -0.383 N 
ATOM     17  H22 UNL     1       1.125  -2.143   0.139  1.00  0.00     0.158 HD
ATOM     18  H21 UNL     1       2.467  -3.293   0.245  1.00  0.00     0.158 HD
BRANCH  15  19
HETATM   19  C14 UNL     1       4.481  -1.763   0.084  1.00  0.00     0.013 C 
HETATM   20  C15 UNL     1       4.836  -2.990   0.862  1.00  0.00     0.023 C 
HETATM   21  C16 UNL     1       5.260  -0.597   0.564  1.00  0.00     0.023 C 
HETATM   22  C17 UNL     1       4.843  -2.095  -1.387  1.00  0.00     0.023 C 
ENDBRANCH  15  19
ENDBRANCH  14  15
ENDBRANCH  13  14
ENDBRANCH   7  13
BRANCH   6  23
HETATM   23  C6  UNL     1      -1.688   0.605   0.439  1.00  0.00     0.123 C 
BRANCH  23  24
HETATM   24  S1  UNL     1      -2.291  -0.242  -1.013  1.00  0.00    -0.101 SA
BRANCH  24  25
HETATM   25  C7  UNL     1      -3.752  -1.184  -0.589  1.00  0.00     0.104 C 
HETATM   26  N1  UNL     1      -3.697  -2.340  -0.128  1.00  0.00    -0.374 N 
HETATM   27  C8  UNL     1      -4.852  -3.048   0.170  1.00  0.00     0.088 C 
ATOM     28  H1  UNL     1      -2.788  -2.773   0.033  1.00  0.00     0.161 HD
HETATM   29  C9  UNL     1      -5.327  -3.614  -1.197  1.00  0.00     0.033 C 
HETATM   30  C10 UNL     1      -5.975  -2.056   0.584  1.00  0.00     0.106 C 
HETATM   31  S2  UNL     1      -5.491  -0.784  -0.676  1.00  0.00    -0.103 SA
ENDBRANCH  24  25
ENDBRANCH  23  24
ENDBRANCH   6  23
TORSDOF 7
