REMARK  2 active torsions:
REMARK  status: ('A' for Active; 'I' for Inactive)
REMARK       I    between atoms: N1_2  and  C2_4 
REMARK    1  A    between atoms: N3_6  and  O1_8 
REMARK    2  A    between atoms: O1_8  and  C3_9 
ROOT
HETATM    1  C1  UNL     1       4.111  -0.088   0.090  1.00  0.00     0.148 C 
HETATM    2  N1  UNL     1       2.788  -0.657  -0.115  1.00  0.00    -0.367 N 
ATOM      3  H1  UNL     1       2.683  -1.458  -0.737  1.00  0.00     0.161 HD
HETATM    4  C2  UNL     1       1.630  -0.123   0.533  1.00  0.00     0.207 C 
HETATM    5  N2  UNL     1       1.809   0.670   1.699  1.00  0.00    -0.062 NA
HETATM    6  N3  UNL     1       0.498  -0.390   0.024  1.00  0.00    -0.238 N 
ATOM      7  H3  UNL     1       0.480  -0.968  -0.816  1.00  0.00     0.197 HD
ENDROOT
BRANCH   6   8
HETATM    8  O1  UNL     1      -0.703   0.046   0.526  1.00  0.00    -0.268 OA
BRANCH   8   9
HETATM    9  C3  UNL     1      -1.874   0.032  -0.271  1.00  0.00     0.078 C 
HETATM   10  C4  UNL     1      -3.039   0.560   0.523  1.00  0.00     0.048 C 
HETATM   11  C5  UNL     1      -1.608   0.856  -1.510  1.00  0.00     0.048 C 
HETATM   12  C6  UNL     1      -2.143  -1.396  -0.724  1.00  0.00     0.048 C 
ENDBRANCH   8   9
ENDBRANCH   6   8
TORSDOF 2
