REMARK  4 active torsions:
REMARK  status: ('A' for Active; 'I' for Inactive)
REMARK    1  A    between atoms: S1_2  and  C2_3 
REMARK    2  A    between atoms: C3_6  and  C4_7 
REMARK       I    between atoms: C4_7  and  N2_9 
REMARK    3  A    between atoms: N2_9  and  C5_11 
REMARK    4  A    between atoms: N3_21  and  C15_22 
ROOT
HETATM    1  C4  UNL     1       0.901  -0.810  -0.178  1.00  0.00     0.287 C 
HETATM    2  O1  UNL     1       0.764  -2.057  -0.168  1.00  0.00    -0.264 OA
HETATM    3  N2  UNL     1      -0.267  -0.019  -0.099  1.00  0.00    -0.349 N 
ATOM      4  H2  UNL     1      -0.198   0.999  -0.105  1.00  0.00     0.163 HD
ENDROOT
BRANCH   1   5
HETATM    5  C3  UNL     1       2.235  -0.197  -0.271  1.00  0.00     0.194 A 
HETATM    6  N1  UNL     1       2.527   1.120  -0.286  1.00  0.00    -0.316 N 
HETATM    7  C2  UNL     1       3.854   1.283  -0.379  1.00  0.00     0.160 A 
ATOM      8  H1  UNL     1       1.843   1.875  -0.235  1.00  0.00     0.169 HD
HETATM    9  N4  UNL     1       4.357   0.048  -0.419  1.00  0.00    -0.276 N 
HETATM   10  N3  UNL     1       3.381  -0.860  -0.354  1.00  0.00    -0.266 N 
ATOM     11  H4  UNL     1       5.350  -0.172  -0.490  1.00  0.00     0.189 HD
BRANCH   7  12
HETATM   12  S1  UNL     1       4.823   2.766  -0.440  1.00  0.00    -0.097 SA
HETATM   13  C1  UNL     1       3.783   4.248  -0.361  1.00  0.00     0.099 C 
ENDBRANCH   7  12
BRANCH  10  14
HETATM   14  C15 UNL     1       3.642  -2.284  -0.378  1.00  0.00     0.102 C 
HETATM   15  C16 UNL     1       3.523  -2.812   1.028  1.00  0.00     0.034 C 
HETATM   16  C17 UNL     1       5.045  -2.498  -0.913  1.00  0.00     0.034 C 
ENDBRANCH  10  14
ENDBRANCH   1   5
BRANCH   3  17
HETATM   17  C5  UNL     1      -1.554  -0.655  -0.010  1.00  0.00     0.093 C 
HETATM   18  C6  UNL     1      -2.440  -0.151  -1.126  1.00  0.00     0.009 C 
HETATM   19  C7  UNL     1      -3.817  -0.722  -1.051  1.00  0.00     0.011 C 
HETATM   20  C11 UNL     1      -2.506   1.339  -1.069  1.00  0.00     0.011 C 
HETATM   21  C8  UNL     1      -4.425  -0.317   0.288  1.00  0.00    -0.013 C 
HETATM   22  C9  UNL     1      -4.503   1.181   0.313  1.00  0.00     0.009 C 
HETATM   23  C14 UNL     1      -3.557  -0.880   1.372  1.00  0.00     0.011 C 
HETATM   24  C10 UNL     1      -3.095   1.774   0.258  1.00  0.00    -0.013 C 
HETATM   25  C12 UNL     1      -2.328   1.235   1.422  1.00  0.00     0.011 C 
HETATM   26  C13 UNL     1      -2.178  -0.270   1.307  1.00  0.00     0.009 C 
ENDBRANCH   3  17
TORSDOF 4
