REMARK  14 active torsions:
REMARK  status: ('A' for Active; 'I' for Inactive)
REMARK    1  A    between atoms: C2_2  and  C3_3 
REMARK    2  A    between atoms: C2_2  and  C27_37 
REMARK    3  A    between atoms: C3_3  and  C4_4 
REMARK    4  A    between atoms: C5_5  and  O1_6 
REMARK    5  A    between atoms: C9_11  and  O2_12 
REMARK    6  A    between atoms: O2_12  and  C10_13 
REMARK    7  A    between atoms: C12_17  and  C13_18 
REMARK    8  A    between atoms: C13_18  and  O5_19 
REMARK    9  A    between atoms: O5_19  and  C14_20 
REMARK   10  A    between atoms: C21_28  and  C23_30 
REMARK   11  A    between atoms: C27_37  and  C28_39 
REMARK   12  A    between atoms: C28_39  and  C30_41 
REMARK   13  A    between atoms: C30_41  and  C31_42 
REMARK   14  A    between atoms: C31_42  and  C32_43 
ROOT
HETATM    1  C4  UNL     1       0.094  -0.244   0.850  1.00  0.00    -0.038 C 
HETATM    2  C5  UNL     1       0.083  -1.028  -0.389  1.00  0.00     0.157 C 
HETATM    3  C6  UNL     1      -0.841  -0.849  -1.501  1.00  0.00    -0.005 C 
HETATM    4  C7  UNL     1      -0.125  -0.328  -2.779  1.00  0.00     0.019 C 
HETATM    5  C8  UNL     1      -1.747  -1.904  -1.990  1.00  0.00     0.047 C 
HETATM    6  C9  UNL     1      -3.104  -1.457  -2.455  1.00  0.00     0.155 C 
HETATM    7  C11 UNL     1      -4.058  -0.715  -1.700  1.00  0.00     0.201 C 
HETATM    8  O4  UNL     1      -3.889   0.154  -0.679  1.00  0.00    -0.372 OA
HETATM    9  C12 UNL     1      -2.620  -0.074  -0.010  1.00  0.00     0.120 C 
HETATM   10  C16 UNL     1      -1.736   0.261  -1.055  1.00  0.00     0.037 C 
HETATM   11  C17 UNL     1      -0.937   1.542  -1.045  1.00  0.00     0.014 C 
HETATM   12  C18 UNL     1      -0.422   2.047   0.276  1.00  0.00     0.002 C 
HETATM   13  C19 UNL     1      -1.413   3.153   0.711  1.00  0.00     0.017 C 
HETATM   14  C20 UNL     1      -2.649   2.345   0.460  1.00  0.00     0.070 C 
HETATM   15  C21 UNL     1      -3.668   2.376   1.579  1.00  0.00     0.152 C 
HETATM   16  C22 UNL     1      -5.123   2.241   1.130  1.00  0.00     0.059 C 
HETATM   17  O9  UNL     1      -3.073   1.233   2.043  1.00  0.00    -0.353 OA
HETATM   18  C24 UNL     1      -2.238   1.008   0.966  1.00  0.00     0.115 C 
HETATM   19  C25 UNL     1      -0.767   0.902   1.175  1.00  0.00     0.021 C 
HETATM   20  C26 UNL     1      -0.582   1.180   2.661  1.00  0.00     0.024 C 
ENDROOT
BRANCH   1  21
HETATM   21  C3  UNL     1       1.394  -0.175   1.580  1.00  0.00     0.020 C 
BRANCH  21  22
HETATM   22  C2  UNL     1       2.673   0.312   1.084  1.00  0.00     0.001 C 
HETATM   23  C1  UNL     1       3.079   1.539   1.358  1.00  0.00     0.027 C 
BRANCH  22  24
HETATM   24  C27 UNL     1       3.619  -0.506   0.372  1.00  0.00     0.162 C 
HETATM   25  O10 UNL     1       3.329  -1.727   0.101  1.00  0.00    -0.292 OA
BRANCH  24  26
HETATM   26  C28 UNL     1       4.977  -0.130  -0.129  1.00  0.00     0.056 C 
HETATM   27  C29 UNL     1       4.947   1.065  -1.016  1.00  0.00     0.018 C 
BRANCH  26  28
HETATM   28  C30 UNL     1       5.926  -0.053   1.007  1.00  0.00     0.012 C 
BRANCH  28  29
HETATM   29  C31 UNL     1       7.336   0.286   0.785  1.00  0.00     0.000 C 
BRANCH  29  30
HETATM   30  C32 UNL     1       8.233  -0.590   0.024  1.00  0.00    -0.005 C 
HETATM   31  C33 UNL     1       7.969  -0.882  -1.414  1.00  0.00     0.005 C 
ENDBRANCH  29  30
ENDBRANCH  28  29
ENDBRANCH  26  28
ENDBRANCH  24  26
ENDBRANCH  22  24
ENDBRANCH  21  22
ENDBRANCH   1  21
BRANCH   2  32
HETATM   32  O1  UNL     1       0.133  -2.428  -0.139  1.00  0.00    -0.390 OA
ATOM     33  H1  UNL     1       0.126  -2.936  -0.942  1.00  0.00     0.210 HD
ENDBRANCH   2  32
BRANCH   9  34
HETATM   34  C13 UNL     1      -3.038  -1.075   0.922  1.00  0.00     0.220 C 
BRANCH  34  35
HETATM   35  O5  UNL     1      -3.596  -2.288   0.426  1.00  0.00    -0.319 OA
BRANCH  35  36
HETATM   36  C14 UNL     1      -4.027  -3.320   1.229  1.00  0.00     0.254 C 
HETATM   37  C15 UNL     1      -4.590  -4.533   0.640  1.00  0.00     0.126 C 
HETATM   38  O6  UNL     1      -3.885  -3.101   2.475  1.00  0.00    -0.266 OA
ENDBRANCH  35  36
ENDBRANCH  34  35
ENDBRANCH   9  34
BRANCH   6  39
HETATM   39  O2  UNL     1      -3.721  -2.621  -2.988  1.00  0.00    -0.321 OA
BRANCH  39  40
HETATM   40  C10 UNL     1      -3.940  -2.886  -4.308  1.00  0.00     0.398 C 
HETATM   41  O3  UNL     1      -3.552  -2.003  -5.110  1.00  0.00    -0.276 OA
ENDBRANCH  39  40
ENDBRANCH   6  39
BRANCH  15  42
HETATM   42  C23 UNL     1      -3.553   3.636   2.320  1.00  0.00     0.209 C 
HETATM   43  O7  UNL     1      -2.996   3.855   3.401  1.00  0.00    -0.646 OA
HETATM   44  O8  UNL     1      -4.171   4.755   1.700  1.00  0.00    -0.646 OA
ENDBRANCH  15  42
TORSDOF 14
