REMARK  14 active torsions:
REMARK  status: ('A' for Active; 'I' for Inactive)
REMARK    1  A    between atoms: C2_2  and  C3_4 
REMARK    2  A    between atoms: C3_4  and  C4_5 
REMARK    3  A    between atoms: C4_5  and  C5_6 
REMARK    4  A    between atoms: C5_6  and  C6_7 
REMARK    5  A    between atoms: C6_7  and  C7_8 
REMARK    6  A    between atoms: C7_8  and  C8_9 
REMARK    7  A    between atoms: C8_9  and  N1_10 
REMARK    8  A    between atoms: N2_14  and  C12_15 
REMARK    9  A    between atoms: C12_15  and  C13_16 
REMARK   10  A    between atoms: N4_24  and  C19_26 
REMARK   11  A    between atoms: C19_26  and  C20_27 
REMARK   12  A    between atoms: C20_27  and  C21_28 
REMARK   13  A    between atoms: C21_28  and  N5_29 
REMARK   14  A    between atoms: C29_43  and  O3_44 
ROOT
HETATM    1  C13 UNL     1      -0.360   1.096  -0.371  1.00  0.00     0.015 A 
HETATM    2  C14 UNL     1      -0.108  -0.197  -0.053  1.00  0.00     0.017 A 
HETATM    3  C15 UNL     1      -1.160  -1.058   0.299  1.00  0.00     0.018 A 
HETATM    4  C16 UNL     1      -2.473  -0.648   0.340  1.00  0.00     0.039 A 
HETATM    5  C17 UNL     1      -2.709   0.671   0.012  1.00  0.00     0.097 A 
HETATM    6  N3  UNL     1      -4.014   1.075   0.050  1.00  0.00    -0.188 N 
ATOM      7  H3  UNL     1      -4.252   2.039  -0.183  1.00  0.00     0.184 HD
HETATM    8  C18 UNL     1      -4.989   0.211   0.392  1.00  0.00     0.686 A 
HETATM    9  N4  UNL     1      -6.223   0.559   0.429  1.00  0.00    -0.225 N 
ATOM     10  H4  UNL     1      -6.893  -0.161   0.699  1.00  0.00     0.177 HD
HETATM   11  N7  UNL     1      -4.726  -1.085   0.710  1.00  0.00    -0.140 N 
HETATM   12  C25 UNL     1      -5.522  -2.104   1.074  1.00  0.00     0.141 A 
HETATM   13  C26 UNL     1      -4.742  -3.241   1.292  1.00  0.00     0.023 A 
HETATM   14  C27 UNL     1      -5.230  -4.591   1.710  1.00  0.00     0.069 C 
HETATM   15  N8  UNL     1      -3.481  -2.843   1.043  1.00  0.00    -0.343 N 
ATOM     16  H8  UNL     1      -2.657  -3.440   1.111  1.00  0.00     0.167 HD
HETATM   17  C28 UNL     1      -3.462  -1.542   0.691  1.00  0.00     0.141 A 
HETATM   18  C29 UNL     1      -1.694   1.535  -0.336  1.00  0.00     0.105 A 
ENDROOT
BRANCH   1  19
HETATM   19  C12 UNL     1       0.698   2.030  -0.773  1.00  0.00     0.104 C 
BRANCH  19  20
HETATM   20  N2  UNL     1       1.986   1.483  -0.731  1.00  0.00    -0.364 N 
HETATM   21  C11 UNL     1       2.584   1.147   0.497  1.00  0.00     0.069 C 
HETATM   22  C10 UNL     1       3.659   2.098   0.924  1.00  0.00     0.089 C 
HETATM   23  C9  UNL     1       4.755   2.327  -0.063  1.00  0.00     0.068 C 
HETATM   24  N1  UNL     1       5.024   1.333  -1.000  1.00  0.00    -0.372 N 
HETATM   25  C31 UNL     1       4.004   0.638  -1.654  1.00  0.00     0.083 C 
HETATM   26  C30 UNL     1       2.794   1.530  -1.887  1.00  0.00     0.172 C 
BRANCH  24  27
HETATM   27  C8  UNL     1       6.138   0.501  -0.654  1.00  0.00     0.127 C 
BRANCH  27  28
HETATM   28  C7  UNL     1       7.410   1.271  -0.757  1.00  0.00     0.020 C 
BRANCH  28  29
HETATM   29  C6  UNL     1       8.590   0.393  -0.450  1.00  0.00     0.002 C 
BRANCH  29  30
HETATM   30  C5  UNL     1       8.506  -0.156   0.938  1.00  0.00     0.000 C 
BRANCH  30  31
HETATM   31  C4  UNL     1       9.749  -0.986   1.207  1.00  0.00     0.007 C 
BRANCH  31  32
HETATM   32  C3  UNL     1       9.860  -2.129   0.236  1.00  0.00     0.077 C 
BRANCH  32  33
HETATM   33  C2  UNL     1      11.075  -2.935   0.535  1.00  0.00     0.123 C 
HETATM   34  C1  UNL     1      11.399  -4.115  -0.296  1.00  0.00     0.091 C 
HETATM   35  O1  UNL     1      11.785  -2.621   1.450  1.00  0.00    -0.298 OA
ENDBRANCH  32  33
ENDBRANCH  31  32
ENDBRANCH  30  31
ENDBRANCH  29  30
ENDBRANCH  28  29
ENDBRANCH  27  28
ENDBRANCH  24  27
ENDBRANCH  19  20
ENDBRANCH   1  19
BRANCH  18  36
HETATM   36  O3  UNL     1      -1.956   2.840  -0.656  1.00  0.00    -0.357 OA
ATOM     37  H3  UNL     1      -2.858   3.137  -0.632  1.00  0.00     0.217 HD
ENDBRANCH  18  36
BRANCH   9  38
HETATM   38  C19 UNL     1      -6.757   1.853   0.131  1.00  0.00     0.139 C 
BRANCH  38  39
HETATM   39  C20 UNL     1      -8.173   1.624  -0.420  1.00  0.00     0.040 C 
BRANCH  39  40
HETATM   40  C21 UNL     1      -8.950   0.925   0.669  1.00  0.00     0.129 C 
BRANCH  40  41
HETATM   41  N5  UNL     1     -10.302   0.639   0.302  1.00  0.00    -0.333 N 
HETATM   42  C22 UNL     1     -10.755  -0.578  -0.340  1.00  0.00     0.147 C 
HETATM   43  C23 UNL     1     -12.205  -0.358  -0.700  1.00  0.00     0.144 C 
HETATM   44  N6  UNL     1     -12.621   0.749   0.111  1.00  0.00    -0.341 N 
HETATM   45  C24 UNL     1     -11.438   1.450   0.482  1.00  0.00     0.318 C 
ATOM     46  H6  UNL     1     -13.578   0.988   0.371  1.00  0.00     0.164 HD
HETATM   47  O2  UNL     1     -11.450   2.638   0.910  1.00  0.00    -0.247 OA
ENDBRANCH  40  41
ENDBRANCH  39  40
ENDBRANCH  38  39
ENDBRANCH   9  38
TORSDOF 14
