REMARK  7 active torsions:
REMARK  status: ('A' for Active; 'I' for Inactive)
REMARK    1  A    between atoms: C2_2  and  C5_5 
REMARK    2  A    between atoms: C5_5  and  N1_6 
REMARK       I    between atoms: N1_6  and  C6_8 
REMARK    3  A    between atoms: C6_8  and  C7_10 
REMARK    4  A    between atoms: C8_11  and  O2_12 
REMARK    5  A    between atoms: N2_15  and  S1_16 
REMARK    6  A    between atoms: S1_16  and  C10_17 
REMARK    7  A    between atoms: C13_23  and  O3_24 
ROOT
HETATM    1  C7  UNL     1       0.880  -0.060  -0.210  1.00  0.00     0.120 A 
HETATM    2  C8  UNL     1       1.893   0.523   0.551  1.00  0.00     0.131 A 
HETATM    3  C9  UNL     1       3.061  -0.247   0.346  1.00  0.00     0.161 A 
HETATM    4  N2  UNL     1       4.354  -0.365   0.670  1.00  0.00    -0.273 N 
HETATM    5  C11 UNL     1       4.863  -1.427   0.035  1.00  0.00     0.124 A 
HETATM    6  C12 UNL     1       3.861  -1.990  -0.707  1.00  0.00     0.119 A 
HETATM    7  N3  UNL     1       2.770  -1.241  -0.493  1.00  0.00    -0.283 N 
HETATM    8  C13 UNL     1       1.443  -1.131  -0.834  1.00  0.00     0.167 A 
ENDROOT
BRANCH   1   9
HETATM    9  C6  UNL     1      -0.492   0.445  -0.274  1.00  0.00     0.258 C 
HETATM   10  N1  UNL     1      -1.531  -0.126  -1.033  1.00  0.00    -0.356 N 
ATOM     11  H1  UNL     1      -1.266  -0.949  -1.574  1.00  0.00     0.162 HD
HETATM   12  O1  UNL     1      -0.812   1.482   0.398  1.00  0.00    -0.267 OA
BRANCH  10  13
HETATM   13  C5  UNL     1      -2.881   0.261  -1.163  1.00  0.00     0.131 C 
BRANCH  13  14
HETATM   14  C2  UNL     1      -3.796   0.236  -0.014  1.00  0.00    -0.035 C 
HETATM   15  C1  UNL     1      -3.913  -1.150   0.622  1.00  0.00     0.016 C 
HETATM   16  C3  UNL     1      -3.768   1.305   1.003  1.00  0.00     0.016 C 
HETATM   17  C4  UNL     1      -5.228   0.396  -0.672  1.00  0.00     0.016 C 
ENDBRANCH  13  14
ENDBRANCH  10  13
ENDBRANCH   1   9
BRANCH   2  18
HETATM   18  O2  UNL     1       1.885   1.607   1.362  1.00  0.00    -0.356 OA
ATOM     19  H2  UNL     1       2.575   2.004   1.880  1.00  0.00     0.218 HD
ENDBRANCH   2  18
BRANCH   8  20
HETATM   20  O3  UNL     1       0.809  -2.014  -1.698  1.00  0.00    -0.345 OA
ATOM     21  H3  UNL     1       1.202  -2.761  -2.133  1.00  0.00     0.219 HD
ENDBRANCH   8  20
BRANCH   4  22
HETATM   22  S1  UNL     1       5.214   0.735   1.768  1.00  0.00     0.024 SA
BRANCH  22  23
HETATM   23  C10 UNL     1       6.603   1.470   0.883  1.00  0.00     0.436 C 
HETATM   24  F1  UNL     1       7.543   0.529   0.563  1.00  0.00    -0.201 F 
HETATM   25  F2  UNL     1       6.188   2.044  -0.322  1.00  0.00    -0.201 F 
ENDBRANCH  22  23
ENDBRANCH   4  22
TORSDOF 7
