REMARK  11 active torsions:
REMARK  status: ('A' for Active; 'I' for Inactive)
REMARK    1  A    between atoms: C1_4  and  N2_5 
REMARK    2  A    between atoms: N2_5  and  C2_7 
REMARK    3  A    between atoms: C2_7  and  C3_11 
REMARK    4  A    between atoms: C3_11  and  O2_13 
REMARK    5  A    between atoms: O2_13  and  C4_14 
REMARK    6  A    between atoms: C4_14  and  O3_15 
REMARK    7  A    between atoms: O3_15  and  C5_16 
REMARK    8  A    between atoms: C8_22  and  O4_23 
REMARK    9  A    between atoms: O4_23  and  C9_24 
REMARK   10  A    between atoms: C11_29  and  O5_30 
REMARK   11  A    between atoms: C12_32  and  O6_33 
ROOT
HETATM    1  C5  UNL     1       0.975  -2.324  -0.921  1.00  0.00     0.473 C 
HETATM    2  N4  UNL     1       0.696  -3.510  -1.759  1.00  0.00    -0.025 N 
ATOM      3  H41 UNL     1       0.914  -4.395  -1.302  1.00  0.00     0.283 HD
ATOM      4  H42 UNL     1       1.339  -3.618  -2.544  1.00  0.00     0.283 HD
HETATM    5  C6  UNL     1      -0.674  -3.388  -2.151  1.00  0.00     0.243 C 
HETATM    6  C7  UNL     1      -1.354  -2.147  -1.615  1.00  0.00     0.088 C 
HETATM    7  C8  UNL     1      -1.119  -1.942  -0.140  1.00  0.00     0.269 C 
HETATM    8  O7  UNL     1       0.158  -2.351   0.181  1.00  0.00    -0.308 OA
ENDROOT
BRANCH   1   9
HETATM    9  O3  UNL     1       2.328  -2.464  -0.577  1.00  0.00    -0.314 OA
BRANCH   9  10
HETATM   10  C4  UNL     1       3.062  -1.417  -1.099  1.00  0.00     0.353 C 
BRANCH  10  11
HETATM   11  O2  UNL     1       2.615  -0.160  -0.611  1.00  0.00    -0.289 OA
BRANCH  11  12
HETATM   12  C3  UNL     1       3.215   1.019  -1.006  1.00  0.00     0.329 C 
HETATM   13  O1  UNL     1       4.180   1.005  -1.812  1.00  0.00    -0.256 OA
BRANCH  12  14
HETATM   14  C2  UNL     1       2.766   2.325  -0.516  1.00  0.00     0.176 C 
HETATM   15  N3  UNL     1       1.782   2.434   0.315  1.00  0.00    -0.380 N 
ATOM     16  H32 UNL     1       1.469   3.343   0.656  1.00  0.00     0.157 HD
ATOM     17  H31 UNL     1       1.324   1.576   0.623  1.00  0.00     0.157 HD
BRANCH  14  18
HETATM   18  N2  UNL     1       3.402   3.516  -0.944  1.00  0.00    -0.334 N 
ATOM     19  H2  UNL     1       3.917   4.093  -0.278  1.00  0.00     0.168 HD
BRANCH  18  20
HETATM   20  C1  UNL     1       3.317   3.897  -2.299  1.00  0.00     0.175 C 
HETATM   21  N1  UNL     1       2.686   4.927  -2.698  1.00  0.00    -0.395 N 
ATOM     22  H12 UNL     1       2.223   5.495  -1.989  1.00  0.00     0.156 HD
ATOM     23  H11 UNL     1       2.625   5.203  -3.678  1.00  0.00     0.156 HD
ENDBRANCH  18  20
ENDBRANCH  14  18
ENDBRANCH  12  14
ENDBRANCH  11  12
ENDBRANCH  10  11
ENDBRANCH   9  10
ENDBRANCH   1   9
BRANCH   7  24
HETATM   24  O4  UNL     1      -1.261  -0.636   0.265  1.00  0.00    -0.326 OA
BRANCH  24  25
HETATM   25  C9  UNL     1      -2.158  -0.368   1.218  1.00  0.00     0.354 C 
HETATM   26  N5  UNL     1      -3.178   0.585   0.990  1.00  0.00    -0.044 N 
HETATM   27  C10 UNL     1      -3.792   0.801   2.297  1.00  0.00     0.269 C 
ATOM     28  H52 UNL     1      -2.851   1.440   0.540  1.00  0.00     0.280 HD
ATOM     29  H51 UNL     1      -3.840   0.316   0.262  1.00  0.00     0.280 HD
HETATM   30  C11 UNL     1      -2.870   0.196   3.325  1.00  0.00     0.176 C 
HETATM   31  C12 UNL     1      -1.555   0.152   2.529  1.00  0.00     0.205 C 
BRANCH  30  32
HETATM   32  O5  UNL     1      -2.671   0.977   4.431  1.00  0.00    -0.391 OA
ATOM     33  H5  UNL     1      -2.090   0.596   5.079  1.00  0.00     0.210 HD
ENDBRANCH  30  32
BRANCH  31  34
HETATM   34  O6  UNL     1      -1.127   1.457   2.424  1.00  0.00    -0.389 OA
ATOM     35  H6  UNL     1      -0.754   1.779   3.236  1.00  0.00     0.210 HD
ENDBRANCH  31  34
ENDBRANCH  24  25
ENDBRANCH   7  24
TORSDOF 11
