REMARK  5 active torsions:
REMARK  status: ('A' for Active; 'I' for Inactive)
REMARK    1  A    between atoms: C2_2  and  C15_26 
REMARK    2  A    between atoms: N1_3  and  N2_5 
REMARK    3  A    between atoms: N2_5  and  C3_7 
REMARK    4  A    between atoms: C3_7  and  N3_9 
REMARK    5  A    between atoms: N6_19  and  C9_20 
ROOT
HETATM    1  N3  UNL     1      -0.872  -0.053   1.751  1.00  0.00    -0.315 N 
ATOM      2  H3  UNL     1      -0.928   0.927   1.475  1.00  0.00     0.170 HD
HETATM    3  C4  UNL     1      -1.468  -0.864   0.995  1.00  0.00     0.152 A 
HETATM    4  C5  UNL     1      -1.572  -2.219   1.097  1.00  0.00     0.114 A 
HETATM    5  C6  UNL     1      -1.033  -3.082   2.088  1.00  0.00     0.105 C 
HETATM    6  N4  UNL     1      -0.607  -3.794   2.877  1.00  0.00    -0.191 NA
HETATM    7  C7  UNL     1      -2.327  -2.646   0.021  1.00  0.00     0.047 A 
HETATM    8  C8  UNL     1      -2.745  -4.019  -0.355  1.00  0.00     0.071 C 
HETATM    9  N5  UNL     1      -2.651  -1.550  -0.687  1.00  0.00    -0.295 N 
ATOM     10  H5  UNL     1      -3.208  -1.551  -1.542  1.00  0.00     0.187 HD
HETATM   11  N6  UNL     1      -2.145  -0.474  -0.117  1.00  0.00    -0.238 N 
ENDROOT
BRANCH   1  12
HETATM   12  C3  UNL     1      -0.144  -0.310   2.917  1.00  0.00     0.192 C 
HETATM   13  S1  UNL     1      -0.845  -0.273   4.385  1.00  0.00    -0.039 SA
BRANCH  12  14
HETATM   14  N2  UNL     1       1.239  -0.604   2.813  1.00  0.00    -0.276 N 
ATOM     15  H2  UNL     1       1.759  -0.789   3.671  1.00  0.00     0.189 HD
BRANCH  14  16
HETATM   16  N1  UNL     1       1.927  -0.654   1.599  1.00  0.00    -0.302 N 
HETATM   17  C2  UNL     1       2.503   0.370   1.095  1.00  0.00     0.032 C 
HETATM   18  C1  UNL     1       2.459   1.669   1.795  1.00  0.00     0.070 C 
ATOM     19  H1  UNL     1       1.972  -1.540   1.096  1.00  0.00     0.186 HD
BRANCH  17  20
HETATM   20  C15 UNL     1       3.208   0.268  -0.172  1.00  0.00    -0.010 A 
HETATM   21  C16 UNL     1       3.833   1.367  -0.723  1.00  0.00     0.030 A 
HETATM   22  C17 UNL     1       4.486   1.208  -1.927  1.00  0.00     0.088 A 
HETATM   23  N7  UNL     1       4.526   0.044  -2.557  1.00  0.00    -0.375 N 
HETATM   24  C18 UNL     1       3.930  -1.051  -2.054  1.00  0.00     0.088 A 
ATOM     25  H7  UNL     1       5.021  -0.023  -3.446  1.00  0.00     0.164 HD
HETATM   26  C19 UNL     1       3.265  -0.941  -0.853  1.00  0.00     0.030 A 
ENDBRANCH  17  20
ENDBRANCH  14  16
ENDBRANCH  12  14
ENDBRANCH   1  12
BRANCH  11  27
HETATM   27  C9  UNL     1      -2.304   0.846  -0.615  1.00  0.00     0.058 A 
HETATM   28  C10 UNL     1      -1.882   1.252  -1.871  1.00  0.00     0.031 A 
HETATM   29  C11 UNL     1      -2.058   2.549  -2.314  1.00  0.00     0.002 A 
HETATM   30  C12 UNL     1      -2.666   3.485  -1.508  1.00  0.00     0.000 A 
HETATM   31  C13 UNL     1      -3.095   3.093  -0.243  1.00  0.00     0.002 A 
HETATM   32  C14 UNL     1      -2.907   1.787   0.179  1.00  0.00     0.031 A 
ENDBRANCH  11  27
TORSDOF 5
