REMARK  5 active torsions:
REMARK  status: ('A' for Active; 'I' for Inactive)
REMARK    1  A    between atoms: C3_3  and  N1_4 
REMARK    2  A    between atoms: N1_4  and  C4_6 
REMARK    3  A    between atoms: C5_9  and  C6_10 
REMARK    4  A    between atoms: C9_13  and  C10_14 
REMARK    5  A    between atoms: N5_26  and  O1_27 
ROOT
HETATM    1  C1  UNL     1      -6.607   2.314   3.612  1.00  0.00     0.014 C 
HETATM    2  C2  UNL     1      -5.841   1.514   3.135  1.00  0.00    -0.097 C 
HETATM    3  C3  UNL     1      -4.918   0.524   2.532  1.00  0.00     0.231 C 
ENDROOT
BRANCH   3   4
HETATM    4  N1  UNL     1      -5.318   0.254   1.167  1.00  0.00    -0.216 N 
ATOM      5  H1  UNL     1      -6.310   0.236   0.931  1.00  0.00     0.178 HD
BRANCH   4   6
HETATM    6  C4  UNL     1      -4.436   0.034   0.236  1.00  0.00     0.679 A 
HETATM    7  N2  UNL     1      -3.122   0.042   0.466  1.00  0.00    -0.189 N 
HETATM    8  C5  UNL     1      -2.241  -0.196  -0.552  1.00  0.00     0.090 A 
ATOM      9  H2  UNL     1      -2.773   0.227   1.406  1.00  0.00     0.184 HD
HETATM   10  C18 UNL     1      -2.661  -0.447  -1.840  1.00  0.00     0.021 A 
HETATM   11  C19 UNL     1      -1.812  -0.661  -2.899  1.00  0.00     0.016 A 
HETATM   12  C23 UNL     1      -4.043  -0.450  -2.055  1.00  0.00     0.061 A 
HETATM   13  C20 UNL     1      -2.279  -0.889  -4.200  1.00  0.00     0.001 A 
HETATM   14  C21 UNL     1      -3.646  -0.889  -4.374  1.00  0.00     0.002 A 
HETATM   15  C22 UNL     1      -4.516  -0.674  -3.326  1.00  0.00     0.031 A 
HETATM   16  N6  UNL     1      -4.854  -0.211  -1.012  1.00  0.00    -0.191 N 
ATOM     17  H6  UNL     1      -5.860  -0.216  -1.183  1.00  0.00     0.184 HD
BRANCH   8  18
HETATM   18  C6  UNL     1      -0.809  -0.168  -0.283  1.00  0.00     0.090 A 
HETATM   19  C7  UNL     1      -0.179   1.004   0.145  1.00  0.00     0.035 A 
HETATM   20  C8  UNL     1       1.161   1.046   0.463  1.00  0.00     0.019 A 
HETATM   21  C9  UNL     1       1.916  -0.101   0.358  1.00  0.00     0.026 A 
HETATM   22  C17 UNL     1       1.287  -1.236  -0.060  1.00  0.00     0.138 A 
HETATM   23  N5  UNL     1      -0.040  -1.259  -0.369  1.00  0.00    -0.233 N 
BRANCH  21  24
HETATM   24  C10 UNL     1       3.347  -0.081   0.691  1.00  0.00     0.118 A 
HETATM   25  N3  UNL     1       4.198  -1.094   0.640  1.00  0.00    -0.340 N 
HETATM   26  C11 UNL     1       5.443  -0.715   1.017  1.00  0.00     0.060 A 
ATOM     27  H3  UNL     1       3.948  -2.040   0.353  1.00  0.00     0.167 HD
HETATM   28  C12 UNL     1       6.640  -1.374   1.131  1.00  0.00     0.032 A 
HETATM   29  C16 UNL     1       5.303   0.641   1.313  1.00  0.00     0.060 A 
HETATM   30  C13 UNL     1       7.764  -0.708   1.549  1.00  0.00     0.002 A 
HETATM   31  C14 UNL     1       7.660   0.629   1.849  1.00  0.00     0.002 A 
HETATM   32  C15 UNL     1       6.456   1.270   1.728  1.00  0.00     0.032 A 
HETATM   33  N4  UNL     1       4.028   1.001   1.108  1.00  0.00    -0.340 N 
ATOM     34  H4  UNL     1       3.641   1.935   1.245  1.00  0.00     0.167 HD
ENDBRANCH  21  24
BRANCH  23  35
HETATM   35  O1  UNL     1      -0.609  -2.474  -0.734  1.00  0.00    -0.283 OA
ATOM     36  H1  UNL     1      -0.063  -3.249  -0.795  1.00  0.00     0.245 HD
ENDBRANCH  23  35
ENDBRANCH   8  18
ENDBRANCH   4   6
ENDBRANCH   3   4
TORSDOF 5
