REMARK  2 active torsions:
REMARK  status: ('A' for Active; 'I' for Inactive)
REMARK    1  A    between atoms: N1_2  and  C3_4 
REMARK    2  A    between atoms: C4_7  and  N3_8 
ROOT
HETATM    1  C3  UNL     1       0.137   0.248  -0.162  1.00  0.00     0.162 C 
HETATM    2  N2  UNL     1      -0.641   0.969   0.699  1.00  0.00    -0.173 N 
ATOM      3  H2  UNL     1      -0.260   1.874   0.974  1.00  0.00     0.186 HD
HETATM    4  C4  UNL     1      -1.850   0.658   1.245  1.00  0.00     0.681 C 
HETATM    5  N4  UNL     1      -2.577  -0.441   0.978  1.00  0.00    -0.141 N 
ATOM      6  H4  UNL     1      -3.437  -0.513   1.522  1.00  0.00     0.189 HD
HETATM    7  C5  UNL     1      -2.379  -1.466   0.124  1.00  0.00     0.340 C 
HETATM    8  O1  UNL     1      -3.094  -2.475   0.223  1.00  0.00    -0.246 OA
HETATM    9  N5  UNL     1      -1.440  -1.501  -0.868  1.00  0.00    -0.291 N 
ATOM     10  H5  UNL     1      -1.554  -2.238  -1.563  1.00  0.00     0.172 HD
HETATM   11  C6  UNL     1      -0.368  -0.673  -1.046  1.00  0.00     0.148 C 
HETATM   12  N6  UNL     1       0.260  -0.725  -2.142  1.00  0.00    -0.382 N 
ATOM     13  H61 UNL     1      -0.115  -1.409  -2.799  1.00  0.00     0.157 HD
ATOM     14  H62 UNL     1       1.060  -0.107  -2.275  1.00  0.00     0.157 HD
ENDROOT
BRANCH   1  15
HETATM   15  N1  UNL     1       1.517   0.437  -0.155  1.00  0.00    -0.372 N 
HETATM   16  C1  UNL     1       2.004   1.478   0.779  1.00  0.00     0.150 C 
HETATM   17  C2  UNL     1       2.497  -0.233  -0.912  1.00  0.00     0.150 C 
ENDBRANCH   1  15
BRANCH   4  18
HETATM   18  N3  UNL     1      -2.326   1.507   2.095  1.00  0.00    -0.234 N 
ATOM     19  H32 UNL     1      -1.774   2.341   2.298  1.00  0.00     0.174 HD
ATOM     20  H31 UNL     1      -3.231   1.274   2.504  1.00  0.00     0.174 HD
ENDBRANCH   4  18
TORSDOF 2
