REMARK  3 active torsions:
REMARK  status: ('A' for Active; 'I' for Inactive)
REMARK    1  A    between atoms: O1_1  and  C1_3 
REMARK    2  A    between atoms: C14_16  and  O2_17 
REMARK    3  A    between atoms: C14_16  and  O3_19 
ROOT
HETATM    1  C1  UNL     1       3.270  -0.734  -0.695  1.00  0.00     0.122 C 
HETATM    2  C2  UNL     1       4.117   0.205   0.167  1.00  0.00     0.032 C 
HETATM    3  C3  UNL     1       3.794   0.007   1.637  1.00  0.00     0.003 C 
HETATM    4  C4  UNL     1       2.295  -0.268   1.823  1.00  0.00     0.009 C 
HETATM    5  C5  UNL     1       1.589   0.368   0.680  1.00  0.00     0.021 C 
HETATM    6  C6  UNL     1       0.123   0.489   0.854  1.00  0.00    -0.072 C 
HETATM    7  C7  UNL     1      -0.593   0.897  -0.184  1.00  0.00    -0.072 C 
HETATM    8  C8  UNL     1       0.146   1.204  -1.467  1.00  0.00     0.035 C 
HETATM    9  C9  UNL     1       1.198   0.197  -1.769  1.00  0.00     0.012 C 
HETATM   10  C10 UNL     1       1.809  -0.455  -0.570  1.00  0.00     0.023 C 
HETATM   11  C11 UNL     1      -2.033   1.043  -0.045  1.00  0.00     0.024 C 
HETATM   12  C12 UNL     1      -2.797   1.022  -1.338  1.00  0.00     0.015 C 
HETATM   13  C13 UNL     1      -4.106   0.358  -0.962  1.00  0.00     0.069 C 
HETATM   14  C14 UNL     1      -3.599  -0.727  -0.020  1.00  0.00     0.163 C 
HETATM   15  C15 UNL     1      -2.698   0.104   0.889  1.00  0.00     0.056 C 
HETATM   16  C16 UNL     1      -1.739  -0.760   1.646  1.00  0.00     0.015 C 
HETATM   17  C17 UNL     1      -0.605   0.170   2.121  1.00  0.00     0.035 C 
ENDROOT
BRANCH  14  18
HETATM   18  O2  UNL     1      -2.798  -1.571  -0.752  1.00  0.00    -0.365 OA
ATOM     19  H2  UNL     1      -2.482  -2.247  -0.165  1.00  0.00     0.213 HD
ENDBRANCH  14  18
BRANCH  14  20
HETATM   20  O3  UNL     1      -4.611  -1.352   0.665  1.00  0.00    -0.365 OA
ATOM     21  H3  UNL     1      -4.295  -2.028   1.252  1.00  0.00     0.213 HD
ENDBRANCH  14  20
BRANCH   1  22
HETATM   22  O1  UNL     1       3.681  -0.601  -2.008  1.00  0.00    -0.395 OA
ATOM     23  H1  UNL     1       3.155  -1.184  -2.543  1.00  0.00     0.210 HD
ENDBRANCH   1  22
TORSDOF 3
