REMARK  12 active torsions:
REMARK  status: ('A' for Active; 'I' for Inactive)
REMARK    1  A    between atoms: C2_2  and  N1_5 
REMARK       I    between atoms: N1_5  and  C5_7 
REMARK    2  A    between atoms: C5_7  and  C6_9 
REMARK    3  A    between atoms: C6_9  and  N2_10 
REMARK       I    between atoms: N2_10  and  C7_12 
REMARK    4  A    between atoms: C7_12  and  C8_14 
REMARK    5  A    between atoms: C8_14  and  C9_15 
REMARK    6  A    between atoms: C9_15  and  S1_16 
REMARK    7  A    between atoms: S1_16  and  C10_17 
REMARK    8  A    between atoms: C10_17  and  C11_18 
REMARK    9  A    between atoms: C18_25  and  O3_26 
REMARK   10  A    between atoms: O3_26  and  C19_27 
REMARK       I    between atoms: C19_27  and  N3_29 
REMARK   11  A    between atoms: N3_29  and  C20_31 
REMARK   12  A    between atoms: C32_45  and  C34_47 
ROOT
HETATM    1  C8  UNL     1       0.054   1.006  -0.328  1.00  0.00     0.058 C 
HETATM    2  C17 UNL     1       1.120   0.411   0.627  1.00  0.00     0.053 C 
HETATM    3  C18 UNL     1       2.368   0.259  -0.108  1.00  0.00     0.141 C 
HETATM    4  C26 UNL     1       2.197   0.964  -1.419  1.00  0.00     0.046 C 
HETATM    5  C27 UNL     1       2.720   0.251  -2.624  1.00  0.00     0.175 C 
HETATM    6  O5  UNL     1       1.647  -0.182  -3.398  1.00  0.00    -0.390 OA
HETATM    7  C28 UNL     1       0.546  -0.210  -2.517  1.00  0.00     0.174 C 
HETATM    8  C29 UNL     1       0.702   1.021  -1.665  1.00  0.00     0.037 C 
ENDROOT
BRANCH   1   9
HETATM    9  C7  UNL     1      -1.181   0.188  -0.231  1.00  0.00     0.228 C 
HETATM   10  N2  UNL     1      -2.130   0.322   0.796  1.00  0.00    -0.342 N 
ATOM     11  H2  UNL     1      -1.957   1.017   1.522  1.00  0.00     0.163 HD
HETATM   12  O2  UNL     1      -1.416  -0.670  -1.092  1.00  0.00    -0.273 OA
BRANCH  10  13
HETATM   13  C6  UNL     1      -3.354  -0.479   0.884  1.00  0.00     0.114 C 
HETATM   14  C30 UNL     1      -4.230  -0.283  -0.320  1.00  0.00     0.042 C 
HETATM   15  C31 UNL     1      -5.030   1.017  -0.200  1.00  0.00     0.021 C 
HETATM   16  C32 UNL     1      -6.146   0.816   0.810  1.00  0.00     0.035 C 
HETATM   17  C33 UNL     1      -7.296   0.038   0.174  1.00  0.00     0.025 C 
HETATM   18  C35 UNL     1      -5.586   0.082   1.989  1.00  0.00     0.021 C 
HETATM   19  C36 UNL     1      -4.103   0.012   2.095  1.00  0.00     0.042 C 
BRANCH  13  20
HETATM   20  C5  UNL     1      -3.018  -1.907   1.089  1.00  0.00     0.246 C 
HETATM   21  N1  UNL     1      -4.003  -2.940   1.083  1.00  0.00    -0.351 N 
ATOM     22  H1  UNL     1      -4.982  -2.698   0.928  1.00  0.00     0.163 HD
HETATM   23  O1  UNL     1      -1.811  -2.215   1.274  1.00  0.00    -0.271 OA
BRANCH  21  24
HETATM   24  C2  UNL     1      -3.640  -4.312   1.291  1.00  0.00     0.022 C 
HETATM   25  C1  UNL     1      -4.921  -5.151   1.218  1.00  0.00     0.037 C 
HETATM   26  C3  UNL     1      -3.036  -4.548   2.663  1.00  0.00     0.037 C 
HETATM   27  C4  UNL     1      -2.657  -4.837   0.277  1.00  0.00     0.037 C 
ENDBRANCH  21  24
ENDBRANCH  13  20
BRANCH  16  28
HETATM   28  C34 UNL     1      -6.673   2.159   1.153  1.00  0.00     0.239 C 
HETATM   29  N5  UNL     1      -5.825   3.163   1.681  1.00  0.00    -0.061 NA
HETATM   30  O6  UNL     1      -7.899   2.476   0.993  1.00  0.00    -0.276 OA
ENDBRANCH  16  28
ENDBRANCH  10  13
ENDBRANCH   1   9
BRANCH   1  31
HETATM   31  C9  UNL     1      -0.371   2.371   0.182  1.00  0.00     0.093 C 
BRANCH  31  32
HETATM   32  S1  UNL     1       0.745   3.715   0.154  1.00  0.00    -0.167 SA
BRANCH  32  33
HETATM   33  C10 UNL     1       1.035   4.536  -1.405  1.00  0.00     0.078 C 
BRANCH  33  34
HETATM   34  C11 UNL     1      -0.249   5.238  -1.889  1.00  0.00    -0.005 C 
HETATM   35  C12 UNL     1      -0.081   5.942  -3.172  1.00  0.00     0.005 C 
HETATM   36  C13 UNL     1       0.198   7.400  -3.123  1.00  0.00     0.000 C 
HETATM   37  C14 UNL     1       0.101   8.017  -1.767  1.00  0.00     0.000 C 
HETATM   38  C15 UNL     1      -1.159   7.459  -1.110  1.00  0.00     0.000 C 
HETATM   39  C16 UNL     1      -0.839   6.025  -0.761  1.00  0.00     0.005 C 
ENDBRANCH  33  34
ENDBRANCH  32  33
ENDBRANCH  31  32
ENDBRANCH   1  31
BRANCH   3  40
HETATM   40  O3  UNL     1       2.991  -0.974  -0.203  1.00  0.00    -0.298 OA
BRANCH  40  41
HETATM   41  C19 UNL     1       4.204  -1.360   0.228  1.00  0.00     0.361 C 
HETATM   42  O4  UNL     1       4.913  -0.518   0.804  1.00  0.00    -0.238 OA
HETATM   43  N3  UNL     1       4.678  -2.671   0.041  1.00  0.00    -0.331 N 
ATOM     44  H3  UNL     1       4.095  -3.362  -0.431  1.00  0.00     0.165 HD
BRANCH  43  45
HETATM   45  C20 UNL     1       5.994  -3.040   0.519  1.00  0.00     0.114 C 
HETATM   46  C21 UNL     1       5.949  -4.168   1.522  1.00  0.00     0.055 C 
HETATM   47  C22 UNL     1       7.392  -4.640   1.494  1.00  0.00     0.238 C 
HETATM   48  N4  UNL     1       7.901  -4.316   0.199  1.00  0.00    -0.073 N 
HETATM   49  C23 UNL     1       9.136  -3.518   0.310  1.00  0.00     0.272 C 
HETATM   50  C24 UNL     1       8.236  -5.558  -0.477  1.00  0.00     0.272 C 
HETATM   51  C25 UNL     1       6.906  -3.563  -0.533  1.00  0.00     0.261 C 
ENDBRANCH  43  45
ENDBRANCH  40  41
ENDBRANCH   3  40
TORSDOF 12
