REMARK  7 active torsions:
REMARK  status: ('A' for Active; 'I' for Inactive)
REMARK    1  A    between atoms: C2_2  and  N1_3 
REMARK    2  A    between atoms: C2_2  and  C3_7 
REMARK    3  A    between atoms: N1_3  and  N2_4 
REMARK    4  A    between atoms: C3_7  and  N3_8 
REMARK    5  A    between atoms: C3_7  and  C10_26 
REMARK       I    between atoms: N3_8  and  C4_10 
REMARK    6  A    between atoms: C4_10  and  C5_12 
REMARK       I    between atoms: N4_16  and  C9_17 
REMARK       I    between atoms: C9_17  and  N6_21 
REMARK    7  A    between atoms: N6_21  and  N7_23 
ROOT
HETATM    1  C5  UNL     1      -1.670  -0.022   0.311  1.00  0.00     0.194 C 
HETATM    2  C6  UNL     1      -1.921  -1.150   1.305  1.00  0.00     0.037 C 
HETATM    3  C7  UNL     1      -2.654  -2.147   0.467  1.00  0.00     0.023 C 
HETATM    4  C8  UNL     1      -3.317  -1.392  -0.636  1.00  0.00     0.142 C 
HETATM    5  N4  UNL     1      -2.800  -0.022  -0.583  1.00  0.00    -0.203 N 
HETATM    6  C9  UNL     1      -3.380   1.031  -1.317  1.00  0.00     0.694 C 
HETATM    7  N5  UNL     1      -3.334   1.039  -2.591  1.00  0.00    -0.233 N 
ATOM      8  H51 UNL     1      -3.754   1.802  -3.123  1.00  0.00     0.174 HD
ATOM      9  H52 UNL     1      -2.874   0.277  -3.089  1.00  0.00     0.174 HD
HETATM   10  N6  UNL     1      -4.015   2.083  -0.629  1.00  0.00    -0.072 N 
ATOM     11  H6  UNL     1      -4.961   2.342  -0.910  1.00  0.00     0.212 HD
ENDROOT
BRANCH   1  12
HETATM   12  C4  UNL     1      -0.392  -0.228  -0.414  1.00  0.00     0.242 C 
HETATM   13  N3  UNL     1       0.823  -0.257   0.299  1.00  0.00    -0.343 N 
ATOM     14  H3  UNL     1       0.822  -0.136   1.312  1.00  0.00     0.163 HD
HETATM   15  O1  UNL     1      -0.445  -0.371  -1.662  1.00  0.00    -0.271 OA
BRANCH  13  16
HETATM   16  C3  UNL     1       2.070  -0.458  -0.403  1.00  0.00     0.206 C 
BRANCH  16  17
HETATM   17  C2  UNL     1       2.862   0.823  -0.248  1.00  0.00     0.128 C 
HETATM   18  C1  UNL     1       4.193   0.742  -0.940  1.00  0.00     0.032 C 
BRANCH  17  19
HETATM   19  N1  UNL     1       2.967   1.220   1.142  1.00  0.00    -0.141 NA
BRANCH  19  20
HETATM   20  N2  UNL     1       3.729   0.358   1.909  1.00  0.00    -0.348 N 
ATOM     21  H22 UNL     1       4.169  -0.475   1.518  1.00  0.00     0.172 HD
ATOM     22  H21 UNL     1       3.803   0.637   2.887  1.00  0.00     0.172 HD
ENDBRANCH  19  20
ENDBRANCH  17  19
ENDBRANCH  16  17
BRANCH  16  23
HETATM   23  C10 UNL     1       2.757  -1.621   0.174  1.00  0.00     0.198 C 
HETATM   24  O4  UNL     1       2.268  -2.267   1.114  1.00  0.00    -0.646 OA
HETATM   25  O5  UNL     1       3.973  -2.003  -0.339  1.00  0.00    -0.646 OA
ENDBRANCH  16  23
ENDBRANCH  13  16
ENDBRANCH   1  12
BRANCH  10  26
HETATM   26  N7  UNL     1      -3.419   2.792   0.418  1.00  0.00    -0.024 N 
HETATM   27  O2  UNL     1      -2.509   3.587   0.190  1.00  0.00    -0.516 OA
HETATM   28  O3  UNL     1      -3.889   2.565   1.698  1.00  0.00    -0.516 OA
ENDBRANCH  10  26
TORSDOF 7
