REMARK  1 active torsions:
REMARK  status: ('A' for Active; 'I' for Inactive)
REMARK    1  A    between atoms: N2_6  and  C5_7 
ROOT
HETATM    1  C5  UNL     1      -1.051  -0.920   0.617  1.00  0.00     0.139 A 
HETATM    2  C6  UNL     1       0.401  -1.223   0.260  1.00  0.00     0.014 A 
HETATM    3  N3  UNL     1       1.623  -1.538  -0.035  1.00  0.00    -0.365 N 
ATOM      4  H3  UNL     1       1.851  -2.532  -0.017  1.00  0.00     0.161 HD
HETATM    5  C7  UNL     1       2.692  -0.646  -0.384  1.00  0.00     0.321 C 
HETATM    6  C8  UNL     1       3.991  -1.356  -0.202  1.00  0.00     0.059 C 
HETATM    7  C9  UNL     1       5.080  -0.536  -0.854  1.00  0.00     0.025 C 
HETATM    8  C10 UNL     1       4.944   0.914  -0.466  1.00  0.00     0.121 C 
HETATM    9  C11 UNL     1       6.231   1.409   0.022  1.00  0.00     0.065 C 
HETATM   10  N4  UNL     1       7.260   1.802   0.390  1.00  0.00    -0.197 NA
HETATM   11  C12 UNL     1       3.932   1.147   0.625  1.00  0.00     0.294 C 
HETATM   12  N5  UNL     1       2.624   0.614   0.319  1.00  0.00     0.112 N 
HETATM   13  C13 UNL     1       1.902   0.550   1.568  1.00  0.00     0.276 C 
HETATM   14  C14 UNL     1       0.479   0.997   1.364  1.00  0.00     0.043 C 
HETATM   15  C15 UNL     1      -0.129   0.156   0.276  1.00  0.00     0.063 A 
ENDROOT
BRANCH   1  16
HETATM   16  N2  UNL     1      -2.012  -1.399  -0.306  1.00  0.00    -0.381 N 
HETATM   17  C4  UNL     1      -1.970  -0.870  -1.621  1.00  0.00     0.124 C 
HETATM   18  C3  UNL     1      -2.730   0.454  -1.631  1.00  0.00     0.050 C 
HETATM   19  C2  UNL     1      -4.197   0.098  -1.697  1.00  0.00     0.274 C 
HETATM   20  N1  UNL     1      -4.852   0.104  -0.431  1.00  0.00     0.088 N 
HETATM   21  C1  UNL     1      -5.284   1.401   0.007  1.00  0.00     0.310 C 
HETATM   22  C17 UNL     1      -4.165  -0.585   0.614  1.00  0.00     0.316 C 
HETATM   23  C16 UNL     1      -3.302  -1.709   0.165  1.00  0.00     0.089 C 
ENDBRANCH   1  16
TORSDOF 1
