REMARK  7 active torsions:
REMARK  status: ('A' for Active; 'I' for Inactive)
REMARK    1  A    between atoms: O1_2  and  N1_3 
REMARK    2  A    between atoms: C2_5  and  N2_6 
REMARK    3  A    between atoms: C2_5  and  C3_9 
REMARK    4  A    between atoms: N4_12  and  C4_13 
REMARK    5  A    between atoms: C4_13  and  C5_14 
REMARK    6  A    between atoms: C5_14  and  C6_15 
REMARK    7  A    between atoms: C12_26  and  N7_27 
ROOT
HETATM    1  C3  UNL     1       2.564   0.339  -0.224  1.00  0.00     0.111 A 
HETATM    2  N3  UNL     1       1.287   0.865  -0.061  1.00  0.00    -0.292 N 
ATOM      3  H3  UNL     1       1.046   1.846  -0.202  1.00  0.00     0.187 HD
HETATM    4  N4  UNL     1       0.439  -0.055   0.295  1.00  0.00    -0.275 N 
HETATM    5  C11 UNL     1       1.086  -1.225   0.389  1.00  0.00     0.153 A 
HETATM    6  N6  UNL     1       0.721  -2.455   0.705  1.00  0.00    -0.174 N 
ATOM      7  H6  UNL     1      -0.260  -2.608   0.938  1.00  0.00     0.186 HD
HETATM    8  C12 UNL     1       1.531  -3.508   0.743  1.00  0.00     0.678 A 
HETATM    9  N8  UNL     1       2.815  -3.279   0.431  1.00  0.00    -0.178 N 
ATOM     10  H8  UNL     1       3.464  -4.065   0.450  1.00  0.00     0.185 HD
HETATM   11  C13 UNL     1       3.300  -2.046   0.089  1.00  0.00     0.148 A 
HETATM   12  N9  UNL     1       4.682  -1.970  -0.213  1.00  0.00    -0.081 NA
HETATM   13  C14 UNL     1       2.429  -0.977   0.061  1.00  0.00     0.084 A 
ENDROOT
BRANCH   4  14
HETATM   14  C4  UNL     1      -0.990   0.067   0.568  1.00  0.00     0.151 C 
BRANCH  14  15
HETATM   15  C5  UNL     1      -1.753  -0.163  -0.706  1.00  0.00     0.026 C 
BRANCH  15  16
HETATM   16  C6  UNL     1      -3.230  -0.061  -0.533  1.00  0.00    -0.010 C 
HETATM   17  C7  UNL     1      -3.782  -1.068   0.463  1.00  0.00     0.032 C 
HETATM   18  C8  UNL     1      -5.281  -0.836   0.520  1.00  0.00     0.232 C 
HETATM   19  N5  UNL     1      -5.487   0.486   1.079  1.00  0.00    -0.075 N 
HETATM   20  C9  UNL     1      -5.133   1.452   0.057  1.00  0.00     0.232 C 
ATOM     21  H52 UNL     1      -6.430   0.621   1.444  1.00  0.00     0.277 HD
ATOM     22  H51 UNL     1      -4.983   0.630   1.954  1.00  0.00     0.277 HD
HETATM   23  C10 UNL     1      -3.655   1.341  -0.223  1.00  0.00     0.032 C 
ENDBRANCH  15  16
ENDBRANCH  14  15
ENDBRANCH   4  14
BRANCH   1  24
HETATM   24  C2  UNL     1       3.691   1.120  -0.611  1.00  0.00     0.148 C 
HETATM   25  N1  UNL     1       3.427   2.412  -0.809  1.00  0.00    -0.249 N 
ATOM     26  H1  UNL     1       2.470   2.739  -0.674  1.00  0.00     0.196 HD
BRANCH  25  27
HETATM   27  O1  UNL     1       4.366   3.306  -1.179  1.00  0.00    -0.284 OA
HETATM   28  C1  UNL     1       4.302   4.648  -0.705  1.00  0.00     0.237 C 
ENDBRANCH  25  27
BRANCH  24  29
HETATM   29  N2  UNL     1       5.004   0.789  -0.819  1.00  0.00    -0.382 N 
ATOM     30  H22 UNL     1       5.811   1.348  -1.096  1.00  0.00     0.157 HD
ATOM     31  H21 UNL     1       5.206  -0.199  -0.668  1.00  0.00     0.157 HD
ENDBRANCH  24  29
ENDBRANCH   1  24
BRANCH   8  32
HETATM   32  N7  UNL     1       1.123  -4.675   1.056  1.00  0.00    -0.234 N 
ATOM     33  H72 UNL     1       0.146  -4.849   1.293  1.00  0.00     0.174 HD
ATOM     34  H71 UNL     1       1.745  -5.483   1.085  1.00  0.00     0.174 HD
ENDBRANCH   8  32
TORSDOF 7
