REMARK  11 active torsions:
REMARK  status: ('A' for Active; 'I' for Inactive)
REMARK    1  A    between atoms: C2_2  and  O1_3 
REMARK    2  A    between atoms: O1_3  and  C3_4 
REMARK    3  A    between atoms: C3_4  and  C4_6 
REMARK    4  A    between atoms: C5_9  and  N2_10 
REMARK    5  A    between atoms: N2_10  and  O3_12 
REMARK    6  A    between atoms: O3_12  and  C6_13 
REMARK    7  A    between atoms: C6_13  and  O4_14 
REMARK    8  A    between atoms: C13_26  and  N5_27 
REMARK    9  A    between atoms: N5_27  and  C14_29 
REMARK   10  A    between atoms: C14_29  and  C15_30 
REMARK   11  A    between atoms: C15_30  and  C16_31 
ROOT
HETATM    1  C4  UNL     1      -1.953   1.098  -0.214  1.00  0.00     0.185 C 
HETATM    2  N1  UNL     1      -2.529  -0.031   0.288  1.00  0.00    -0.321 N 
ATOM      3  H1  UNL     1      -3.414   0.128   0.769  1.00  0.00     0.169 HD
HETATM    4  C5  UNL     1      -2.137  -1.318   0.261  1.00  0.00     0.141 C 
HETATM    5  C7  UNL     1      -1.020  -1.779  -0.421  1.00  0.00     0.066 A 
HETATM    6  C8  UNL     1      -1.073  -3.136  -0.669  1.00  0.00     0.158 A 
HETATM    7  F1  UNL     1      -2.153  -3.834  -0.236  1.00  0.00    -0.203 F 
HETATM    8  C9  UNL     1      -0.030  -3.749  -1.348  1.00  0.00     0.126 A 
HETATM    9  N3  UNL     1      -0.116  -5.153  -1.588  1.00  0.00    -0.096 NA
HETATM   10  C10 UNL     1       1.059  -3.035  -1.783  1.00  0.00     0.168 A 
HETATM   11  F2  UNL     1       2.094  -3.596  -2.448  1.00  0.00    -0.202 F 
HETATM   12  C11 UNL     1       1.083  -1.658  -1.516  1.00  0.00     0.102 A 
HETATM   13  N4  UNL     1       2.192  -0.902  -1.970  1.00  0.00    -0.098 NA
HETATM   14  C12 UNL     1       0.081  -1.032  -0.854  1.00  0.00     0.052 A 
HETATM   15  C13 UNL     1       0.313   0.333  -0.684  1.00  0.00     0.116 C 
HETATM   16  N6  UNL     1      -0.684   1.241  -0.642  1.00  0.00    -0.323 N 
ATOM     17  H6  UNL     1      -0.441   2.171  -0.984  1.00  0.00     0.169 HD
ENDROOT
BRANCH  15  18
HETATM   18  N5  UNL     1       1.529   0.675  -0.561  1.00  0.00    -0.375 N 
ATOM     19  H5  UNL     1       2.206  -0.087  -0.600  1.00  0.00     0.161 HD
BRANCH  18  20
HETATM   20  C14 UNL     1       2.081   1.980  -0.375  1.00  0.00     0.126 C 
BRANCH  20  21
HETATM   21  C15 UNL     1       2.907   2.165   0.865  1.00  0.00     0.061 C 
BRANCH  21  22
HETATM   22  C16 UNL     1       4.093   1.282   0.940  1.00  0.00    -0.018 A 
HETATM   23  C17 UNL     1       5.358   1.771   0.572  1.00  0.00     0.013 A 
HETATM   24  C18 UNL     1       6.491   0.992   0.602  1.00  0.00     0.043 A 
HETATM   25  C19 UNL     1       6.423  -0.324   1.003  1.00  0.00     0.119 A 
HETATM   26  F3  UNL     1       7.537  -1.115   1.039  1.00  0.00    -0.206 F 
HETATM   27  C20 UNL     1       5.201  -0.834   1.369  1.00  0.00     0.085 A 
HETATM   28  C21 UNL     1       4.075  -0.037   1.333  1.00  0.00     0.125 A 
HETATM   29  F4  UNL     1       2.910  -0.606   1.729  1.00  0.00    -0.205 F 
ENDBRANCH  21  22
ENDBRANCH  20  21
ENDBRANCH  18  20
ENDBRANCH  15  18
BRANCH   1  30
HETATM   30  C3  UNL     1      -2.813   2.272  -0.292  1.00  0.00     0.327 C 
HETATM   31  O2  UNL     1      -2.311   3.330  -0.749  1.00  0.00    -0.256 OA
BRANCH  30  32
HETATM   32  O1  UNL     1      -4.122   2.289   0.101  1.00  0.00    -0.316 OA
BRANCH  32  33
HETATM   33  C2  UNL     1      -4.870   3.488  -0.016  1.00  0.00     0.175 C 
HETATM   34  C1  UNL     1      -4.203   4.535   0.820  1.00  0.00     0.034 C 
ENDBRANCH  32  33
ENDBRANCH  30  32
ENDBRANCH   1  30
BRANCH   4  35
HETATM   35  N2  UNL     1      -2.805  -2.211   0.889  1.00  0.00    -0.247 N 
ATOM     36  H2  UNL     1      -2.484  -3.178   0.850  1.00  0.00     0.196 HD
BRANCH  35  37
HETATM   37  O3  UNL     1      -3.922  -1.925   1.604  1.00  0.00    -0.253 OA
BRANCH  37  38
HETATM   38  C6  UNL     1      -5.132  -2.636   1.559  1.00  0.00     0.366 C 
BRANCH  38  39
HETATM   39  O4  UNL     1      -5.689  -2.640   0.281  1.00  0.00    -0.375 OA
ATOM     40  H4  UNL     1      -6.508  -3.121   0.251  1.00  0.00     0.212 HD
ENDBRANCH  38  39
ENDBRANCH  37  38
ENDBRANCH  35  37
ENDBRANCH   4  35
TORSDOF 11
