REMARK  10 active torsions:
REMARK  status: ('A' for Active; 'I' for Inactive)
REMARK    1  A    between atoms: C2_2  and  O1_3 
REMARK    2  A    between atoms: O1_3  and  C3_4 
REMARK    3  A    between atoms: C3_4  and  C4_6 
REMARK    4  A    between atoms: C4_6  and  O3_7 
REMARK    5  A    between atoms: O3_7  and  N1_8 
REMARK    6  A    between atoms: C5_10  and  C6_12 
REMARK    7  A    between atoms: C6_12  and  C7_13 
REMARK    8  A    between atoms: C7_13  and  N3_14 
REMARK    9  A    between atoms: C10_23  and  N5_24 
REMARK   10  A    between atoms: C11_29  and  C12_30 
ROOT
HETATM    1  C4  UNL     1      -0.140  -0.200   0.336  1.00  0.00     0.258 C 
HETATM    2  C8  UNL     1       0.497  -1.456  -0.217  1.00  0.00     0.155 C 
HETATM    3  S1  UNL     1      -0.627  -2.253  -1.350  1.00  0.00    -0.104 SA
HETATM    4  C9  UNL     1      -2.290  -1.814  -0.888  1.00  0.00     0.115 A 
HETATM    5  N4  UNL     1      -3.303  -2.322  -1.591  1.00  0.00    -0.184 N 
ATOM      6  H4  UNL     1      -3.108  -2.954  -2.368  1.00  0.00     0.185 HD
HETATM    7  C10 UNL     1      -4.574  -2.015  -1.293  1.00  0.00     0.677 A 
HETATM    8  N6  UNL     1      -4.827  -1.190  -0.279  1.00  0.00    -0.185 N 
ATOM      9  H6  UNL     1      -5.796  -0.961  -0.056  1.00  0.00     0.184 HD
HETATM   10  C11 UNL     1      -3.819  -0.639   0.475  1.00  0.00     0.143 A 
HETATM   11  C13 UNL     1      -2.522  -0.961   0.162  1.00  0.00     0.098 A 
HETATM   12  N8  UNL     1      -1.417  -0.446   0.926  1.00  0.00    -0.344 N 
ATOM     13  H8  UNL     1      -1.550  -0.251   1.918  1.00  0.00     0.163 HD
ENDROOT
BRANCH   1  14
HETATM   14  C3  UNL     1      -0.299   0.819  -0.732  1.00  0.00     0.318 C 
HETATM   15  O2  UNL     1      -1.414   1.323  -0.998  1.00  0.00    -0.259 OA
BRANCH  14  16
HETATM   16  O1  UNL     1       0.784   1.268  -1.494  1.00  0.00    -0.318 OA
BRANCH  16  17
HETATM   17  C2  UNL     1       0.605   2.243  -2.509  1.00  0.00     0.174 C 
HETATM   18  C1  UNL     1       0.051   3.488  -1.834  1.00  0.00     0.034 C 
ENDBRANCH  16  17
ENDBRANCH  14  16
ENDBRANCH   1  14
BRANCH   1  19
HETATM   19  O3  UNL     1       0.741   0.328   1.294  1.00  0.00    -0.234 OA
BRANCH  19  20
HETATM   20  N1  UNL     1       2.018   0.673   0.923  1.00  0.00    -0.254 N 
HETATM   21  C5  UNL     1       3.062   0.137   1.463  1.00  0.00     0.115 C 
HETATM   22  N2  UNL     1       2.924  -0.848   2.478  1.00  0.00    -0.086 NA
ATOM     23  H1  UNL     1       2.146   1.377   0.196  1.00  0.00     0.195 HD
BRANCH  21  24
HETATM   24  C6  UNL     1       4.441   0.513   1.059  1.00  0.00     0.102 C 
BRANCH  24  25
HETATM   25  C7  UNL     1       5.142  -0.719   0.540  1.00  0.00     0.236 C 
BRANCH  25  26
HETATM   26  N3  UNL     1       6.484  -0.476   0.121  1.00  0.00    -0.079 N 
ATOM     27  H33 UNL     1       6.517   0.275  -0.568  1.00  0.00     0.274 HD
ATOM     28  H32 UNL     1       7.023  -0.042   0.870  1.00  0.00     0.274 HD
ATOM     29  H31 UNL     1       6.958  -1.308  -0.230  1.00  0.00     0.274 HD
ENDBRANCH  25  26
ENDBRANCH  24  25
ENDBRANCH  21  24
ENDBRANCH  19  20
ENDBRANCH   1  19
BRANCH  10  30
HETATM   30  C12 UNL     1      -4.180   0.265   1.516  1.00  0.00     0.284 C 
HETATM   31  N7  UNL     1      -5.570   0.508   1.794  1.00  0.00    -0.056 NA
HETATM   32  O4  UNL     1      -3.388   0.882   2.226  1.00  0.00    -0.269 OA
ENDBRANCH  10  30
BRANCH   7  33
HETATM   33  N5  UNL     1      -5.517  -2.542  -2.013  1.00  0.00    -0.234 N 
ATOM     34  H52 UNL     1      -5.323  -3.174  -2.790  1.00  0.00     0.174 HD
ATOM     35  H51 UNL     1      -6.484  -2.309  -1.786  1.00  0.00     0.174 HD
ENDBRANCH   7  33
TORSDOF 10
