REMARK  4 active torsions:
REMARK  status: ('A' for Active; 'I' for Inactive)
REMARK    1  A    between atoms: N2_9  and  C6_10 
REMARK    2  A    between atoms: C6_10  and  C7_11 
REMARK    3  A    between atoms: N3_21  and  C16_22 
REMARK    4  A    between atoms: C16_22  and  C17_23 
ROOT
HETATM    1  O1  UNL     1       4.278   2.802   0.248  1.00  0.00    -0.247 OA
HETATM    2  C1  UNL     1       3.526   1.798   0.054  1.00  0.00     0.326 A 
HETATM    3  N1  UNL     1       2.222   1.561   0.564  1.00  0.00    -0.324 N 
ATOM      4  H1  UNL     1       1.721   2.189   1.193  1.00  0.00     0.165 HD
HETATM    5  C2  UNL     1       1.707   0.317   0.073  1.00  0.00     0.117 A 
HETATM    6  C3  UNL     1       1.428  -0.681   1.159  1.00  0.00     0.042 C 
HETATM    7  C4  UNL     1       0.167  -0.409   1.911  1.00  0.00     0.023 C 
HETATM    8  C5  UNL     1      -1.067  -0.555   1.004  1.00  0.00     0.122 C 
HETATM    9  N2  UNL     1      -1.471   0.657   0.445  1.00  0.00    -0.393 N 
HETATM   10  C13 UNL     1      -0.522   1.414  -0.297  1.00  0.00     0.125 C 
HETATM   11  C14 UNL     1       0.530   0.518  -0.855  1.00  0.00     0.061 C 
HETATM   12  C15 UNL     1       2.826  -0.224  -0.739  1.00  0.00     0.256 A 
HETATM   13  O2  UNL     1       2.757  -1.358  -1.312  1.00  0.00    -0.270 OA
HETATM   14  N3  UNL     1       3.892   0.697  -0.747  1.00  0.00    -0.264 N 
ENDROOT
BRANCH  14  15
HETATM   15  C16 UNL     1       5.131   0.496  -1.472  1.00  0.00     0.178 C 
BRANCH  15  16
HETATM   16  C17 UNL     1       6.136  -0.205  -0.615  1.00  0.00    -0.006 A 
HETATM   17  C18 UNL     1       6.008  -0.672   0.667  1.00  0.00     0.117 A 
HETATM   18  N4  UNL     1       7.179  -1.216   0.990  1.00  0.00    -0.312 N 
HETATM   19  N5  UNL     1       8.046  -1.134   0.013  1.00  0.00    -0.312 N 
ATOM     20  H4  UNL     1       7.377  -1.646   1.893  1.00  0.00     0.186 HD
HETATM   21  C19 UNL     1       7.422  -0.507  -1.001  1.00  0.00     0.117 A 
ATOM     22  H5  UNL     1       9.006  -1.478   0.019  1.00  0.00     0.186 HD
ENDBRANCH  15  16
ENDBRANCH  14  15
BRANCH   9  23
HETATM   23  C6  UNL     1      -2.787   1.105   0.419  1.00  0.00     0.062 C 
BRANCH  23  24
HETATM   24  C7  UNL     1      -3.704   0.376  -0.512  1.00  0.00     0.024 C 
HETATM   25  C8  UNL     1      -5.086   1.020  -0.431  1.00  0.00     0.010 C 
HETATM   26  C9  UNL     1      -6.099   0.085   0.194  1.00  0.00     0.001 C 
HETATM   27  C10 UNL     1      -6.268  -1.176  -0.628  1.00  0.00     0.000 C 
HETATM   28  C11 UNL     1      -4.932  -1.706  -1.096  1.00  0.00     0.001 C 
HETATM   29  C12 UNL     1      -3.801  -1.091  -0.258  1.00  0.00     0.010 C 
ENDBRANCH  23  24
ENDBRANCH   9  23
TORSDOF 4
