REMARK  4 active torsions:
REMARK  status: ('A' for Active; 'I' for Inactive)
REMARK    1  A    between atoms: C9_9  and  C10_10 
REMARK    2  A    between atoms: C10_10  and  N1_11 
REMARK       I    between atoms: N1_11  and  C11_13 
REMARK       I    between atoms: C11_13  and  N2_15 
REMARK    3  A    between atoms: N2_15  and  C12_17 
REMARK    4  A    between atoms: C12_17  and  N3_18 
ROOT
HETATM    1  C10 UNL     1      -1.049   0.551   0.833  1.00  0.00     0.078 C 
ENDROOT
BRANCH   1   2
HETATM    2  C9  UNL     1      -2.319  -0.245   1.111  1.00  0.00     0.023 C 
HETATM    3  C8  UNL     1      -3.185   0.740   1.868  1.00  0.00     0.018 C 
HETATM    4  C7  UNL     1      -4.584   0.321   2.109  1.00  0.00     0.001 C 
HETATM    5  C6  UNL     1      -5.673   0.981   1.367  1.00  0.00     0.000 C 
HETATM    6  C5  UNL     1      -5.234   2.108   0.491  1.00  0.00     0.004 C 
HETATM    7  C4  UNL     1      -4.586   1.589  -0.762  1.00  0.00     0.027 C 
HETATM    8  C3  UNL     1      -4.842   0.124  -0.944  1.00  0.00    -0.024 C 
HETATM    9  C2  UNL     1      -4.085  -0.898  -0.649  1.00  0.00    -0.080 C 
HETATM   10  C1  UNL     1      -4.663  -2.249  -0.971  1.00  0.00     0.043 C 
HETATM   11  C20 UNL     1      -2.752  -0.906  -0.057  1.00  0.00     0.053 C 
HETATM   12  C19 UNL     1      -2.363  -2.378   0.189  1.00  0.00     0.177 C 
HETATM   13  O2  UNL     1      -1.470  -2.357   1.231  1.00  0.00    -0.389 OA
HETATM   14  C18 UNL     1      -1.867  -1.347   2.082  1.00  0.00     0.183 C 
ENDBRANCH   1   2
BRANCH   1  15
HETATM   15  N1  UNL     1      -0.033  -0.094   0.120  1.00  0.00    -0.322 N 
HETATM   16  C11 UNL     1       1.173   0.631  -0.145  1.00  0.00     0.321 C 
HETATM   17  O1  UNL     1       1.332   1.831   0.250  1.00  0.00    -0.247 OA
HETATM   18  N2  UNL     1       2.253   0.053  -0.861  1.00  0.00    -0.317 N 
ATOM     19  H2  UNL     1       2.162  -0.907  -1.194  1.00  0.00     0.166 HD
ATOM     20  H1  UNL     1      -0.148  -1.055  -0.202  1.00  0.00     0.169 HD
BRANCH  18  21
HETATM   21  C12 UNL     1       3.460   0.760  -1.133  1.00  0.00     0.399 C 
BRANCH  21  22
HETATM   22  N3  UNL     1       4.423  -0.028  -1.878  1.00  0.00     0.109 N 
HETATM   23  C13 UNL     1       4.802  -1.204  -1.180  1.00  0.00     0.304 C 
HETATM   24  C14 UNL     1       6.114  -1.148  -0.487  1.00  0.00     0.302 C 
HETATM   25  N4  UNL     1       6.398   0.258  -0.201  1.00  0.00     0.087 N 
HETATM   26  C15 UNL     1       7.488   0.401   0.731  1.00  0.00     0.310 C 
HETATM   27  C16 UNL     1       6.708   0.853  -1.503  1.00  0.00     0.302 C 
HETATM   28  C17 UNL     1       5.463   0.835  -2.316  1.00  0.00     0.304 C 
ENDBRANCH  21  22
ENDBRANCH  18  21
ENDBRANCH   1  15
TORSDOF 4
