REMARK  4 active torsions:
REMARK  status: ('A' for Active; 'I' for Inactive)
REMARK    1  A    between atoms: C2_2  and  C3_3 
REMARK    2  A    between atoms: C3_3  and  O1_5 
REMARK    3  A    between atoms: C3_3  and  C5_7 
REMARK    4  A    between atoms: C6_8  and  C7_9 
ROOT
HETATM    1  C7  UNL     1       1.439  -0.161  -0.416  1.00  0.00     0.041 A 
HETATM    2  C8  UNL     1       2.117  -0.814  -1.405  1.00  0.00     0.120 A 
HETATM    3 CL1  UNL     1       1.222  -1.642  -2.662  1.00  0.00    -0.063 Cl
HETATM    4  N1  UNL     1       3.494  -0.859  -1.469  1.00  0.00    -0.298 N 
ATOM      5  H1  UNL     1       3.970  -1.357  -2.222  1.00  0.00     0.171 HD
HETATM    6  C9  UNL     1       4.182  -0.233  -0.518  1.00  0.00     0.328 A 
HETATM    7  O2  UNL     1       5.436  -0.257  -0.551  1.00  0.00    -0.246 OA
HETATM    8  N2  UNL     1       3.558   0.422   0.474  1.00  0.00    -0.294 N 
HETATM    9  C10 UNL     1       4.377   1.077   1.470  1.00  0.00     0.162 C 
HETATM   10  C11 UNL     1       2.223   0.487   0.569  1.00  0.00     0.119 A 
HETATM   11  S1  UNL     1       1.517   1.297   1.795  1.00  0.00    -0.059 SA
ENDROOT
BRANCH   1  12
HETATM   12  C6  UNL     1       0.019  -0.064  -0.272  1.00  0.00     0.017 C 
HETATM   13  C5  UNL     1      -0.980  -0.518  -0.964  1.00  0.00     0.011 C 
BRANCH  13  14
HETATM   14  C3  UNL     1      -2.410  -0.246  -0.555  1.00  0.00     0.072 C 
HETATM   15  C4  UNL     1      -3.154  -1.533  -0.257  1.00  0.00     0.050 C 
BRANCH  14  16
HETATM   16  C2  UNL     1      -2.467   0.692   0.616  1.00  0.00     0.037 C 
HETATM   17  C1  UNL     1      -3.949   1.005   0.888  1.00  0.00     0.008 C 
ENDBRANCH  14  16
BRANCH  14  18
HETATM   18  O1  UNL     1      -3.085   0.397  -1.605  1.00  0.00    -0.386 OA
ATOM     19  H1  UNL     1      -3.049  -0.196  -2.346  1.00  0.00     0.211 HD
ENDBRANCH  14  18
ENDBRANCH  13  14
ENDBRANCH   1  12
TORSDOF 4
