REMARK  8 active torsions:
REMARK  status: ('A' for Active; 'I' for Inactive)
REMARK    1  A    between atoms: N2_4  and  C1_6 
REMARK    2  A    between atoms: C1_6  and  N3_7 
REMARK    3  A    between atoms: N3_7  and  C2_10 
REMARK    4  A    between atoms: C3_11  and  C4_12 
REMARK    5  A    between atoms: C4_12  and  N4_13 
REMARK    6  A    between atoms: C7_20  and  N6_21 
REMARK    7  A    between atoms: N6_21  and  C8_22 
REMARK    8  A    between atoms: C8_22  and  O1_23 
ROOT
HETATM    1  C2  UNL     1      -0.036  -0.391   0.395  1.00  0.00     0.229 C 
HETATM    2  C3  UNL     1      -0.395   0.894  -0.373  1.00  0.00     0.039 C 
HETATM    3  C5  UNL     1       0.894   1.719  -0.213  1.00  0.00     0.011 C 
HETATM    4  C6  UNL     1       1.384   1.253   1.151  1.00  0.00     0.042 C 
HETATM    5  C7  UNL     1       1.327  -0.263   0.940  1.00  0.00     0.196 C 
ENDROOT
BRANCH   1   6
HETATM    6  N3  UNL     1      -0.424  -1.580  -0.258  1.00  0.00    -0.051 N 
ATOM      7  H32 UNL     1       0.009  -2.395   0.176  1.00  0.00     0.279 HD
ATOM      8  H31 UNL     1      -0.003  -1.644  -1.185  1.00  0.00     0.279 HD
BRANCH   6   9
HETATM    9  C1  UNL     1      -1.845  -1.727  -0.327  1.00  0.00     0.371 C 
BRANCH   9  10
HETATM   10  N2  UNL     1      -2.257  -2.912  -1.044  1.00  0.00    -0.318 N 
HETATM   11  N1  UNL     1      -1.356  -3.506  -1.695  1.00  0.00    -0.348 N 
ATOM     12  H12 UNL     1      -0.397  -3.158  -1.705  1.00  0.00     0.176 HD
ATOM     13  H11 UNL     1      -1.647  -4.342  -2.201  1.00  0.00     0.176 HD
ATOM     14  H2  UNL     1      -3.220  -3.248  -1.024  1.00  0.00     0.181 HD
ENDBRANCH   9  10
ENDBRANCH   6   9
ENDBRANCH   1   6
BRANCH   2  15
HETATM   15  C4  UNL     1      -1.469   1.671   0.371  1.00  0.00     0.145 C 
BRANCH  15  16
HETATM   16  N4  UNL     1      -1.941   2.819  -0.367  1.00  0.00    -0.343 N 
HETATM   17  N5  UNL     1      -1.291   3.850  -0.481  1.00  0.00    -0.349 N 
ATOM     18  H52 UNL     1      -0.377   3.883  -0.029  1.00  0.00     0.176 HD
ATOM     19  H51 UNL     1      -1.624   4.661  -1.002  1.00  0.00     0.176 HD
ATOM     20  H4  UNL     1      -2.857   2.769  -0.813  1.00  0.00     0.179 HD
ENDBRANCH  15  16
ENDBRANCH   2  15
BRANCH   5  21
HETATM   21  N6  UNL     1       2.451  -0.804   0.421  1.00  0.00    -0.429 NA
BRANCH  21  22
HETATM   22  C8  UNL     1       3.545  -1.357  -0.129  1.00  0.00     0.309 C 
BRANCH  22  23
HETATM   23  O1  UNL     1       3.606  -2.074  -1.248  1.00  0.00    -0.346 OA
ATOM     24  H1  UNL     1       4.380  -2.465  -1.637  1.00  0.00     0.219 HD
ENDBRANCH  22  23
ENDBRANCH  21  22
ENDBRANCH   5  21
TORSDOF 8
