REMARK  8 active torsions:
REMARK  status: ('A' for Active; 'I' for Inactive)
REMARK    1  A    between atoms: C2_2  and  C4_4 
REMARK    2  A    between atoms: C4_4  and  C5_5 
REMARK    3  A    between atoms: C4_4  and  N1_7 
REMARK    4  A    between atoms: N1_7  and  C6_9 
REMARK    5  A    between atoms: C6_9  and  C7_10 
REMARK    6  A    between atoms: C7_10  and  N2_11 
REMARK    7  A    between atoms: N2_11  and  N3_13 
REMARK    8  A    between atoms: C8_15  and  C9_16 
ROOT
HETATM    1  C6  UNL     1      -0.531  -0.139   0.057  1.00  0.00     0.135 C 
ENDROOT
BRANCH   1   2
HETATM    2  N1  UNL     1      -1.321   0.986   0.199  1.00  0.00    -0.409 N 
ATOM      3  H1  UNL     1      -0.897   1.839   0.564  1.00  0.00     0.154 HD
BRANCH   2   4
HETATM    4  C4  UNL     1      -2.691   1.003  -0.140  1.00  0.00     0.141 C 
BRANCH   4   5
HETATM    5  C2  UNL     1      -3.596   0.030   0.580  1.00  0.00     0.006 C 
HETATM    6  C1  UNL     1      -5.069   0.384   0.180  1.00  0.00     0.012 C 
HETATM    7  C3  UNL     1      -3.481  -1.393   0.158  1.00  0.00     0.012 C 
ENDBRANCH   4   5
BRANCH   4   8
HETATM    8  C5  UNL     1      -3.146   2.414   0.271  1.00  0.00     0.256 C 
HETATM    9  O1  UNL     1      -2.337   3.139   0.761  1.00  0.00    -0.305 OA
ENDBRANCH   4   8
ENDBRANCH   2   4
ENDBRANCH   1   2
BRANCH   1  10
HETATM   10  C7  UNL     1       0.977   0.145   0.140  1.00  0.00     0.158 C 
BRANCH  10  11
HETATM   11  N2  UNL     1       1.658  -1.122   0.030  1.00  0.00    -0.336 N 
ATOM     12  H2  UNL     1       1.445  -1.903   0.651  1.00  0.00     0.180 HD
BRANCH  11  13
HETATM   13  N3  UNL     1       2.595  -1.219  -0.941  1.00  0.00    -0.320 N 
HETATM   14  C8  UNL     1       3.813  -0.997  -0.751  1.00  0.00     0.084 C 
ATOM     15  H3  UNL     1       2.294  -1.487  -1.878  1.00  0.00     0.185 HD
BRANCH  14  16
HETATM   16  C9  UNL     1       4.351  -0.604   0.561  1.00  0.00     0.025 A 
HETATM   17  C10 UNL     1       4.734   0.854   0.683  1.00  0.00     0.010 A 
HETATM   18  C11 UNL     1       5.783  -0.218   0.685  1.00  0.00     0.010 A 
ENDBRANCH  14  16
ENDBRANCH  11  13
ENDBRANCH  10  11
ENDBRANCH   1  10
TORSDOF 8
