REMARK  17 active torsions:
REMARK  status: ('A' for Active; 'I' for Inactive)
REMARK    1  A    between atoms: C2_2  and  O2_4 
REMARK    2  A    between atoms: O2_4  and  C3_5 
REMARK    3  A    between atoms: C3_5  and  C4_6 
REMARK    4  A    between atoms: C4_6  and  C6_8 
REMARK    5  A    between atoms: C6_8  and  O3_9 
REMARK    6  A    between atoms: O3_9  and  C7_10 
REMARK    7  A    between atoms: C7_10  and  C8_12 
REMARK    8  A    between atoms: C8_12  and  C9_13 
REMARK    9  A    between atoms: C9_13  and  C10_14 
REMARK   10  A    between atoms: C12_17  and  O5_18 
REMARK   11  A    between atoms: O5_18  and  C13_19 
REMARK   12  A    between atoms: C16_23  and  O7_24 
REMARK   13  A    between atoms: C17_26  and  C18_27 
REMARK   14  A    between atoms: C18_27  and  O8_29 
REMARK   15  A    between atoms: C18_27  and  C20_31 
REMARK   16  A    between atoms: C21_34  and  C23_36 
REMARK   17  A    between atoms: C23_36  and  O11_37 
ROOT
HETATM    1  C8  UNL     1      -0.887   0.838   0.153  1.00  0.00     0.087 C 
HETATM    2  C12 UNL     1      -1.949   1.306  -0.804  1.00  0.00     0.153 C 
HETATM    3  C15 UNL     1      -3.347   0.950  -0.354  1.00  0.00     0.066 C 
HETATM    4  C16 UNL     1      -3.456  -0.549  -0.243  1.00  0.00     0.129 C 
HETATM    5  C17 UNL     1      -2.126  -1.250  -0.129  1.00  0.00     0.071 C 
HETATM    6  C21 UNL     1      -1.247  -0.481   0.810  1.00  0.00     0.006 C 
HETATM    7  C22 UNL     1       0.091  -1.174   1.063  1.00  0.00     0.019 C 
ENDROOT
BRANCH   1   8
HETATM    8  C7  UNL     1       0.361   0.607  -0.675  1.00  0.00     0.271 C 
HETATM    9  O4  UNL     1       0.306   0.262  -1.874  1.00  0.00    -0.264 OA
BRANCH   8  10
HETATM   10  O3  UNL     1       1.648   0.754  -0.175  1.00  0.00    -0.320 OA
BRANCH  10  11
HETATM   11  C6  UNL     1       2.805   0.535  -0.956  1.00  0.00     0.185 C 
BRANCH  11  12
HETATM   12  C4  UNL     1       4.019   0.807  -0.039  1.00  0.00     0.030 C 
HETATM   13  C5  UNL     1       5.240   0.854  -0.868  1.00  0.00     0.014 C 
BRANCH  12  14
HETATM   14  C3  UNL     1       4.015  -0.095   1.125  1.00  0.00     0.185 C 
BRANCH  14  15
HETATM   15  O2  UNL     1       4.170  -1.430   1.006  1.00  0.00    -0.321 OA
BRANCH  15  16
HETATM   16  C2  UNL     1       5.211  -2.203   0.638  1.00  0.00     0.254 C 
HETATM   17  C1  UNL     1       5.061  -3.715   0.585  1.00  0.00     0.126 C 
HETATM   18  O1  UNL     1       6.318  -1.718   0.333  1.00  0.00    -0.266 OA
ENDBRANCH  15  16
ENDBRANCH  14  15
ENDBRANCH  12  14
ENDBRANCH  11  12
ENDBRANCH  10  11
ENDBRANCH   8  10
ENDBRANCH   1   8
BRANCH   1  19
HETATM   19  C9  UNL     1      -0.494   1.880   1.144  1.00  0.00     0.051 C 
BRANCH  19  20
HETATM   20  C10 UNL     1      -0.036   3.175   0.659  1.00  0.00    -0.013 C 
HETATM   21  C11 UNL     1      -0.616   4.299   1.073  1.00  0.00     0.080 C 
HETATM   22 CL1  UNL     1      -0.159   5.899   0.570  1.00  0.00    -0.097 Cl
ENDBRANCH  19  20
ENDBRANCH   1  19
BRANCH   2  23
HETATM   23  O5  UNL     1      -1.802   2.618  -1.188  1.00  0.00    -0.315 OA
BRANCH  23  24
HETATM   24  C13 UNL     1      -1.722   3.139  -2.461  1.00  0.00     0.255 C 
HETATM   25  C14 UNL     1      -1.555   4.575  -2.783  1.00  0.00     0.126 C 
HETATM   26  O6  UNL     1      -1.803   2.296  -3.360  1.00  0.00    -0.266 OA
ENDBRANCH  23  24
ENDBRANCH   2  23
BRANCH   6  27
HETATM   27  C23 UNL     1      -1.817  -0.379   2.201  1.00  0.00     0.175 C 
BRANCH  27  28
HETATM   28  O11 UNL     1      -0.957   0.181   3.141  1.00  0.00    -0.400 OA
ATOM     29  H11 UNL     1      -1.316   0.245   4.018  1.00  0.00     0.209 HD
ENDBRANCH  27  28
ENDBRANCH   6  27
BRANCH   5  30
HETATM   30  C18 UNL     1      -2.164  -2.716  -0.107  1.00  0.00     0.148 C 
HETATM   31  C19 UNL     1      -2.878  -3.468   0.929  1.00  0.00     0.058 C 
BRANCH  30  32
HETATM   32  O8  UNL     1      -0.841  -3.267  -0.139  1.00  0.00    -0.379 OA
ATOM     33  H8  UNL     1      -0.866  -4.217  -0.125  1.00  0.00     0.211 HD
ENDBRANCH  30  32
BRANCH  30  34
HETATM   34  C20 UNL     1      -2.697  -3.204  -1.417  1.00  0.00     0.209 C 
HETATM   35  O9  UNL     1      -1.941  -3.749  -2.295  1.00  0.00    -0.646 OA
HETATM   36  O10 UNL     1      -4.021  -3.130  -1.815  1.00  0.00    -0.646 OA
ENDBRANCH  30  34
ENDBRANCH   5  30
BRANCH   4  37
HETATM   37  O7  UNL     1      -4.371  -0.892   0.746  1.00  0.00    -0.395 OA
ATOM     38  H7  UNL     1      -4.440  -1.837   0.816  1.00  0.00     0.210 HD
ENDBRANCH   4  37
TORSDOF 17
