REMARK  5 active torsions:
REMARK  status: ('A' for Active; 'I' for Inactive)
REMARK    1  A    between atoms: N1_1  and  C1_5 
REMARK    2  A    between atoms: C1_5  and  C2_6 
REMARK    3  A    between atoms: C2_6  and  C3_7 
REMARK    4  A    between atoms: C3_7  and  N2_8 
REMARK    5  A    between atoms: C8_13  and  O1_14 
ROOT
HETATM    1  N2  UNL     1       0.102  -0.013  -0.079  1.00  0.00    -0.388 N 
HETATM    2  C4  UNL     1       0.843  -0.442   1.046  1.00  0.00     0.119 C 
HETATM    3  C5  UNL     1       2.296  -0.054   1.034  1.00  0.00     0.020 C 
HETATM    4  C6  UNL     1       2.964  -0.281  -0.291  1.00  0.00     0.006 C 
HETATM    5  C7  UNL     1       1.991  -0.791  -1.347  1.00  0.00     0.053 C 
HETATM    6  C8  UNL     1       0.808   0.157  -1.299  1.00  0.00     0.215 C 
ENDROOT
BRANCH   1   7
HETATM    7  C3  UNL     1      -0.822   1.044   0.135  1.00  0.00     0.121 C 
BRANCH   7   8
HETATM    8  C2  UNL     1      -2.005   0.631   0.991  1.00  0.00     0.046 C 
BRANCH   8   9
HETATM    9  C1  UNL     1      -2.779  -0.495   0.349  1.00  0.00     0.231 C 
BRANCH   9  10
HETATM   10  N1  UNL     1      -3.289  -0.117  -0.954  1.00  0.00    -0.079 N 
ATOM     11  H13 UNL     1      -3.846   0.736  -0.903  1.00  0.00     0.274 HD
ATOM     12  H12 UNL     1      -2.543   0.217  -1.564  1.00  0.00     0.274 HD
ATOM     13  H11 UNL     1      -3.812  -0.878  -1.388  1.00  0.00     0.274 HD
ENDBRANCH   9  10
ENDBRANCH   8   9
ENDBRANCH   7   8
ENDBRANCH   1   7
BRANCH   6  14
HETATM   14  O1  UNL     1       1.321   1.454  -1.346  1.00  0.00    -0.377 OA
ATOM     15  H1  UNL     1       1.793   1.568  -2.162  1.00  0.00     0.212 HD
ENDBRANCH   6  14
TORSDOF 5
