REMARK  4 active torsions:
REMARK  status: ('A' for Active; 'I' for Inactive)
REMARK    1  A    between atoms: N1_1  and  C1_5 
REMARK    2  A    between atoms: C1_5  and  C2_6 
REMARK    3  A    between atoms: C2_6  and  C3_7 
REMARK    4  A    between atoms: N2_13  and  N3_14 
ROOT
HETATM    1  C3  UNL     1       0.602   0.817  -0.192  1.00  0.00    -0.006 C 
HETATM    2  C4  UNL     1       0.059   0.219   1.089  1.00  0.00     0.027 C 
HETATM    3  C5  UNL     1      -1.289   0.784   0.627  1.00  0.00     0.083 C 
HETATM    4  C6  UNL     1      -0.753   0.535  -0.793  1.00  0.00     0.010 C 
HETATM    5  C7  UNL     1      -1.070  -0.899  -1.001  1.00  0.00     0.023 C 
HETATM    6  C8  UNL     1      -2.327  -1.132  -0.182  1.00  0.00     0.114 C 
HETATM    7  N2  UNL     1      -2.397  -0.096   0.790  1.00  0.00    -0.233 NA
ENDROOT
BRANCH   1   8
HETATM    8  C2  UNL     1       1.696   0.087  -0.878  1.00  0.00     0.032 C 
BRANCH   8   9
HETATM    9  C1  UNL     1       2.921  -0.045   0.037  1.00  0.00     0.230 C 
BRANCH   9  10
HETATM   10  N1  UNL     1       3.911  -0.768  -0.738  1.00  0.00    -0.079 N 
ATOM     11  H13 UNL     1       3.574  -1.659  -1.103  1.00  0.00     0.274 HD
ATOM     12  H12 UNL     1       4.118  -0.339  -1.640  1.00  0.00     0.274 HD
ATOM     13  H11 UNL     1       4.725  -0.856  -0.130  1.00  0.00     0.274 HD
ENDBRANCH   9  10
ENDBRANCH   8   9
ENDBRANCH   1   8
BRANCH   7  14
HETATM   14  N3  UNL     1      -3.579   0.615   0.703  1.00  0.00    -0.363 NA
ATOM     15  H32 UNL     1      -3.629   1.358   1.400  1.00  0.00     0.171 HD
ATOM     16  H31 UNL     1      -4.372  -0.015   0.820  1.00  0.00     0.171 HD
ENDBRANCH   7  14
TORSDOF 4
