REMARK  8 active torsions:
REMARK  status: ('A' for Active; 'I' for Inactive)
REMARK    1  A    between atoms: C2_2  and  N1_4 
REMARK    2  A    between atoms: N1_4  and  C4_5 
REMARK    3  A    between atoms: N1_4  and  C7_14 
REMARK    4  A    between atoms: C4_5  and  C5_6 
REMARK    5  A    between atoms: C5_6  and  N2_7 
REMARK    6  A    between atoms: C5_6  and  C6_11 
REMARK    7  A    between atoms: C8_17  and  C9_18 
REMARK    8  A    between atoms: C13_24  and  C14_25 
ROOT
HETATM    1  C7  UNL     1       0.264  -0.308   0.075  1.00  0.00     0.121 A 
HETATM    2  N3  UNL     1       1.001  -1.489  -0.134  1.00  0.00    -0.331 N 
ATOM      3  H3  UNL     1       0.531  -2.377   0.040  1.00  0.00     0.168 HD
HETATM    4  C8  UNL     1       2.243  -1.530  -0.535  1.00  0.00     0.086 A 
HETATM    5  N4  UNL     1       2.868  -0.373  -0.769  1.00  0.00    -0.355 N 
ATOM      6  H4  UNL     1       3.838  -0.378  -1.084  1.00  0.00     0.166 HD
HETATM    7  C12 UNL     1       2.242   0.781  -0.597  1.00  0.00     0.101 A 
HETATM    8  C13 UNL     1       0.888   0.876  -0.161  1.00  0.00     0.009 A 
ENDROOT
BRANCH   1   9
HETATM    9  N1  UNL     1      -1.003  -0.511   0.560  1.00  0.00    -0.317 N 
BRANCH   9  10
HETATM   10  C2  UNL     1      -1.201  -0.578   2.015  1.00  0.00    -0.013 C 
HETATM   11  C1  UNL     1      -0.018  -0.456   2.867  1.00  0.00     0.063 C 
HETATM   12  C3  UNL     1      -2.387   0.121   2.554  1.00  0.00     0.063 C 
ENDBRANCH   9  10
BRANCH   9  13
HETATM   13  C4  UNL     1      -2.223  -0.754  -0.105  1.00  0.00     0.115 C 
BRANCH  13  14
HETATM   14  C5  UNL     1      -2.360  -1.279  -1.455  1.00  0.00     0.322 C 
BRANCH  14  15
HETATM   15  N2  UNL     1      -3.863  -1.364  -1.676  1.00  0.00    -0.061 N 
ATOM     16  H23 UNL     1      -4.359  -1.903  -0.966  1.00  0.00     0.275 HD
ATOM     17  H22 UNL     1      -4.358  -0.487  -1.517  1.00  0.00     0.275 HD
ATOM     18  H21 UNL     1      -3.959  -1.732  -2.622  1.00  0.00     0.275 HD
ENDBRANCH  14  15
BRANCH  14  19
HETATM   19  C6  UNL     1      -1.903  -0.573  -2.637  1.00  0.00     0.209 C 
HETATM   20  O1  UNL     1      -0.683  -0.589  -3.027  1.00  0.00    -0.646 OA
HETATM   21  O2  UNL     1      -2.802   0.185  -3.438  1.00  0.00    -0.646 OA
ENDBRANCH  14  19
ENDBRANCH  13  14
ENDBRANCH   9  13
ENDBRANCH   1   9
BRANCH   8  22
HETATM   22  C14 UNL     1       0.367   2.196  -0.047  1.00  0.00    -0.019 C 
HETATM   23  C15 UNL     1       1.498   3.212  -0.461  1.00  0.00     0.019 C 
HETATM   24  C16 UNL     1      -0.080   2.801   1.236  1.00  0.00     0.019 C 
HETATM   25  C17 UNL     1      -0.637   2.500  -1.166  1.00  0.00     0.019 C 
ENDBRANCH   8  22
BRANCH   4  26
HETATM   26  C9  UNL     1       3.001  -2.790  -0.747  1.00  0.00     0.053 A 
HETATM   27  C10 UNL     1       4.399  -2.770  -1.191  1.00  0.00     0.013 A 
HETATM   28  C11 UNL     1       4.179  -2.947   0.254  1.00  0.00     0.013 A 
ENDBRANCH   4  26
TORSDOF 8
