REMARK  11 active torsions:
REMARK  status: ('A' for Active; 'I' for Inactive)
REMARK    1  A    between atoms: O1_2  and  C2_3 
REMARK    2  A    between atoms: C2_3  and  C3_5 
REMARK    3  A    between atoms: C4_6  and  O3_7 
REMARK    4  A    between atoms: O3_7  and  C5_8 
REMARK    5  A    between atoms: C6_11  and  O4_12 
REMARK    6  A    between atoms: C6_11  and  C9_17 
REMARK    7  A    between atoms: O4_12  and  C7_13 
REMARK    8  A    between atoms: C7_13  and  O6_15 
REMARK    9  A    between atoms: C10_20  and  O9_21 
REMARK   10  A    between atoms: C11_23  and  O10_24 
REMARK   11  A    between atoms: C12_26  and  O11_27 
ROOT
HETATM    1  C5  UNL     1       0.339  -1.565   0.869  1.00  0.00     0.256 C 
HETATM    2  N1  UNL     1      -0.643  -0.531   0.793  1.00  0.00    -0.352 N 
ATOM      3  H1  UNL     1      -0.717   0.196   1.505  1.00  0.00     0.159 HD
HETATM    4  C6  UNL     1      -1.512  -0.573  -0.332  1.00  0.00     0.261 C 
HETATM    5  C10 UNL     1      -1.148  -1.649  -1.343  1.00  0.00     0.216 C 
HETATM    6  C11 UNL     1      -1.013  -3.001  -0.669  1.00  0.00     0.185 C 
HETATM    7  C12 UNL     1      -0.323  -2.887   0.666  1.00  0.00     0.198 C 
ENDROOT
BRANCH   4   8
HETATM    8  O4  UNL     1      -1.499   0.678  -0.974  1.00  0.00    -0.252 OA
BRANCH   8   9
HETATM    9  C7  UNL     1      -1.892   1.827  -0.287  1.00  0.00     0.408 C 
HETATM   10  O5  UNL     1      -2.266   1.782   0.913  1.00  0.00    -0.229 OA
BRANCH   9  11
HETATM   11  O6  UNL     1      -1.891   3.078  -0.891  1.00  0.00    -0.303 OA
HETATM   12  C8  UNL     1      -2.282   4.237  -0.216  1.00  0.00     0.215 C 
ENDBRANCH   9  11
ENDBRANCH   8   9
ENDBRANCH   4   8
BRANCH   4  13
HETATM   13  C9  UNL     1      -2.926  -0.833   0.106  1.00  0.00     0.234 C 
HETATM   14  O7  UNL     1      -3.238  -0.983   1.309  1.00  0.00    -0.644 OA
HETATM   15  O8  UNL     1      -3.919  -0.909  -0.861  1.00  0.00    -0.644 OA
ENDBRANCH   4  13
BRANCH   5  16
HETATM   16  O9  UNL     1      -2.161  -1.775  -2.290  1.00  0.00    -0.387 OA
ATOM     17  H9  UNL     1      -1.934  -2.447  -2.922  1.00  0.00     0.210 HD
ENDBRANCH   5  16
BRANCH   1  18
HETATM   18  O3  UNL     1       1.383  -1.311  -0.038  1.00  0.00    -0.335 OA
BRANCH  18  19
HETATM   19  C4  UNL     1       2.183  -0.205  -0.030  1.00  0.00     0.143 C 
HETATM   20  C3  UNL     1       3.451  -0.187   0.305  1.00  0.00     0.106 C 
BRANCH  20  21
HETATM   21  C2  UNL     1       4.241   1.036   0.289  1.00  0.00     0.284 C 
HETATM   22  O2  UNL     1       5.449   1.036   0.611  1.00  0.00    -0.260 OA
BRANCH  21  23
HETATM   23  O1  UNL     1       3.695   2.265  -0.085  1.00  0.00    -0.323 OA
HETATM   24  C1  UNL     1       4.492   3.454  -0.094  1.00  0.00     0.213 C 
ENDBRANCH  21  23
ENDBRANCH  20  21
ENDBRANCH  18  19
ENDBRANCH   1  18
BRANCH   6  25
HETATM   25  O10 UNL     1      -2.247  -3.613  -0.601  1.00  0.00    -0.390 OA
ATOM     26  H10 UNL     1      -2.162  -4.460  -0.179  1.00  0.00     0.210 HD
ENDBRANCH   6  25
BRANCH   7  27
HETATM   27  O11 UNL     1       0.559  -3.955   0.880  1.00  0.00    -0.389 OA
ATOM     28  H11 UNL     1       0.138  -4.797   0.751  1.00  0.00     0.210 HD
ENDBRANCH   7  27
TORSDOF 11
