REMARK  8 active torsions:
REMARK  status: ('A' for Active; 'I' for Inactive)
REMARK       I    between atoms: C1_2  and  N1_3 
REMARK       I    between atoms: C1_2  and  N3_16 
REMARK    1  A    between atoms: N1_3  and  N2_5 
REMARK    2  A    between atoms: C2_7  and  C3_8 
REMARK    3  A    between atoms: C8_13  and  O2_14 
REMARK    4  A    between atoms: N3_16  and  N4_18 
REMARK    5  A    between atoms: N4_18  and  C9_19 
REMARK    6  A    between atoms: C9_19  and  C10_20 
REMARK    7  A    between atoms: C12_22  and  N5_23 
REMARK    8  A    between atoms: C13_27  and  N6_28 
ROOT
HETATM    1  O1  UNL     1       0.130  -0.321  -1.094  1.00  0.00    -0.244 OA
HETATM    2  C1  UNL     1       0.448  -0.899  -0.050  1.00  0.00     0.350 C 
HETATM    3  N1  UNL     1       1.735  -1.495   0.064  1.00  0.00    -0.251 N 
ATOM      4  H1  UNL     1       1.991  -1.972   0.928  1.00  0.00     0.191 HD
HETATM    5  N3  UNL     1      -0.438  -1.000   1.077  1.00  0.00    -0.254 N 
ATOM      6  H3  UNL     1      -0.159  -1.487   1.929  1.00  0.00     0.187 HD
ENDROOT
BRANCH   3   7
HETATM    7  N2  UNL     1       2.618  -1.441  -0.944  1.00  0.00    -0.307 N 
HETATM    8  C2  UNL     1       3.609  -0.799  -1.323  1.00  0.00     0.121 C 
ATOM      9  H2  UNL     1       2.403  -2.170  -1.625  1.00  0.00     0.186 HD
BRANCH   8  10
HETATM   10  C3  UNL     1       4.262   0.308  -0.686  1.00  0.00     0.014 A 
HETATM   11  C4  UNL     1       3.851   0.818   0.518  1.00  0.00     0.015 A 
HETATM   12  C5  UNL     1       4.528   1.905   1.098  1.00  0.00     0.001 A 
HETATM   13  C6  UNL     1       5.614   2.501   0.504  1.00  0.00     0.003 A 
HETATM   14  C7  UNL     1       6.021   1.989  -0.698  1.00  0.00     0.037 A 
HETATM   15  C8  UNL     1       5.373   0.925  -1.284  1.00  0.00     0.077 A 
BRANCH  15  16
HETATM   16  O2  UNL     1       5.790   0.411  -2.499  1.00  0.00    -0.360 OA
ATOM     17  H2  UNL     1       6.541   0.828  -2.903  1.00  0.00     0.217 HD
ENDBRANCH  15  16
ENDBRANCH   8  10
ENDBRANCH   3   7
BRANCH   5  18
HETATM   18  N4  UNL     1      -1.691  -0.408   0.960  1.00  0.00    -0.133 NA
BRANCH  18  19
HETATM   19  C9  UNL     1      -2.693  -1.426   0.823  1.00  0.00     0.178 C 
BRANCH  19  20
HETATM   20  C10 UNL     1      -4.033  -0.741   0.710  1.00  0.00     0.020 A 
HETATM   21  C11 UNL     1      -4.248   0.620   0.737  1.00  0.00     0.075 A 
HETATM   22  C12 UNL     1      -5.608   0.790   0.605  1.00  0.00     0.217 A 
HETATM   23  O5  UNL     1      -6.158  -0.389   0.506  1.00  0.00    -0.265 OA
HETATM   24  C13 UNL     1      -5.258  -1.355   0.563  1.00  0.00     0.224 A 
BRANCH  22  25
HETATM   25  N5  UNL     1      -6.297   2.061   0.580  1.00  0.00    -0.090 N 
HETATM   26  O3  UNL     1      -7.534   2.088   0.455  1.00  0.00    -0.530 OA
HETATM   27  O4  UNL     1      -5.617   3.226   0.691  1.00  0.00    -0.530 OA
ENDBRANCH  22  25
BRANCH  24  28
HETATM   28  N6  UNL     1      -5.500  -2.758   0.488  1.00  0.00    -0.090 N 
HETATM   29  O6  UNL     1      -6.657  -3.191   0.359  1.00  0.00    -0.530 OA
HETATM   30  O7  UNL     1      -4.468  -3.647   0.557  1.00  0.00    -0.530 OA
ENDBRANCH  24  28
ENDBRANCH  19  20
ENDBRANCH  18  19
ENDBRANCH   5  18
TORSDOF 8
