REMARK  12 active torsions:
REMARK  status: ('A' for Active; 'I' for Inactive)
REMARK    1  A    between atoms: O1_2  and  C2_3 
REMARK    2  A    between atoms: C3_4  and  C4_5 
REMARK    3  A    between atoms: N1_8  and  O3_10 
REMARK    4  A    between atoms: C7_13  and  C8_14 
REMARK    5  A    between atoms: C8_14  and  C9_15 
REMARK    6  A    between atoms: C9_15  and  C10_16 
REMARK    7  A    between atoms: C10_16  and  C11_17 
REMARK    8  A    between atoms: N2_20  and  O4_22 
REMARK    9  A    between atoms: C16_27  and  O5_28 
REMARK   10  A    between atoms: O5_28  and  C17_29 
REMARK   11  A    between atoms: C17_29  and  C20_32 
REMARK   12  A    between atoms: C21_36  and  O6_37 
ROOT
HETATM    1  C2  UNL     1      -1.397  -1.411  -0.754  1.00  0.00     0.113 A 
HETATM    2  C3  UNL     1      -0.283  -0.628  -1.117  1.00  0.00     0.011 A 
HETATM    3  C14 UNL     1      -0.414   0.715  -0.958  1.00  0.00     0.058 A 
HETATM    4  C15 UNL     1      -1.551   1.289  -0.479  1.00  0.00     0.153 A 
HETATM    5  F1  UNL     1      -1.566   2.646  -0.361  1.00  0.00    -0.203 F 
HETATM    6  C16 UNL     1      -2.703   0.543  -0.102  1.00  0.00     0.144 A 
HETATM    7  C21 UNL     1      -2.552  -0.817  -0.267  1.00  0.00     0.139 A 
ENDROOT
BRANCH   2   8
HETATM    8  C4  UNL     1       0.865  -1.341  -1.614  1.00  0.00     0.176 C 
HETATM    9  O2  UNL     1       1.581  -2.057  -0.606  1.00  0.00    -0.327 OA
HETATM   10  C5  UNL     1       2.630  -2.663  -1.264  1.00  0.00     0.139 C 
HETATM   11  N1  UNL     1       3.387  -3.645  -0.890  1.00  0.00    -0.251 N 
HETATM   12  C6  UNL     1       2.820  -2.004  -2.580  1.00  0.00     0.099 C 
ATOM     13  H1  UNL     1       4.119  -3.947  -1.533  1.00  0.00     0.196 HD
HETATM   14  C7  UNL     1       1.898  -0.741  -2.426  1.00  0.00     0.075 C 
BRANCH  11  15
HETATM   15  O3  UNL     1       3.281  -4.304   0.295  1.00  0.00    -0.288 OA
ATOM     16  H3  UNL     1       3.836  -5.024   0.569  1.00  0.00     0.244 HD
ENDBRANCH  11  15
BRANCH  14  17
HETATM   17  C8  UNL     1       2.673   0.425  -2.200  1.00  0.00     0.017 C 
HETATM   18  N2  UNL     1       2.544   1.369  -3.152  1.00  0.00    -0.277 N 
ATOM     19  H2  UNL     1       1.920   1.178  -3.936  1.00  0.00     0.193 HD
BRANCH  17  20
HETATM   20  C9  UNL     1       3.606   0.775  -1.165  1.00  0.00     0.055 C 
BRANCH  20  21
HETATM   21  C10 UNL     1       3.170   0.916   0.249  1.00  0.00     0.009 C 
BRANCH  21  22
HETATM   22  C11 UNL     1       4.349   1.379   1.116  1.00  0.00    -0.023 C 
HETATM   23  C12 UNL     1       5.495   0.401   1.068  1.00  0.00     0.009 C 
HETATM   24  C13 UNL     1       3.953   1.582   2.543  1.00  0.00     0.009 C 
ENDBRANCH  21  22
ENDBRANCH  20  21
ENDBRANCH  17  20
BRANCH  18  25
HETATM   25  O4  UNL     1       3.188   2.546  -3.131  1.00  0.00    -0.290 OA
ATOM     26  H4  UNL     1       3.097   3.212  -3.802  1.00  0.00     0.244 HD
ENDBRANCH  18  25
ENDBRANCH  14  17
ENDBRANCH   2   8
BRANCH   1  27
HETATM   27  O1  UNL     1      -1.329  -2.792  -0.893  1.00  0.00    -0.352 OA
HETATM   28  C1  UNL     1      -0.901  -3.718   0.044  1.00  0.00     0.210 C 
ENDBRANCH   1  27
BRANCH   7  29
HETATM   29  O6  UNL     1      -3.636  -1.634   0.076  1.00  0.00    -0.351 OA
HETATM   30  C22 UNL     1      -3.796  -2.268   1.326  1.00  0.00     0.210 C 
ENDBRANCH   7  29
BRANCH   6  31
HETATM   31  O5  UNL     1      -3.735   1.201   0.336  1.00  0.00    -0.326 OA
BRANCH  31  32
HETATM   32  C17 UNL     1      -4.767   1.814   0.770  1.00  0.00     0.158 C 
HETATM   33  C18 UNL     1      -4.454   3.351   0.821  1.00  0.00     0.056 C 
HETATM   34  C19 UNL     1      -5.980   1.842  -0.233  1.00  0.00     0.056 C 
BRANCH  32  35
HETATM   35  C20 UNL     1      -5.411   1.564   2.108  1.00  0.00     0.418 C 
HETATM   36  F2  UNL     1      -4.532   1.790   3.143  1.00  0.00    -0.168 F 
HETATM   37  F3  UNL     1      -6.037   0.391   2.278  1.00  0.00    -0.168 F 
HETATM   38  F4  UNL     1      -6.410   2.559   2.296  1.00  0.00    -0.168 F 
ENDBRANCH  32  35
ENDBRANCH  31  32
ENDBRANCH   6  31
TORSDOF 12
