REMARK  9 active torsions:
REMARK  status: ('A' for Active; 'I' for Inactive)
REMARK    1  A    between atoms: O1_2  and  C2_3 
REMARK    2  A    between atoms: C7_8  and  N1_9 
REMARK       I    between atoms: N1_9  and  C8_11 
REMARK    3  A    between atoms: C8_11  and  C9_13 
REMARK    4  A    between atoms: C9_13  and  C10_15 
REMARK    5  A    between atoms: C10_15  and  C11_17 
REMARK    6  A    between atoms: C11_17  and  C16_30 
REMARK    7  A    between atoms: N2_18  and  N3_20 
REMARK    8  A    between atoms: N3_20  and  C12_22 
REMARK    9  A    between atoms: C15_26  and  N4_27 
ROOT
HETATM    1  C11 UNL     1       1.777  -1.245   0.827  1.00  0.00     0.121 C 
HETATM    2  N2  UNL     1       2.624  -0.296   0.975  1.00  0.00    -0.295 N 
ATOM      3  H2  UNL     1       2.288   0.538   0.493  1.00  0.00     0.187 HD
ENDROOT
BRANCH   1   4
HETATM    4  C10 UNL     1       0.606  -0.852   0.025  1.00  0.00     0.206 C 
HETATM    5  O3  UNL     1      -0.317  -1.603  -0.235  1.00  0.00    -0.288 OA
BRANCH   4   6
HETATM    6  C9  UNL     1       0.534   0.563  -0.514  1.00  0.00     0.250 C 
HETATM    7 CL1  UNL     1       1.919   0.820  -1.585  1.00  0.00    -0.106 Cl
BRANCH   6   8
HETATM    8  C8  UNL     1      -0.742   0.740  -1.268  1.00  0.00     0.248 C 
HETATM    9  N1  UNL     1      -1.982   0.498  -0.655  1.00  0.00    -0.323 N 
ATOM     10  H1  UNL     1      -1.938   0.199   0.319  1.00  0.00     0.169 HD
HETATM   11  O2  UNL     1      -0.659   1.107  -2.452  1.00  0.00    -0.271 OA
BRANCH   9  12
HETATM   12  C7  UNL     1      -3.277   0.610  -1.195  1.00  0.00     0.068 A 
HETATM   13  C2  UNL     1      -4.360   0.238  -0.375  1.00  0.00     0.095 A 
HETATM   14  C3  UNL     1      -5.662   0.321  -0.815  1.00  0.00     0.039 A 
HETATM   15  C4  UNL     1      -5.974   0.769  -2.073  1.00  0.00     0.003 A 
HETATM   16  C5  UNL     1      -4.932   1.137  -2.890  1.00  0.00     0.002 A 
HETATM   17  C6  UNL     1      -3.598   1.056  -2.449  1.00  0.00     0.032 A 
BRANCH  13  18
HETATM   18  O1  UNL     1      -4.074  -0.221   0.907  1.00  0.00    -0.354 OA
HETATM   19  C1  UNL     1      -5.140  -0.597   1.735  1.00  0.00     0.210 C 
ENDBRANCH  13  18
ENDBRANCH   9  12
ENDBRANCH   6   8
ENDBRANCH   4   6
ENDBRANCH   1   4
BRANCH   1  20
HETATM   20  C16 UNL     1       1.971  -2.542   1.397  1.00  0.00     0.116 C 
HETATM   21 CL2  UNL     1       3.561  -2.621   2.336  1.00  0.00    -0.077 Cl
HETATM   22  C17 UNL     1       1.313  -3.655   1.415  1.00  0.00     0.210 C 
HETATM   23  F1  UNL     1       1.972  -4.678   2.154  1.00  0.00    -0.191 F 
HETATM   24 CL3  UNL     1      -0.192  -4.082   0.703  1.00  0.00    -0.050 Cl
ENDBRANCH   1  20
BRANCH   2  25
HETATM   25  N3  UNL     1       3.794  -0.036   1.547  1.00  0.00    -0.296 N 
ATOM     26  H3  UNL     1       3.861  -0.104   2.563  1.00  0.00     0.187 HD
BRANCH  25  27
HETATM   27  C12 UNL     1       4.980   0.339   0.804  1.00  0.00     0.107 A 
HETATM   28  C13 UNL     1       6.022  -0.426   0.360  1.00  0.00     0.060 A 
HETATM   29  C14 UNL     1       6.886   0.421  -0.298  1.00  0.00     0.147 A 
HETATM   30  O4  UNL     1       6.372   1.624  -0.240  1.00  0.00    -0.299 OA
HETATM   31  C15 UNL     1       5.242   1.639   0.401  1.00  0.00     0.243 A 
BRANCH  31  32
HETATM   32  N4  UNL     1       4.411   2.764   0.654  1.00  0.00    -0.088 N 
HETATM   33  O5  UNL     1       3.340   2.691   1.271  1.00  0.00    -0.530 OA
HETATM   34  O6  UNL     1       4.785   4.007   0.204  1.00  0.00    -0.530 OA
ENDBRANCH  31  32
ENDBRANCH  25  27
ENDBRANCH   2  25
TORSDOF 9
