REMARK  3 active torsions:
REMARK  status: ('A' for Active; 'I' for Inactive)
REMARK    1  A    between atoms: C2_2  and  C3_3 
REMARK    2  A    between atoms: C5_5  and  C6_6 
REMARK    3  A    between atoms: N1_7  and  N2_9 
ROOT
HETATM    1  C3  UNL     1      -1.182   0.460   0.121  1.00  0.00     0.147 C 
HETATM    2  C4  UNL     1      -0.235  -0.601   0.678  1.00  0.00     0.073 C 
HETATM    3  C5  UNL     1       0.424  -0.358  -0.639  1.00  0.00     0.165 C 
HETATM    4  O1  UNL     1      -0.745   0.222  -1.174  1.00  0.00    -0.371 OA
ENDROOT
BRANCH   3   5
HETATM    5  C6  UNL     1       1.555   0.597  -0.515  1.00  0.00     0.111 C 
HETATM    6  N1  UNL     1       2.753   0.135  -0.633  1.00  0.00    -0.320 N 
ATOM      7  H1  UNL     1       2.892  -0.861  -0.806  1.00  0.00     0.185 HD
BRANCH   6   8
HETATM    8  N2  UNL     1       3.856   0.971  -0.529  1.00  0.00    -0.346 N 
ATOM      9  H22 UNL     1       3.699   1.964  -0.356  1.00  0.00     0.176 HD
ATOM     10  H21 UNL     1       4.804   0.606  -0.622  1.00  0.00     0.176 HD
ENDBRANCH   6   8
ENDBRANCH   3   5
BRANCH   1  11
HETATM   11  C2  UNL     1      -2.579   0.054   0.402  1.00  0.00    -0.005 C 
HETATM   12  C1  UNL     1      -2.899  -0.322   1.611  1.00  0.00     0.009 C 
ENDBRANCH   1  11
TORSDOF 3
