REMARK  2 active torsions:
REMARK  status: ('A' for Active; 'I' for Inactive)
REMARK    1  A    between atoms: C2_7  and  C3_8 
REMARK    2  A    between atoms: C3_8  and  N4_9 
ROOT
HETATM    1  C1  UNL     1      -1.827   0.670   1.548  1.00  0.00     0.181 C 
HETATM    2  N1  UNL     1      -1.583  -0.090   0.317  1.00  0.00    -0.267 N 
HETATM    3  N2  UNL     1      -2.219  -1.085  -0.281  1.00  0.00    -0.238 N 
ATOM      4  H2  UNL     1      -3.057  -1.637  -0.097  1.00  0.00     0.208 HD
HETATM    5  N3  UNL     1      -1.293  -1.048  -1.220  1.00  0.00    -0.272 N 
ATOM      6  H3  UNL     1      -1.139  -1.586  -2.073  1.00  0.00     0.190 HD
HETATM    7  C2  UNL     1      -0.635  -0.049  -0.642  1.00  0.00     0.135 A 
ENDROOT
BRANCH   7   8
HETATM    8  C3  UNL     1       0.583   0.784  -0.872  1.00  0.00     0.230 C 
BRANCH   8   9
HETATM    9  N4  UNL     1       1.707   0.145  -0.243  1.00  0.00    -0.265 N 
HETATM   10  C4  UNL     1       2.239   0.234   0.985  1.00  0.00     0.220 A 
HETATM   11  N5  UNL     1       3.162  -0.661   0.622  1.00  0.00    -0.280 N 
HETATM   12  N6  UNL     1       2.622  -0.736  -0.587  1.00  0.00    -0.238 N 
ATOM     13  H5  UNL     1       3.956  -1.104   1.085  1.00  0.00     0.189 HD
ATOM     14  H6  UNL     1       2.831  -1.261  -1.436  1.00  0.00     0.208 HD
ENDBRANCH   8   9
ENDBRANCH   7   8
TORSDOF 2
