REMARK  2 active torsions:
REMARK  status: ('A' for Active; 'I' for Inactive)
REMARK    1  A    between atoms: C1_4  and  O1_5 
REMARK    2  A    between atoms: C1_4  and  C2_7 
ROOT
HETATM    1  C2  UNL     1      -1.012   0.426   0.120  1.00  0.00     0.027 A 
HETATM    2  C3  UNL     1       0.233  -0.024  -0.026  1.00  0.00     0.006 A 
HETATM    3  C4  UNL     1       1.010  -1.168  -0.140  1.00  0.00     0.031 A 
HETATM    4  C5  UNL     1       2.340  -0.815  -0.274  1.00  0.00     0.089 A 
HETATM    5  N2  UNL     1       2.375   0.531  -0.240  1.00  0.00    -0.365 N 
ATOM      6  H2  UNL     1       3.221   1.096  -0.315  1.00  0.00     0.165 HD
HETATM    7  C6  UNL     1       1.130   1.020  -0.093  1.00  0.00     0.043 A 
HETATM    8  C7  UNL     1       0.391   2.110   0.016  1.00  0.00     0.031 A 
HETATM    9  C8  UNL     1      -0.894   1.879   0.148  1.00  0.00     0.019 A 
ENDROOT
BRANCH   1  10
HETATM   10  C1  UNL     1      -2.221  -0.386   0.228  1.00  0.00     0.144 C 
HETATM   11  N1  UNL     1      -2.184  -1.663   0.189  1.00  0.00    -0.379 N 
ATOM     12  H12 UNL     1      -3.028  -2.230   0.264  1.00  0.00     0.158 HD
ATOM     13  H11 UNL     1      -1.283  -2.129   0.080  1.00  0.00     0.158 HD
BRANCH  10  14
HETATM   14  O1  UNL     1      -3.442   0.245   0.376  1.00  0.00    -0.346 OA
ATOM     15  H1  UNL     1      -3.470   1.194   0.405  1.00  0.00     0.219 HD
ENDBRANCH  10  14
ENDBRANCH   1  10
TORSDOF 2
