REMARK  7 active torsions:
REMARK  status: ('A' for Active; 'I' for Inactive)
REMARK    1  A    between atoms: C2_2  and  C3_3 
REMARK    2  A    between atoms: C3_3  and  C4_4 
REMARK    3  A    between atoms: C4_4  and  O2_6 
REMARK    4  A    between atoms: O2_6  and  C5_7 
REMARK    5  A    between atoms: C13_16  and  C15_18 
REMARK    6  A    between atoms: C15_18  and  O4_19 
REMARK    7  A    between atoms: C21_26  and  O5_27 
ROOT
HETATM    1  C5  UNL     1       2.416  -1.136   0.489  1.00  0.00     0.164 C 
HETATM    2  C6  UNL     1       1.515  -1.309  -0.713  1.00  0.00     0.068 C 
HETATM    3  C7  UNL     1       0.311  -0.455  -0.366  1.00  0.00     0.135 C 
HETATM    4  O3  UNL     1      -0.390   0.038  -1.400  1.00  0.00    -0.374 OA
HETATM    5  C8  UNL     1      -1.733   0.195  -1.266  1.00  0.00     0.062 C 
HETATM    6  C9  UNL     1      -2.163   0.977  -2.502  1.00  0.00     0.046 C 
HETATM    7  C10 UNL     1      -2.333  -1.201  -1.521  1.00  0.00     0.038 C 
HETATM    8  C11 UNL     1      -3.838  -1.131  -1.571  1.00  0.00     0.004 C 
HETATM    9  C12 UNL     1      -4.413  -0.063  -0.713  1.00  0.00     0.012 C 
HETATM   10  C13 UNL     1      -3.518   0.184   0.490  1.00  0.00    -0.016 C 
HETATM   11  C14 UNL     1      -3.351  -1.040   1.277  1.00  0.00     0.018 C 
HETATM   12  C16 UNL     1      -2.257   0.841  -0.038  1.00  0.00     0.030 C 
HETATM   13  C17 UNL     1      -1.325   1.056   1.090  1.00  0.00     0.009 C 
HETATM   14  C18 UNL     1       0.003   1.680   0.731  1.00  0.00     0.015 C 
HETATM   15  C19 UNL     1       1.038   0.741   0.255  1.00  0.00     0.011 C 
HETATM   16  C20 UNL     1       1.850   1.402  -0.829  1.00  0.00     0.020 C 
HETATM   17  C21 UNL     1       1.904   0.085   1.255  1.00  0.00     0.158 C 
ENDROOT
BRANCH   1  18
HETATM   18  O2  UNL     1       3.767  -1.011   0.136  1.00  0.00    -0.313 OA
BRANCH  18  19
HETATM   19  C4  UNL     1       4.758  -1.872   0.597  1.00  0.00     0.262 C 
HETATM   20  O1  UNL     1       4.450  -2.814   1.367  1.00  0.00    -0.265 OA
BRANCH  19  21
HETATM   21  C3  UNL     1       6.192  -1.724   0.210  1.00  0.00     0.137 C 
BRANCH  21  22
HETATM   22  C2  UNL     1       6.298  -0.562  -0.687  1.00  0.00    -0.027 C 
HETATM   23  C1  UNL     1       7.055   0.467  -0.361  1.00  0.00     0.007 C 
ENDBRANCH  21  22
ENDBRANCH  19  21
ENDBRANCH  18  19
ENDBRANCH   1  18
BRANCH  17  24
HETATM   24  O5  UNL     1       3.026   0.913   1.473  1.00  0.00    -0.392 OA
ATOM     25  H5  UNL     1       2.708   1.671   1.949  1.00  0.00     0.210 HD
ENDBRANCH  17  24
BRANCH  10  26
HETATM   26  C15 UNL     1      -4.220   1.228   1.369  1.00  0.00     0.173 C 
BRANCH  26  27
HETATM   27  O4  UNL     1      -5.448   0.634   1.703  1.00  0.00    -0.400 OA
ATOM     28  H4  UNL     1      -5.883   1.280   2.247  1.00  0.00     0.209 HD
ENDBRANCH  26  27
ENDBRANCH  10  26
TORSDOF 7
