REMARK  11 active torsions:
REMARK  status: ('A' for Active; 'I' for Inactive)
REMARK    1  A    between atoms: O1_2  and  C2_3 
REMARK    2  A    between atoms: C4_5  and  C5_6 
REMARK    3  A    between atoms: C6_7  and  C7_8 
REMARK    4  A    between atoms: C9_10  and  O2_11 
REMARK    5  A    between atoms: O2_11  and  C10_12 
REMARK    6  A    between atoms: C14_16  and  O3_17 
REMARK    7  A    between atoms: C15_19  and  O4_20 
REMARK    8  A    between atoms: C18_24  and  O5_25 
REMARK    9  A    between atoms: O5_25  and  C19_26 
REMARK   10  A    between atoms: C21_30  and  O6_31 
REMARK   11  A    between atoms: C23_33  and  O7_34 
ROOT
HETATM    1  C7  UNL     1      -0.132  -0.119   0.800  1.00  0.00     0.000 A 
HETATM    2  C8  UNL     1      -1.210  -0.027  -0.100  1.00  0.00     0.051 A 
HETATM    3  C9  UNL     1      -2.516  -0.075   0.321  1.00  0.00     0.070 A 
HETATM    4  C16 UNL     1      -2.755  -0.215   1.659  1.00  0.00     0.039 A 
HETATM    5  C17 UNL     1      -1.713  -0.307   2.557  1.00  0.00     0.040 A 
HETATM    6  C18 UNL     1      -0.379  -0.261   2.155  1.00  0.00     0.085 A 
ENDROOT
BRANCH   1   7
HETATM    7  C6  UNL     1       1.183  -0.056   0.235  1.00  0.00     0.015 C 
HETATM    8  C5  UNL     1       2.338  -0.115   0.819  1.00  0.00     0.012 C 
BRANCH   8   9
HETATM    9  C4  UNL     1       3.637  -0.038   0.115  1.00  0.00    -0.031 A 
HETATM   10  C3  UNL     1       4.827  -0.108   0.818  1.00  0.00     0.051 A 
HETATM   11  C2  UNL     1       6.071  -0.044   0.233  1.00  0.00     0.105 A 
HETATM   12  C23 UNL     1       6.103   0.099  -1.134  1.00  0.00     0.135 A 
HETATM   13  C21 UNL     1       4.976   0.178  -1.909  1.00  0.00     0.105 A 
HETATM   14  C20 UNL     1       3.743   0.105  -1.242  1.00  0.00     0.051 A 
BRANCH  11  15
HETATM   15  O1  UNL     1       7.247  -0.118   0.966  1.00  0.00    -0.353 OA
HETATM   16  C1  UNL     1       7.130  -0.265   2.370  1.00  0.00     0.210 C 
ENDBRANCH  11  15
BRANCH  12  17
HETATM   17  O7  UNL     1       7.349   0.166  -1.738  1.00  0.00    -0.351 OA
HETATM   18  C24 UNL     1       7.954   1.416  -1.905  1.00  0.00     0.210 C 
ENDBRANCH  12  17
BRANCH  13  19
HETATM   19  O6  UNL     1       5.037   0.322  -3.288  1.00  0.00    -0.353 OA
HETATM   20  C22 UNL     1       3.814   0.395  -4.012  1.00  0.00     0.210 C 
ENDBRANCH  13  19
ENDBRANCH   8   9
ENDBRANCH   1   7
BRANCH   6  21
HETATM   21  O5  UNL     1       0.645  -0.353   3.055  1.00  0.00    -0.289 OA
BRANCH  21  22
HETATM   22  C19 UNL     1       0.545  -0.497   4.425  1.00  0.00     0.505 C 
HETATM   23  F1  UNL     1       1.271  -1.621   4.828  1.00  0.00    -0.184 F 
HETATM   24  F2  UNL     1       1.197   0.569   5.059  1.00  0.00    -0.184 F 
ENDBRANCH  21  22
ENDBRANCH   6  21
BRANCH   3  25
HETATM   25  O2  UNL     1      -3.509   0.023  -0.636  1.00  0.00    -0.343 OA
BRANCH  25  26
HETATM   26  C10 UNL     1      -4.881  -0.002  -0.426  1.00  0.00     0.160 C 
HETATM   27  C11 UNL     1      -5.432   1.336  -0.942  1.00  0.00     0.035 C 
HETATM   28  C12 UNL     1      -6.881   1.364  -0.587  1.00  0.00     0.005 C 
HETATM   29  C13 UNL     1      -7.681   0.225  -1.096  1.00  0.00     0.034 C 
HETATM   30  C14 UNL     1      -7.006  -1.095  -1.096  1.00  0.00     0.149 C 
HETATM   31  C15 UNL     1      -5.530  -1.044  -1.348  1.00  0.00     0.176 C 
BRANCH  30  32
HETATM   32  O3  UNL     1      -7.577  -1.887  -2.098  1.00  0.00    -0.393 OA
ATOM     33  H3  UNL     1      -7.144  -2.733  -2.098  1.00  0.00     0.210 HD
ENDBRANCH  30  32
BRANCH  31  34
HETATM   34  O4  UNL     1      -4.995  -2.295  -1.173  1.00  0.00    -0.390 OA
ATOM     35  H4  UNL     1      -5.397  -2.940  -1.744  1.00  0.00     0.210 HD
ENDBRANCH  31  34
ENDBRANCH  25  26
ENDBRANCH   3  25
TORSDOF 11
