REMARK  13 active torsions:
REMARK  status: ('A' for Active; 'I' for Inactive)
REMARK    1  A    between atoms: O1_2  and  C2_3 
REMARK    2  A    between atoms: C2_3  and  C3_4 
REMARK    3  A    between atoms: C3_4  and  C4_5 
REMARK    4  A    between atoms: C4_5  and  O2_6 
REMARK    5  A    between atoms: O2_6  and  C5_7 
REMARK    6  A    between atoms: C5_7  and  C6_9 
REMARK       I    between atoms: N1_15  and  C12_16 
REMARK    7  A    between atoms: C12_16  and  C13_18 
REMARK    8  A    between atoms: C13_18  and  C14_19 
REMARK    9  A    between atoms: C13_18  and  N2_26 
REMARK   10  A    between atoms: C14_19  and  C15_20 
REMARK       I    between atoms: N2_26  and  C21_28 
REMARK   11  A    between atoms: C21_28  and  O6_30 
REMARK   12  A    between atoms: O6_30  and  C22_31 
REMARK   13  A    between atoms: C22_31  and  C25_34 
REMARK       I    between atoms: C25_34  and  N3_36 
REMARK       I    between atoms: N3_36  and  C26_38 
ROOT
HETATM    1  C13 UNL     1      -1.703  -0.808   0.818  1.00  0.00     0.202 C 
ENDROOT
BRANCH   1   2
HETATM    2  C12 UNL     1      -0.577  -0.600   1.753  1.00  0.00     0.247 C 
HETATM    3  N1  UNL     1       0.782  -0.488   1.427  1.00  0.00    -0.341 N 
HETATM    4  C9  UNL     1       1.847  -0.331   2.382  1.00  0.00     0.028 C 
HETATM    5  C27 UNL     1       1.245  -0.487   0.028  1.00  0.00     0.141 C 
HETATM    6  C8  UNL     1       2.687   0.901   2.086  1.00  0.00     0.031 C 
HETATM    7  C10 UNL     1       2.792  -1.525   2.151  1.00  0.00     0.038 C 
HETATM    8  C11 UNL     1       1.468  -0.377   3.819  1.00  0.00     0.038 C 
HETATM    9  C7  UNL     1       2.168   1.671   0.900  1.00  0.00     0.019 C 
HETATM   10  C6  UNL     1       1.953   0.810  -0.307  1.00  0.00     0.104 C 
HETATM   11  O4  UNL     1      -0.945  -0.513   2.986  1.00  0.00    -0.271 OA
BRANCH  10  12
HETATM   12  C5  UNL     1       3.258   0.552  -0.978  1.00  0.00     0.264 C 
HETATM   13  O3  UNL     1       4.309   1.010  -0.464  1.00  0.00    -0.265 OA
BRANCH  12  14
HETATM   14  O2  UNL     1       3.380  -0.169  -2.147  1.00  0.00    -0.321 OA
BRANCH  14  15
HETATM   15  C4  UNL     1       4.586  -0.445  -2.819  1.00  0.00     0.180 C 
BRANCH  15  16
HETATM   16  C3  UNL     1       5.338   0.779  -3.258  1.00  0.00     0.053 C 
BRANCH  16  17
HETATM   17  C2  UNL     1       6.610   0.291  -3.954  1.00  0.00     0.169 C 
BRANCH  17  18
HETATM   18  O1  UNL     1       7.367   1.373  -4.390  1.00  0.00    -0.396 OA
HETATM   19  C1  UNL     1       8.526   0.948  -5.013  1.00  0.00     0.201 C 
ENDBRANCH  17  18
ENDBRANCH  16  17
ENDBRANCH  15  16
ENDBRANCH  14  15
ENDBRANCH  12  14
ENDBRANCH  10  12
ENDBRANCH   1   2
BRANCH   1  20
HETATM   20  C14 UNL     1      -2.394  -2.107   0.961  1.00  0.00     0.010 C 
BRANCH  20  21
HETATM   21  C15 UNL     1      -1.724  -3.392   0.761  1.00  0.00    -0.081 C 
HETATM   22  C16 UNL     1      -1.115  -3.633  -0.587  1.00  0.00     0.034 C 
HETATM   23  C17 UNL     1      -0.669  -5.087  -0.660  1.00  0.00     0.004 C 
HETATM   24  C18 UNL     1       0.377  -5.251   0.440  1.00  0.00     0.001 C 
HETATM   25  C19 UNL     1      -0.381  -5.251   1.754  1.00  0.00     0.004 C 
HETATM   26  C20 UNL     1      -0.905  -3.826   1.928  1.00  0.00     0.034 C 
ENDBRANCH  20  21
ENDBRANCH   1  20
BRANCH   1  27
HETATM   27  N2  UNL     1      -2.729   0.187   1.294  1.00  0.00    -0.320 N 
HETATM   28  C21 UNL     1      -3.308   1.119   0.414  1.00  0.00     0.362 C 
HETATM   29  O5  UNL     1      -2.976   1.132  -0.798  1.00  0.00    -0.238 OA
ATOM     30  H2  UNL     1      -3.010   0.185   2.275  1.00  0.00     0.166 HD
BRANCH  28  31
HETATM   31  O6  UNL     1      -4.231   2.026   0.836  1.00  0.00    -0.284 OA
BRANCH  31  32
HETATM   32  C22 UNL     1      -4.877   2.985   0.080  1.00  0.00     0.146 C 
HETATM   33  C23 UNL     1      -5.720   2.460  -1.046  1.00  0.00     0.057 C 
HETATM   34  C24 UNL     1      -3.897   3.972  -0.565  1.00  0.00     0.057 C 
BRANCH  32  35
HETATM   35  C25 UNL     1      -5.740   3.811   0.957  1.00  0.00     0.260 C 
HETATM   36  O7  UNL     1      -5.734   3.548   2.197  1.00  0.00    -0.270 OA
HETATM   37  N3  UNL     1      -6.550   4.857   0.484  1.00  0.00    -0.279 N 
HETATM   38  C26 UNL     1      -7.332   5.631   1.366  1.00  0.00     0.335 C 
ATOM     39  H3  UNL     1      -6.573   5.060  -0.515  1.00  0.00     0.173 HD
HETATM   40  N4  UNL     1      -7.306   5.366   2.756  1.00  0.00    -0.040 NA
HETATM   41  O8  UNL     1      -8.051   6.560   0.886  1.00  0.00    -0.251 OA
ENDBRANCH  32  35
ENDBRANCH  31  32
ENDBRANCH  28  31
ENDBRANCH   1  27
TORSDOF 13
