REMARK  10 active torsions:
REMARK  status: ('A' for Active; 'I' for Inactive)
REMARK    1  A    between atoms: C2_2  and  C3_3 
REMARK    2  A    between atoms: C3_3  and  C5_5 
REMARK    3  A    between atoms: C5_5  and  N1_6 
REMARK    4  A    between atoms: C5_5  and  C21_30 
REMARK       I    between atoms: N1_6  and  C6_8 
REMARK    5  A    between atoms: C6_8  and  C7_10 
REMARK    6  A    between atoms: C11_14  and  N2_15 
REMARK       I    between atoms: N2_15  and  C12_17 
REMARK    7  A    between atoms: C12_17  and  O3_19 
REMARK    8  A    between atoms: O3_19  and  C13_20 
REMARK    9  A    between atoms: C21_30  and  O6_32 
REMARK   10  A    between atoms: O6_32  and  C22_33 
ROOT
HETATM    1  C7  UNL     1       0.969  -1.048  -1.975  1.00  0.00     0.186 C 
HETATM    2  C8  UNL     1       1.168  -1.373  -3.480  1.00  0.00     0.040 C 
HETATM    3  C9  UNL     1       2.603  -1.728  -3.624  1.00  0.00    -0.021 C 
HETATM    4  C10 UNL     1       3.707  -1.257  -3.074  1.00  0.00     0.004 C 
HETATM    5  C11 UNL     1       4.061  -0.206  -2.098  1.00  0.00     0.202 C 
HETATM    6  C17 UNL     1       2.856   0.624  -1.693  1.00  0.00     0.247 C 
HETATM    7  O4  UNL     1       3.059   1.699  -1.106  1.00  0.00    -0.271 OA
HETATM    8  N3  UNL     1       1.516   0.282  -1.929  1.00  0.00    -0.336 N 
HETATM    9  C18 UNL     1       0.690   1.391  -2.302  1.00  0.00     0.127 C 
HETATM   10  C19 UNL     1       0.020   0.901  -3.608  1.00  0.00     0.021 C 
HETATM   11  C20 UNL     1       0.835  -0.163  -4.290  1.00  0.00     0.013 C 
ENDROOT
BRANCH   1  12
HETATM   12  C6  UNL     1      -0.390  -1.243  -1.515  1.00  0.00     0.242 C 
HETATM   13  N1  UNL     1      -0.904  -0.529  -0.410  1.00  0.00    -0.345 N 
ATOM     14  H1  UNL     1      -0.292   0.129   0.072  1.00  0.00     0.163 HD
HETATM   15  O1  UNL     1      -1.144  -2.061  -2.092  1.00  0.00    -0.271 OA
BRANCH  13  16
HETATM   16  C5  UNL     1      -2.262  -0.689   0.070  1.00  0.00     0.188 C 
BRANCH  16  17
HETATM   17  C3  UNL     1      -2.276  -1.473   1.337  1.00  0.00     0.014 C 
HETATM   18  C4  UNL     1      -1.672  -2.854   1.035  1.00  0.00     0.012 C 
BRANCH  17  19
HETATM   19  C2  UNL     1      -1.518  -0.924   2.485  1.00  0.00     0.002 C 
HETATM   20  C1  UNL     1      -1.896   0.413   2.993  1.00  0.00     0.005 C 
ENDBRANCH  17  19
ENDBRANCH  16  17
BRANCH  16  21
HETATM   21  C21 UNL     1      -3.036   0.545   0.157  1.00  0.00     0.282 C 
HETATM   22  O5  UNL     1      -2.566   1.693  -0.118  1.00  0.00    -0.263 OA
BRANCH  21  23
HETATM   23  O6  UNL     1      -4.386   0.563   0.558  1.00  0.00    -0.314 OA
BRANCH  23  24
HETATM   24  C22 UNL     1      -5.108   1.753   0.637  1.00  0.00     0.141 C 
HETATM   25  C23 UNL     1      -6.487   1.750  -0.034  1.00  0.00     0.020 C 
HETATM   26  C24 UNL     1      -7.159   0.390  -0.038  1.00  0.00     0.012 C 
HETATM   27  C27 UNL     1      -6.987   2.462   1.203  1.00  0.00    -0.001 C 
HETATM   28  C25 UNL     1      -7.597   0.267   1.393  1.00  0.00    -0.013 C 
HETATM   29  C26 UNL     1      -8.204   1.664   1.613  1.00  0.00     0.010 C 
HETATM   30  C29 UNL     1      -6.379   0.372   2.276  1.00  0.00     0.012 C 
HETATM   31  C28 UNL     1      -5.878   1.776   1.958  1.00  0.00     0.020 C 
ENDBRANCH  23  24
ENDBRANCH  21  23
ENDBRANCH  16  21
ENDBRANCH  13  16
ENDBRANCH   1  12
BRANCH   5  32
HETATM   32  N2  UNL     1       4.621  -0.748  -0.885  1.00  0.00    -0.320 N 
HETATM   33  C12 UNL     1       5.855  -0.234  -0.408  1.00  0.00     0.362 C 
HETATM   34  O2  UNL     1       6.481   0.684  -1.017  1.00  0.00    -0.238 OA
ATOM     35  H2  UNL     1       4.138  -1.489  -0.378  1.00  0.00     0.166 HD
BRANCH  33  36
HETATM   36  O3  UNL     1       6.412  -0.730   0.752  1.00  0.00    -0.294 OA
BRANCH  36  37
HETATM   37  C13 UNL     1       7.655  -0.194   1.209  1.00  0.00     0.061 C 
HETATM   38  C14 UNL     1       8.768  -0.374   0.229  1.00  0.00     0.046 C 
HETATM   39  C15 UNL     1       8.010  -0.924   2.483  1.00  0.00     0.046 C 
HETATM   40  C16 UNL     1       7.490   1.280   1.533  1.00  0.00     0.046 C 
ENDBRANCH  36  37
ENDBRANCH  33  36
ENDBRANCH   5  32
TORSDOF 10
