REMARK  21 active torsions:
REMARK  status: ('A' for Active; 'I' for Inactive)
REMARK    1  A    between atoms: O1_2  and  C2_3 
REMARK    2  A    between atoms: C3_6  and  C4_7 
REMARK    3  A    between atoms: C6_9  and  N2_10 
REMARK    4  A    between atoms: N2_10  and  O2_12 
REMARK    5  A    between atoms: N4_21  and  O3_22 
REMARK    6  A    between atoms: C11_24  and  C12_25 
REMARK    7  A    between atoms: C12_25  and  O4_26 
REMARK    8  A    between atoms: C12_25  and  N5_28 
REMARK    9  A    between atoms: N5_28  and  C13_30 
REMARK   10  A    between atoms: C13_30  and  O5_31 
REMARK   11  A    between atoms: C13_30  and  C14_33 
REMARK   12  A    between atoms: C14_33  and  O6_34 
REMARK   13  A    between atoms: C14_33  and  C15_36 
REMARK   14  A    between atoms: C15_36  and  O7_37 
REMARK   15  A    between atoms: C15_36  and  C16_39 
REMARK   16  A    between atoms: C16_39  and  O8_40 
REMARK   17  A    between atoms: C16_39  and  O9_42 
REMARK   18  A    between atoms: N6_44  and  O10_45 
REMARK   19  A    between atoms: C17_47  and  O11_48 
REMARK   20  A    between atoms: O11_48  and  C18_49 
REMARK   21  A    between atoms: C20_52  and  O13_53 
ROOT
HETATM    1  C4  UNL     1      -2.968   0.248   0.826  1.00  0.00    -0.030 A 
HETATM    2  C5  UNL     1      -2.415   1.134   1.741  1.00  0.00     0.043 A 
HETATM    3  C6  UNL     1      -1.064   1.192   1.997  1.00  0.00     0.085 A 
HETATM    4  C7  UNL     1      -0.200   0.347   1.333  1.00  0.00     0.107 A 
HETATM    5  C8  UNL     1      -0.713  -0.557   0.408  1.00  0.00     0.042 A 
HETATM    6  C9  UNL     1      -2.088  -0.587   0.174  1.00  0.00     0.027 A 
HETATM    7  C10 UNL     1       0.150  -1.387  -0.242  1.00  0.00     0.141 A 
HETATM    8  N3  UNL     1      -0.295  -2.235  -1.105  1.00  0.00    -0.383 N 
ATOM      9  H31 UNL     1       0.351  -2.856  -1.592  1.00  0.00     0.157 HD
ATOM     10  H32 UNL     1      -1.293  -2.293  -1.308  1.00  0.00     0.157 HD
HETATM   11  N4  UNL     1       1.486  -1.310   0.030  1.00  0.00    -0.188 N 
HETATM   12  C11 UNL     1       1.982  -0.449   0.911  1.00  0.00     0.188 A 
HETATM   13  N6  UNL     1       1.129   0.369   1.553  1.00  0.00    -0.202 N 
ENDROOT
BRANCH  12  14
HETATM   14  C12 UNL     1       3.460  -0.367   1.190  1.00  0.00     0.289 C 
BRANCH  14  15
HETATM   15  O4  UNL     1       3.926  -1.650   1.152  1.00  0.00    -0.370 OA
ATOM     16  H4  UNL     1       4.858  -1.598   1.328  1.00  0.00     0.212 HD
ENDBRANCH  14  15
BRANCH  14  17
HETATM   17  N5  UNL     1       4.104   0.632   0.432  1.00  0.00    -0.363 N 
ATOM     18  H5  UNL     1       3.620   1.178  -0.281  1.00  0.00     0.158 HD
BRANCH  17  19
HETATM   19  C13 UNL     1       5.472   0.820   0.735  1.00  0.00     0.247 C 
BRANCH  19  20
HETATM   20  O5  UNL     1       5.922   2.106   0.340  1.00  0.00    -0.374 OA
ATOM     21  H5  UNL     1       6.841   2.232   0.544  1.00  0.00     0.212 HD
ENDBRANCH  19  20
BRANCH  19  22
HETATM   22  C14 UNL     1       6.454  -0.229   0.379  1.00  0.00     0.200 C 
BRANCH  22  23
HETATM   23  O6  UNL     1       7.733   0.172   0.953  1.00  0.00    -0.388 OA
ATOM     24  H6  UNL     1       8.363  -0.501   0.725  1.00  0.00     0.210 HD
ENDBRANCH  22  23
BRANCH  22  25
HETATM   25  C15 UNL     1       6.764  -0.390  -1.079  1.00  0.00     0.205 C 
BRANCH  25  26
HETATM   26  O7  UNL     1       7.233   0.773  -1.694  1.00  0.00    -0.388 OA
ATOM     27  H7  UNL     1       7.429   0.671  -2.618  1.00  0.00     0.210 HD
ENDBRANCH  25  26
BRANCH  25  28
HETATM   28  C16 UNL     1       5.782  -1.131  -1.874  1.00  0.00     0.285 C 
BRANCH  28  29
HETATM   29  O8  UNL     1       4.660  -0.424  -2.240  1.00  0.00    -0.369 OA
ATOM     30  H8  UNL     1       4.023  -0.905  -2.756  1.00  0.00     0.212 HD
ENDBRANCH  28  29
BRANCH  28  31
HETATM   31  O9  UNL     1       6.439  -1.621  -3.029  1.00  0.00    -0.369 OA
ATOM     32  H9  UNL     1       5.802  -2.102  -3.545  1.00  0.00     0.212 HD
ENDBRANCH  28  31
ENDBRANCH  25  28
ENDBRANCH  22  25
ENDBRANCH  19  22
ENDBRANCH  17  19
ENDBRANCH  14  17
ENDBRANCH  12  14
BRANCH  11  33
HETATM   33  O3  UNL     1       2.298  -2.177  -0.644  1.00  0.00    -0.280 OA
ATOM     34  H3  UNL     1       3.227  -2.123  -0.455  1.00  0.00     0.245 HD
ENDBRANCH  11  33
BRANCH  13  35
HETATM   35  O10 UNL     1       1.642   1.255   2.462  1.00  0.00    -0.281 OA
ATOM     36  H10 UNL     1       2.579   1.271   2.617  1.00  0.00     0.245 HD
ENDBRANCH  13  35
BRANCH   3  37
HETATM   37  N2  UNL     1      -0.504   2.106   2.940  1.00  0.00    -0.267 N 
ATOM     38  H2  UNL     1       0.208   2.776   2.648  1.00  0.00     0.194 HD
BRANCH  37  39
HETATM   39  O2  UNL     1      -0.894   2.078   4.128  1.00  0.00    -0.289 OA
ATOM     40  H2  UNL     1      -0.521   2.686   4.755  1.00  0.00     0.244 HD
ENDBRANCH  37  39
ENDBRANCH   3  37
BRANCH   1  41
HETATM   41  C3  UNL     1      -4.415   0.252   0.614  1.00  0.00     0.149 C 
HETATM   42  N1  UNL     1      -5.000  -1.074   0.576  1.00  0.00    -0.361 N 
HETATM   43  C2  UNL     1      -5.351  -1.392  -0.619  1.00  0.00     0.146 C 
ATOM     44  H1  UNL     1      -5.118  -1.676   1.391  1.00  0.00     0.162 HD
HETATM   45  C20 UNL     1      -5.047  -0.302  -1.576  1.00  0.00     0.224 C 
HETATM   46  C17 UNL     1      -4.869   0.889  -0.661  1.00  0.00     0.195 C 
BRANCH  43  47
HETATM   47  O1  UNL     1      -5.947  -2.616  -0.967  1.00  0.00    -0.342 OA
HETATM   48  C1  UNL     1      -6.172  -3.619   0.017  1.00  0.00     0.211 C 
ENDBRANCH  43  47
BRANCH  45  49
HETATM   49  O13 UNL     1      -6.098  -0.078  -2.463  1.00  0.00    -0.385 OA
ATOM     50  H13 UNL     1      -5.903   0.621  -3.076  1.00  0.00     0.210 HD
ENDBRANCH  45  49
BRANCH  46  51
HETATM   51  O11 UNL     1      -6.157   1.434  -0.442  1.00  0.00    -0.311 OA
BRANCH  51  52
HETATM   52  C18 UNL     1      -6.482   2.758  -0.712  1.00  0.00     0.255 C 
HETATM   53  C19 UNL     1      -7.843   3.306  -0.474  1.00  0.00     0.126 C 
HETATM   54  O12 UNL     1      -5.567   3.485  -1.172  1.00  0.00    -0.266 OA
ENDBRANCH  51  52
ENDBRANCH  46  51
ENDBRANCH   1  41
TORSDOF 21
