REMARK  13 active torsions:
REMARK  status: ('A' for Active; 'I' for Inactive)
REMARK       I    between atoms: C2_2  and  N1_4 
REMARK    1  A    between atoms: N1_4  and  C3_6 
REMARK    2  A    between atoms: N5_15  and  C5_16 
REMARK    3  A    between atoms: C6_18  and  C7_19 
REMARK    4  A    between atoms: C7_19  and  O3_20 
REMARK    5  A    between atoms: C8_23  and  C9_24 
REMARK    6  A    between atoms: C8_23  and  O6_27 
REMARK    7  A    between atoms: C9_24  and  O5_25 
REMARK    8  A    between atoms: O6_27  and  C10_28 
REMARK    9  A    between atoms: N7_34  and  O8_35 
REMARK   10  A    between atoms: C14_38  and  N8_39 
REMARK   11  A    between atoms: N8_39  and  C16_41 
REMARK   12  A    between atoms: C17_44  and  N10_45 
REMARK   13  A    between atoms: C18_52  and  O11_53 
ROOT
HETATM    1  C5  UNL     1      -3.734  -0.324  -0.284  1.00  0.00     0.300 C 
HETATM    2  O2  UNL     1      -4.189  -1.236  -1.211  1.00  0.00    -0.329 OA
HETATM    3  C6  UNL     1      -3.663  -2.478  -1.010  1.00  0.00     0.289 C 
HETATM    4  O4  UNL     1      -2.861  -2.667   0.073  1.00  0.00    -0.318 OA
HETATM    5  C8  UNL     1      -1.787  -1.779   0.177  1.00  0.00     0.227 C 
HETATM    6  C18 UNL     1      -2.198  -0.400  -0.338  1.00  0.00     0.234 C 
ENDROOT
BRANCH   5   7
HETATM    7  C9  UNL     1      -1.550  -1.608   1.677  1.00  0.00     0.236 C 
BRANCH   7   8
HETATM    8  O5  UNL     1      -0.507  -0.749   1.938  1.00  0.00    -0.395 OA
ATOM      9  H5  UNL     1      -0.360  -0.643   2.870  1.00  0.00     0.209 HD
ENDBRANCH   7   8
ENDBRANCH   5   7
BRANCH   5  10
HETATM   10  O6  UNL     1      -0.700  -2.334  -0.478  1.00  0.00    -0.273 OA
BRANCH  10  11
HETATM   11  C10 UNL     1       0.566  -1.819  -0.622  1.00  0.00     0.276 A 
HETATM   12  N6  UNL     1       1.623  -1.983   0.193  1.00  0.00    -0.292 N 
HETATM   13  C11 UNL     1       2.688  -1.314  -0.302  1.00  0.00     0.203 A 
ATOM     14  H6  UNL     1       1.621  -2.529   1.054  1.00  0.00     0.172 HD
HETATM   15  C12 UNL     1       2.214  -0.732  -1.470  1.00  0.00     0.225 A 
HETATM   16  O10 UNL     1       4.006  -1.117   0.079  1.00  0.00    -0.304 OA
HETATM   17  O7  UNL     1       0.955  -1.061  -1.612  1.00  0.00    -0.250 OA
HETATM   18  N7  UNL     1       3.126   0.047  -2.219  1.00  0.00    -0.231 N 
HETATM   19  C13 UNL     1       4.543  -0.229  -2.041  1.00  0.00     0.212 C 
HETATM   20  C14 UNL     1       4.798  -0.116  -0.538  1.00  0.00     0.254 C 
BRANCH  18  21
HETATM   21  O8  UNL     1       2.684   0.995  -3.055  1.00  0.00    -0.285 OA
ATOM     22  H8  UNL     1       3.297   1.518  -3.558  1.00  0.00     0.245 HD
ENDBRANCH  18  21
BRANCH  20  23
HETATM   23  N8  UNL     1       6.176  -0.232  -0.192  1.00  0.00    -0.321 N 
HETATM   24  C15 UNL     1       6.906  -1.437  -0.513  1.00  0.00     0.156 C 
BRANCH  23  25
HETATM   25  C16 UNL     1       6.875   0.811   0.469  1.00  0.00     0.262 A 
HETATM   26  N9  UNL     1       6.982   0.977   1.813  1.00  0.00    -0.152 N 
HETATM   27  C17 UNL     1       7.718   2.072   2.065  1.00  0.00     0.699 A 
ATOM     28  H9  UNL     1       6.569   0.367   2.519  1.00  0.00     0.188 HD
HETATM   29  N11 UNL     1       8.055   2.567   0.863  1.00  0.00    -0.088 N 
HETATM   30  O9  UNL     1       7.547   1.807  -0.069  1.00  0.00    -0.185 OA
ATOM     31  H11 UNL     1       8.618   3.403   0.704  1.00  0.00     0.214 HD
BRANCH  27  32
HETATM   32  N10 UNL     1       8.054   2.578   3.178  1.00  0.00    -0.233 N 
ATOM     33 2H10 UNL     1       7.798   2.202   4.091  1.00  0.00     0.174 HD
ATOM     34 1H10 UNL     1       8.613   3.410   3.369  1.00  0.00     0.174 HD
ENDBRANCH  27  32
ENDBRANCH  23  25
ENDBRANCH  20  23
ENDBRANCH  10  11
ENDBRANCH   5  10
BRANCH   6  35
HETATM   35  O11 UNL     1      -1.760  -0.136  -1.613  1.00  0.00    -0.385 OA
ATOM     36  H11 UNL     1      -0.812  -0.183  -1.646  1.00  0.00     0.210 HD
ENDBRANCH   6  35
BRANCH   3  37
HETATM   37  C7  UNL     1      -4.770  -3.538  -0.923  1.00  0.00     0.225 C 
BRANCH  37  38
HETATM   38  O3  UNL     1      -4.121  -4.756  -0.719  1.00  0.00    -0.396 OA
ATOM     39  H3  UNL     1      -4.806  -5.412  -0.665  1.00  0.00     0.209 HD
ENDBRANCH  37  38
ENDBRANCH   3  37
BRANCH   1  40
HETATM   40  N5  UNL     1      -4.205   1.011  -0.587  1.00  0.00    -0.076 N 
HETATM   41  C3  UNL     1      -4.729   1.906   0.262  1.00  0.00     0.719 A 
HETATM   42  N2  UNL     1      -5.037   3.016  -0.433  1.00  0.00    -0.020 N 
HETATM   43  C4  UNL     1      -4.713   2.828  -1.709  1.00  0.00     0.705 A 
ATOM     44  H2  UNL     1      -5.451   3.863  -0.045  1.00  0.00     0.203 HD
HETATM   45  N3  UNL     1      -4.859   3.663  -2.677  1.00  0.00    -0.233 N 
HETATM   46  N4  UNL     1      -4.203   1.591  -1.788  1.00  0.00    -0.113 N 
ATOM     47  H32 UNL     1      -5.247   4.604  -2.617  1.00  0.00     0.174 HD
ATOM     48  H31 UNL     1      -4.610   3.519  -3.656  1.00  0.00     0.174 HD
ATOM     49  H4  UNL     1      -3.862   1.155  -2.645  1.00  0.00     0.206 HD
BRANCH  41  50
HETATM   50  N1  UNL     1      -4.928   1.710   1.676  1.00  0.00    -0.158 N 
HETATM   51  C2  UNL     1      -5.497   2.750   2.443  1.00  0.00     0.232 C 
HETATM   52  C1  UNL     1      -5.701   2.553   3.891  1.00  0.00     0.118 C 
HETATM   53  O1  UNL     1      -5.829   3.825   1.915  1.00  0.00    -0.273 OA
ATOM     54  H1  UNL     1      -4.661   0.830   2.117  1.00  0.00     0.187 HD
ENDBRANCH  41  50
ENDBRANCH   1  40
TORSDOF 13
