REMARK  18 active torsions:
REMARK  status: ('A' for Active; 'I' for Inactive)
REMARK    1  A    between atoms: S1_2  and  C2_3 
REMARK    2  A    between atoms: C2_3  and  O1_4 
REMARK    3  A    between atoms: C3_7  and  N1_8 
REMARK    4  A    between atoms: N1_8  and  C4_10 
REMARK    5  A    between atoms: C4_10  and  O3_11 
REMARK    6  A    between atoms: C5_13  and  O4_14 
REMARK    7  A    between atoms: C7_17  and  C8_18 
REMARK    8  A    between atoms: C7_17  and  C9_21 
REMARK    9  A    between atoms: C8_18  and  O5_19 
REMARK   10  A    between atoms: C9_21  and  O6_22 
REMARK   11  A    between atoms: C10_24  and  O7_26 
REMARK   12  A    between atoms: C12_28  and  O8_29 
REMARK   13  A    between atoms: C13_31  and  O9_32 
REMARK   14  A    between atoms: O9_32  and  C14_33 
REMARK   15  A    between atoms: C16_36  and  C17_37 
REMARK   16  A    between atoms: C17_37  and  O11_38 
REMARK   17  A    between atoms: C18_40  and  O12_41 
REMARK   18  A    between atoms: C19_43  and  O13_44 
ROOT
HETATM    1  C2  UNL     1       0.393  -0.300   2.937  1.00  0.00     0.341 C 
HETATM    2  O2  UNL     1      -0.770  -0.316   2.308  1.00  0.00    -0.296 OA
HETATM    3  C3  UNL     1      -0.914  -0.775   0.997  1.00  0.00     0.259 C 
HETATM    4  C12 UNL     1       0.229  -0.453   0.123  1.00  0.00     0.222 C 
HETATM    5  C13 UNL     1       1.466  -0.046   0.920  1.00  0.00     0.302 C 
HETATM    6  O14 UNL     1       1.452  -0.690   2.156  1.00  0.00    -0.290 OA
ENDROOT
BRANCH   3   7
HETATM    7  N1  UNL     1      -2.226  -0.492   0.561  1.00  0.00    -0.359 N 
ATOM      8  H1  UNL     1      -2.769   0.182   1.100  1.00  0.00     0.159 HD
BRANCH   7   9
HETATM    9  C4  UNL     1      -2.824  -1.060  -0.538  1.00  0.00     0.188 C 
HETATM   10  C5  UNL     1      -2.378  -0.743  -1.928  1.00  0.00     0.177 C 
HETATM   11  C6  UNL     1      -3.026   0.643  -2.110  1.00  0.00     0.054 C 
HETATM   12  C7  UNL     1      -4.378   0.494  -1.423  1.00  0.00     0.040 C 
HETATM   13  C10 UNL     1      -4.315  -0.743  -0.631  1.00  0.00     0.118 C 
HETATM   14  C11 UNL     1      -5.020  -0.754   0.679  1.00  0.00     0.052 C 
BRANCH   9  15
HETATM   15  O3  UNL     1      -2.694  -2.491  -0.450  1.00  0.00    -0.366 OA
ATOM     16  H3  UNL     1      -3.107  -2.884  -1.210  1.00  0.00     0.212 HD
ENDBRANCH   9  15
BRANCH  10  17
HETATM   17  O4  UNL     1      -2.999  -1.654  -2.813  1.00  0.00    -0.391 OA
ATOM     18  H4  UNL     1      -2.715  -1.452  -3.697  1.00  0.00     0.210 HD
ENDBRANCH  10  17
BRANCH  12  19
HETATM   19  C8  UNL     1      -5.399   0.346  -2.543  1.00  0.00     0.179 C 
BRANCH  19  20
HETATM   20  O5  UNL     1      -5.401   1.468  -3.381  1.00  0.00    -0.400 OA
ATOM     21  H5  UNL     1      -6.038   1.376  -4.080  1.00  0.00     0.209 HD
ENDBRANCH  19  20
ENDBRANCH  12  19
BRANCH  12  22
HETATM   22  C9  UNL     1      -4.666   1.743  -0.663  1.00  0.00     0.179 C 
BRANCH  22  23
HETATM   23  O6  UNL     1      -4.706   2.865  -1.491  1.00  0.00    -0.400 OA
ATOM     24  H6  UNL     1      -4.890   3.661  -1.006  1.00  0.00     0.209 HD
ENDBRANCH  22  23
ENDBRANCH  12  22
BRANCH  13  25
HETATM   25  O7  UNL     1      -4.867  -1.800  -1.395  1.00  0.00    -0.384 OA
ATOM     26  H7  UNL     1      -5.795  -1.603  -1.453  1.00  0.00     0.210 HD
ENDBRANCH  13  25
ENDBRANCH   7   9
ENDBRANCH   3   7
BRANCH   4  27
HETATM   27  O8  UNL     1       0.691  -1.588  -0.600  1.00  0.00    -0.386 OA
ATOM     28  H8  UNL     1       1.427  -1.381  -1.163  1.00  0.00     0.210 HD
ENDBRANCH   4  27
BRANCH   1  29
HETATM   29  S1  UNL     1       0.283  -1.485   4.341  1.00  0.00    -0.075 SA
HETATM   30  C1  UNL     1       1.876  -1.691   5.142  1.00  0.00     0.098 C 
ENDBRANCH   1  29
BRANCH   1  31
HETATM   31  O1  UNL     1       0.687   0.959   3.540  1.00  0.00    -0.334 OA
ATOM     32  H1  UNL     1       0.744   1.571   2.815  1.00  0.00     0.216 HD
ENDBRANCH   1  31
BRANCH   5  33
HETATM   33  O9  UNL     1       2.640  -0.422   0.295  1.00  0.00    -0.325 OA
BRANCH  33  34
HETATM   34  C14 UNL     1       3.535   0.597   0.057  1.00  0.00     0.299 C 
HETATM   35  O10 UNL     1       3.825   0.760  -1.316  1.00  0.00    -0.329 OA
HETATM   36  C15 UNL     1       5.010   1.395  -1.657  1.00  0.00     0.145 C 
HETATM   37  C16 UNL     1       6.093   1.073  -0.994  1.00  0.00    -0.004 C 
HETATM   38  C18 UNL     1       5.988   0.050   0.076  1.00  0.00     0.184 C 
HETATM   39  C19 UNL     1       4.764   0.323   0.900  1.00  0.00     0.206 C 
BRANCH  37  40
HETATM   40  C17 UNL     1       7.396   1.713  -1.304  1.00  0.00     0.203 C 
BRANCH  40  41
HETATM   41  O11 UNL     1       7.278   2.621  -2.319  1.00  0.00    -0.397 OA
ATOM     42  H11 UNL     1       8.112   3.031  -2.517  1.00  0.00     0.209 HD
ENDBRANCH  40  41
ENDBRANCH  37  40
BRANCH  38  43
HETATM   43  O12 UNL     1       5.849  -1.195  -0.546  1.00  0.00    -0.388 OA
ATOM     44  H12 UNL     1       5.782  -1.850   0.139  1.00  0.00     0.210 HD
ENDBRANCH  38  43
BRANCH  39  45
HETATM   45  O13 UNL     1       4.580  -0.825   1.709  1.00  0.00    -0.388 OA
ATOM     46  H13 UNL     1       5.351  -0.997   2.238  1.00  0.00     0.210 HD
ENDBRANCH  39  45
ENDBRANCH  33  34
ENDBRANCH   5  33
TORSDOF 18
