REMARK  3 active torsions:
REMARK  status: ('A' for Active; 'I' for Inactive)
REMARK    1  A    between atoms: C7_8  and  O1_9 
REMARK    2  A    between atoms: C8_11  and  O2_12 
REMARK    3  A    between atoms: C8_11  and  O3_14 
ROOT
HETATM    1  C1  UNL     1      -1.975   2.067   0.060  1.00  0.00     0.310 C 
HETATM    2  N1  UNL     1      -1.438   0.823   0.625  1.00  0.00     0.094 N 
HETATM    3  C2  UNL     1      -2.469  -0.183   0.478  1.00  0.00     0.273 C 
HETATM    4  C3  UNL     1      -1.848  -1.307  -0.360  1.00  0.00     0.037 C 
HETATM    5  C4  UNL     1      -0.406  -1.145  -0.053  1.00  0.00     0.026 C 
HETATM    6  C5  UNL     1       0.536  -1.630  -1.100  1.00  0.00     0.010 C 
HETATM    7  C6  UNL     1       1.945  -1.297  -0.644  1.00  0.00     0.038 C 
HETATM    8  C7  UNL     1       2.134   0.127  -0.268  1.00  0.00     0.182 C 
HETATM    9  C8  UNL     1       1.024   0.671   0.622  1.00  0.00     0.218 C 
HETATM   10  C9  UNL     1      -0.274   0.386  -0.053  1.00  0.00     0.290 C 
ENDROOT
BRANCH   9  11
HETATM   11  O2  UNL     1       1.028  -0.031   1.844  1.00  0.00    -0.362 OA
ATOM     12  H2  UNL     1       0.336   0.308   2.399  1.00  0.00     0.213 HD
ENDBRANCH   9  11
BRANCH   9  13
HETATM   13  O3  UNL     1       1.195   2.022   0.805  1.00  0.00    -0.362 OA
ATOM     14  H3  UNL     1       0.503   2.361   1.360  1.00  0.00     0.213 HD
ENDBRANCH   9  13
BRANCH   8  15
HETATM   15  O1  UNL     1       3.335   0.238   0.435  1.00  0.00    -0.390 OA
ATOM     16  H1  UNL     1       3.456   1.149   0.676  1.00  0.00     0.210 HD
ENDBRANCH   8  15
TORSDOF 3
