REMARK  4 active torsions:
REMARK  status: ('A' for Active; 'I' for Inactive)
REMARK    1  A    between atoms: O1_1  and  C1_3 
REMARK    2  A    between atoms: C4_6  and  O2_7 
REMARK    3  A    between atoms: C5_9  and  O3_10 
REMARK    4  A    between atoms: C9_15  and  O4_16 
ROOT
HETATM    1  C1  UNL     1       2.256  -0.178  -0.220  1.00  0.00     0.147 C 
HETATM    2  C2  UNL     1       1.528  -1.470  -0.164  1.00  0.00     0.037 C 
HETATM    3  C3  UNL     1       0.268  -1.450   0.643  1.00  0.00     0.043 C 
HETATM    4  C4  UNL     1      -0.617  -0.299   0.419  1.00  0.00     0.090 C 
HETATM    5  C5  UNL     1      -1.929  -0.580  -0.238  1.00  0.00     0.153 C 
HETATM    6  C6  UNL     1      -2.343   0.816  -0.681  1.00  0.00     0.035 C 
HETATM    7  C7  UNL     1      -1.046   1.603  -0.829  1.00  0.00     0.013 C 
HETATM    8  C8  UNL     1       0.011   0.578  -0.675  1.00  0.00     0.054 C 
HETATM    9  C9  UNL     1       1.323   1.035  -0.174  1.00  0.00     0.154 C 
ENDROOT
BRANCH   1  10
HETATM   10  O1  UNL     1       3.259  -0.093   0.726  1.00  0.00    -0.393 OA
ATOM     11  H1  UNL     1       3.725   0.734   0.690  1.00  0.00     0.210 HD
ENDBRANCH   1  10
BRANCH   9  12
HETATM   12  O4  UNL     1       1.264   1.421   1.164  1.00  0.00    -0.393 OA
ATOM     13  H4  UNL     1       0.685   2.174   1.193  1.00  0.00     0.210 HD
ENDBRANCH   9  12
BRANCH   4  14
HETATM   14  O2  UNL     1      -0.878   0.462   1.562  1.00  0.00    -0.387 OA
ATOM     15  H2  UNL     1      -1.450   1.206   1.417  1.00  0.00     0.210 HD
ENDBRANCH   4  14
BRANCH   5  16
HETATM   16  O3  UNL     1      -2.872  -1.128   0.636  1.00  0.00    -0.393 OA
ATOM     17  H3  UNL     1      -3.706  -1.307   0.218  1.00  0.00     0.210 HD
ENDBRANCH   5  16
TORSDOF 4
