REMARK  5 active torsions:
REMARK  status: ('A' for Active; 'I' for Inactive)
REMARK    1  A    between atoms: N1_2  and  C1_4 
REMARK    2  A    between atoms: C2_10  and  C3_11 
REMARK    3  A    between atoms: C3_11  and  N4_13 
REMARK    4  A    between atoms: N4_13  and  N5_15 
REMARK    5  A    between atoms: C4_17  and  C5_18 
ROOT
HETATM    1  C3  UNL     1       2.905   1.725   0.362  1.00  0.00     0.146 C 
HETATM    2  S2  UNL     1       3.865   3.028   0.436  1.00  0.00    -0.056 SA
ENDROOT
BRANCH   1   3
HETATM    3  C2  UNL     1       3.101   0.561   1.257  1.00  0.00     0.129 A 
HETATM    4  C1  UNL     1       3.981  -0.433   0.915  1.00  0.00     0.192 A 
HETATM    5  S1  UNL     1       3.830  -1.496   2.243  1.00  0.00     0.029 SA
HETATM    6  N2  UNL     1       2.690  -0.630   3.122  1.00  0.00    -0.267 N 
HETATM    7  N3  UNL     1       2.465   0.416   2.393  1.00  0.00    -0.289 N 
ATOM      8  H2  UNL     1       2.272  -0.872   4.021  1.00  0.00     0.195 HD
ATOM      9  H3  UNL     1       1.797   1.122   2.701  1.00  0.00     0.188 HD
BRANCH   4  10
HETATM   10  N1  UNL     1       4.812  -0.541  -0.263  1.00  0.00    -0.104 N 
HETATM   11  O1  UNL     1       5.544  -1.524  -0.387  1.00  0.00    -0.531 OA
HETATM   12  O2  UNL     1       4.730   0.460  -1.167  1.00  0.00    -0.531 OA
ENDBRANCH   4  10
ENDBRANCH   1   3
BRANCH   1  13
HETATM   13  N4  UNL     1       1.853   1.685  -0.574  1.00  0.00    -0.289 N 
ATOM     14  H4  UNL     1       1.702   2.476  -1.200  1.00  0.00     0.188 HD
BRANCH  13  15
HETATM   15  N5  UNL     1       1.031   0.592  -0.651  1.00  0.00    -0.314 N 
HETATM   16  C4  UNL     1      -0.085   0.492  -0.050  1.00  0.00     0.087 C 
ATOM     17  H5  UNL     1       1.334  -0.193  -1.228  1.00  0.00     0.185 HD
BRANCH  16  18
HETATM   18  C5  UNL     1      -0.936  -0.720  -0.171  1.00  0.00     0.059 C 
HETATM   19  C6  UNL     1      -1.526  -0.736  -1.541  1.00  0.00     0.013 C 
HETATM   20  C7  UNL     1      -2.810   0.022  -1.677  1.00  0.00     0.001 C 
HETATM   21  C8  UNL     1      -3.774  -0.570  -0.662  1.00  0.00     0.003 C 
HETATM   22  C9  UNL     1      -3.237  -0.155   0.686  1.00  0.00     0.038 C 
HETATM   23  C10 UNL     1      -1.911  -0.800   0.953  1.00  0.00     0.179 C 
HETATM   24  F1  UNL     1      -2.156  -2.103   1.355  1.00  0.00    -0.249 F 
ENDBRANCH  16  18
ENDBRANCH  13  15
ENDBRANCH   1  13
TORSDOF 5
