REMARK  3 active torsions:
REMARK  status: ('A' for Active; 'I' for Inactive)
REMARK    1  A    between atoms: N1_1  and  N2_4 
REMARK    2  A    between atoms: N2_4  and  N3_6 
REMARK    3  A    between atoms: N4_8  and  N5_10 
ROOT
HETATM    1  N5  UNL     1      -0.285   0.023  -0.459  1.00  0.00    -0.255 N 
ATOM      2  H5  UNL     1      -0.605   0.882  -0.906  1.00  0.00     0.191 HD
HETATM    3  C1  UNL     1       0.910  -0.051   0.040  1.00  0.00     0.205 A 
HETATM    4  N6  UNL     1       1.834   1.027   0.001  1.00  0.00    -0.289 N 
ATOM      5  H6  UNL     1       1.663   1.945  -0.410  1.00  0.00     0.172 HD
HETATM    6  C2  UNL     1       3.036   0.610   0.631  1.00  0.00     0.316 A 
HETATM    7  O1  UNL     1       4.093   1.306   0.788  1.00  0.00    -0.262 OA
HETATM    8  C3  UNL     1       2.801  -0.765   1.053  1.00  0.00     0.316 A 
HETATM    9  O2  UNL     1       3.629  -1.504   1.655  1.00  0.00    -0.262 OA
HETATM   10  N7  UNL     1       1.502  -1.178   0.695  1.00  0.00    -0.289 N 
ATOM     11  H7  UNL     1       1.074  -2.088   0.866  1.00  0.00     0.172 HD
ENDROOT
BRANCH   1  12
HETATM   12  N4  UNL     1      -1.125  -1.082  -0.377  1.00  0.00    -0.224 N 
HETATM   13  N3  UNL     1      -2.279  -1.035  -0.883  1.00  0.00    -0.214 N 
ATOM     14  H3  UNL     1      -2.900  -1.842  -0.826  1.00  0.00     0.211 HD
ATOM     15  H4  UNL     1      -0.808  -1.930   0.092  1.00  0.00     0.210 HD
BRANCH  13  16
HETATM   16  N2  UNL     1      -2.699   0.133  -1.522  1.00  0.00    -0.234 N 
ATOM     17  H2  UNL     1      -2.189   0.529  -2.312  1.00  0.00     0.209 HD
BRANCH  16  18
HETATM   18  N1  UNL     1      -3.869   0.734  -1.013  1.00  0.00    -0.330 N 
ATOM     19  H12 UNL     1      -4.368   0.326  -0.223  1.00  0.00     0.178 HD
ATOM     20  H11 UNL     1      -4.176   1.587  -1.480  1.00  0.00     0.178 HD
ENDBRANCH  16  18
ENDBRANCH  13  16
ENDBRANCH   1  12
TORSDOF 3
