REMARK  5 active torsions:
REMARK  status: ('A' for Active; 'I' for Inactive)
REMARK       I    between atoms: C1_2  and  N1_3 
REMARK    1  A    between atoms: C1_2  and  C12_20 
REMARK    2  A    between atoms: N1_3  and  C2_5 
REMARK    3  A    between atoms: C2_5  and  C3_6 
REMARK    4  A    between atoms: C6_9  and  N2_10 
REMARK    5  A    between atoms: N2_10  and  C7_12 
ROOT
HETATM    1  C3  UNL     1      -0.140  -0.841   0.086  1.00  0.00     0.003 C 
HETATM    2  C4  UNL     1       0.108  -0.597  -1.383  1.00  0.00     0.008 C 
HETATM    3  C5  UNL     1       1.164   0.446  -1.622  1.00  0.00     0.025 C 
HETATM    4  C6  UNL     1       2.136   0.582  -0.479  1.00  0.00     0.083 C 
HETATM    5  C10 UNL     1       1.465   0.795   0.849  1.00  0.00     0.025 C 
HETATM    6  C11 UNL     1      -0.024   0.534   0.758  1.00  0.00     0.008 C 
ENDROOT
BRANCH   1   7
HETATM    7  C2  UNL     1      -1.487  -1.441   0.358  1.00  0.00     0.127 C 
BRANCH   7   8
HETATM    8  N1  UNL     1      -2.548  -0.601  -0.093  1.00  0.00    -0.355 N 
HETATM    9  C1  UNL     1      -3.891  -1.014   0.085  1.00  0.00     0.279 C 
HETATM   10  O1  UNL     1      -4.177  -2.121   0.640  1.00  0.00    -0.265 OA
ATOM     11  H1  UNL     1      -2.341   0.292  -0.541  1.00  0.00     0.162 HD
BRANCH   9  12
HETATM   12  C12 UNL     1      -4.962  -0.146  -0.381  1.00  0.00     0.194 A 
HETATM   13  O2  UNL     1      -4.844   1.005  -0.963  1.00  0.00    -0.246 OA
HETATM   14  C13 UNL     1      -6.042   1.449  -1.216  1.00  0.00     0.418 A 
HETATM   15  O3  UNL     1      -6.330   2.542  -1.778  1.00  0.00    -0.229 OA
HETATM   16  O4  UNL     1      -6.934   0.604  -0.809  1.00  0.00    -0.240 OA
HETATM   17  C14 UNL     1      -6.320  -0.404  -0.282  1.00  0.00     0.190 A 
HETATM   18 CL1  UNL     1      -6.976  -1.852   0.437  1.00  0.00    -0.053 Cl
ENDBRANCH   9  12
ENDBRANCH   7   8
ENDBRANCH   1   7
BRANCH   4  19
HETATM   19  N2  UNL     1       3.060  -0.526  -0.411  1.00  0.00    -0.366 N 
ATOM     20  H2  UNL     1       2.847  -1.421  -0.852  1.00  0.00     0.162 HD
BRANCH  19  21
HETATM   21  C7  UNL     1       4.187  -0.338   0.241  1.00  0.00     0.144 A 
HETATM   22  N3  UNL     1       4.618   0.759   0.869  1.00  0.00    -0.346 N 
HETATM   23  C8  UNL     1       5.778   0.727   1.457  1.00  0.00     0.097 A 
ATOM     24  H3  UNL     1       4.049   1.605   0.887  1.00  0.00     0.167 HD
HETATM   25  C9  UNL     1       6.500  -0.433   1.401  1.00  0.00     0.070 A 
HETATM   26  S1  UNL     1       5.470  -1.446   0.494  1.00  0.00    -0.065 SA
ENDBRANCH  19  21
ENDBRANCH   4  19
TORSDOF 5
