REMARK  5 active torsions:
REMARK  status: ('A' for Active; 'I' for Inactive)
REMARK    1  A    between atoms: C2_2  and  N1_5 
REMARK    2  A    between atoms: C5_8  and  O1_9 
REMARK    3  A    between atoms: O1_9  and  C6_10 
REMARK    4  A    between atoms: C6_10  and  C7_11 
REMARK    5  A    between atoms: C7_11  and  C8_12 
ROOT
HETATM    1  C8  UNL     1       4.661  -1.480   1.313  1.00  0.00     0.126 C 
HETATM    2  C9  UNL     1       4.797  -2.443   2.379  1.00  0.00     0.059 C 
HETATM    3  N3  UNL     1       4.892  -3.227   3.232  1.00  0.00    -0.197 NA
ENDROOT
BRANCH   1   4
HETATM    4  C7  UNL     1       3.246  -0.888   1.319  1.00  0.00     0.041 C 
BRANCH   4   5
HETATM    5  C6  UNL     1       3.110   0.119   0.202  1.00  0.00     0.178 C 
BRANCH   5   6
HETATM    6  O1  UNL     1       1.846   0.716   0.139  1.00  0.00    -0.334 OA
BRANCH   6   7
HETATM    7  C5  UNL     1       0.728  -0.053  -0.081  1.00  0.00     0.168 A 
HETATM    8  N2  UNL     1       0.572  -1.374  -0.269  1.00  0.00    -0.276 N 
HETATM    9  N1  UNL     1      -0.694  -1.697  -0.449  1.00  0.00    -0.283 N 
ATOM     10  H2  UNL     1       1.340  -2.046  -0.272  1.00  0.00     0.189 HD
HETATM   11  C11 UNL     1      -1.399  -0.523  -0.373  1.00  0.00     0.068 A 
HETATM   12  C10 UNL     1      -0.553   0.527  -0.144  1.00  0.00     0.050 A 
HETATM   13  C12 UNL     1      -2.886  -0.373  -0.517  1.00  0.00     0.291 C 
HETATM   14  C14 UNL     1      -0.998   1.933  -0.011  1.00  0.00     0.091 C 
HETATM   15  C13 UNL     1      -2.506   1.918   0.064  1.00  0.00     0.268 C 
HETATM   16  C15 UNL     1      -0.483   2.590   1.232  1.00  0.00     0.075 C 
HETATM   17  N6  UNL     1      -0.641   2.618  -1.230  1.00  0.00    -0.365 N 
HETATM   18  N4  UNL     1      -3.109   1.019  -0.882  1.00  0.00    -0.067 N 
ATOM     19  H42 UNL     1      -2.791   1.210  -1.832  1.00  0.00     0.277 HD
ATOM     20  H41 UNL     1      -4.102   1.218  -1.004  1.00  0.00     0.277 HD
HETATM   21  C16 UNL     1      -0.051   3.998   1.093  1.00  0.00     0.179 C 
HETATM   22  F1  UNL     1      -1.121   4.894   1.086  1.00  0.00    -0.249 F 
HETATM   23  C17 UNL     1       0.823   4.263  -0.101  1.00  0.00     0.113 C 
HETATM   24  C18 UNL     1       0.042   3.858  -1.301  1.00  0.00     0.074 C 
HETATM   25  N5  UNL     1       0.001   4.614  -2.350  1.00  0.00    -0.389 N 
ATOM     26  H52 UNL     1       0.492   5.506  -2.401  1.00  0.00     0.157 HD
ATOM     27  H51 UNL     1      -0.534   4.336  -3.173  1.00  0.00     0.157 HD
ATOM     28  H6  UNL     1      -0.901   2.174  -2.111  1.00  0.00     0.162 HD
BRANCH   9  29
HETATM   29  C2  UNL     1      -1.259  -3.025  -0.683  1.00  0.00     0.043 C 
HETATM   30  C1  UNL     1      -0.142  -4.028  -0.479  1.00  0.00     0.039 C 
HETATM   31  C3  UNL     1      -1.827  -3.180  -2.050  1.00  0.00     0.039 C 
HETATM   32  C4  UNL     1      -2.326  -3.331   0.377  1.00  0.00     0.039 C 
ENDBRANCH   9  29
ENDBRANCH   6   7
ENDBRANCH   5   6
ENDBRANCH   4   5
ENDBRANCH   1   4
TORSDOF 5
