REMARK  9 active torsions:
REMARK  status: ('A' for Active; 'I' for Inactive)
REMARK    1  A    between atoms: O1_2  and  N1_3 
REMARK    2  A    between atoms: C2_5  and  C3_6 
REMARK    3  A    between atoms: C2_5  and  C6_15 
REMARK    4  A    between atoms: C5_9  and  N2_10 
REMARK    5  A    between atoms: C6_15  and  O2_16 
REMARK    6  A    between atoms: C6_15  and  N4_18 
REMARK    7  A    between atoms: N4_18  and  S2_20 
REMARK    8  A    between atoms: S2_20  and  C7_23 
REMARK    9  A    between atoms: C7_23  and  N5_24 
ROOT
HETATM    1  C6  UNL     1       0.458   0.496   0.289  1.00  0.00     0.283 C 
ENDROOT
BRANCH   1   2
HETATM    2  C2  UNL     1       1.943   0.244   0.553  1.00  0.00     0.108 C 
HETATM    3  N1  UNL     1       2.230  -0.797   1.185  1.00  0.00    -0.265 N 
ATOM      4  H1  UNL     1       1.406  -1.343   1.435  1.00  0.00     0.194 HD
BRANCH   3   5
HETATM    5  O1  UNL     1       3.363  -1.358   1.608  1.00  0.00    -0.285 OA
HETATM    6  C1  UNL     1       3.753  -2.669   1.216  1.00  0.00     0.237 C 
ENDBRANCH   3   5
BRANCH   2   7
HETATM    7  C3  UNL     1       2.898   1.259   0.039  1.00  0.00     0.070 A 
HETATM    8  C4  UNL     1       2.451   2.359  -0.656  1.00  0.00     0.085 A 
HETATM    9  S1  UNL     1       3.903   3.186  -1.009  1.00  0.00    -0.064 SA
HETATM   10  C5  UNL     1       4.984   2.108  -0.267  1.00  0.00     0.142 A 
HETATM   11  N3  UNL     1       4.186   1.156   0.222  1.00  0.00    -0.335 N 
ATOM     12  H3  UNL     1       4.576   0.362   0.730  1.00  0.00     0.168 HD
BRANCH  10  13
HETATM   13  N2  UNL     1       6.296   2.187  -0.189  1.00  0.00    -0.380 N 
ATOM     14  H22 UNL     1       6.906   2.914  -0.563  1.00  0.00     0.158 HD
ATOM     15  H21 UNL     1       6.946   1.539   0.257  1.00  0.00     0.158 HD
ENDBRANCH  10  13
ENDBRANCH   2   7
ENDBRANCH   1   2
BRANCH   1  16
HETATM   16  O2  UNL     1       0.190   1.670   0.963  1.00  0.00    -0.370 OA
ATOM     17  H2  UNL     1      -0.733   1.827   0.799  1.00  0.00     0.212 HD
ENDBRANCH   1  16
BRANCH   1  18
HETATM   18  N4  UNL     1      -0.308  -0.635   0.667  1.00  0.00    -0.282 N 
ATOM     19  H4  UNL     1      -0.430  -0.888   1.647  1.00  0.00     0.175 HD
BRANCH  18  20
HETATM   20  S2  UNL     1      -1.009  -1.545  -0.567  1.00  0.00     0.266 S 
HETATM   21  O3  UNL     1       0.139  -1.987  -1.489  1.00  0.00    -0.200 OA
HETATM   22  O4  UNL     1      -1.526  -2.867  -0.010  1.00  0.00    -0.200 OA
BRANCH  20  23
HETATM   23  C7  UNL     1      -2.185  -0.778  -1.593  1.00  0.00     0.231 C 
BRANCH  23  24
HETATM   24  N5  UNL     1      -3.377  -0.295  -0.968  1.00  0.00    -0.273 N 
HETATM   25  C8  UNL     1      -4.410  -1.162  -0.712  1.00  0.00     0.107 A 
HETATM   26  C9  UNL     1      -5.573  -0.782  -0.087  1.00  0.00     0.092 A 
HETATM   27  C10 UNL     1      -5.743   0.524   0.317  1.00  0.00     0.250 A 
HETATM   28  O5  UNL     1      -6.787   0.922   0.893  1.00  0.00    -0.268 OA
HETATM   29  N6  UNL     1      -4.727   1.359   0.060  1.00  0.00    -0.275 N 
HETATM   30  C11 UNL     1      -3.573   0.960  -0.566  1.00  0.00     0.333 A 
ATOM     31  H6  UNL     1      -4.815   2.335   0.342  1.00  0.00     0.173 HD
HETATM   32  O6  UNL     1      -2.664   1.806  -0.777  1.00  0.00    -0.246 OA
ENDBRANCH  23  24
ENDBRANCH  20  23
ENDBRANCH  18  20
ENDBRANCH   1  18
TORSDOF 9
