REMARK  0 active torsions:
REMARK  status: ('A' for Active; 'I' for Inactive)
ROOT
HETATM    1  C1  UNL     1      -0.132   2.605  -1.379  1.00  0.00     0.090 C 
HETATM    2  C2  UNL     1      -0.679   1.382  -0.708  1.00  0.00     0.095 A 
HETATM    3  N1  UNL     1      -1.919   1.100  -0.505  1.00  0.00    -0.350 N 
ATOM      4  H1  UNL     1      -2.696   1.697  -0.788  1.00  0.00     0.163 HD
HETATM    5  C3  UNL     1      -2.071  -0.154   0.166  1.00  0.00     0.136 A 
HETATM    6  C4  UNL     1      -2.914  -1.139  -0.616  1.00  0.00     0.066 C 
HETATM    7  C5  UNL     1      -2.701   0.104   1.515  1.00  0.00     0.066 C 
HETATM    8  N2  UNL     1      -0.722  -0.635   0.362  1.00  0.00    -0.199 N 
HETATM    9  N3  UNL     1       0.039  -1.689   0.887  1.00  0.00    -0.270 N 
ATOM     10  H3  UNL     1      -0.344  -2.518   1.342  1.00  0.00     0.190 HD
HETATM   11  C6  UNL     1       1.296  -1.455   0.709  1.00  0.00     0.138 A 
HETATM   12  N4  UNL     1       2.390  -2.282   1.100  1.00  0.00    -0.083 NA
HETATM   13  C7  UNL     1       1.481  -0.156   0.014  1.00  0.00     0.106 A 
HETATM   14  C8  UNL     1       2.263   0.748   0.914  1.00  0.00     0.048 C 
HETATM   15  C9  UNL     1       2.105  -0.327  -1.345  1.00  0.00     0.048 C 
HETATM   16  N5  UNL     1       0.121   0.333  -0.187  1.00  0.00    -0.246 N 
ENDROOT
TORSDOF 0
