REMARK  8 active torsions:
REMARK  status: ('A' for Active; 'I' for Inactive)
REMARK    1  A    between atoms: C3_3  and  C4_4 
REMARK    2  A    between atoms: C4_4  and  S1_5 
REMARK    3  A    between atoms: S1_5  and  C6_7 
REMARK    4  A    between atoms: C6_7  and  C7_8 
REMARK    5  A    between atoms: C7_8  and  C9_10 
REMARK    6  A    between atoms: C7_8  and  N2_13 
REMARK    7  A    between atoms: C15_19  and  O2_20 
REMARK    8  A    between atoms: C16_22  and  C17_23 
ROOT
HETATM    1  C1  UNL     1       6.765   2.553  -0.129  1.00  0.00     0.012 C 
HETATM    2  C2  UNL     1       6.025   1.618  -0.308  1.00  0.00    -0.117 C 
HETATM    3  C3  UNL     1       5.120   0.474  -0.520  1.00  0.00     0.102 C 
ENDROOT
BRANCH   3   4
HETATM    4  C4  UNL     1       3.762   0.915  -0.108  1.00  0.00     0.075 C 
BRANCH   4   5
HETATM    5  S1  UNL     1       2.579  -0.458  -0.345  1.00  0.00    -0.220 SA
HETATM    6  C5  UNL     1       3.096  -1.786   0.633  1.00  0.00     0.078 C 
BRANCH   5   7
HETATM    7  C6  UNL     1       0.959   0.156  -0.183  1.00  0.00     0.111 C 
BRANCH   7   8
HETATM    8  C7  UNL     1      -0.198  -0.777  -0.363  1.00  0.00     0.211 C 
HETATM    9  C8  UNL     1       0.019  -1.317  -1.802  1.00  0.00     0.058 C 
BRANCH   8  10
HETATM   10  C9  UNL     1      -0.055  -1.930   0.514  1.00  0.00     0.268 C 
HETATM   11  N1  UNL     1       0.313  -3.250   0.023  1.00  0.00    -0.060 NA
HETATM   12  O1  UNL     1      -0.223  -1.975   1.769  1.00  0.00    -0.274 OA
ENDBRANCH   8  10
BRANCH   8  13
HETATM   13  N2  UNL     1      -1.472  -0.131  -0.199  1.00  0.00    -0.042 N 
HETATM   14  C10 UNL     1      -1.937   0.102  -1.591  1.00  0.00     0.240 C 
HETATM   15  C11 UNL     1      -3.396   0.464  -1.735  1.00  0.00     0.035 C 
HETATM   16  C12 UNL     1      -3.802   0.974  -0.347  1.00  0.00     0.020 C 
HETATM   17  C13 UNL     1      -3.849  -0.296   0.416  1.00  0.00     0.035 C 
HETATM   18  C15 UNL     1      -2.677   1.919  -0.006  1.00  0.00     0.154 C 
HETATM   19  C14 UNL     1      -2.510  -0.999   0.308  1.00  0.00     0.240 C 
HETATM   20  C16 UNL     1      -1.498   1.116   0.530  1.00  0.00     0.230 C 
BRANCH  18  21
HETATM   21  O2  UNL     1      -3.081   2.953   0.804  1.00  0.00    -0.393 OA
ATOM     22  H2  UNL     1      -2.372   3.548   1.019  1.00  0.00     0.210 HD
ENDBRANCH  18  21
BRANCH  20  23
HETATM   23  C17 UNL     1      -1.497   1.041   2.010  1.00  0.00     0.121 C 
HETATM   24 BR1  UNL     1      -1.550   2.779   2.907  1.00  0.00    -0.094 Br
ENDBRANCH  20  23
ENDBRANCH   8  13
ENDBRANCH   7   8
ENDBRANCH   5   7
ENDBRANCH   4   5
ENDBRANCH   3   4
TORSDOF 8
