REMARK  4 active torsions:
REMARK  status: ('A' for Active; 'I' for Inactive)
REMARK    1  A    between atoms: C2_2  and  N1_3 
REMARK    2  A    between atoms: N1_3  and  C3_4 
REMARK    3  A    between atoms: N1_3  and  C5_6 
REMARK    4  A    between atoms: C5_6  and  O1_7 
ROOT
HETATM    1  C5  UNL     1       0.126  -0.142  -0.507  1.00  0.00     0.335 C 
HETATM    2  S1  UNL     1       0.449   1.265   0.630  1.00  0.00    -0.061 SA
HETATM    3  C6  UNL     1       2.184   0.875   0.851  1.00  0.00    -0.002 C 
HETATM    4  C7  UNL     1       3.188   1.821   1.421  1.00  0.00     0.057 C 
HETATM    5  C8  UNL     1       2.368  -0.346   0.429  1.00  0.00     0.048 C 
HETATM    6 CL1  UNL     1       3.976  -1.107   0.488  1.00  0.00    -0.086 Cl
HETATM    7  C9  UNL     1       1.209  -1.060  -0.093  1.00  0.00     0.216 C 
HETATM    8  C10 UNL     1       1.676  -1.929  -1.209  1.00  0.00     0.075 C 
HETATM    9  N2  UNL     1       2.031  -2.623  -2.072  1.00  0.00    -0.196 NA
ENDROOT
BRANCH   1  10
HETATM   10  N1  UNL     1      -1.191  -0.595  -0.523  1.00  0.00     0.135 N 
BRANCH  10  11
HETATM   11  C2  UNL     1      -1.997   0.036  -1.559  1.00  0.00     0.273 C 
HETATM   12  C1  UNL     1      -2.295   1.472  -1.343  1.00  0.00     0.037 C 
ENDBRANCH  10  11
BRANCH  10  13
HETATM   13  C3  UNL     1      -1.983  -0.605   0.658  1.00  0.00     0.273 C 
HETATM   14  C4  UNL     1      -1.451  -1.380   1.817  1.00  0.00     0.037 C 
ENDBRANCH  10  13
ENDBRANCH   1  10
BRANCH   1  15
HETATM   15  O1  UNL     1       0.468   0.352  -1.784  1.00  0.00    -0.353 OA
ATOM     16  H1  UNL     1       1.366   0.661  -1.773  1.00  0.00     0.213 HD
ENDBRANCH   1  15
TORSDOF 4
