REMARK  2 active torsions:
REMARK  status: ('A' for Active; 'I' for Inactive)
REMARK    1  A    between atoms: O1_1  and  N1_3 
REMARK    2  A    between atoms: N2_9  and  C4_11 
ROOT
HETATM    1  N1  UNL     1       5.019  -0.255  -0.211  1.00  0.00    -0.249 N 
ATOM      2  H1  UNL     1       5.397  -0.661   0.645  1.00  0.00     0.196 HD
HETATM    3  C1  UNL     1       3.742  -0.386  -0.470  1.00  0.00     0.162 C 
HETATM    4  O2  UNL     1       3.049   0.088  -1.566  1.00  0.00    -0.331 OA
HETATM    5  C2  UNL     1       1.734   0.401  -1.105  1.00  0.00     0.231 C 
HETATM    6  C3  UNL     1       1.466  -0.606  -0.057  1.00  0.00     0.034 C 
HETATM    7  N2  UNL     1       0.296  -0.975   0.362  1.00  0.00    -0.388 N 
ATOM      8  H2  UNL     1       0.219  -1.681   1.094  1.00  0.00     0.159 HD
HETATM    9  C10 UNL     1       2.793  -1.089   0.400  1.00  0.00     0.206 C 
HETATM   10 CL1  UNL     1       3.095  -0.684   2.105  1.00  0.00    -0.110 Cl
ENDROOT
BRANCH   7  11
HETATM   11  C4  UNL     1      -0.892  -0.395  -0.199  1.00  0.00     0.081 C 
HETATM   12  C5  UNL     1      -2.093  -1.294  -0.010  1.00  0.00     0.025 C 
HETATM   13  C6  UNL     1      -3.315  -0.440  -0.326  1.00  0.00     0.002 C 
HETATM   14  C7  UNL     1      -3.527   0.473   0.844  1.00  0.00     0.000 C 
HETATM   15  C8  UNL     1      -2.255   1.126   1.273  1.00  0.00     0.002 C 
HETATM   16  C9  UNL     1      -1.135   1.005   0.286  1.00  0.00     0.025 C 
ENDBRANCH   7  11
BRANCH   1  17
HETATM   17  O1  UNL     1       5.860   0.415  -1.063  1.00  0.00    -0.288 OA
ATOM     18  H1  UNL     1       6.786   0.510  -0.875  1.00  0.00     0.244 HD
ENDBRANCH   1  17
TORSDOF 2
