REMARK  9 active torsions:
REMARK  status: ('A' for Active; 'I' for Inactive)
REMARK    1  A    between atoms: C2_2  and  C3_4 
REMARK    2  A    between atoms: C3_4  and  N1_5 
REMARK    3  A    between atoms: C3_4  and  C27_41 
REMARK       I    between atoms: N1_5  and  C4_7 
REMARK    4  A    between atoms: C4_7  and  C5_9 
REMARK    5  A    between atoms: C7_11  and  N2_12 
REMARK       I    between atoms: N3_20  and  C15_21 
REMARK    6  A    between atoms: C15_21  and  O4_23 
REMARK    7  A    between atoms: O4_23  and  C16_24 
REMARK       I    between atoms: N4_27  and  C19_28 
REMARK       I    between atoms: C19_28  and  N5_30 
REMARK    8  A    between atoms: N5_30  and  C20_32 
REMARK    9  A    between atoms: N6_35  and  C23_36 
ROOT
HETATM    1  C23 UNL     1       9.599   4.716  -1.516  1.00  0.00     0.246 C 
HETATM    2  C24 UNL     1      10.658   5.319  -0.706  1.00  0.00     0.078 C 
HETATM    3  N7  UNL     1      11.514   5.796  -0.081  1.00  0.00    -0.196 NA
ENDROOT
BRANCH   1   4
HETATM    4  N6  UNL     1       9.015   3.617  -0.798  1.00  0.00    -0.376 N 
HETATM    5  C22 UNL     1       9.600   2.350  -0.457  1.00  0.00     0.084 C 
HETATM    6  C21 UNL     1       8.631   1.448  -0.349  1.00  0.00     0.017 C 
HETATM    7  C20 UNL     1       7.341   2.090  -0.616  1.00  0.00     0.128 C 
HETATM    8  C25 UNL     1       7.670   3.561  -0.260  1.00  0.00     0.152 C 
BRANCH   7   9
HETATM    9  N5  UNL     1       6.238   1.591   0.176  1.00  0.00    -0.334 N 
HETATM   10  C19 UNL     1       4.921   1.498  -0.263  1.00  0.00     0.319 C 
HETATM   11  N4  UNL     1       3.894   0.991   0.547  1.00  0.00    -0.332 N 
HETATM   12  O5  UNL     1       4.625   1.881  -1.429  1.00  0.00    -0.247 OA
HETATM   13  C18 UNL     1       4.023   0.447   1.909  1.00  0.00     0.130 C 
HETATM   14  C26 UNL     1       2.469   0.875   0.297  1.00  0.00     0.160 C 
HETATM   15  C17 UNL     1       3.156  -0.828   1.828  1.00  0.00     0.054 C 
HETATM   16  C16 UNL     1       2.217  -0.580   0.725  1.00  0.00     0.153 C 
ATOM     17  H5  UNL     1       6.441   1.284   1.127  1.00  0.00     0.165 HD
BRANCH  16  18
HETATM   18  O4  UNL     1       0.862  -0.790   0.970  1.00  0.00    -0.297 OA
BRANCH  18  19
HETATM   19  C15 UNL     1      -0.068  -1.411   0.174  1.00  0.00     0.363 C 
HETATM   20  N3  UNL     1      -1.442  -1.550   0.601  1.00  0.00    -0.314 N 
HETATM   21  C5  UNL     1      -2.478  -2.041  -0.232  1.00  0.00     0.183 C 
HETATM   22  C14 UNL     1      -1.716  -1.205   1.992  1.00  0.00     0.131 C 
HETATM   23  C6  UNL     1      -3.670  -2.654   0.407  1.00  0.00     0.071 C 
HETATM   24  C7  UNL     1      -3.793  -2.384   1.858  1.00  0.00     0.227 C 
HETATM   25  C13 UNL     1      -2.446  -2.474   2.514  1.00  0.00     0.056 C 
HETATM   26  O3  UNL     1       0.345  -1.839  -0.937  1.00  0.00    -0.238 OA
BRANCH  21  27
HETATM   27  C4  UNL     1      -2.937  -0.969  -1.201  1.00  0.00     0.241 C 
HETATM   28  N1  UNL     1      -2.534   0.371  -1.124  1.00  0.00    -0.348 N 
ATOM     29  H1  UNL     1      -1.893   0.644  -0.379  1.00  0.00     0.163 HD
HETATM   30  O2  UNL     1      -3.729  -1.303  -2.128  1.00  0.00    -0.271 OA
BRANCH  28  31
HETATM   31  C3  UNL     1      -2.989   1.394  -2.060  1.00  0.00     0.157 C 
BRANCH  31  32
HETATM   32  C2  UNL     1      -3.916   2.333  -1.372  1.00  0.00     0.145 C 
HETATM   33  C1  UNL     1      -4.577   3.438  -2.079  1.00  0.00     0.093 C 
HETATM   34  O1  UNL     1      -4.155   2.206  -0.187  1.00  0.00    -0.296 OA
ENDBRANCH  31  32
BRANCH  31  35
HETATM   35  C27 UNL     1      -1.765   2.048  -2.638  1.00  0.00     0.007 C 
HETATM   36  C28 UNL     1      -2.024   3.096  -3.667  1.00  0.00     0.012 C 
HETATM   37  C29 UNL     1      -0.926   0.966  -3.334  1.00  0.00     0.012 C 
ENDBRANCH  31  35
ENDBRANCH  28  31
ENDBRANCH  21  27
BRANCH  24  38
HETATM   38  N2  UNL     1      -4.837  -3.115   2.546  1.00  0.00     0.093 N 
HETATM   39  C8  UNL     1      -6.142  -2.654   2.077  1.00  0.00     0.273 C 
HETATM   40  C9  UNL     1      -7.237  -3.546   2.632  1.00  0.00     0.030 C 
HETATM   41  C10 UNL     1      -7.200  -4.797   1.746  1.00  0.00     0.003 C 
HETATM   42  C11 UNL     1      -5.774  -5.063   1.325  1.00  0.00     0.030 C 
HETATM   43  C12 UNL     1      -4.747  -4.548   2.274  1.00  0.00     0.273 C 
ENDBRANCH  24  38
ENDBRANCH  18  19
ENDBRANCH  16  18
ENDBRANCH   7   9
ENDBRANCH   1   4
TORSDOF 9
