REMARK  3 active torsions:
REMARK  status: ('A' for Active; 'I' for Inactive)
REMARK    1  A    between atoms: C2_6  and  C3_7 
REMARK    2  A    between atoms: C3_7  and  N3_8 
REMARK    3  A    between atoms: N3_8  and  C4_11 
ROOT
HETATM    1  N3  UNL     1       0.917  -0.605   0.195  1.00  0.00    -0.063 N 
ATOM      2  H31 UNL     1       1.327  -1.505   0.446  1.00  0.00     0.278 HD
ATOM      3  H32 UNL     1       0.846  -0.758  -0.811  1.00  0.00     0.278 HD
ENDROOT
BRANCH   1   4
HETATM    4  C3  UNL     1       1.780   0.507   0.526  1.00  0.00     0.318 C 
BRANCH   4   5
HETATM    5  C2  UNL     1       3.125   0.370  -0.067  1.00  0.00     0.165 A 
HETATM    6  N2  UNL     1       3.469   0.837  -1.278  1.00  0.00    -0.281 N 
HETATM    7  N1  UNL     1       4.739   0.558  -1.523  1.00  0.00    -0.288 N 
ATOM      8  H2  UNL     1       2.845   1.333  -1.914  1.00  0.00     0.189 HD
HETATM    9  C1  UNL     1       5.192  -0.096  -0.442  1.00  0.00     0.251 A 
ATOM     10  H1  UNL     1       5.267   0.793  -2.364  1.00  0.00     0.188 HD
HETATM   11  O1  UNL     1       4.205  -0.190   0.405  1.00  0.00    -0.289 OA
ENDBRANCH   4   5
ENDBRANCH   1   4
BRANCH   1  12
HETATM   12  C4  UNL     1      -0.346  -0.397   0.802  1.00  0.00     0.191 C 
HETATM   13  C5  UNL     1      -1.332  -1.540   0.533  1.00  0.00     0.038 C 
HETATM   14  C6  UNL     1      -2.672  -0.875   0.383  1.00  0.00    -0.012 C 
HETATM   15  C7  UNL     1      -2.789  -0.416  -1.055  1.00  0.00     0.005 C 
HETATM   16  C10 UNL     1      -2.448   0.503   1.029  1.00  0.00     0.011 C 
HETATM   17  C8  UNL     1      -1.572   0.490  -1.144  1.00  0.00     0.007 C 
HETATM   18  C9  UNL     1      -1.133   0.770   0.272  1.00  0.00     0.016 C 
ENDBRANCH   1  12
TORSDOF 3
