REMARK  3 active torsions:
REMARK  status: ('A' for Active; 'I' for Inactive)
REMARK    1  A    between atoms: C3_7  and  N3_8 
REMARK    2  A    between atoms: C5_16  and  C6_17 
REMARK    3  A    between atoms: C8_23  and  N8_24 
ROOT
HETATM    1  C1  UNL     1       3.290  -2.218   0.704  1.00  0.00     0.147 C 
HETATM    2  N1  UNL     1       3.563  -0.904   0.255  1.00  0.00    -0.378 N 
ATOM      3  H1  UNL     1       4.554  -0.680   0.161  1.00  0.00     0.160 HD
HETATM    4  C2  UNL     1       2.774   0.035  -0.048  1.00  0.00     0.148 A 
HETATM    5  N2  UNL     1       3.349   1.206  -0.455  1.00  0.00    -0.175 N 
ATOM      6  H2  UNL     1       4.366   1.269  -0.496  1.00  0.00     0.186 HD
HETATM    7  C3  UNL     1       2.619   2.273  -0.802  1.00  0.00     0.679 A 
HETATM    8  N4  UNL     1       1.279   2.223  -0.760  1.00  0.00    -0.174 N 
ATOM      9  H4  UNL     1       0.727   3.039  -1.025  1.00  0.00     0.186 HD
HETATM   10  C4  UNL     1       0.660   1.077  -0.361  1.00  0.00     0.154 A 
HETATM   11  N5  UNL     1      -0.677   1.016  -0.316  1.00  0.00    -0.323 N 
ATOM     12  H5  UNL     1      -1.249   1.819  -0.577  1.00  0.00     0.169 HD
HETATM   13  C5  UNL     1      -1.252  -0.159   0.092  1.00  0.00     0.153 A 
HETATM   14  N9  UNL     1      -0.483  -1.196   0.428  1.00  0.00    -0.283 N 
ATOM     15  H9  UNL     1      -0.942  -2.056   0.727  1.00  0.00     0.188 HD
HETATM   16  N10 UNL     1       0.836  -1.176   0.397  1.00  0.00    -0.292 N 
ATOM     17  H10 UNL     1       1.395  -1.987   0.661  1.00  0.00     0.187 HD
HETATM   18  C9  UNL     1       1.399  -0.025  -0.003  1.00  0.00     0.137 A 
ENDROOT
BRANCH  13  19
HETATM   19  C6  UNL     1      -2.721  -0.156   0.100  1.00  0.00     0.130 A 
HETATM   20  N6  UNL     1      -3.504   0.905  -0.265  1.00  0.00    -0.346 N 
HETATM   21  C7  UNL     1      -4.792   0.571  -0.158  1.00  0.00     0.182 A 
ATOM     22  H6  UNL     1      -3.156   1.813  -0.572  1.00  0.00     0.167 HD
HETATM   23  N7  UNL     1      -4.878  -0.676   0.265  1.00  0.00    -0.332 N 
HETATM   24  C8  UNL     1      -3.596  -1.161   0.438  1.00  0.00     0.205 A 
ATOM     25  H7  UNL     1      -5.741  -1.192   0.435  1.00  0.00     0.168 HD
BRANCH  24  26
HETATM   26  N8  UNL     1      -3.380  -2.477   0.875  1.00  0.00    -0.095 N 
HETATM   27  O1  UNL     1      -4.229  -3.376   0.577  1.00  0.00    -0.530 OA
HETATM   28  O2  UNL     1      -2.324  -2.888   1.597  1.00  0.00    -0.530 OA
ENDBRANCH  24  26
ENDBRANCH  13  19
BRANCH   7  29
HETATM   29  N3  UNL     1       3.214   3.339  -1.173  1.00  0.00    -0.234 N 
ATOM     30  H32 UNL     1       4.233   3.377  -1.205  1.00  0.00     0.174 HD
ATOM     31  H31 UNL     1       2.658   4.152  -1.437  1.00  0.00     0.174 HD
ENDBRANCH   7  29
TORSDOF 3
