REMARK  6 active torsions:
REMARK  status: ('A' for Active; 'I' for Inactive)
REMARK    1  A    between atoms: C2_7  and  C3_8 
REMARK    2  A    between atoms: C3_8  and  C4_9 
REMARK    3  A    between atoms: C4_9  and  C5_10 
REMARK    4  A    between atoms: C5_10  and  C6_11 
REMARK    5  A    between atoms: C6_11  and  O1_12 
REMARK    6  A    between atoms: N5_22  and  C10_23 
ROOT
HETATM    1  N1  UNL     1      -0.490  -3.742  -1.334  1.00  0.00    -0.383 N 
ATOM      2  H11 UNL     1      -1.337  -4.308  -1.391  1.00  0.00     0.157 HD
ATOM      3  H12 UNL     1       0.434  -4.091  -1.588  1.00  0.00     0.157 HD
HETATM    4  C1  UNL     1      -0.541  -2.506  -0.921  1.00  0.00     0.131 A 
HETATM    5  N2  UNL     1       0.580  -1.757  -0.845  1.00  0.00    -0.330 N 
ATOM      6  H2  UNL     1       1.489  -2.140  -1.107  1.00  0.00     0.168 HD
HETATM    7  C2  UNL     1       0.458  -0.489  -0.412  1.00  0.00     0.084 A 
HETATM    8  N3  UNL     1      -0.745   0.009  -0.067  1.00  0.00    -0.330 N 
ATOM      9  H3  UNL     1      -0.806   0.974   0.258  1.00  0.00     0.168 HD
HETATM   10  C7  UNL     1      -1.869  -0.727  -0.138  1.00  0.00     0.142 A 
HETATM   11  C8  UNL     1      -1.789  -2.034  -0.578  1.00  0.00     0.123 A 
HETATM   12  N4  UNL     1      -3.036  -2.554  -0.559  1.00  0.00    -0.330 N 
ATOM     13  H4  UNL     1      -3.289  -3.504  -0.831  1.00  0.00     0.168 HD
HETATM   14  C9  UNL     1      -3.888  -1.608  -0.121  1.00  0.00     0.158 A 
HETATM   15 BR1  UNL     1      -5.778  -1.804   0.101  1.00  0.00    -0.010 Br
HETATM   16  N5  UNL     1      -3.164  -0.485   0.137  1.00  0.00    -0.306 N 
ENDROOT
BRANCH   7  17
HETATM   17  C3  UNL     1       1.712   0.345  -0.329  1.00  0.00     0.076 C 
BRANCH  17  18
HETATM   18  C4  UNL     1       2.353   0.204   1.025  1.00  0.00     0.010 C 
BRANCH  18  19
HETATM   19  C5  UNL     1       3.604   1.017   1.181  1.00  0.00     0.026 C 
BRANCH  19  20
HETATM   20  C6  UNL     1       4.651   0.612   0.173  1.00  0.00     0.164 C 
BRANCH  20  21
HETATM   21  O1  UNL     1       5.799   1.390   0.364  1.00  0.00    -0.401 OA
ATOM     22  H1  UNL     1       6.458   1.135  -0.271  1.00  0.00     0.209 HD
ENDBRANCH  20  21
ENDBRANCH  19  20
ENDBRANCH  18  19
ENDBRANCH  17  18
ENDBRANCH   7  17
BRANCH  16  23
HETATM   23  C10 UNL     1      -3.681   0.754   0.621  1.00  0.00     0.094 A 
HETATM   24  C11 UNL     1      -4.282   1.648  -0.476  1.00  0.00     0.028 A 
HETATM   25  C12 UNL     1      -3.087   2.060   0.341  1.00  0.00     0.028 A 
ENDBRANCH  16  23
TORSDOF 6
