REMARK  3 active torsions:
REMARK  status: ('A' for Active; 'I' for Inactive)
REMARK    1  A    between atoms: N1_2  and  C2_4 
REMARK    2  A    between atoms: C2_4  and  C3_6 
REMARK    3  A    between atoms: C3_6  and  C4_7 
ROOT
HETATM    1  C3  UNL     1       0.239   0.340  -0.200  1.00  0.00     0.113 C 
HETATM    2  S2  UNL     1       1.554   0.174   1.027  1.00  0.00    -0.140 SA
HETATM    3  C10 UNL     1       3.196   0.144   0.348  1.00  0.00     0.076 C 
HETATM    4  C11 UNL     1       3.301  -0.346  -1.058  1.00  0.00     0.020 C 
HETATM    5  C12 UNL     1       2.264  -1.371  -1.425  1.00  0.00     0.076 C 
HETATM    6  S3  UNL     1       0.702  -0.516  -1.683  1.00  0.00    -0.140 SA
ENDROOT
BRANCH   1   7
HETATM    7  C2  UNL     1       0.170   1.810  -0.532  1.00  0.00     0.102 C 
HETATM    8  S1  UNL     1       0.334   2.364  -2.047  1.00  0.00    -0.063 SA
BRANCH   7   9
HETATM    9  N1  UNL     1      -0.047   2.729   0.530  1.00  0.00    -0.387 N 
HETATM   10  C1  UNL     1      -0.123   4.151   0.279  1.00  0.00     0.147 C 
ATOM     11  H1  UNL     1      -0.151   2.381   1.483  1.00  0.00     0.159 HD
ENDBRANCH   7   9
ENDBRANCH   1   7
BRANCH   1  12
HETATM   12  C4  UNL     1      -1.044  -0.030   0.408  1.00  0.00     0.029 C 
HETATM   13  C5  UNL     1      -2.289   0.187  -0.466  1.00  0.00     0.009 C 
HETATM   14  C6  UNL     1      -2.925  -0.901   0.418  1.00  0.00     0.010 C 
HETATM   15  C7  UNL     1      -1.483  -1.423   0.583  1.00  0.00    -0.041 C 
HETATM   16  C8  UNL     1      -1.304  -1.963   1.983  1.00  0.00     0.015 C 
HETATM   17  C9  UNL     1      -1.231  -2.450  -0.453  1.00  0.00     0.015 C 
ENDBRANCH   1  12
TORSDOF 3
