REMARK  9 active torsions:
REMARK  status: ('A' for Active; 'I' for Inactive)
REMARK    1  A    between atoms: C2_2  and  C3_3 
REMARK    2  A    between atoms: N1_7  and  C7_8 
REMARK    3  A    between atoms: C8_9  and  N2_10 
REMARK    4  A    between atoms: N2_10  and  S1_12 
REMARK    5  A    between atoms: S1_12  and  C9_15 
REMARK    6  A    between atoms: C14_22  and  C15_23 
REMARK    7  A    between atoms: C14_22  and  C18_28 
REMARK    8  A    between atoms: C15_23  and  C16_24 
REMARK    9  A    between atoms: C16_24  and  O5_26 
ROOT
HETATM    1  C3  UNL     1      -1.574  -1.887   0.308  1.00  0.00    -0.012 C 
HETATM    2  C4  UNL     1      -0.076  -1.920   0.378  1.00  0.00     0.006 C 
HETATM    3  C5  UNL     1       0.310  -1.717   1.815  1.00  0.00     0.020 C 
HETATM    4  C6  UNL     1       0.328  -0.262   2.133  1.00  0.00     0.124 C 
HETATM    5  N1  UNL     1      -0.377   0.621   1.232  1.00  0.00    -0.358 N 
HETATM    6  C14 UNL     1      -1.733   0.623   0.681  1.00  0.00     0.133 C 
HETATM    7  C19 UNL     1      -2.117  -0.577  -0.108  1.00  0.00     0.045 C 
ENDROOT
BRANCH   5   8
HETATM    8  C7  UNL     1       0.489   1.740   0.877  1.00  0.00     0.118 A 
HETATM    9  C8  UNL     1       1.392   2.057  -0.070  1.00  0.00     0.127 A 
HETATM   10  C12 UNL     1       1.560   3.314   0.549  1.00  0.00     0.253 A 
HETATM   11  O3  UNL     1       2.256   4.356   0.345  1.00  0.00    -0.281 OA
HETATM   12  C13 UNL     1       0.647   2.971   1.498  1.00  0.00     0.253 A 
HETATM   13  O4  UNL     1       0.176   3.589   2.521  1.00  0.00    -0.281 OA
BRANCH   9  14
HETATM   14  N2  UNL     1       2.052   1.631  -1.271  1.00  0.00    -0.278 N 
ATOM     15  H2  UNL     1       1.568   1.747  -2.161  1.00  0.00     0.179 HD
BRANCH  14  16
HETATM   16  S1  UNL     1       3.594   0.946  -1.275  1.00  0.00     0.234 S 
HETATM   17  O1  UNL     1       4.537   1.956  -0.630  1.00  0.00    -0.205 OA
HETATM   18  O2  UNL     1       4.098   0.803  -2.696  1.00  0.00    -0.205 OA
BRANCH  16  19
HETATM   19  C9  UNL     1       3.801  -0.572  -0.417  1.00  0.00     0.121 C 
HETATM   20  C10 UNL     1       3.320  -1.748  -1.220  1.00  0.00     0.027 C 
HETATM   21  C11 UNL     1       5.335  -0.843  -0.260  1.00  0.00     0.027 C 
ENDBRANCH  16  19
ENDBRANCH  14  16
ENDBRANCH   9  14
ENDBRANCH   5   8
BRANCH   6  22
HETATM   22  C15 UNL     1      -1.871   1.899  -0.112  1.00  0.00     0.071 C 
BRANCH  22  23
HETATM   23  C16 UNL     1      -3.198   2.119  -0.782  1.00  0.00     0.116 C 
HETATM   24  C17 UNL     1      -3.142   3.460  -1.562  1.00  0.00     0.039 C 
BRANCH  23  25
HETATM   25  O5  UNL     1      -3.530   1.172  -1.736  1.00  0.00    -0.396 OA
ATOM     26  H5  UNL     1      -4.369   1.311  -2.160  1.00  0.00     0.210 HD
ENDBRANCH  23  25
ENDBRANCH  22  23
ENDBRANCH   6  22
BRANCH   6  27
HETATM   27  C18 UNL     1      -2.692   0.701   1.878  1.00  0.00     0.412 C 
HETATM   28  F1  UNL     1      -2.503  -0.359   2.757  1.00  0.00    -0.168 F 
HETATM   29  F2  UNL     1      -4.012   0.460   1.418  1.00  0.00    -0.168 F 
HETATM   30  F3  UNL     1      -2.732   1.914   2.483  1.00  0.00    -0.168 F 
ENDBRANCH   6  27
BRANCH   1  31
HETATM   31  C2  UNL     1      -1.978  -2.902  -0.771  1.00  0.00     0.000 C 
HETATM   32  C1  UNL     1      -1.513  -4.279  -0.433  1.00  0.00     0.005 C 
ENDBRANCH   1  31
TORSDOF 9
