REMARK  18 active torsions:
REMARK  status: ('A' for Active; 'I' for Inactive)
REMARK    1  A    between atoms: C2_2  and  O2_4 
REMARK    2  A    between atoms: O2_4  and  C3_5 
REMARK    3  A    between atoms: C3_5  and  C4_6 
REMARK    4  A    between atoms: C4_6  and  O3_7 
REMARK    5  A    between atoms: C5_9  and  O4_10 
REMARK    6  A    between atoms: O4_10  and  C6_11 
REMARK    7  A    between atoms: C6_11  and  C7_13 
REMARK    8  A    between atoms: C8_14  and  C9_15 
REMARK    9  A    between atoms: C15_22  and  O7_23 
REMARK   10  A    between atoms: C15_22  and  C16_25 
REMARK   11  A    between atoms: C16_25  and  O8_26 
REMARK   12  A    between atoms: C17_28  and  O9_29 
REMARK   13  A    between atoms: C17_28  and  C18_31 
REMARK   14  A    between atoms: C18_31  and  O10_32 
REMARK   15  A    between atoms: C18_31  and  N1_34 
REMARK   16  A    between atoms: N1_34  and  N2_35 
REMARK       I    between atoms: N2_35  and  C19_37 
REMARK   17  A    between atoms: C19_37  and  C20_39 
REMARK   18  A    between atoms: C23_42  and  N3_43 
ROOT
HETATM    1  C3  UNL     1      -1.407   1.443   0.559  1.00  0.00     0.186 C 
HETATM    2  C5  UNL     1      -2.347   0.314   0.082  1.00  0.00     0.314 C 
HETATM    3  O6  UNL     1      -1.642  -0.944   0.248  1.00  0.00    -0.316 OA
HETATM    4  C15 UNL     1      -0.342  -0.512  -0.236  1.00  0.00     0.230 C 
HETATM    5  C17 UNL     1      -0.131   0.742   0.548  1.00  0.00     0.235 C 
ENDROOT
BRANCH   5   6
HETATM    6  O9  UNL     1       0.260   0.345   1.824  1.00  0.00    -0.373 OA
ATOM      7  H9  UNL     1       1.093  -0.112   1.817  1.00  0.00     0.211 HD
ENDBRANCH   5   6
BRANCH   5   8
HETATM    8  C18 UNL     1       1.071   1.634   0.164  1.00  0.00     0.258 C 
BRANCH   8   9
HETATM    9  O10 UNL     1       0.579   2.822  -0.138  1.00  0.00    -0.335 OA
ATOM     10  H10 UNL     1       1.318   3.370  -0.374  1.00  0.00     0.220 HD
ENDBRANCH   8   9
BRANCH   8  11
HETATM   11  N1  UNL     1       2.239   1.092   0.235  1.00  0.00    -0.298 NA
BRANCH  11  12
HETATM   12  N2  UNL     1       3.475   0.550   0.301  1.00  0.00    -0.196 N 
HETATM   13  C19 UNL     1       3.906  -0.429   1.130  1.00  0.00     0.280 C 
HETATM   14  O11 UNL     1       3.269  -1.024   2.044  1.00  0.00    -0.265 OA
ATOM     15  H2  UNL     1       4.165   0.923  -0.351  1.00  0.00     0.205 HD
BRANCH  13  16
HETATM   16  C20 UNL     1       5.341  -0.833   0.954  1.00  0.00     0.034 A 
HETATM   17  C21 UNL     1       5.667  -1.990   0.426  1.00  0.00     0.019 A 
HETATM   18  C22 UNL     1       6.961  -2.181  -0.103  1.00  0.00     0.030 A 
HETATM   19  C23 UNL     1       7.869  -1.086  -0.031  1.00  0.00     0.029 A 
HETATM   20  C26 UNL     1       7.347   0.094   0.566  1.00  0.00     0.030 A 
HETATM   21  C27 UNL     1       6.164   0.243   1.046  1.00  0.00     0.019 A 
BRANCH  19  22
HETATM   22  N3  UNL     1       9.089  -1.150  -0.735  1.00  0.00    -0.390 N 
HETATM   23  C24 UNL     1       9.918   0.003  -0.662  1.00  0.00     0.149 C 
HETATM   24  C25 UNL     1       9.413  -2.321  -1.430  1.00  0.00     0.149 C 
ENDBRANCH  19  22
ENDBRANCH  13  16
ENDBRANCH  11  12
ENDBRANCH   8  11
ENDBRANCH   5   8
BRANCH   1  25
HETATM   25  O2  UNL     1      -1.481   2.399  -0.397  1.00  0.00    -0.299 OA
BRANCH  25  26
HETATM   26  C2  UNL     1      -2.595   3.296  -0.716  1.00  0.00     0.255 C 
HETATM   27  C1  UNL     1      -2.499   4.306  -1.771  1.00  0.00     0.126 C 
HETATM   28  O1  UNL     1      -3.539   3.078   0.007  1.00  0.00    -0.266 OA
ENDBRANCH  25  26
ENDBRANCH   1  25
BRANCH   1  29
HETATM   29  C4  UNL     1      -1.728   1.732   1.908  1.00  0.00     0.212 C 
BRANCH  29  30
HETATM   30  O3  UNL     1      -0.901   2.616   2.548  1.00  0.00    -0.398 OA
ATOM     31  H3  UNL     1      -1.116   2.810   3.453  1.00  0.00     0.209 HD
ENDBRANCH  29  30
ENDBRANCH   1  29
BRANCH   4  32
HETATM   32  O7  UNL     1       0.466  -1.609   0.387  1.00  0.00    -0.361 OA
ATOM     33  H7  UNL     1       1.316  -1.327   0.071  1.00  0.00     0.213 HD
ENDBRANCH   4  32
BRANCH   4  34
HETATM   34  C16 UNL     1      -0.036  -0.712  -1.628  1.00  0.00     0.236 C 
BRANCH  34  35
HETATM   35  O8  UNL     1       0.436  -2.001  -2.009  1.00  0.00    -0.395 OA
ATOM     36  H8  UNL     1       0.638  -2.133  -2.928  1.00  0.00     0.209 HD
ENDBRANCH  34  35
ENDBRANCH   4  34
BRANCH   2  37
HETATM   37  O4  UNL     1      -3.546   0.273   0.883  1.00  0.00    -0.283 OA
BRANCH  37  38
HETATM   38  C6  UNL     1      -4.537  -0.390   0.361  1.00  0.00     0.285 C 
HETATM   39  O5  UNL     1      -4.416  -1.159  -0.633  1.00  0.00    -0.260 OA
BRANCH  38  40
HETATM   40  C7  UNL     1      -5.922  -0.365   0.810  1.00  0.00     0.083 C 
HETATM   41  C8  UNL     1      -6.618  -1.325   0.090  1.00  0.00     0.017 C 
BRANCH  41  42
HETATM   42  C9  UNL     1      -8.093  -1.410   0.306  1.00  0.00    -0.036 A 
HETATM   43  C10 UNL     1      -8.696  -0.638   1.253  1.00  0.00     0.011 A 
HETATM   44  C11 UNL     1     -10.072  -0.417   1.092  1.00  0.00     0.001 A 
HETATM   45  C12 UNL     1     -10.767  -0.947   0.078  1.00  0.00     0.000 A 
HETATM   46  C13 UNL     1     -10.141  -1.714  -0.788  1.00  0.00     0.001 A 
HETATM   47  C14 UNL     1      -8.783  -2.000  -0.771  1.00  0.00     0.011 A 
ENDBRANCH  41  42
ENDBRANCH  38  40
ENDBRANCH  37  38
ENDBRANCH   2  37
TORSDOF 18
