REMARK  4 active torsions:
REMARK  status: ('A' for Active; 'I' for Inactive)
REMARK    1  A    between atoms: C4_4  and  O1_5 
REMARK    2  A    between atoms: N1_8  and  C6_9 
REMARK    3  A    between atoms: C6_9  and  C7_10 
REMARK    4  A    between atoms: C7_10  and  N2_11 
ROOT
HETATM    1  C6  UNL     1       0.033   0.601   0.148  1.00  0.00     0.292 C 
ENDROOT
BRANCH   1   2
HETATM    2  N1  UNL     1      -1.278   0.209   0.603  1.00  0.00     0.096 N 
HETATM    3  C2  UNL     1      -1.847  -0.887  -0.121  1.00  0.00     0.221 C 
HETATM    4  C1  UNL     1      -1.945  -0.732  -1.596  1.00  0.00     0.043 C 
HETATM    5  C3  UNL     1      -3.241  -0.937   0.468  1.00  0.00     0.069 C 
HETATM    6  C4  UNL     1      -3.552   0.560   0.649  1.00  0.00     0.148 C 
HETATM    7  C5  UNL     1      -2.245   1.273   0.444  1.00  0.00     0.304 C 
BRANCH   6   8
HETATM    8  O1  UNL     1      -4.509   0.957  -0.291  1.00  0.00    -0.394 OA
ATOM      9  H1  UNL     1      -4.701   1.881  -0.179  1.00  0.00     0.210 HD
ENDBRANCH   6   8
ENDBRANCH   1   2
BRANCH   1  10
HETATM   10  C7  UNL     1       1.044  -0.466   0.369  1.00  0.00     0.155 C 
BRANCH  10  11
HETATM   11  N2  UNL     1       2.388  -0.170   0.005  1.00  0.00    -0.355 N 
HETATM   12  C8  UNL     1       3.472  -1.169  -0.090  1.00  0.00     0.145 C 
HETATM   13  C9  UNL     1       4.634  -0.404   0.483  1.00  0.00     0.142 C 
HETATM   14  N3  UNL     1       4.430   0.942  -0.028  1.00  0.00    -0.366 N 
HETATM   15  C10 UNL     1       3.027   1.058  -0.298  1.00  0.00     0.169 C 
ATOM     16  H3  UNL     1       5.142   1.659  -0.166  1.00  0.00     0.161 HD
HETATM   17  S1  UNL     1       2.307   2.398  -0.850  1.00  0.00    -0.041 SA
ENDBRANCH  10  11
ENDBRANCH   1  10
TORSDOF 4
