REMARK  4 active torsions:
REMARK  status: ('A' for Active; 'I' for Inactive)
REMARK    1  A    between atoms: C7_10  and  O1_11 
REMARK    2  A    between atoms: N2_14  and  C9_15 
REMARK    3  A    between atoms: C9_15  and  C10_16 
REMARK    4  A    between atoms: C10_16  and  C11_17 
ROOT
HETATM    1  C1  UNL     1       0.466   3.683  -0.543  1.00  0.00     0.014 C 
HETATM    2  C2  UNL     1       0.724   2.581  -0.141  1.00  0.00    -0.079 C 
HETATM    3  C3  UNL     1       1.057   1.249   0.342  1.00  0.00     0.334 C 
HETATM    4  C4  UNL     1       2.060   0.555  -0.556  1.00  0.00     0.266 C 
HETATM    5  N1  UNL     1       3.400   0.606  -0.011  1.00  0.00    -0.065 N 
ATOM      6  H11 UNL     1       3.447   0.755   0.997  1.00  0.00     0.277 HD
ATOM      7  H12 UNL     1       3.932   1.440  -0.260  1.00  0.00     0.277 HD
HETATM    8  C5  UNL     1       3.974  -0.637  -0.467  1.00  0.00     0.236 C 
HETATM    9  C6  UNL     1       2.883  -1.633  -0.106  1.00  0.00     0.069 C 
HETATM   10  C7  UNL     1       1.652  -0.910  -0.526  1.00  0.00     0.117 C 
HETATM   11  C8  UNL     1       0.568  -0.920   0.561  1.00  0.00     0.314 C 
HETATM   12  N2  UNL     1      -0.046   0.340   0.321  1.00  0.00     0.109 N 
ENDROOT
BRANCH  12  13
HETATM   13  C9  UNL     1      -1.127   0.688   1.176  1.00  0.00     0.275 C 
BRANCH  13  14
HETATM   14  C10 UNL     1      -2.281  -0.249   1.164  1.00  0.00     0.035 C 
BRANCH  14  15
HETATM   15  C11 UNL     1      -2.903  -0.377  -0.204  1.00  0.00    -0.013 A 
HETATM   16  C12 UNL     1      -4.060  -1.258  -0.430  1.00  0.00     0.005 A 
HETATM   17  C13 UNL     1      -4.247   0.251  -0.473  1.00  0.00     0.005 A 
ENDBRANCH  14  15
ENDBRANCH  13  14
ENDBRANCH  12  13
BRANCH  10  18
HETATM   18  O1  UNL     1       1.116  -1.328  -1.721  1.00  0.00    -0.386 OA
ATOM     19  H1  UNL     1       0.861  -2.243  -1.702  1.00  0.00     0.210 HD
ENDBRANCH  10  18
TORSDOF 4
