REMARK  7 active torsions:
REMARK  status: ('A' for Active; 'I' for Inactive)
REMARK    1  A    between atoms: O1_1  and  C1_3 
REMARK    2  A    between atoms: C1_3  and  C2_4 
REMARK    3  A    between atoms: C1_3  and  C8_17 
REMARK    4  A    between atoms: C2_4  and  N1_5 
REMARK    5  A    between atoms: N1_5  and  C3_7 
REMARK    6  A    between atoms: C8_17  and  O2_18 
REMARK    7  A    between atoms: O2_18  and  C9_19 
ROOT
HETATM    1  C1  UNL     1      -0.210  -0.200  -0.569  1.00  0.00     0.160 C 
ENDROOT
BRANCH   1   2
HETATM    2  O1  UNL     1      -0.429  -0.818   0.633  1.00  0.00    -0.392 OA
ATOM      3  H1  UNL     1       0.258  -1.429   0.872  1.00  0.00     0.210 HD
ENDBRANCH   1   2
BRANCH   1   4
HETATM    4  C2  UNL     1      -1.322   0.788  -0.955  1.00  0.00     0.153 C 
BRANCH   4   5
HETATM    5  N1  UNL     1      -2.521   0.066  -1.033  1.00  0.00    -0.382 N 
ATOM      6  H1  UNL     1      -2.573  -0.490  -1.887  1.00  0.00     0.160 HD
BRANCH   5   7
HETATM    7  C3  UNL     1      -3.535  -0.072  -0.333  1.00  0.00     0.112 A 
HETATM    8  C4  UNL     1      -3.774   0.537   0.872  1.00  0.00     0.161 A 
HETATM    9  F1  UNL     1      -2.906   1.388   1.462  1.00  0.00    -0.202 F 
HETATM   10  C5  UNL     1      -4.967   0.287   1.553  1.00  0.00     0.135 A 
HETATM   11  N2  UNL     1      -5.901  -0.537   1.066  1.00  0.00    -0.337 N 
HETATM   12  C6  UNL     1      -5.685  -1.144  -0.115  1.00  0.00     0.229 A 
ATOM     13  H2  UNL     1      -6.765  -0.703   1.583  1.00  0.00     0.167 HD
HETATM   14  F2  UNL     1      -6.623  -1.981  -0.619  1.00  0.00    -0.183 F 
HETATM   15  C7  UNL     1      -4.526  -0.933  -0.829  1.00  0.00     0.201 A 
HETATM   16  F3  UNL     1      -4.358  -1.572  -2.017  1.00  0.00    -0.199 F 
ENDBRANCH   5   7
ENDBRANCH   4   5
ENDBRANCH   1   4
BRANCH   1  17
HETATM   17  C8  UNL     1       1.132   0.498  -0.521  1.00  0.00     0.209 C 
BRANCH  17  18
HETATM   18  O2  UNL     1       2.107  -0.486  -0.277  1.00  0.00    -0.343 OA
BRANCH  18  19
HETATM   19  C9  UNL     1       3.449  -0.260  -0.162  1.00  0.00     0.152 A 
HETATM   20  C10 UNL     1       4.276  -0.303  -1.254  1.00  0.00     0.194 A 
HETATM   21  F4  UNL     1       3.829  -0.566  -2.497  1.00  0.00    -0.200 F 
HETATM   22  C11 UNL     1       5.629  -0.067  -1.085  1.00  0.00     0.199 A 
HETATM   23  F5  UNL     1       6.461  -0.103  -2.142  1.00  0.00    -0.199 F 
HETATM   24  C12 UNL     1       6.184   0.212   0.151  1.00  0.00     0.199 A 
HETATM   25  F6  UNL     1       7.493   0.435   0.282  1.00  0.00    -0.199 F 
HETATM   26  C13 UNL     1       5.320   0.246   1.228  1.00  0.00     0.199 A 
HETATM   27  F7  UNL     1       5.858   0.519   2.440  1.00  0.00    -0.199 F 
HETATM   28  C14 UNL     1       3.963   0.014   1.088  1.00  0.00     0.194 A 
HETATM   29  F8  UNL     1       3.197   0.070   2.206  1.00  0.00    -0.200 F 
ENDBRANCH  18  19
ENDBRANCH  17  18
ENDBRANCH   1  17
TORSDOF 7
