REMARK  7 active torsions:
REMARK  status: ('A' for Active; 'I' for Inactive)
REMARK    1  A    between atoms: O1_2  and  C2_3 
REMARK    2  A    between atoms: C3_4  and  C4_5 
REMARK    3  A    between atoms: C5_8  and  N2_9 
REMARK    4  A    between atoms: C6_13  and  C7_14 
REMARK    5  A    between atoms: C7_14  and  C8_15 
REMARK    6  A    between atoms: C8_15  and  C9_16 
REMARK    7  A    between atoms: C9_16  and  C10_17 
ROOT
HETATM    1  C4  UNL     1      -0.036   0.685  -0.453  1.00  0.00     0.062 A 
HETATM    2  N1  UNL     1      -0.181   1.942  -0.849  1.00  0.00    -0.335 N 
ATOM      3  H1  UNL     1      -1.078   2.412  -0.729  1.00  0.00     0.168 HD
HETATM    4  C5  UNL     1       0.830   2.587  -1.397  1.00  0.00     0.143 A 
HETATM    5  S1  UNL     1       2.060   1.440  -1.385  1.00  0.00    -0.053 SA
HETATM    6  C6  UNL     1       1.179   0.115  -0.640  1.00  0.00     0.032 A 
ENDROOT
BRANCH   1   7
HETATM    7  C3  UNL     1      -1.082   0.033   0.108  1.00  0.00     0.060 C 
HETATM    8  C2  UNL     1      -2.437   0.718   0.295  1.00  0.00     0.237 C 
HETATM    9  C13 UNL     1      -3.007  -0.046   1.501  1.00  0.00     0.344 C 
HETATM   10  C12 UNL     1      -2.644  -1.470   1.160  1.00  0.00     0.379 C 
HETATM   11  F5  UNL     1      -4.374   0.069   1.573  1.00  0.00    -0.196 F 
HETATM   12  F6  UNL     1      -2.413   0.398   2.659  1.00  0.00    -0.196 F 
HETATM   13  C11 UNL     1      -1.183  -1.309   0.633  1.00  0.00     0.343 C 
HETATM   14  F3  UNL     1      -2.623  -2.246   2.268  1.00  0.00    -0.192 F 
HETATM   15  F4  UNL     1      -3.445  -1.907   0.142  1.00  0.00    -0.192 F 
HETATM   16  F1  UNL     1      -0.388  -1.582   1.739  1.00  0.00    -0.194 F 
HETATM   17  F2  UNL     1      -1.096  -2.332  -0.281  1.00  0.00    -0.194 F 
BRANCH   8  18
HETATM   18  O1  UNL     1      -3.298   0.455  -0.737  1.00  0.00    -0.380 OA
HETATM   19  C1  UNL     1      -3.970   1.516  -1.276  1.00  0.00     0.202 C 
ENDBRANCH   8  18
ENDBRANCH   1   7
BRANCH   6  20
HETATM   20  C7  UNL     1       1.769  -1.042  -0.438  1.00  0.00    -0.005 C 
BRANCH  20  21
HETATM   21  C8  UNL     1       3.234  -1.133  -0.858  1.00  0.00     0.029 C 
BRANCH  21  22
HETATM   22  C9  UNL     1       3.967  -1.965   0.164  1.00  0.00     0.019 C 
BRANCH  22  23
HETATM   23  C10 UNL     1       3.838  -1.285   1.531  1.00  0.00     0.115 C 
HETATM   24 CL1  UNL     1       4.538   0.349   1.510  1.00  0.00    -0.130 Cl
ENDBRANCH  22  23
ENDBRANCH  21  22
ENDBRANCH  20  21
ENDBRANCH   6  20
BRANCH   4  25
HETATM   25  N2  UNL     1       0.888   3.819  -1.848  1.00  0.00    -0.380 N 
ATOM     26  H22 UNL     1       0.142   4.515  -1.855  1.00  0.00     0.158 HD
ATOM     27  H21 UNL     1       1.670   4.318  -2.272  1.00  0.00     0.158 HD
ENDBRANCH   4  25
TORSDOF 7
