REMARK  5 active torsions:
REMARK  status: ('A' for Active; 'I' for Inactive)
REMARK    1  A    between atoms: C2_2  and  C3_3 
REMARK    2  A    between atoms: N1_7  and  C7_8 
REMARK    3  A    between atoms: C10_14  and  C11_15 
REMARK       I    between atoms: C11_15  and  N3_17 
REMARK    4  A    between atoms: N3_17  and  C12_19 
REMARK    5  A    between atoms: C12_19  and  C13_20 
ROOT
HETATM    1  C7  UNL     1      -1.259  -0.409  -0.987  1.00  0.00     0.264 C 
HETATM    2  C8  UNL     1      -1.453  -0.340  -2.487  1.00  0.00     0.269 C 
HETATM    3  N2  UNL     1      -0.117  -0.564  -2.990  1.00  0.00    -0.072 N 
ATOM      4  H21 UNL     1      -0.010  -0.496  -4.002  1.00  0.00     0.277 HD
ATOM      5  H22 UNL     1       0.220  -1.525  -2.932  1.00  0.00     0.277 HD
HETATM    6  C9  UNL     1       0.639   0.423  -2.204  1.00  0.00     0.248 C 
HETATM    7  C10 UNL     1       0.089   0.186  -0.791  1.00  0.00     0.138 C 
ENDROOT
BRANCH   7   8
HETATM    8  C11 UNL     1       1.044  -0.720  -0.122  1.00  0.00     0.225 C 
HETATM    9  O1  UNL     1       0.718  -1.864   0.227  1.00  0.00    -0.273 OA
HETATM   10  N3  UNL     1       2.374  -0.226   0.114  1.00  0.00    -0.360 N 
ATOM     11  H3  UNL     1       2.619   0.719  -0.181  1.00  0.00     0.162 HD
BRANCH  10  12
HETATM   12  C12 UNL     1       3.367  -1.049   0.762  1.00  0.00     0.127 C 
BRANCH  12  13
HETATM   13  C13 UNL     1       4.696  -0.435   0.941  1.00  0.00     0.003 A 
HETATM   14  C14 UNL     1       4.901   0.813   1.716  1.00  0.00     0.007 A 
HETATM   15  C15 UNL     1       5.132   0.788   0.241  1.00  0.00     0.007 A 
ENDBRANCH  12  13
ENDBRANCH  10  12
ENDBRANCH   7   8
BRANCH   1  16
HETATM   16  N1  UNL     1      -2.324   0.335  -0.367  1.00  0.00     0.103 N 
HETATM   17  C3  UNL     1      -2.213   0.381   1.073  1.00  0.00     0.245 C 
HETATM   18  C4  UNL     1      -2.597  -1.000   1.581  1.00  0.00     0.041 C 
HETATM   19  C5  UNL     1      -3.392  -1.579   0.442  1.00  0.00     0.033 C 
HETATM   20  C6  UNL     1      -3.552  -0.420  -0.532  1.00  0.00     0.274 C 
BRANCH  17  21
HETATM   21  C2  UNL     1      -3.243   1.335   1.566  1.00  0.00    -0.002 C 
HETATM   22  C1  UNL     1      -3.140   2.629   1.274  1.00  0.00     0.009 C 
ENDBRANCH  17  21
ENDBRANCH   1  16
TORSDOF 5
