REMARK  2 active torsions:
REMARK  status: ('A' for Active; 'I' for Inactive)
REMARK    1  A    between atoms: S1_2  and  C2_3 
REMARK    2  A    between atoms: C2_3  and  O1_4 
ROOT
HETATM    1  C2  UNL     1      -0.938   0.385  -0.251  1.00  0.00     0.114 C 
HETATM    2  C3  UNL     1       0.145   0.678  -1.265  1.00  0.00     0.094 C 
HETATM    3  C4  UNL     1       1.233  -0.335  -1.078  1.00  0.00     0.066 C 
HETATM    4  N1  UNL     1       1.796  -0.192   0.190  1.00  0.00    -0.378 N 
HETATM    5  C5  UNL     1       3.190  -0.277   0.352  1.00  0.00     0.154 C 
HETATM    6  C6  UNL     1       1.016   0.061   1.322  1.00  0.00     0.066 C 
HETATM    7  C7  UNL     1      -0.426   0.314   1.147  1.00  0.00     0.094 C 
ENDROOT
BRANCH   1   8
HETATM    8  S1  UNL     1      -1.825  -1.152  -0.671  1.00  0.00    -0.135 SA
HETATM    9  C1  UNL     1      -3.533  -0.951  -0.081  1.00  0.00     0.093 C 
ENDBRANCH   1   8
BRANCH   1  10
HETATM   10  O1  UNL     1      -1.882   1.416  -0.383  1.00  0.00    -0.379 OA
ATOM     11  H1  UNL     1      -1.420   2.217  -0.164  1.00  0.00     0.211 HD
ENDBRANCH   1  10
TORSDOF 2
