REMARK  7 active torsions:
REMARK  status: ('A' for Active; 'I' for Inactive)
REMARK    1  A    between atoms: N1_2  and  C3_4 
REMARK    2  A    between atoms: C3_4  and  C4_5 
REMARK    3  A    between atoms: C4_5  and  C5_6 
REMARK    4  A    between atoms: C5_6  and  N2_7 
REMARK    5  A    between atoms: N2_7  and  C6_9 
REMARK    6  A    between atoms: C8_14  and  C9_15 
REMARK    7  A    between atoms: C9_15  and  N4_16 
ROOT
HETATM    1  C6  UNL     1      -0.254  -1.169   1.343  1.00  0.00     0.679 A 
HETATM    2  N3  UNL     1       0.664  -0.205   1.315  1.00  0.00    -0.183 N 
ATOM      3  H3  UNL     1       1.676  -0.336   1.317  1.00  0.00     0.185 HD
HETATM    4  C7  UNL     1       0.002   0.995   1.283  1.00  0.00     0.120 A 
HETATM    5 BR1  UNL     1       0.954   2.631   1.287  1.00  0.00    -0.029 Br
HETATM    6  C8  UNL     1      -1.328   0.789   1.289  1.00  0.00     0.079 A 
HETATM    7  N5  UNL     1      -1.457  -0.591   1.328  1.00  0.00    -0.191 N 
ATOM      8  H5  UNL     1      -2.345  -1.093   1.343  1.00  0.00     0.184 HD
ENDROOT
BRANCH   6   9
HETATM    9  C9  UNL     1      -2.524   1.659   1.230  1.00  0.00     0.189 C 
BRANCH   9  10
HETATM   10  N4  UNL     1      -2.964   2.061  -0.064  1.00  0.00    -0.352 N 
HETATM   11  C10 UNL     1      -3.640   1.108  -0.794  1.00  0.00     0.091 A 
HETATM   12  C11 UNL     1      -4.089   1.333  -2.070  1.00  0.00     0.020 A 
HETATM   13  C12 UNL     1      -3.869   2.554  -2.670  1.00  0.00     0.040 A 
HETATM   14  C13 UNL     1      -3.200   3.506  -1.949  1.00  0.00     0.091 A 
HETATM   15  C14 UNL     1      -2.767   3.216  -0.653  1.00  0.00     0.047 A 
HETATM   16  O1  UNL     1      -2.856   4.796  -2.309  1.00  0.00    -0.349 OA
HETATM   17  C15 UNL     1      -2.138   4.491  -0.177  1.00  0.00     0.086 C 
HETATM   18  C16 UNL     1      -2.828   5.535  -1.083  1.00  0.00     0.181 C 
ENDBRANCH   9  10
ENDBRANCH   6   9
BRANCH   1  19
HETATM   19  N2  UNL     1       0.013  -2.454   1.387  1.00  0.00    -0.226 N 
ATOM     20  H2  UNL     1      -0.762  -3.117   1.406  1.00  0.00     0.177 HD
BRANCH  19  21
HETATM   21  C5  UNL     1       1.359  -2.959   1.409  1.00  0.00     0.140 C 
BRANCH  21  22
HETATM   22  C4  UNL     1       1.677  -3.390  -0.027  1.00  0.00     0.050 C 
BRANCH  22  23
HETATM   23  C3  UNL     1       3.079  -3.920  -0.058  1.00  0.00     0.273 C 
BRANCH  23  24
HETATM   24  N1  UNL     1       3.968  -2.845   0.369  1.00  0.00     0.080 N 
HETATM   25  C1  UNL     1       3.970  -1.800  -0.647  1.00  0.00     0.309 C 
HETATM   26  C2  UNL     1       5.313  -3.380   0.549  1.00  0.00     0.309 C 
ENDBRANCH  23  24
ENDBRANCH  22  23
ENDBRANCH  21  22
ENDBRANCH  19  21
ENDBRANCH   1  19
TORSDOF 7
