REMARK  13 active torsions:
REMARK  status: ('A' for Active; 'I' for Inactive)
REMARK    1  A    between atoms: S1_2  and  N1_5 
REMARK    2  A    between atoms: N1_5  and  C2_7 
REMARK    3  A    between atoms: C2_7  and  O3_8 
REMARK    4  A    between atoms: C2_7  and  C3_10 
REMARK    5  A    between atoms: C4_11  and  C5_12 
REMARK    6  A    between atoms: C6_13  and  C7_14 
REMARK    7  A    between atoms: C10_17  and  C11_18 
REMARK       I    between atoms: C11_18  and  N2_20 
REMARK    8  A    between atoms: N2_20  and  S2_22 
REMARK    9  A    between atoms: S2_22  and  C12_25 
REMARK   10  A    between atoms: N4_36  and  S3_37 
REMARK   11  A    between atoms: S3_37  and  N5_40 
REMARK       I    between atoms: N5_40  and  C22_42 
REMARK   12  A    between atoms: C22_42  and  C23_44 
REMARK   13  A    between atoms: C27_48  and  O10_49 
ROOT
HETATM    1  C12 UNL     1       9.008   1.295   0.594  1.00  0.00     0.080 A 
HETATM    2  C13 UNL     1       9.680   0.202   0.094  1.00  0.00     0.027 A 
HETATM    3  C14 UNL     1      10.493   0.360  -1.024  1.00  0.00     0.024 A 
HETATM    4  C15 UNL     1      10.616   1.589  -1.609  1.00  0.00     0.044 A 
HETATM    5  C16 UNL     1      11.471   1.724  -2.781  1.00  0.00     0.099 C 
HETATM    6  N3  UNL     1      12.139   1.814  -3.716  1.00  0.00    -0.191 NA
HETATM    7  C17 UNL     1       9.953   2.686  -1.121  1.00  0.00     0.024 A 
HETATM    8  C18 UNL     1       9.139   2.529  -0.002  1.00  0.00     0.027 A 
ENDROOT
BRANCH   1   9
HETATM    9  S2  UNL     1       7.935   1.163   1.970  1.00  0.00     0.265 S 
HETATM   10  O5  UNL     1       7.995   2.404   2.794  1.00  0.00    -0.200 OA
HETATM   11  O6  UNL     1       8.388   0.018   2.831  1.00  0.00    -0.200 OA
BRANCH   9  12
HETATM   12  N2  UNL     1       6.305   0.911   1.432  1.00  0.00    -0.246 N 
HETATM   13  C11 UNL     1       5.409   0.233   2.269  1.00  0.00     0.265 C 
HETATM   14  O4  UNL     1       5.776  -0.193   3.414  1.00  0.00    -0.267 OA
ATOM     15  H2  UNL     1       6.003   1.252   0.519  1.00  0.00     0.182 HD
BRANCH  13  16
HETATM   16  C10 UNL     1       4.038  -0.004   1.860  1.00  0.00     0.033 A 
HETATM   17  C9  UNL     1       3.101  -0.466   2.792  1.00  0.00     0.018 A 
HETATM   18  C8  UNL     1       1.781  -0.712   2.413  1.00  0.00     0.022 A 
HETATM   19  C7  UNL     1       1.368  -0.509   1.115  1.00  0.00     0.018 A 
HETATM   20  C20 UNL     1       2.319  -0.051   0.219  1.00  0.00     0.022 A 
HETATM   21  C19 UNL     1       3.630   0.202   0.562  1.00  0.00     0.018 A 
BRANCH  19  22
HETATM   22  C6  UNL     1       0.017  -0.781   0.721  1.00  0.00    -0.061 C 
HETATM   23  C5  UNL     1      -1.098  -1.031   0.363  1.00  0.00    -0.059 C 
BRANCH  23  24
HETATM   24  C4  UNL     1      -2.448  -1.307  -0.101  1.00  0.00     0.046 C 
HETATM   25  C3  UNL     1      -2.983  -2.442  -0.431  1.00  0.00     0.032 C 
HETATM   26  C29 UNL     1      -4.434  -2.228  -0.896  1.00  0.00     0.187 C 
HETATM   27  N4  UNL     1      -4.525  -0.861  -0.969  1.00  0.00    -0.264 N 
HETATM   28  C21 UNL     1      -3.502  -0.230  -0.255  1.00  0.00     0.126 C 
BRANCH  25  29
HETATM   29  C2  UNL     1      -2.422  -3.779  -0.438  1.00  0.00     0.159 C 
BRANCH  29  30
HETATM   30  N1  UNL     1      -1.136  -4.189  -0.086  1.00  0.00    -0.264 N 
ATOM     31  H1  UNL     1      -0.447  -3.502   0.221  1.00  0.00     0.180 HD
BRANCH  30  32
HETATM   32  S1  UNL     1      -0.702  -5.896  -0.173  1.00  0.00     0.228 S 
HETATM   33  C1  UNL     1      -1.694  -6.744  -1.357  1.00  0.00     0.186 C 
HETATM   34  O1  UNL     1      -0.998  -6.501   1.190  1.00  0.00    -0.206 OA
HETATM   35  O2  UNL     1       0.760  -5.989  -0.504  1.00  0.00    -0.206 OA
ENDBRANCH  30  32
ENDBRANCH  29  30
BRANCH  29  36
HETATM   36  O3  UNL     1      -3.221  -4.734  -0.824  1.00  0.00    -0.345 OA
ATOM     37  H3  UNL     1      -4.097  -4.455  -1.064  1.00  0.00     0.219 HD
ENDBRANCH  29  36
ENDBRANCH  25  29
BRANCH  27  38
HETATM   38  S3  UNL     1      -5.190  -0.016  -2.220  1.00  0.00     0.327 S 
HETATM   39  O7  UNL     1      -4.115   0.312  -3.247  1.00  0.00    -0.182 OA
HETATM   40  O8  UNL     1      -6.228  -0.799  -3.000  1.00  0.00    -0.182 OA
BRANCH  38  41
HETATM   41  N5  UNL     1      -5.977   1.463  -1.747  1.00  0.00    -0.233 N 
HETATM   42  C22 UNL     1      -7.113   1.414  -0.903  1.00  0.00     0.266 C 
HETATM   43  O9  UNL     1      -7.509   0.267  -0.520  1.00  0.00    -0.267 OA
ATOM     44  H5  UNL     1      -5.622   2.361  -2.076  1.00  0.00     0.183 HD
BRANCH  42  45
HETATM   45  C23 UNL     1      -7.826   2.593  -0.470  1.00  0.00     0.035 A 
HETATM   46  C24 UNL     1      -8.914   2.408   0.370  1.00  0.00     0.017 A 
HETATM   47  C25 UNL     1      -9.650   3.471   0.820  1.00  0.00     0.004 A 
HETATM   48  C26 UNL     1      -9.337   4.757   0.455  1.00  0.00     0.036 A 
HETATM   49  C27 UNL     1      -8.247   4.935  -0.385  1.00  0.00     0.066 A 
HETATM   50  C28 UNL     1      -7.501   3.874  -0.843  1.00  0.00     0.053 A 
BRANCH  49  51
HETATM   51  O10 UNL     1      -7.909   6.225  -0.768  1.00  0.00    -0.361 OA
ATOM     52  H10 UNL     1      -7.163   6.347  -1.343  1.00  0.00     0.217 HD
ENDBRANCH  49  51
ENDBRANCH  42  45
ENDBRANCH  38  41
ENDBRANCH  27  38
ENDBRANCH  23  24
ENDBRANCH  19  22
ENDBRANCH  13  16
ENDBRANCH   9  12
ENDBRANCH   1   9
TORSDOF 13
