REMARK  12 active torsions:
REMARK  status: ('A' for Active; 'I' for Inactive)
REMARK    1  A    between atoms: C6_8  and  N2_9 
REMARK    2  A    between atoms: N2_9  and  C7_11 
REMARK    3  A    between atoms: C7_11  and  C8_12 
REMARK    4  A    between atoms: C8_12  and  C9_13 
REMARK    5  A    between atoms: C9_13  and  C10_14 
REMARK    6  A    between atoms: C10_14  and  C11_15 
REMARK    7  A    between atoms: C11_15  and  C12_16 
REMARK    8  A    between atoms: C12_16  and  C13_17 
REMARK       I    between atoms: C13_17  and  N3_19 
REMARK    9  A    between atoms: N3_19  and  C14_20 
REMARK   10  A    between atoms: N3_19  and  C16_24 
REMARK   11  A    between atoms: C14_20  and  C15_21 
REMARK   12  A    between atoms: C16_24  and  C17_25 
ROOT
HETATM    1  C13 UNL     1      -1.226  -2.475  -0.535  1.00  0.00     0.224 C 
HETATM    2  O1  UNL     1      -0.439  -3.307   0.016  1.00  0.00    -0.273 OA
HETATM    3  N3  UNL     1      -2.564  -2.892  -0.745  1.00  0.00    -0.317 N 
ENDROOT
BRANCH   3   4
HETATM    4  C14 UNL     1      -2.888  -4.268  -0.348  1.00  0.00     0.244 C 
BRANCH   4   5
HETATM    5  C15 UNL     1      -2.562  -5.214  -1.450  1.00  0.00     0.191 C 
HETATM    6  O2  UNL     1      -2.933  -6.406  -1.376  1.00  0.00    -0.647 OA
HETATM    7  O3  UNL     1      -1.851  -4.820  -2.563  1.00  0.00    -0.647 OA
ENDBRANCH   4   5
ENDBRANCH   3   4
BRANCH   3   8
HETATM    8  C16 UNL     1      -3.507  -2.034  -1.346  1.00  0.00     0.111 C 
BRANCH   8   9
HETATM    9  C17 UNL     1      -4.212  -1.047  -0.534  1.00  0.00     0.048 A 
HETATM   10  C18 UNL     1      -4.231   0.274  -0.979  1.00  0.00     0.032 A 
HETATM   11  C19 UNL     1      -4.885   1.311  -0.367  1.00  0.00    -0.005 A 
HETATM   12  C20 UNL     1      -4.864   2.607  -0.857  1.00  0.00     0.053 A 
HETATM   13  C24 UNL     1      -5.576   0.968   0.795  1.00  0.00     0.048 A 
HETATM   14  C21 UNL     1      -5.528   3.601  -0.202  1.00  0.00     0.105 A 
HETATM   15  C22 UNL     1      -6.222   3.290   0.959  1.00  0.00     0.107 A 
HETATM   16  O6  UNL     1      -5.706   4.985  -0.422  1.00  0.00    -0.323 OA
HETATM   17  C23 UNL     1      -6.242   2.004   1.439  1.00  0.00     0.070 A 
HETATM   18  O5  UNL     1      -6.791   4.479   1.401  1.00  0.00    -0.323 OA
HETATM   19  C26 UNL     1      -6.907   5.355   0.260  1.00  0.00     0.352 C 
HETATM   20  N4  UNL     1      -5.572  -0.280   1.235  1.00  0.00    -0.322 N 
HETATM   21  C25 UNL     1      -4.917  -1.290   0.610  1.00  0.00     0.257 A 
ATOM     22  H4  UNL     1      -6.088  -0.494   2.088  1.00  0.00     0.169 HD
HETATM   23  O4  UNL     1      -4.995  -2.427   1.134  1.00  0.00    -0.267 OA
ENDBRANCH   8   9
ENDBRANCH   3   8
BRANCH   1  24
HETATM   24  C12 UNL     1      -0.675  -1.164  -0.912  1.00  0.00     0.103 C 
BRANCH  24  25
HETATM   25  C11 UNL     1      -0.058  -0.378   0.172  1.00  0.00     0.009 C 
BRANCH  25  26
HETATM   26  C10 UNL     1       1.125  -0.959   0.886  1.00  0.00     0.001 C 
BRANCH  26  27
HETATM   27  C9  UNL     1       2.313  -1.186  -0.005  1.00  0.00     0.002 C 
BRANCH  27  28
HETATM   28  C8  UNL     1       3.474  -1.715   0.779  1.00  0.00     0.020 C 
BRANCH  28  29
HETATM   29  C7  UNL     1       3.785  -0.745   1.905  1.00  0.00     0.138 C 
BRANCH  29  30
HETATM   30  N2  UNL     1       3.990   0.570   1.366  1.00  0.00    -0.226 N 
ATOM     31  H2  UNL     1       3.226   1.246   1.370  1.00  0.00     0.177 HD
BRANCH  30  32
HETATM   32  C6  UNL     1       5.133   0.897   0.879  1.00  0.00     0.678 A 
HETATM   33  N1  UNL     1       5.235   2.158   0.398  1.00  0.00    -0.196 N 
HETATM   34  C4  UNL     1       6.391   2.566  -0.138  1.00  0.00     0.024 A 
ATOM     35  H1  UNL     1       4.437   2.792   0.444  1.00  0.00     0.184 HD
HETATM   36  C3  UNL     1       7.467   1.722  -0.199  1.00  0.00     0.050 A 
HETATM   37  C5  UNL     1       6.571   3.936  -0.684  1.00  0.00     0.068 C 
HETATM   38  C2  UNL     1       7.343   0.455   0.293  1.00  0.00     0.024 A 
HETATM   39  C1  UNL     1       8.468  -0.504   0.244  1.00  0.00     0.068 C 
HETATM   40  N5  UNL     1       6.170   0.071   0.824  1.00  0.00    -0.196 N 
ATOM     41  H5  UNL     1       6.075  -0.875   1.193  1.00  0.00     0.184 HD
ENDBRANCH  30  32
ENDBRANCH  29  30
ENDBRANCH  28  29
ENDBRANCH  27  28
ENDBRANCH  26  27
ENDBRANCH  25  26
ENDBRANCH  24  25
ENDBRANCH   1  24
TORSDOF 12
