REMARK  13 active torsions:
REMARK  status: ('A' for Active; 'I' for Inactive)
REMARK    1  A    between atoms: C2_2  and  N1_4 
REMARK    2  A    between atoms: N1_4  and  C4_6 
REMARK    3  A    between atoms: C5_9  and  O1_10 
REMARK    4  A    between atoms: O1_10  and  C6_11 
REMARK    5  A    between atoms: C6_11  and  C7_12 
REMARK    6  A    between atoms: C7_12  and  C8_13 
REMARK    7  A    between atoms: C7_12  and  N4_20 
REMARK    8  A    between atoms: C8_13  and  N3_14 
REMARK    9  A    between atoms: C8_13  and  O2_18 
REMARK   10  A    between atoms: N4_20  and  C10_22 
REMARK   11  A    between atoms: C10_22  and  O3_23 
REMARK   12  A    between atoms: C11_27  and  N6_28 
REMARK   13  A    between atoms: N6_28  and  C12_30 
ROOT
HETATM    1  C12 UNL     1       1.403  -2.042  -1.358  1.00  0.00     0.049 A 
HETATM    2  C13 UNL     1       0.625  -2.885  -0.601  1.00  0.00     0.031 A 
HETATM    3  C14 UNL     1      -0.244  -3.793  -1.173  1.00  0.00     0.025 A 
HETATM    4  C15 UNL     1      -0.365  -3.889  -2.557  1.00  0.00     0.044 A 
HETATM    5  C16 UNL     1      -1.265  -4.831  -3.157  1.00  0.00     0.099 C 
HETATM    6  N7  UNL     1      -1.994  -5.602  -3.628  1.00  0.00    -0.191 NA
HETATM    7  C17 UNL     1       0.420  -3.039  -3.306  1.00  0.00     0.025 A 
HETATM    8  C18 UNL     1       1.288  -2.132  -2.739  1.00  0.00     0.031 A 
ENDROOT
BRANCH   1   9
HETATM    9  N6  UNL     1       2.306  -1.101  -0.812  1.00  0.00    -0.191 N 
ATOM     10  H6  UNL     1       3.303  -1.312  -0.762  1.00  0.00     0.184 HD
BRANCH   9  11
HETATM   11  C11 UNL     1       1.860   0.019  -0.381  1.00  0.00     0.700 A 
HETATM   12  N5  UNL     1       0.553   0.309  -0.440  1.00  0.00    -0.154 N 
HETATM   13  C5  UNL     1       0.081   1.477   0.009  1.00  0.00     0.252 A 
ATOM     14  H5  UNL     1      -0.094  -0.374  -0.835  1.00  0.00     0.188 HD
HETATM   15  N2  UNL     1       0.961   2.380   0.534  1.00  0.00    -0.154 N 
HETATM   16  C4  UNL     1       2.267   2.122   0.608  1.00  0.00     0.696 A 
ATOM     17  H2  UNL     1       0.610   3.274   0.878  1.00  0.00     0.188 HD
HETATM   18  N8  UNL     1       2.711   0.943   0.150  1.00  0.00    -0.022 N 
ATOM     19  H8  UNL     1       3.708   0.732   0.200  1.00  0.00     0.203 HD
BRANCH  13  20
HETATM   20  O1  UNL     1      -1.234   1.850  -0.015  1.00  0.00    -0.319 OA
BRANCH  20  21
HETATM   21  C6  UNL     1      -2.315   1.116  -0.491  1.00  0.00     0.208 C 
BRANCH  21  22
HETATM   22  C7  UNL     1      -2.555  -0.182   0.203  1.00  0.00     0.165 C 
BRANCH  22  23
HETATM   23  C8  UNL     1      -3.676  -0.884  -0.540  1.00  0.00     0.341 C 
BRANCH  23  24
HETATM   24  N3  UNL     1      -3.272  -0.974  -1.938  1.00  0.00    -0.051 N 
ATOM     25  H33 UNL     1      -3.028  -0.070  -2.343  1.00  0.00     0.277 HD
ATOM     26  H32 UNL     1      -2.365  -1.423  -2.064  1.00  0.00     0.277 HD
ATOM     27  H31 UNL     1      -4.026  -1.446  -2.438  1.00  0.00     0.277 HD
ENDBRANCH  23  24
BRANCH  23  28
HETATM   28  O2  UNL     1      -4.882  -0.220  -0.451  1.00  0.00    -0.368 OA
ATOM     29  H2  UNL     1      -5.584  -0.660  -0.916  1.00  0.00     0.212 HD
ENDBRANCH  23  28
ENDBRANCH  22  23
BRANCH  22  30
HETATM   30  N4  UNL     1      -2.800  -0.031   1.591  1.00  0.00    -0.365 N 
HETATM   31  C9  UNL     1      -3.934   0.697   1.997  1.00  0.00     0.151 C 
BRANCH  30  32
HETATM   32  C10 UNL     1      -2.320  -1.033   2.452  1.00  0.00     0.221 C 
BRANCH  32  33
HETATM   33  O3  UNL     1      -2.818  -2.307   2.219  1.00  0.00    -0.357 OA
ATOM     34  H3  UNL     1      -2.494  -2.984   2.801  1.00  0.00     0.218 HD
ENDBRANCH  32  33
ENDBRANCH  30  32
ENDBRANCH  22  30
ENDBRANCH  21  22
ENDBRANCH  20  21
ENDBRANCH  13  20
BRANCH  16  35
HETATM   35  N1  UNL     1       3.082   2.964   1.098  1.00  0.00    -0.222 N 
ATOM     36  H1  UNL     1       2.676   3.840   1.428  1.00  0.00     0.178 HD
BRANCH  35  37
HETATM   37  C2  UNL     1       4.487   2.836   1.243  1.00  0.00     0.091 C 
HETATM   38  C1  UNL     1       4.920   3.714   2.418  1.00  0.00     0.032 C 
HETATM   39  C3  UNL     1       5.270   3.301   0.037  1.00  0.00     0.032 C 
ENDBRANCH  35  37
ENDBRANCH  16  35
ENDBRANCH   9  11
ENDBRANCH   1   9
TORSDOF 13
