REMARK  2 active torsions:
REMARK  status: ('A' for Active; 'I' for Inactive)
REMARK    1  A    between atoms: N3_11  and  C5_12 
REMARK    2  A    between atoms: C5_12  and  C6_13 
ROOT
HETATM    1  C1  UNL     1       2.336   1.368  -1.718  1.00  0.00     0.050 C 
HETATM    2  C2  UNL     1       2.298   0.630  -0.605  1.00  0.00     0.115 A 
HETATM    3  C3  UNL     1       3.238   0.704   0.501  1.00  0.00     0.286 A 
HETATM    4  O1  UNL     1       4.233   1.444   0.630  1.00  0.00    -0.265 OA
HETATM    5  N1  UNL     1       2.821  -0.261   1.478  1.00  0.00    -0.154 N 
ATOM      6  H1  UNL     1       3.282  -0.446   2.369  1.00  0.00     0.187 HD
HETATM    7  C4  UNL     1       1.660  -0.912   0.993  1.00  0.00     0.685 A 
HETATM    8  N2  UNL     1       0.987  -1.850   1.594  1.00  0.00    -0.234 N 
ATOM      9  H21 UNL     1       0.151  -2.319   1.245  1.00  0.00     0.174 HD
ATOM     10  H22 UNL     1       1.212  -2.244   2.508  1.00  0.00     0.174 HD
HETATM   11  N3  UNL     1       1.343  -0.356  -0.296  1.00  0.00    -0.151 N 
ENDROOT
BRANCH  11  12
HETATM   12  C5  UNL     1       0.246  -0.766  -1.076  1.00  0.00     0.151 C 
BRANCH  12  13
HETATM   13  C6  UNL     1      -1.021  -0.487  -0.740  1.00  0.00     0.119 A 
HETATM   14  N4  UNL     1      -1.406   0.198   0.349  1.00  0.00    -0.338 N 
HETATM   15  C7  UNL     1      -2.746   0.284   0.363  1.00  0.00     0.098 A 
ATOM     16  H4  UNL     1      -0.781   0.590   1.053  1.00  0.00     0.167 HD
HETATM   17  C8  UNL     1      -3.506   0.878   1.267  1.00  0.00     0.063 C 
HETATM   18  N5  UNL     1      -3.207  -0.352  -0.729  1.00  0.00    -0.308 N 
HETATM   19  C9  UNL     1      -2.162  -0.833  -1.418  1.00  0.00     0.275 A 
ATOM     20  H5  UNL     1      -4.188  -0.452  -0.990  1.00  0.00     0.170 HD
HETATM   21  O2  UNL     1      -2.191  -1.495  -2.511  1.00  0.00    -0.266 OA
ENDBRANCH  12  13
ENDBRANCH  11  12
TORSDOF 2
