REMARK  2 active torsions:
REMARK  status: ('A' for Active; 'I' for Inactive)
REMARK    1  A    between atoms: C6_9  and  N2_10 
REMARK    2  A    between atoms: N2_10  and  N3_12 
ROOT
HETATM    1  C1  UNL     1       3.961   1.564  -0.408  1.00  0.00     0.063 C 
HETATM    2  C2  UNL     1       2.746   1.079  -0.247  1.00  0.00     0.098 A 
HETATM    3  N1  UNL     1       1.704   1.841  -0.566  1.00  0.00    -0.309 N 
ATOM      4  H1  UNL     1       1.857   2.782  -0.927  1.00  0.00     0.170 HD
HETATM    5  C3  UNL     1       0.441   1.377  -0.415  1.00  0.00     0.260 A 
HETATM    6  O1  UNL     1      -0.508   2.157  -0.738  1.00  0.00    -0.267 OA
HETATM    7  C4  UNL     1       0.222   0.115   0.069  1.00  0.00     0.081 A 
HETATM    8  C5  UNL     1      -1.055  -0.373   0.230  1.00  0.00     0.067 A 
HETATM    9  C6  UNL     1      -2.147   0.284  -0.049  1.00  0.00     0.124 C 
HETATM   10  C7  UNL     1      -1.199  -1.670   0.728  1.00  0.00     0.261 A 
HETATM   11  O2  UNL     1      -2.338  -2.145   0.887  1.00  0.00    -0.267 OA
HETATM   12  N4  UNL     1      -0.107  -2.379   1.028  1.00  0.00    -0.288 N 
ATOM     13  H4  UNL     1      -0.229  -3.324   1.392  1.00  0.00     0.172 HD
HETATM   14  C8  UNL     1       1.129  -1.917   0.877  1.00  0.00     0.276 A 
HETATM   15  O3  UNL     1       2.169  -2.592   1.161  1.00  0.00    -0.266 OA
HETATM   16  C9  UNL     1       1.289  -0.641   0.386  1.00  0.00     0.119 A 
HETATM   17  N5  UNL     1       2.527  -0.160   0.228  1.00  0.00    -0.338 N 
ATOM     18  H5  UNL     1       3.324  -0.747   0.474  1.00  0.00     0.167 HD
ENDROOT
BRANCH   9  19
HETATM   19  N2  UNL     1      -3.457  -0.296   0.146  1.00  0.00    -0.317 N 
ATOM     20  H2  UNL     1      -3.825  -0.980  -0.515  1.00  0.00     0.185 HD
BRANCH  19  21
HETATM   21  N3  UNL     1      -4.203   0.092   1.243  1.00  0.00    -0.345 N 
ATOM     22  H32 UNL     1      -3.821   0.777   1.895  1.00  0.00     0.176 HD
ATOM     23  H31 UNL     1      -5.127  -0.317   1.381  1.00  0.00     0.176 HD
ENDBRANCH  19  21
ENDBRANCH   9  19
TORSDOF 2
