REMARK  5 active torsions:
REMARK  status: ('A' for Active; 'I' for Inactive)
REMARK    1  A    between atoms: C2_2  and  C3_3 
REMARK    2  A    between atoms: C14_14  and  O1_16 
REMARK    3  A    between atoms: C17_19  and  O2_20 
REMARK    4  A    between atoms: O2_20  and  C18_21 
REMARK    5  A    between atoms: C18_21  and  C19_23 
ROOT
HETATM    1  C3  UNL     1      -3.120   0.463  -0.524  1.00  0.00    -0.020 C 
HETATM    2  C4  UNL     1      -3.481   0.310  -1.991  1.00  0.00     0.020 C 
HETATM    3  C5  UNL     1      -3.041  -0.887   0.077  1.00  0.00     0.041 C 
HETATM    4  C6  UNL     1      -2.027  -1.831  -0.377  1.00  0.00    -0.017 C 
HETATM    5  C7  UNL     1      -0.635  -1.450  -0.656  1.00  0.00    -0.043 C 
HETATM    6  C8  UNL     1      -0.504  -0.283  -1.599  1.00  0.00    -0.060 C 
HETATM    7  C9  UNL     1       0.023  -0.479  -2.790  1.00  0.00     0.019 C 
HETATM    8  C10 UNL     1      -0.890   1.146  -1.406  1.00  0.00     0.044 C 
HETATM    9  C11 UNL     1      -1.932   1.347  -0.343  1.00  0.00     0.006 C 
HETATM   10  C12 UNL     1      -1.302   1.343   0.990  1.00  0.00     0.047 C 
HETATM   11  C13 UNL     1       0.270   1.186   0.819  1.00  0.00    -0.019 C 
HETATM   12  C14 UNL     1       0.895   2.299   1.299  1.00  0.00     0.046 C 
HETATM   13  C15 UNL     1       2.123   2.775   1.851  1.00  0.00     0.076 C 
HETATM   14  C16 UNL     1       0.891   0.085   0.567  1.00  0.00    -0.006 C 
HETATM   15  C17 UNL     1       2.293   0.283   0.430  1.00  0.00     0.065 C 
HETATM   16  C20 UNL     1       3.131  -0.647   1.356  1.00  0.00     0.066 C 
HETATM   17  C21 UNL     1       2.682  -2.068   1.163  1.00  0.00     0.012 C 
HETATM   18  C22 UNL     1       1.521  -2.274   0.262  1.00  0.00    -0.001 C 
HETATM   19  C23 UNL     1       1.104  -3.738   0.484  1.00  0.00     0.011 C 
HETATM   20  C24 UNL     1       0.341  -1.364   0.468  1.00  0.00     0.017 C 
HETATM   21  C25 UNL     1      -0.198  -1.743   1.826  1.00  0.00     0.026 C 
ENDROOT
BRANCH  15  22
HETATM   22  O2  UNL     1       2.951   1.270  -0.185  1.00  0.00    -0.282 OA
BRANCH  22  23
HETATM   23  C18 UNL     1       3.534   1.326  -1.392  1.00  0.00     0.277 C 
HETATM   24  O3  UNL     1       3.499   0.325  -2.119  1.00  0.00    -0.264 OA
BRANCH  23  25
HETATM   25  C19 UNL     1       4.225   2.533  -1.907  1.00  0.00     0.226 C 
HETATM   26 CL1  UNL     1       3.124   3.600  -2.795  1.00  0.00    -0.120 Cl
ENDBRANCH  23  25
ENDBRANCH  22  23
ENDBRANCH  15  22
BRANCH  12  27
HETATM   27  O1  UNL     1       0.080   3.374   1.283  1.00  0.00    -0.365 OA
ATOM     28  H1  UNL     1       0.515   4.149   1.617  1.00  0.00     0.217 HD
ENDBRANCH  12  27
BRANCH   1  29
HETATM   29  C2  UNL     1      -4.286   1.170   0.108  1.00  0.00    -0.027 C 
HETATM   30  C1  UNL     1      -4.494   1.252   1.401  1.00  0.00     0.007 C 
ENDBRANCH   1  29
TORSDOF 5
