REMARK  3 active torsions:
REMARK  status: ('A' for Active; 'I' for Inactive)
REMARK    1  A    between atoms: N3_4  and  N4_6 
REMARK    2  A    between atoms: N4_6  and  N5_8 
REMARK    3  A    between atoms: C2_10  and  C3_11 
ROOT
HETATM    1  C3  UNL     1      -0.878   0.090   0.254  1.00  0.00     0.051 A 
HETATM    2  C4  UNL     1      -1.656  -0.336  -0.818  1.00  0.00     0.052 A 
HETATM    3  C5  UNL     1      -2.987  -0.202  -0.504  1.00  0.00     0.078 A 
HETATM    4  C6  UNL     1      -4.176  -0.455  -1.151  1.00  0.00     0.260 A 
HETATM    5  O1  UNL     1      -4.158  -0.923  -2.318  1.00  0.00    -0.267 OA
HETATM    6  N6  UNL     1      -5.368  -0.203  -0.537  1.00  0.00    -0.319 N 
ATOM      7  H6  UNL     1      -6.242  -0.395  -1.026  1.00  0.00     0.169 HD
HETATM    8  C7  UNL     1      -5.395   0.297   0.709  1.00  0.00     0.184 A 
HETATM    9  N7  UNL     1      -4.231   0.538   1.325  1.00  0.00    -0.338 N 
ATOM     10  H7  UNL     1      -4.261   0.918   2.271  1.00  0.00     0.168 HD
HETATM   11  C8  UNL     1      -3.017   0.309   0.771  1.00  0.00     0.122 A 
HETATM   12  N8  UNL     1      -1.748   0.474   1.200  1.00  0.00    -0.340 N 
ATOM     13  H8  UNL     1      -1.487   0.840   2.116  1.00  0.00     0.167 HD
ENDROOT
BRANCH   1  14
HETATM   14  C2  UNL     1       0.585   0.104   0.308  1.00  0.00     0.138 C 
HETATM   15  N5  UNL     1       1.247  -0.309  -0.713  1.00  0.00    -0.295 N 
ATOM     16  H5  UNL     1       0.754  -0.639  -1.543  1.00  0.00     0.187 HD
BRANCH  15  17
HETATM   17  N4  UNL     1       2.645  -0.305  -0.683  1.00  0.00    -0.241 N 
ATOM     18  H4  UNL     1       3.175  -0.831  -1.378  1.00  0.00     0.208 HD
BRANCH  17  19
HETATM   19  N3  UNL     1       3.310   0.424   0.305  1.00  0.00    -0.261 N 
HETATM   20  C1  UNL     1       4.558   0.225   0.543  1.00  0.00     0.216 C 
HETATM   21  N1  UNL     1       5.248  -0.750  -0.219  1.00  0.00    -0.065 NA
HETATM   22  N2  UNL     1       5.218   0.971   1.546  1.00  0.00    -0.065 NA
ATOM     23  H3  UNL     1       2.800   1.123   0.845  1.00  0.00     0.190 HD
ENDBRANCH  17  19
ENDBRANCH  15  17
ENDBRANCH   1  14
TORSDOF 3
