REMARK  8 active torsions:
REMARK  status: ('A' for Active; 'I' for Inactive)
REMARK    1  A    between atoms: C2_2  and  O1_5 
REMARK    2  A    between atoms: O1_5  and  C5_6 
REMARK       I    between atoms: C5_6  and  N1_8 
REMARK    3  A    between atoms: C8_11  and  N2_12 
REMARK    4  A    between atoms: N2_12  and  C9_15 
REMARK    5  A    between atoms: C9_15  and  C10_16 
REMARK       I    between atoms: C10_16  and  N3_18 
REMARK    6  A    between atoms: N3_18  and  C11_20 
REMARK    7  A    between atoms: C15_24  and  O4_25 
REMARK    8  A    between atoms: O4_25  and  C16_26 
ROOT
HETATM    1  N2  UNL     1       0.798  -0.387   0.003  1.00  0.00    -0.058 N 
ATOM      2  H21 UNL     1       0.885   0.539   0.421  1.00  0.00     0.278 HD
ATOM      3  H22 UNL     1       0.899  -0.118  -0.976  1.00  0.00     0.278 HD
ENDROOT
BRANCH   1   4
HETATM    4  C8  UNL     1      -0.474  -0.978   0.268  1.00  0.00     0.243 C 
HETATM    5  C7  UNL     1      -0.611  -2.236  -0.567  1.00  0.00     0.058 C 
HETATM    6  C6  UNL     1      -1.829  -1.948  -1.431  1.00  0.00     0.133 C 
HETATM    7  N1  UNL     1      -2.591  -0.999  -0.647  1.00  0.00    -0.293 N 
HETATM    8  C5  UNL     1      -4.007  -1.018  -0.540  1.00  0.00     0.366 C 
HETATM    9  C18 UNL     1      -1.638  -0.094  -0.045  1.00  0.00     0.168 C 
HETATM   10  O2  UNL     1      -4.692  -1.884  -1.137  1.00  0.00    -0.238 OA
HETATM   11  C19 UNL     1      -1.274   1.037  -0.972  1.00  0.00     0.064 C 
HETATM   12  O5  UNL     1      -2.238   0.396   1.117  1.00  0.00    -0.358 OA
HETATM   13  C20 UNL     1      -2.087   2.301  -0.659  1.00  0.00     0.007 C 
HETATM   14  C21 UNL     1      -1.683   2.706   0.754  1.00  0.00     0.026 C 
HETATM   15  C22 UNL     1      -1.579   1.483   1.638  1.00  0.00     0.171 C 
BRANCH   8  16
HETATM   16  O1  UNL     1      -4.708  -0.087   0.225  1.00  0.00    -0.294 OA
BRANCH  16  17
HETATM   17  C2  UNL     1      -6.117  -0.103   0.333  1.00  0.00     0.061 C 
HETATM   18  C1  UNL     1      -6.513   1.041   1.234  1.00  0.00     0.046 C 
HETATM   19  C3  UNL     1      -6.662  -1.397   0.852  1.00  0.00     0.046 C 
HETATM   20  C4  UNL     1      -6.769   0.151  -1.028  1.00  0.00     0.046 C 
ENDBRANCH  16  17
ENDBRANCH   8  16
ENDBRANCH   1   4
BRANCH   1  21
HETATM   21  C9  UNL     1       1.849  -1.275   0.432  1.00  0.00     0.335 C 
BRANCH  21  22
HETATM   22  C10 UNL     1       3.207  -0.676   0.135  1.00  0.00     0.247 C 
HETATM   23  O3  UNL     1       3.168   0.445  -0.415  1.00  0.00    -0.271 OA
HETATM   24  N3  UNL     1       4.330  -1.428   0.501  1.00  0.00    -0.326 N 
ATOM     25  H3  UNL     1       4.173  -2.335   0.941  1.00  0.00     0.169 HD
BRANCH  24  26
HETATM   26  C11 UNL     1       5.662  -1.015   0.301  1.00  0.00     0.037 A 
HETATM   27  C12 UNL     1       6.639  -2.026   0.408  1.00  0.00     0.029 A 
HETATM   28  C13 UNL     1       7.946  -1.665   0.237  1.00  0.00     0.005 A 
HETATM   29  C14 UNL     1       8.327  -0.364  -0.032  1.00  0.00     0.037 A 
HETATM   30  C15 UNL     1       7.354   0.600  -0.130  1.00  0.00     0.080 A 
HETATM   31  C17 UNL     1       5.995   0.275   0.039  1.00  0.00     0.066 A 
BRANCH  30  32
HETATM   32  O4  UNL     1       7.703   1.890  -0.395  1.00  0.00    -0.255 OA
BRANCH  32  33
HETATM   33  C16 UNL     1       8.007   2.891   0.525  1.00  0.00     0.530 C 
HETATM   34  F1  UNL     1       6.974   3.170   1.392  1.00  0.00    -0.144 F 
HETATM   35  F2  UNL     1       9.127   2.592   1.277  1.00  0.00    -0.144 F 
HETATM   36  F3  UNL     1       8.282   4.079  -0.151  1.00  0.00    -0.144 F 
ENDBRANCH  32  33
ENDBRANCH  30  32
ENDBRANCH  24  26
ENDBRANCH  21  22
ENDBRANCH   1  21
TORSDOF 8
