REMARK  6 active torsions:
REMARK  status: ('A' for Active; 'I' for Inactive)
REMARK    1  A    between atoms: C1_2  and  C2_4 
REMARK    2  A    between atoms: C5_7  and  N2_8 
REMARK    3  A    between atoms: N2_8  and  C6_10 
REMARK    4  A    between atoms: N3_13  and  C9_14 
REMARK    5  A    between atoms: C12_17  and  C13_18 
REMARK       I    between atoms: C13_18  and  N4_20 
REMARK    6  A    between atoms: C20_27  and  C21_28 
ROOT
HETATM    1  C9  UNL     1      -0.023  -0.392   0.355  1.00  0.00     0.103 A 
HETATM    2  C10 UNL     1       0.301  -0.096  -0.974  1.00  0.00     0.049 A 
HETATM    3  C11 UNL     1       1.554  -0.368  -1.447  1.00  0.00     0.023 A 
HETATM    4  C12 UNL     1       2.547  -0.942  -0.641  1.00  0.00     0.063 A 
HETATM    5  C20 UNL     1       2.202  -1.223   0.656  1.00  0.00     0.134 A 
HETATM    6  N5  UNL     1       0.936  -0.935   1.092  1.00  0.00    -0.338 N 
ATOM      7  H5  UNL     1       0.713  -1.156   2.062  1.00  0.00     0.167 HD
ENDROOT
BRANCH   1   8
HETATM    8  N3  UNL     1      -1.324  -0.106   0.829  1.00  0.00    -0.367 N 
HETATM    9  C8  UNL     1      -2.305   0.490  -0.037  1.00  0.00     0.126 C 
HETATM   10  C7  UNL     1      -3.397   1.087   0.831  1.00  0.00     0.045 C 
HETATM   11  C6  UNL     1      -4.105   0.006   1.611  1.00  0.00     0.086 C 
HETATM   12  C23 UNL     1      -3.112  -0.864   2.314  1.00  0.00     0.045 C 
HETATM   13  C22 UNL     1      -1.680  -0.411   2.180  1.00  0.00     0.126 C 
BRANCH  11  14
HETATM   14  N2  UNL     1      -5.036  -0.764   0.824  1.00  0.00    -0.366 N 
ATOM     15  H2  UNL     1      -4.822  -1.742   0.628  1.00  0.00     0.162 HD
BRANCH  14  16
HETATM   16  C5  UNL     1      -6.240  -0.212   0.311  1.00  0.00     0.144 A 
HETATM   17  C4  UNL     1      -6.705   1.064   0.514  1.00  0.00     0.059 A 
HETATM   18  C3  UNL     1      -7.895   1.173  -0.159  1.00  0.00     0.047 A 
HETATM   19  C2  UNL     1      -8.125  -0.045  -0.756  1.00  0.00     0.142 A 
HETATM   20  O3  UNL     1      -7.132  -0.818  -0.452  1.00  0.00    -0.289 OA
BRANCH  19  21
HETATM   21  C1  UNL     1      -9.293  -0.389  -1.586  1.00  0.00     0.288 C 
HETATM   22  N1  UNL     1      -9.377  -1.698  -2.131  1.00  0.00    -0.055 NA
HETATM   23  O1  UNL     1     -10.180   0.472  -1.792  1.00  0.00    -0.269 OA
ENDBRANCH  19  21
ENDBRANCH  14  16
ENDBRANCH  11  14
ENDBRANCH   1   8
BRANCH   5  24
HETATM   24  C21 UNL     1       3.109  -1.859   1.601  1.00  0.00     0.433 C 
HETATM   25  F1  UNL     1       2.433  -2.022   2.824  1.00  0.00    -0.165 F 
HETATM   26  F2  UNL     1       3.539  -3.109   1.201  1.00  0.00    -0.165 F 
HETATM   27  F3  UNL     1       4.211  -1.081   1.853  1.00  0.00    -0.165 F 
ENDBRANCH   5  24
BRANCH   4  28
HETATM   28  C13 UNL     1       3.868  -1.188  -1.138  1.00  0.00     0.256 C 
HETATM   29  O2  UNL     1       4.189  -2.332  -1.518  1.00  0.00    -0.267 OA
HETATM   30  N4  UNL     1       4.822  -0.153  -1.212  1.00  0.00    -0.348 N 
HETATM   31  C14 UNL     1       6.160  -0.514  -1.717  1.00  0.00     0.126 C 
HETATM   32  C19 UNL     1       4.492   1.204  -0.846  1.00  0.00     0.126 C 
HETATM   33  C15 UNL     1       7.128  -0.325  -0.576  1.00  0.00     0.020 C 
HETATM   34  C16 UNL     1       7.795   1.025  -0.714  1.00  0.00     0.002 C 
HETATM   35  C17 UNL     1       6.810   2.155  -0.721  1.00  0.00     0.002 C 
HETATM   36  C18 UNL     1       5.537   1.853   0.028  1.00  0.00     0.020 C 
ENDBRANCH   4  28
TORSDOF 6
