REMARK  6 active torsions:
REMARK  status: ('A' for Active; 'I' for Inactive)
REMARK    1  A    between atoms: C2_2  and  C4_5 
REMARK    2  A    between atoms: C4_5  and  N3_9 
REMARK    3  A    between atoms: N3_9  and  C5_11 
REMARK    4  A    between atoms: C5_11  and  C6_12 
REMARK    5  A    between atoms: C5_11  and  C7_14 
REMARK    6  A    between atoms: C10_17  and  C11_18 
ROOT
HETATM    1  C1  UNL     1       3.517   1.389   1.458  1.00  0.00     0.033 C 
HETATM    2  C2  UNL     1       3.036   0.140   0.792  1.00  0.00     0.155 C 
HETATM    3  C3  UNL     1       4.196  -0.700   0.417  1.00  0.00     0.071 C 
HETATM    4  N1  UNL     1       5.110  -1.343   0.123  1.00  0.00    -0.196 NA
ENDROOT
BRANCH   2   5
HETATM    5  C4  UNL     1       2.260   0.389  -0.434  1.00  0.00     0.089 C 
HETATM    6  N2  UNL     1       2.062   1.588  -0.822  1.00  0.00    -0.388 N 
ATOM      7  H22 UNL     1       2.439   2.371  -0.288  1.00  0.00     0.157 HD
ATOM      8  H21 UNL     1       1.524   1.761  -1.671  1.00  0.00     0.157 HD
BRANCH   5   9
HETATM    9  N3  UNL     1       1.740  -0.693  -1.171  1.00  0.00    -0.364 N 
ATOM     10  H3  UNL     1       2.125  -0.874  -2.098  1.00  0.00     0.162 HD
BRANCH   9  11
HETATM   11  C5  UNL     1       0.699  -1.554  -0.690  1.00  0.00     0.177 C 
BRANCH  11  12
HETATM   12  C6  UNL     1       0.370  -2.594  -1.689  1.00  0.00     0.261 C 
HETATM   13  O1  UNL     1       0.984  -2.596  -2.742  1.00  0.00    -0.304 OA
ENDBRANCH  11  12
BRANCH  11  14
HETATM   14  C7  UNL     1      -0.568  -0.800  -0.426  1.00  0.00    -0.029 A 
HETATM   15  C8  UNL     1      -1.056   0.129  -1.323  1.00  0.00     0.011 A 
HETATM   16  C9  UNL     1      -2.222   0.825  -1.084  1.00  0.00     0.017 A 
HETATM   17  C10 UNL     1      -2.959   0.620   0.075  1.00  0.00     0.029 A 
HETATM   18  C12 UNL     1      -2.463  -0.309   0.962  1.00  0.00     0.017 A 
HETATM   19  C13 UNL     1      -1.296  -1.007   0.726  1.00  0.00     0.011 A 
BRANCH  17  20
HETATM   20  C11 UNL     1      -4.192   1.344   0.346  1.00  0.00     0.264 C 
HETATM   21  N4  UNL     1      -4.877   1.069   1.555  1.00  0.00    -0.057 NA
HETATM   22  O2  UNL     1      -4.680   2.193  -0.428  1.00  0.00    -0.271 OA
ENDBRANCH  17  20
ENDBRANCH  11  14
ENDBRANCH   9  11
ENDBRANCH   5   9
ENDBRANCH   2   5
TORSDOF 6
