REMARK  14 active torsions:
REMARK  status: ('A' for Active; 'I' for Inactive)
REMARK    1  A    between atoms: C2_2  and  C3_3 
REMARK    2  A    between atoms: C3_3  and  C4_4 
REMARK    3  A    between atoms: C6_9  and  C7_10 
REMARK    4  A    between atoms: C7_10  and  C8_11 
REMARK    5  A    between atoms: C8_11  and  C9_12 
REMARK    6  A    between atoms: C9_12  and  C10_13 
REMARK    7  A    between atoms: C10_13  and  C11_14 
REMARK    8  A    between atoms: C11_14  and  C12_15 
REMARK    9  A    between atoms: C12_15  and  C13_17 
REMARK   10  A    between atoms: C13_17  and  C14_18 
REMARK   11  A    between atoms: C14_18  and  C15_19 
REMARK   12  A    between atoms: C15_19  and  O4_21 
REMARK   13  A    between atoms: C20_32  and  C21_33 
REMARK   14  A    between atoms: C21_33  and  O8_35 
ROOT
HETATM    1  C4  UNL     1      -2.045  -1.672   0.622  1.00  0.00     0.092 C 
HETATM    2  C5  UNL     1      -2.030  -1.112  -0.707  1.00  0.00     0.223 C 
HETATM    3  O1  UNL     1      -2.903  -1.597  -1.500  1.00  0.00    -0.273 OA
HETATM    4  N1  UNL     1      -1.225  -0.117  -1.308  1.00  0.00    -0.347 N 
ATOM      5  H1  UNL     1      -1.430   0.081  -2.287  1.00  0.00     0.163 HD
HETATM    6  C6  UNL     1      -0.164   0.650  -0.735  1.00  0.00     0.176 C 
HETATM    7  C17 UNL     1      -0.572   1.855   0.022  1.00  0.00     0.240 C 
HETATM    8  O5  UNL     1      -0.513   1.764   1.303  1.00  0.00    -0.271 OA
HETATM    9  N2  UNL     1      -1.006   3.068  -0.496  1.00  0.00    -0.351 N 
ATOM     10  H2  UNL     1      -0.551   3.897  -0.114  1.00  0.00     0.163 HD
HETATM   11  C18 UNL     1      -2.015   3.317  -1.503  1.00  0.00     0.225 C 
HETATM   12  C19 UNL     1      -3.100   4.147  -0.879  1.00  0.00     0.236 C 
HETATM   13  O6  UNL     1      -3.100   5.365  -1.221  1.00  0.00    -0.272 OA
HETATM   14  N3  UNL     1      -4.048   3.608   0.022  1.00  0.00    -0.346 N 
ATOM     15  H3  UNL     1      -4.356   4.165   0.819  1.00  0.00     0.163 HD
HETATM   16  C20 UNL     1      -4.575   2.309  -0.165  1.00  0.00     0.185 C 
HETATM   17  C23 UNL     1      -5.145   1.639   1.037  1.00  0.00     0.051 C 
HETATM   18  C24 UNL     1      -4.065   1.140   1.994  1.00  0.00     0.051 C 
HETATM   19  C25 UNL     1      -3.697   2.154   3.002  1.00  0.00     0.022 C 
HETATM   20  C26 UNL     1      -3.569  -0.090   1.856  1.00  0.00    -0.173 C 
HETATM   21  C27 UNL     1      -3.272  -1.357   1.466  1.00  0.00     0.061 C 
HETATM   22  C28 UNL     1      -3.442  -2.424   2.587  1.00  0.00     0.023 C 
ENDROOT
BRANCH   6  23
HETATM   23  C7  UNL     1       0.873   0.988  -1.810  1.00  0.00     0.035 C 
BRANCH  23  24
HETATM   24  C8  UNL     1       2.010   1.797  -1.363  1.00  0.00     0.002 C 
BRANCH  24  25
HETATM   25  C9  UNL     1       2.859   1.236  -0.267  1.00  0.00     0.000 C 
BRANCH  25  26
HETATM   26  C10 UNL     1       3.460  -0.091  -0.700  1.00  0.00     0.007 C 
BRANCH  26  27
HETATM   27  C11 UNL     1       4.334  -0.609   0.432  1.00  0.00     0.078 C 
BRANCH  27  28
HETATM   28  C12 UNL     1       4.965  -1.925   0.087  1.00  0.00     0.127 C 
HETATM   29  O2  UNL     1       4.636  -2.450  -0.957  1.00  0.00    -0.298 OA
BRANCH  28  30
HETATM   30  C13 UNL     1       5.936  -2.487   1.034  1.00  0.00     0.088 C 
BRANCH  30  31
HETATM   31  C14 UNL     1       7.274  -1.812   1.044  1.00  0.00     0.118 C 
BRANCH  31  32
HETATM   32  C15 UNL     1       7.967  -1.870  -0.261  1.00  0.00     0.258 C 
HETATM   33  O3  UNL     1       7.447  -2.492  -1.208  1.00  0.00    -0.265 OA
BRANCH  32  34
HETATM   34  O4  UNL     1       9.202  -1.215  -0.395  1.00  0.00    -0.326 OA
HETATM   35  C16 UNL     1       9.843  -1.294  -1.675  1.00  0.00     0.213 C 
ENDBRANCH  32  34
ENDBRANCH  31  32
ENDBRANCH  30  31
ENDBRANCH  28  30
ENDBRANCH  27  28
ENDBRANCH  26  27
ENDBRANCH  25  26
ENDBRANCH  24  25
ENDBRANCH  23  24
ENDBRANCH   6  23
BRANCH   1  36
HETATM   36  C3  UNL     1      -1.803  -3.154   0.707  1.00  0.00     0.015 C 
BRANCH  36  37
HETATM   37  C2  UNL     1      -0.474  -3.607   0.135  1.00  0.00    -0.004 C 
HETATM   38  C1  UNL     1       0.684  -2.970   0.874  1.00  0.00     0.005 C 
ENDBRANCH  36  37
ENDBRANCH   1  36
BRANCH  16  39
HETATM   39  C21 UNL     1      -5.506   2.317  -1.317  1.00  0.00     0.281 C 
HETATM   40  O7  UNL     1      -5.690   3.416  -1.917  1.00  0.00    -0.263 OA
BRANCH  39  41
HETATM   41  O8  UNL     1      -6.141   1.174  -1.714  1.00  0.00    -0.325 OA
HETATM   42  C22 UNL     1      -7.016   1.289  -2.834  1.00  0.00     0.213 C 
ENDBRANCH  39  41
ENDBRANCH  16  39
TORSDOF 14
