REMARK  8 active torsions:
REMARK  status: ('A' for Active; 'I' for Inactive)
REMARK    1  A    between atoms: C2_2  and  C4_4 
REMARK    2  A    between atoms: C4_4  and  N1_5 
REMARK    3  A    between atoms: C4_4  and  C15_22 
REMARK       I    between atoms: N1_5  and  C5_7 
REMARK    4  A    between atoms: C5_7  and  C6_9 
REMARK    5  A    between atoms: C6_9  and  N2_10 
REMARK       I    between atoms: N2_10  and  C7_12 
REMARK    6  A    between atoms: C7_12  and  O3_14 
REMARK    7  A    between atoms: O3_14  and  C8_15 
REMARK       I    between atoms: C15_22  and  N3_24 
REMARK    8  A    between atoms: C19_28  and  C20_29 
ROOT
HETATM    1  N1  UNL     1       0.544  -0.508   0.543  1.00  0.00    -0.345 N 
ATOM      2  H1  UNL     1       0.383  -1.515   0.548  1.00  0.00     0.163 HD
HETATM    3  C5  UNL     1      -0.495   0.340   0.112  1.00  0.00     0.247 C 
HETATM    4  O1  UNL     1      -0.248   1.594   0.114  1.00  0.00    -0.271 OA
ENDROOT
BRANCH   1   5
HETATM    5  C4  UNL     1       1.838  -0.007   0.981  1.00  0.00     0.180 C 
BRANCH   5   6
HETATM    6  C2  UNL     1       2.083  -0.452   2.418  1.00  0.00     0.009 C 
HETATM    7  C1  UNL     1       2.062  -1.981   2.500  1.00  0.00     0.012 C 
HETATM    8  C3  UNL     1       0.992   0.040   3.340  1.00  0.00     0.012 C 
ENDBRANCH   5   6
BRANCH   5   9
HETATM    9  C15 UNL     1       2.958  -0.485   0.100  1.00  0.00     0.243 C 
HETATM   10  O4  UNL     1       2.631  -1.444  -0.645  1.00  0.00    -0.271 OA
HETATM   11  N3  UNL     1       4.230   0.089   0.118  1.00  0.00    -0.337 N 
HETATM   12  C16 UNL     1       4.526   1.292   0.927  1.00  0.00     0.127 C 
HETATM   13  C19 UNL     1       5.441  -0.220  -0.516  1.00  0.00     0.176 C 
HETATM   14  C17 UNL     1       5.801   0.861   1.605  1.00  0.00     0.022 C 
HETATM   15  C18 UNL     1       6.448  -0.116   0.686  1.00  0.00     0.036 C 
BRANCH  13  16
HETATM   16  C20 UNL     1       5.674  -1.527  -1.113  1.00  0.00     0.254 C 
HETATM   17  N4  UNL     1       6.815  -1.647  -2.023  1.00  0.00    -0.060 NA
HETATM   18  O5  UNL     1       5.019  -2.550  -0.942  1.00  0.00    -0.275 OA
ENDBRANCH  13  16
ENDBRANCH   5   9
ENDBRANCH   1   5
BRANCH   3  19
HETATM   19  C6  UNL     1      -1.841  -0.112  -0.334  1.00  0.00     0.119 A 
HETATM   20  C12 UNL     1      -2.274  -1.517   0.050  1.00  0.00     0.048 A 
HETATM   21  C13 UNL     1      -1.946  -1.193  -1.355  1.00  0.00     0.022 A 
HETATM   22  C14 UNL     1      -0.712  -1.873  -1.911  1.00  0.00     0.013 C 
BRANCH  19  23
HETATM   23  N2  UNL     1      -2.850   0.929  -0.402  1.00  0.00    -0.318 N 
HETATM   24  C7  UNL     1      -4.197   0.741  -0.752  1.00  0.00     0.362 C 
HETATM   25  O2  UNL     1      -4.750  -0.346  -1.054  1.00  0.00    -0.238 OA
ATOM     26  H2  UNL     1      -2.555   1.879  -0.176  1.00  0.00     0.166 HD
BRANCH  24  27
HETATM   27  O3  UNL     1      -5.037   1.863  -0.777  1.00  0.00    -0.294 OA
BRANCH  27  28
HETATM   28  C8  UNL     1      -6.418   1.750  -1.122  1.00  0.00     0.061 C 
HETATM   29  C9  UNL     1      -7.058   0.835  -0.131  1.00  0.00     0.046 C 
HETATM   30  C10 UNL     1      -6.976   3.154  -1.110  1.00  0.00     0.046 C 
HETATM   31  C11 UNL     1      -6.509   1.177  -2.542  1.00  0.00     0.046 C 
ENDBRANCH  27  28
ENDBRANCH  24  27
ENDBRANCH  19  23
ENDBRANCH   3  19
TORSDOF 8
