REMARK  7 active torsions:
REMARK  status: ('A' for Active; 'I' for Inactive)
REMARK    1  A    between atoms: N2_5  and  C4_6 
REMARK    2  A    between atoms: C4_6  and  C5_7 
REMARK    3  A    between atoms: C5_7  and  C6_8 
REMARK    4  A    between atoms: C6_8  and  C7_9 
REMARK    5  A    between atoms: C7_9  and  N3_10 
REMARK       I    between atoms: N3_10  and  C8_12 
REMARK       I    between atoms: C8_12  and  N5_16 
REMARK    6  A    between atoms: C11_19  and  O1_20 
REMARK    7  A    between atoms: C11_19  and  C12_22 
REMARK       I    between atoms: C12_22  and  N6_24 
ROOT
HETATM    1  N3  UNL     1       0.509   0.532   1.434  1.00  0.00    -0.227 N 
ATOM      2  H3  UNL     1       0.064   0.133   2.261  1.00  0.00     0.177 HD
HETATM    3  C8  UNL     1      -0.257   0.723   0.267  1.00  0.00     0.669 C 
HETATM    4  N4  UNL     1       0.120   1.485  -0.674  1.00  0.00    -0.235 N 
ATOM      5  H41 UNL     1      -0.435   1.623  -1.519  1.00  0.00     0.174 HD
ATOM      6  H42 UNL     1       1.010   1.975  -0.584  1.00  0.00     0.174 HD
HETATM    7  N5  UNL     1      -1.496   0.041   0.142  1.00  0.00    -0.218 N 
HETATM    8  C9  UNL     1      -1.736  -0.733  -1.028  1.00  0.00     0.144 C 
HETATM    9  C10 UNL     1      -3.121  -1.202  -1.260  1.00  0.00     0.068 C 
HETATM   10  C11 UNL     1      -4.107  -0.541  -0.311  1.00  0.00     0.141 C 
HETATM   11  C18 UNL     1      -3.529  -0.793   1.083  1.00  0.00     0.068 C 
HETATM   12  C19 UNL     1      -2.416   0.212   1.258  1.00  0.00     0.144 C 
ENDROOT
BRANCH   1  13
HETATM   13  C7  UNL     1       1.916   0.889   1.490  1.00  0.00     0.138 C 
BRANCH  13  14
HETATM   14  C6  UNL     1       2.660  -0.062   0.575  1.00  0.00     0.022 C 
BRANCH  14  15
HETATM   15  C5  UNL     1       4.150   0.295   0.616  1.00  0.00     0.032 C 
BRANCH  15  16
HETATM   16  C4  UNL     1       4.842  -0.689  -0.318  1.00  0.00     0.272 C 
BRANCH  16  17
HETATM   17  N2  UNL     1       6.255  -0.413  -0.330  1.00  0.00     0.091 N 
HETATM   18  C3  UNL     1       6.940  -1.323  -1.197  1.00  0.00     0.302 C 
HETATM   19  C2  UNL     1       8.312  -0.738  -1.490  1.00  0.00     0.302 C 
HETATM   20  N1  UNL     1       8.721   0.135  -0.434  1.00  0.00     0.087 N 
HETATM   21  C1  UNL     1       8.475   1.524  -0.660  1.00  0.00     0.310 C 
HETATM   22  C21 UNL     1       8.332  -0.348   0.854  1.00  0.00     0.302 C 
HETATM   23  C20 UNL     1       6.819  -0.339   0.990  1.00  0.00     0.302 C 
ENDBRANCH  16  17
ENDBRANCH  15  16
ENDBRANCH  14  15
ENDBRANCH  13  14
ENDBRANCH   1  13
BRANCH  10  24
HETATM   24  O1  UNL     1      -4.011   0.821  -0.516  1.00  0.00    -0.380 OA
ATOM     25  H1  UNL     1      -4.627   1.234   0.077  1.00  0.00     0.211 HD
ENDBRANCH  10  24
BRANCH  10  26
HETATM   26  C12 UNL     1      -5.447  -1.055  -0.458  1.00  0.00     0.254 C 
HETATM   27  O2  UNL     1      -5.605  -2.308  -0.177  1.00  0.00    -0.270 OA
HETATM   28  N6  UNL     1      -6.609  -0.390  -0.862  1.00  0.00    -0.350 N 
HETATM   29  C13 UNL     1      -6.745   0.986  -1.276  1.00  0.00     0.126 C 
HETATM   30  C17 UNL     1      -7.918  -1.112  -0.868  1.00  0.00     0.126 C 
HETATM   31  C14 UNL     1      -7.276   1.728  -0.056  1.00  0.00     0.020 C 
HETATM   32  C15 UNL     1      -8.415   0.922   0.544  1.00  0.00     0.003 C 
HETATM   33  C16 UNL     1      -8.962  -0.116  -0.403  1.00  0.00     0.020 C 
ENDBRANCH  10  26
TORSDOF 7
