REMARK  10 active torsions:
REMARK  status: ('A' for Active; 'I' for Inactive)
REMARK    1  A    between atoms: N1_2  and  C2_3 
REMARK       I    between atoms: N1_2  and  C15_23 
REMARK    2  A    between atoms: C2_3  and  C3_4 
REMARK    3  A    between atoms: C3_4  and  O1_5 
REMARK    4  A    between atoms: C3_4  and  C4_7 
REMARK    5  A    between atoms: C4_7  and  N2_8 
REMARK    6  A    between atoms: N3_11  and  C7_12 
REMARK    7  A    between atoms: C11_18  and  C12_19 
REMARK    8  A    between atoms: C15_23  and  C16_25 
REMARK    9  A    between atoms: C16_25  and  N5_26 
REMARK   10  A    between atoms: C18_30  and  N7_31 
ROOT
HETATM    1  C3  UNL     1      -0.824   1.209  -0.698  1.00  0.00     0.164 C 
ENDROOT
BRANCH   1   2
HETATM    2  C2  UNL     1      -1.740  -0.007  -0.594  1.00  0.00     0.158 C 
BRANCH   2   3
HETATM    3  N1  UNL     1      -2.715   0.291   0.430  1.00  0.00    -0.352 N 
HETATM    4  C1  UNL     1      -2.438  -0.048   1.798  1.00  0.00     0.152 C 
HETATM    5  C15 UNL     1      -3.938   0.921   0.085  1.00  0.00     0.240 C 
HETATM    6  O3  UNL     1      -4.178   1.201  -1.136  1.00  0.00    -0.271 OA
BRANCH   5   7
HETATM    7  C16 UNL     1      -4.973   1.285   1.050  1.00  0.00     0.272 C 
BRANCH   7   8
HETATM    8  N5  UNL     1      -6.239   0.679   0.692  1.00  0.00    -0.224 N 
HETATM    9  N6  UNL     1      -7.171   1.200  -0.095  1.00  0.00    -0.291 N 
HETATM   10  C17 UNL     1      -8.208   0.345  -0.181  1.00  0.00     0.165 A 
ATOM     11  H6  UNL     1      -7.112   2.105  -0.561  1.00  0.00     0.188 HD
HETATM   12  C18 UNL     1      -7.894  -0.747   0.588  1.00  0.00     0.206 A 
HETATM   13  N8  UNL     1      -6.682  -0.494   1.100  1.00  0.00    -0.262 N 
ATOM     14  H8  UNL     1      -6.172  -1.123   1.720  1.00  0.00     0.190 HD
BRANCH  12  15
HETATM   15  N7  UNL     1      -8.677  -1.905   0.808  1.00  0.00    -0.095 N 
HETATM   16  O4  UNL     1      -9.790  -2.058   0.290  1.00  0.00    -0.530 OA
HETATM   17  O5  UNL     1      -8.190  -2.893   1.623  1.00  0.00    -0.530 OA
ENDBRANCH  12  15
ENDBRANCH   7   8
ENDBRANCH   5   7
ENDBRANCH   2   3
ENDBRANCH   1   2
BRANCH   1  18
HETATM   18  O1  UNL     1      -1.551   2.320  -1.046  1.00  0.00    -0.392 OA
ATOM     19  H1  UNL     1      -0.981   3.077  -1.111  1.00  0.00     0.210 HD
ENDBRANCH   1  18
BRANCH   1  20
HETATM   20  C4  UNL     1       0.377   0.947  -1.578  1.00  0.00     0.305 C 
BRANCH  20  21
HETATM   21  N2  UNL     1       1.035  -0.246  -1.062  1.00  0.00     0.094 N 
HETATM   22  C5  UNL     1       1.614   0.014   0.246  1.00  0.00     0.292 C 
HETATM   23  C6  UNL     1       2.714  -0.988   0.452  1.00  0.00     0.154 C 
HETATM   24  N3  UNL     1       3.846  -0.491  -0.388  1.00  0.00    -0.363 N 
HETATM   25  C13 UNL     1       3.407  -0.106  -1.684  1.00  0.00     0.154 C 
HETATM   26  C14 UNL     1       2.029  -0.740  -1.993  1.00  0.00     0.292 C 
BRANCH  24  27
HETATM   27  C7  UNL     1       5.107  -0.523   0.211  1.00  0.00     0.116 A 
HETATM   28  N4  UNL     1       5.264  -1.335   1.319  1.00  0.00    -0.352 N 
HETATM   29  C8  UNL     1       6.416  -1.489   1.970  1.00  0.00     0.089 A 
ATOM     30  H4  UNL     1       4.449  -1.847   1.658  1.00  0.00     0.166 HD
HETATM   31  C9  UNL     1       7.566  -0.840   1.585  1.00  0.00     0.018 A 
HETATM   32  C10 UNL     1       7.454  -0.019   0.484  1.00  0.00     0.020 A 
HETATM   33  C11 UNL     1       6.240   0.138  -0.194  1.00  0.00     0.045 A 
BRANCH  33  34
HETATM   34  C12 UNL     1       6.224   1.053  -1.305  1.00  0.00     0.273 C 
HETATM   35  O2  UNL     1       7.356   1.597  -1.613  1.00  0.00    -0.301 OA
ENDBRANCH  33  34
ENDBRANCH  24  27
ENDBRANCH  20  21
ENDBRANCH   1  20
TORSDOF 10
