REMARK  11 active torsions:
REMARK  status: ('A' for Active; 'I' for Inactive)
REMARK    1  A    between atoms: C3_4  and  N2_5 
REMARK    2  A    between atoms: N2_5  and  C4_7 
REMARK    3  A    between atoms: C4_7  and  C5_8 
REMARK    4  A    between atoms: C5_8  and  N3_9 
REMARK    5  A    between atoms: N3_9  and  C6_11 
REMARK    6  A    between atoms: C7_14  and  N5_15 
REMARK    7  A    between atoms: N5_15  and  C8_17 
REMARK    8  A    between atoms: C8_17  and  C9_18 
REMARK    9  A    between atoms: C9_18  and  C10_19 
REMARK   10  A    between atoms: C10_19  and  N6_20 
REMARK   11  A    between atoms: C10_19  and  N7_24 
ROOT
HETATM    1  C6  UNL     1       0.159  -1.322   0.078  1.00  0.00     0.187 A 
HETATM    2  N4  UNL     1      -0.593  -0.219   0.166  1.00  0.00    -0.170 N 
ATOM      3  H4  UNL     1      -0.178   0.628   0.554  1.00  0.00     0.186 HD
HETATM    4  C7  UNL     1      -1.897  -0.184  -0.244  1.00  0.00     0.694 A 
HETATM    5  N8  UNL     1      -2.382  -1.334  -0.744  1.00  0.00    -0.129 N 
ATOM      6  H8  UNL     1      -3.351  -1.354  -1.062  1.00  0.00     0.205 HD
HETATM    7  N9  UNL     1      -1.665  -2.439  -0.844  1.00  0.00    -0.249 N 
ATOM      8  H9  UNL     1      -2.089  -3.281  -1.233  1.00  0.00     0.191 HD
HETATM    9  C11 UNL     1      -0.393  -2.466  -0.442  1.00  0.00     0.304 A 
HETATM   10  O1  UNL     1       0.320  -3.522  -0.528  1.00  0.00    -0.263 OA
ENDROOT
BRANCH   1  11
HETATM   11  N3  UNL     1       1.392  -1.365   0.463  1.00  0.00    -0.370 N 
ATOM     12  H3  UNL     1       1.912  -2.238   0.370  1.00  0.00     0.161 HD
BRANCH  11  13
HETATM   13  C5  UNL     1       2.059  -0.196   1.027  1.00  0.00     0.141 C 
BRANCH  13  14
HETATM   14  C4  UNL     1       3.221  -0.754   1.851  1.00  0.00     0.141 C 
BRANCH  14  15
HETATM   15  N2  UNL     1       4.070  -1.485   0.960  1.00  0.00    -0.375 N 
ATOM     16  H2  UNL     1       3.965  -2.497   0.893  1.00  0.00     0.161 HD
BRANCH  15  17
HETATM   17  C3  UNL     1       4.958  -0.902   0.244  1.00  0.00     0.104 A 
HETATM   18  C2  UNL     1       5.224   0.447   0.217  1.00  0.00     0.093 A 
HETATM   19  C1  UNL     1       6.206   1.016  -0.587  1.00  0.00     0.120 A 
HETATM   20  N1  UNL     1       6.451   2.402  -0.589  1.00  0.00    -0.083 NA
HETATM   21  N11 UNL     1       6.939   0.224  -1.381  1.00  0.00    -0.341 N 
HETATM   22  C12 UNL     1       6.680  -1.110  -1.358  1.00  0.00     0.183 A 
ATOM     23  H11 UNL     1       7.667   0.609  -1.983  1.00  0.00     0.167 HD
HETATM   24  N10 UNL     1       5.739  -1.665  -0.589  1.00  0.00    -0.339 N 
ATOM     25  H10 UNL     1       5.598  -2.675  -0.621  1.00  0.00     0.168 HD
ENDBRANCH  15  17
ENDBRANCH  14  15
ENDBRANCH  13  14
ENDBRANCH  11  13
ENDBRANCH   1  11
BRANCH   4  26
HETATM   26  N5  UNL     1      -2.581   0.901  -0.141  1.00  0.00    -0.225 N 
ATOM     27  H5  UNL     1      -2.119   1.721   0.252  1.00  0.00     0.177 HD
BRANCH  26  28
HETATM   28  C8  UNL     1      -3.954   1.030  -0.544  1.00  0.00     0.142 C 
BRANCH  28  29
HETATM   29  C9  UNL     1      -4.915   0.558   0.525  1.00  0.00     0.082 C 
BRANCH  29  30
HETATM   30  C10 UNL     1      -6.346   0.692   0.100  1.00  0.00     0.379 C 
BRANCH  30  31
HETATM   31  N6  UNL     1      -7.191   0.218   1.180  1.00  0.00    -0.050 N 
ATOM     32  H63 UNL     1      -6.956  -0.730   1.474  1.00  0.00     0.276 HD
ATOM     33  H62 UNL     1      -6.999   0.689   2.064  1.00  0.00     0.276 HD
ATOM     34  H61 UNL     1      -8.165   0.309   0.891  1.00  0.00     0.276 HD
ENDBRANCH  30  31
BRANCH  30  35
HETATM   35  N7  UNL     1      -6.706   2.076  -0.138  1.00  0.00    -0.050 N 
ATOM     36  H73 UNL     1      -6.503   2.658   0.674  1.00  0.00     0.276 HD
ATOM     37  H72 UNL     1      -6.076   2.514  -0.809  1.00  0.00     0.276 HD
ATOM     38  H71 UNL     1      -7.680   2.167  -0.427  1.00  0.00     0.276 HD
ENDBRANCH  30  35
ENDBRANCH  29  30
ENDBRANCH  28  29
ENDBRANCH  26  28
ENDBRANCH   4  26
TORSDOF 11
