REMARK  8 active torsions:
REMARK  status: ('A' for Active; 'I' for Inactive)
REMARK    1  A    between atoms: C7_7  and  C8_8 
REMARK    2  A    between atoms: C8_8  and  C9_9 
REMARK    3  A    between atoms: C9_9  and  C10_10 
REMARK    4  A    between atoms: C10_10  and  C11_11 
REMARK    5  A    between atoms: C11_11  and  C12_12 
REMARK    6  A    between atoms: C17_20  and  C18_21 
REMARK    7  A    between atoms: C18_21  and  O1_24 
REMARK    8  A    between atoms: C23_30  and  C24_31 
ROOT
HETATM    1  C1  UNL     1      -4.486   5.450   1.586  1.00  0.00     0.018 C 
HETATM    2  C2  UNL     1      -4.268   4.330   1.193  1.00  0.00    -0.077 C 
HETATM    3  C3  UNL     1      -3.997   2.996   0.740  1.00  0.00     0.028 A 
HETATM    4  C4  UNL     1      -2.918   2.320   1.273  1.00  0.00     0.035 A 
HETATM    5  C5  UNL     1      -2.593   1.041   0.892  1.00  0.00    -0.007 A 
HETATM    6  C6  UNL     1      -1.539   0.329   1.382  1.00  0.00     0.023 A 
HETATM    7  C7  UNL     1      -1.236  -0.983   0.962  1.00  0.00    -0.032 A 
HETATM    8  C17 UNL     1      -2.024  -1.578   0.030  1.00  0.00     0.050 A 
HETATM    9  N2  UNL     1      -3.073  -0.829  -0.440  1.00  0.00    -0.356 N 
ATOM     10  H2  UNL     1      -3.673  -1.261  -1.143  1.00  0.00     0.166 HD
HETATM   11  C21 UNL     1      -3.374   0.395  -0.066  1.00  0.00     0.043 A 
HETATM   12  C22 UNL     1      -4.447   1.086  -0.587  1.00  0.00     0.043 A 
HETATM   13  C23 UNL     1      -4.776   2.368  -0.207  1.00  0.00     0.016 A 
ENDROOT
BRANCH  13  14
HETATM   14  C24 UNL     1      -5.945   3.086  -0.801  1.00  0.00     0.217 C 
HETATM   15 CL1  UNL     1      -7.119   3.550   0.429  1.00  0.00    -0.078 Cl
HETATM   16 CL2  UNL     1      -6.774   1.933  -1.905  1.00  0.00    -0.078 Cl
HETATM   17 CL3  UNL     1      -5.391   4.452  -1.782  1.00  0.00    -0.078 Cl
ENDBRANCH  13  14
BRANCH   7  18
HETATM   18  C8  UNL     1      -0.034  -1.539   1.534  1.00  0.00     0.040 C 
BRANCH  18  19
HETATM   19  C9  UNL     1       1.177  -1.052   0.699  1.00  0.00     0.005 C 
BRANCH  19  20
HETATM   20  C10 UNL     1       2.367  -1.682   1.306  1.00  0.00     0.002 C 
BRANCH  20  21
HETATM   21  C11 UNL     1       3.650  -1.433   0.635  1.00  0.00     0.033 C 
BRANCH  21  22
HETATM   22  C12 UNL     1       4.090  -0.009   0.566  1.00  0.00     0.185 C 
HETATM   23  C13 UNL     1       5.462  -0.051  -0.134  1.00  0.00     0.033 C 
HETATM   24  C14 UNL     1       5.942   1.295  -0.562  1.00  0.00     0.004 C 
HETATM   25  C15 UNL     1       4.858   2.148  -1.200  1.00  0.00     0.027 C 
HETATM   26  C16 UNL     1       3.720   1.161  -1.506  1.00  0.00     0.232 C 
HETATM   27  N1  UNL     1       3.174   0.770  -0.215  1.00  0.00    -0.071 N 
ATOM     28  H12 UNL     1       2.285   0.283  -0.328  1.00  0.00     0.277 HD
ATOM     29  H11 UNL     1       2.852   1.585   0.307  1.00  0.00     0.277 HD
ENDBRANCH  21  22
ENDBRANCH  20  21
ENDBRANCH  19  20
ENDBRANCH  18  19
ENDBRANCH   7  18
BRANCH   8  30
HETATM   30  C18 UNL     1      -1.802  -2.953  -0.396  1.00  0.00     0.093 C 
HETATM   31  C19 UNL     1      -3.132  -3.330  -1.147  1.00  0.00     0.052 C 
HETATM   32  C20 UNL     1      -0.762  -3.251  -1.396  1.00  0.00     0.052 C 
BRANCH  30  33
HETATM   33  O1  UNL     1      -1.874  -3.868   0.678  1.00  0.00    -0.384 OA
ATOM     34  H1  UNL     1      -1.729  -4.765   0.400  1.00  0.00     0.211 HD
ENDBRANCH  30  33
ENDBRANCH   8  30
TORSDOF 8
