REMARK  8 active torsions:
REMARK  status: ('A' for Active; 'I' for Inactive)
REMARK    1  A    between atoms: C2_2  and  C3_3 
REMARK    2  A    between atoms: N1_5  and  C5_6 
REMARK    3  A    between atoms: C6_8  and  C7_9 
REMARK       I    between atoms: C7_9  and  N2_11 
REMARK    4  A    between atoms: N2_11  and  C8_13 
REMARK    5  A    between atoms: C8_13  and  C9_14 
REMARK    6  A    between atoms: C8_13  and  C12_19 
REMARK    7  A    between atoms: C9_14  and  C10_15 
REMARK    8  A    between atoms: C10_15  and  C11_16 
ROOT
HETATM    1  C5  UNL     1      -1.243   0.177   0.122  1.00  0.00     0.112 A 
HETATM    2  S1  UNL     1      -0.076   1.189  -0.621  1.00  0.00    -0.046 SA
HETATM    3  C6  UNL     1       1.249   0.109  -0.606  1.00  0.00     0.145 A 
HETATM    4  N3  UNL     1       0.730  -0.960  -0.037  1.00  0.00    -0.335 N 
ATOM      5  H3  UNL     1       1.304  -1.790   0.109  1.00  0.00     0.167 HD
HETATM    6  C13 UNL     1      -0.529  -0.956   0.343  1.00  0.00     0.149 A 
HETATM    7  C14 UNL     1      -1.092  -2.160   0.987  1.00  0.00     0.120 C 
HETATM    8  N4  UNL     1      -1.507  -3.120   1.496  1.00  0.00    -0.190 NA
ENDROOT
BRANCH   1   9
HETATM    9  N1  UNL     1      -2.611   0.541   0.399  1.00  0.00    -0.369 N 
HETATM   10  C4  UNL     1      -3.529  -0.358   0.980  1.00  0.00     0.156 C 
HETATM   11  C3  UNL     1      -4.954   0.079   1.117  1.00  0.00     0.203 C 
HETATM   12  N5  UNL     1      -5.197   1.480   1.046  1.00  0.00    -0.068 N 
HETATM   13  C16 UNL     1      -4.478   2.102  -0.056  1.00  0.00     0.252 C 
ATOM     14  H52 UNL     1      -6.196   1.681   0.997  1.00  0.00     0.277 HD
ATOM     15  H51 UNL     1      -4.985   1.938   1.932  1.00  0.00     0.277 HD
HETATM   16  C15 UNL     1      -3.011   1.896   0.054  1.00  0.00     0.151 C 
BRANCH  11  17
HETATM   17  C2  UNL     1      -5.824  -0.656   0.080  1.00  0.00     0.030 C 
HETATM   18  C1  UNL     1      -7.256  -0.183   0.256  1.00  0.00     0.007 C 
ENDBRANCH  11  17
ENDBRANCH   1   9
BRANCH   3  19
HETATM   19  C7  UNL     1       2.627   0.324  -1.103  1.00  0.00     0.276 C 
HETATM   20  O1  UNL     1       2.915   1.420  -1.604  1.00  0.00    -0.265 OA
HETATM   21  N2  UNL     1       3.555  -0.708  -0.994  1.00  0.00    -0.341 N 
ATOM     22  H2  UNL     1       3.246  -1.583  -0.572  1.00  0.00     0.163 HD
BRANCH  21  23
HETATM   23  C8  UNL     1       4.935  -0.621  -1.442  1.00  0.00     0.186 C 
BRANCH  23  24
HETATM   24  C9  UNL     1       5.819  -1.026  -0.313  1.00  0.00     0.046 C 
BRANCH  24  25
HETATM   25  C10 UNL     1       5.716  -0.213   0.927  1.00  0.00     0.116 C 
BRANCH  25  26
HETATM   26  C11 UNL     1       6.034   1.207   0.802  1.00  0.00     0.172 C 
HETATM   27  O2  UNL     1       6.382   1.734  -0.262  1.00  0.00    -0.648 OA
HETATM   28  O3  UNL     1       5.948   2.027   1.920  1.00  0.00    -0.648 OA
ENDBRANCH  25  26
ENDBRANCH  24  25
ENDBRANCH  23  24
BRANCH  23  29
HETATM   29  C12 UNL     1       5.184  -1.540  -2.586  1.00  0.00     0.196 C 
HETATM   30  O4  UNL     1       4.337  -2.288  -3.103  1.00  0.00    -0.646 OA
HETATM   31  O5  UNL     1       6.476  -1.558  -3.116  1.00  0.00    -0.646 OA
ENDBRANCH  23  29
ENDBRANCH  21  23
ENDBRANCH   3  19
TORSDOF 8
