REMARK  7 active torsions:
REMARK  status: ('A' for Active; 'I' for Inactive)
REMARK       I    between atoms: C2_2  and  N1_4 
REMARK    1  A    between atoms: N1_4  and  C3_6 
REMARK    2  A    between atoms: C3_6  and  C4_7 
REMARK    3  A    between atoms: C4_7  and  N2_8 
REMARK    4  A    between atoms: N3_11  and  C7_12 
REMARK    5  A    between atoms: C15_24  and  N5_25 
REMARK    6  A    between atoms: N5_25  and  C16_27 
REMARK    7  A    between atoms: C16_27  and  C17_28 
ROOT
HETATM    1  C7  UNL     1      -0.886   0.562   0.224  1.00  0.00     0.082 A 
HETATM    2  C8  UNL     1      -0.851   1.913   0.036  1.00  0.00    -0.012 A 
HETATM    3  C9  UNL     1       0.414   2.679   0.020  1.00  0.00     0.052 C 
HETATM    4  C10 UNL     1      -2.030   2.645  -0.153  1.00  0.00     0.041 A 
HETATM    5  S1  UNL     1      -2.390   4.294  -0.414  1.00  0.00    -0.091 SA
HETATM    6  C11 UNL     1      -4.081   4.198  -0.524  1.00  0.00    -0.001 A 
HETATM    7  C12 UNL     1      -5.010   5.337  -0.754  1.00  0.00     0.057 C 
HETATM    8  C13 UNL     1      -4.330   2.863  -0.352  1.00  0.00     0.051 A 
HETATM    9 BR1  UNL     1      -6.196   2.280  -0.406  1.00  0.00    -0.048 Br
HETATM   10  C14 UNL     1      -3.263   2.058  -0.160  1.00  0.00     0.070 A 
HETATM   11  N4  UNL     1      -3.276   0.698   0.031  1.00  0.00    -0.338 N 
ATOM     12  H4  UNL     1      -4.176   0.219   0.033  1.00  0.00     0.167 HD
HETATM   13  C15 UNL     1      -2.176  -0.027   0.213  1.00  0.00     0.133 A 
ENDROOT
BRANCH   1  14
HETATM   14  N3  UNL     1       0.288  -0.185   0.422  1.00  0.00    -0.374 N 
HETATM   15  C6  UNL     1       0.728  -0.359   1.794  1.00  0.00     0.153 C 
HETATM   16  C5  UNL     1       2.111  -0.904   1.913  1.00  0.00     0.292 C 
HETATM   17  N2  UNL     1       2.869  -0.477   0.732  1.00  0.00     0.093 N 
HETATM   18  C22 UNL     1       2.353  -1.280  -0.353  1.00  0.00     0.292 C 
HETATM   19  C21 UNL     1       0.981  -0.727  -0.707  1.00  0.00     0.153 C 
BRANCH  17  20
HETATM   20  C4  UNL     1       4.273  -0.590   0.937  1.00  0.00     0.292 C 
BRANCH  20  21
HETATM   21  C3  UNL     1       5.038  -0.068  -0.237  1.00  0.00     0.152 C 
BRANCH  21  22
HETATM   22  N1  UNL     1       6.479  -0.185   0.009  1.00  0.00    -0.360 N 
HETATM   23  C2  UNL     1       7.376   0.261  -0.985  1.00  0.00     0.213 C 
HETATM   24  C1  UNL     1       8.853   0.155  -0.762  1.00  0.00     0.117 C 
HETATM   25  O1  UNL     1       6.943   0.745  -2.052  1.00  0.00    -0.274 OA
ATOM     26  H1  UNL     1       6.826  -0.581   0.882  1.00  0.00     0.162 HD
ENDBRANCH  21  22
ENDBRANCH  20  21
ENDBRANCH  17  20
ENDBRANCH   1  14
BRANCH  13  27
HETATM   27  N5  UNL     1      -2.164  -1.260   0.381  1.00  0.00    -0.353 N 
ATOM     28  H5  UNL     1      -1.177  -1.497   0.482  1.00  0.00     0.166 HD
BRANCH  27  29
HETATM   29  C16 UNL     1      -2.811  -2.439   0.496  1.00  0.00     0.072 C 
BRANCH  29  30
HETATM   30  C17 UNL     1      -4.091  -2.596  -0.317  1.00  0.00    -0.012 A 
HETATM   31  C18 UNL     1      -3.999  -2.445  -1.809  1.00  0.00     0.021 C 
HETATM   32  C19 UNL     1      -5.359  -2.578   0.433  1.00  0.00     0.015 A 
HETATM   33  C20 UNL     1      -4.837  -3.895   0.061  1.00  0.00     0.015 A 
ENDBRANCH  29  30
ENDBRANCH  27  29
ENDBRANCH  13  27
TORSDOF 7
