REMARK  10 active torsions:
REMARK  status: ('A' for Active; 'I' for Inactive)
REMARK    1  A    between atoms: N1_1  and  C1_4 
REMARK    2  A    between atoms: C2_7  and  N3_8 
REMARK    3  A    between atoms: N3_8  and  C3_10 
REMARK    4  A    between atoms: C4_19  and  N9_20 
REMARK    5  A    between atoms: N9_20  and  O1_22 
REMARK    6  A    between atoms: C5_24  and  O2_25 
REMARK    7  A    between atoms: C6_27  and  N10_28 
REMARK       I    between atoms: N10_28  and  C7_30 
REMARK    8  A    between atoms: C7_30  and  C8_32 
REMARK    9  A    between atoms: C8_32  and  C9_33 
REMARK   10  A    between atoms: C10_36  and  C11_37 
ROOT
HETATM    1  C1  UNL     1       1.405  -1.523   0.442  1.00  0.00     0.144 C 
HETATM    2  N2  UNL     1       2.469  -1.882  -0.304  1.00  0.00    -0.174 N 
ATOM      3  H2  UNL     1       2.588  -2.875  -0.503  1.00  0.00     0.186 HD
HETATM    4  C2  UNL     1       3.394  -1.030  -0.812  1.00  0.00     0.700 C 
HETATM    5  N8  UNL     1       3.263   0.233  -1.270  1.00  0.00    -0.171 N 
ATOM      6  H8  UNL     1       3.997   0.596  -1.878  1.00  0.00     0.186 HD
HETATM    7  C4  UNL     1       2.229   1.047  -0.979  1.00  0.00     0.176 C 
HETATM    8  C5  UNL     1       1.197   0.896  -0.059  1.00  0.00     0.143 C 
HETATM    9  C6  UNL     1       0.822  -0.285   0.578  1.00  0.00     0.117 C 
ENDROOT
BRANCH   9  10
HETATM   10  N10 UNL     1      -0.286  -0.187   1.463  1.00  0.00    -0.321 N 
HETATM   11  C7  UNL     1      -1.582  -0.405   0.923  1.00  0.00     0.230 C 
HETATM   12  O3  UNL     1      -1.762  -0.674  -0.279  1.00  0.00    -0.273 OA
ATOM     13  H10 UNL     1      -0.155   0.032   2.451  1.00  0.00     0.169 HD
BRANCH  11  14
HETATM   14  C8  UNL     1      -2.735  -0.303   1.846  1.00  0.00     0.189 C 
BRANCH  14  15
HETATM   15  C9  UNL     1      -3.973  -0.566   1.072  1.00  0.00     0.157 A 
HETATM   16  N11 UNL     1      -4.774   0.287   0.408  1.00  0.00    -0.320 N 
HETATM   17  C10 UNL     1      -5.795  -0.379  -0.159  1.00  0.00     0.174 A 
ATOM     18  H11 UNL     1      -4.628   1.294   0.344  1.00  0.00     0.169 HD
HETATM   19  N16 UNL     1      -5.591  -1.671   0.181  1.00  0.00    -0.240 N 
HETATM   20  O4  UNL     1      -4.510  -1.750   0.906  1.00  0.00    -0.222 OA
ATOM     21  H16 UNL     1      -6.185  -2.456  -0.086  1.00  0.00     0.196 HD
BRANCH  17  22
HETATM   22  C11 UNL     1      -6.881   0.170  -0.962  1.00  0.00     0.178 A 
HETATM   23  N12 UNL     1      -7.905  -0.482  -1.534  1.00  0.00    -0.267 N 
HETATM   24  N13 UNL     1      -8.686   0.393  -2.188  1.00  0.00    -0.007 NA
ATOM     25  H12 UNL     1      -8.065  -1.488  -1.480  1.00  0.00     0.185 HD
HETATM   26  N14 UNL     1      -8.153   1.591  -2.026  1.00  0.00    -0.007 NA
HETATM   27  N15 UNL     1      -7.053   1.464  -1.281  1.00  0.00    -0.267 N 
ATOM     28  H15 UNL     1      -6.440   2.228  -0.998  1.00  0.00     0.185 HD
ENDBRANCH  17  22
ENDBRANCH  14  15
ENDBRANCH  11  14
ENDBRANCH   9  10
BRANCH   1  29
HETATM   29  N1  UNL     1       0.868  -2.460   1.111  1.00  0.00    -0.383 N 
ATOM     30  H12 UNL     1       1.300  -3.378   1.010  1.00  0.00     0.157 HD
ATOM     31  H11 UNL     1       0.063  -2.188   1.675  1.00  0.00     0.157 HD
ENDBRANCH   1  29
BRANCH   8  32
HETATM   32  O2  UNL     1       0.457   2.022   0.271  1.00  0.00    -0.355 OA
ATOM     33  H2  UNL     1      -0.248   1.919   0.899  1.00  0.00     0.218 HD
ENDBRANCH   8  32
BRANCH   7  34
HETATM   34  N9  UNL     1       2.199   2.127  -1.661  1.00  0.00    -0.250 N 
ATOM     35  H9  UNL     1       1.444   2.792  -1.493  1.00  0.00     0.196 HD
BRANCH  34  36
HETATM   36  O1  UNL     1       3.134   2.425  -2.601  1.00  0.00    -0.288 OA
ATOM     37  H1  UNL     1       3.112   3.228  -3.108  1.00  0.00     0.244 HD
ENDBRANCH  34  36
ENDBRANCH   7  34
BRANCH   4  38
HETATM   38  N3  UNL     1       4.744  -1.507  -0.896  1.00  0.00    -0.020 N 
ATOM     39  H3  UNL     1       4.964  -2.353  -1.421  1.00  0.00     0.203 HD
BRANCH  38  40
HETATM   40  C3  UNL     1       5.680  -0.844  -0.293  1.00  0.00     0.722 A 
HETATM   41  N4  UNL     1       5.593   0.282   0.439  1.00  0.00    -0.116 N 
HETATM   42  N5  UNL     1       6.806   0.625   0.877  1.00  0.00     0.006 NA
ATOM     43  H4  UNL     1       4.732   0.795   0.630  1.00  0.00     0.202 HD
HETATM   44  N6  UNL     1       7.647  -0.297   0.411  1.00  0.00     0.006 NA
HETATM   45  N7  UNL     1       6.979  -1.191  -0.298  1.00  0.00    -0.116 N 
ATOM     46  H7  UNL     1       7.380  -2.003  -0.767  1.00  0.00     0.202 HD
ENDBRANCH  38  40
ENDBRANCH   4  38
TORSDOF 10
