REMARK  3 active torsions:
REMARK  status: ('A' for Active; 'I' for Inactive)
REMARK    1  A    between atoms: C2_2  and  N1_3 
REMARK    2  A    between atoms: N1_3  and  C3_5 
REMARK    3  A    between atoms: N2_6  and  N3_8 
ROOT
HETATM    1  C3  UNL     1       1.162   0.039   0.058  1.00  0.00     0.194 C 
HETATM    2  N2  UNL     1       2.000   0.934  -0.351  1.00  0.00    -0.283 N 
ATOM      3  H2  UNL     1       1.727   1.915  -0.410  1.00  0.00     0.189 HD
ENDROOT
BRANCH   2   4
HETATM    4  N3  UNL     1       3.277   0.532  -0.708  1.00  0.00    -0.248 N 
HETATM    5  N4  UNL     1       3.892  -0.272   0.036  1.00  0.00    -0.331 N 
ATOM      6  H42 UNL     1       3.444  -0.614   0.886  1.00  0.00     0.178 HD
ATOM      7  H41 UNL     1       4.832  -0.568  -0.227  1.00  0.00     0.178 HD
ATOM      8  H3  UNL     1       3.711   0.883  -1.562  1.00  0.00     0.207 HD
ENDBRANCH   2   4
BRANCH   1   9
HETATM    9  N1  UNL     1      -0.174   0.318   0.452  1.00  0.00    -0.385 N 
ATOM     10  H1  UNL     1      -0.384   1.031   1.151  1.00  0.00     0.160 HD
BRANCH   9  11
HETATM   11  C2  UNL     1      -1.226  -0.451  -0.179  1.00  0.00     0.116 C 
HETATM   12  C1  UNL     1      -2.601  -0.114   0.323  1.00  0.00     0.026 C 
ENDBRANCH   9  11
ENDBRANCH   1   9
TORSDOF 3
