REMARK  3 active torsions:
REMARK  status: ('A' for Active; 'I' for Inactive)
REMARK       I    between atoms: C2_2  and  N1_4 
REMARK    1  A    between atoms: C3_5  and  O2_6 
REMARK    2  A    between atoms: C4_8  and  O3_9 
REMARK    3  A    between atoms: C5_16  and  C6_17 
ROOT
HETATM    1  C1  UNL     1      -2.810  -2.488   0.995  1.00  0.00     0.118 C 
HETATM    2  C2  UNL     1      -1.775  -1.629   0.368  1.00  0.00     0.227 C 
HETATM    3  O1  UNL     1      -0.672  -2.133   0.117  1.00  0.00    -0.273 OA
HETATM    4  N1  UNL     1      -2.027  -0.269   0.060  1.00  0.00    -0.240 N 
HETATM    5  C3  UNL     1      -3.238   0.329   0.342  1.00  0.00     0.205 A 
HETATM    6  C4  UNL     1      -3.101   1.626  -0.081  1.00  0.00     0.217 A 
HETATM    7  N2  UNL     1      -1.900   1.843  -0.594  1.00  0.00    -0.196 N 
HETATM    8  N3  UNL     1      -1.121   2.753  -1.145  1.00  0.00    -0.232 N 
ATOM      9  H3  UNL     1      -1.370   3.725  -1.330  1.00  0.00     0.209 HD
HETATM   10  N4  UNL     1       0.036   2.184  -1.414  1.00  0.00    -0.282 N 
ATOM     11  H4  UNL     1       0.831   2.657  -1.844  1.00  0.00     0.188 HD
HETATM   12  C5  UNL     1       0.021   0.891  -1.041  1.00  0.00     0.097 A 
HETATM   13  C11 UNL     1      -1.229   0.656  -0.506  1.00  0.00     0.171 A 
ENDROOT
BRANCH  12  14
HETATM   14  C6  UNL     1       1.109  -0.045  -1.175  1.00  0.00     0.057 C 
HETATM   15  C7  UNL     1       2.311  -0.006  -0.678  1.00  0.00     0.102 A 
HETATM   16  C8  UNL     1       2.802   1.052   0.158  1.00  0.00     0.265 A 
HETATM   17  C10 UNL     1       3.261  -1.099  -0.999  1.00  0.00     0.265 A 
HETATM   18  O4  UNL     1       2.077   2.021   0.491  1.00  0.00    -0.267 OA
HETATM   19  N5  UNL     1       4.152   1.073   0.672  1.00  0.00    -0.275 N 
HETATM   20  C9  UNL     1       5.042   0.029   0.358  1.00  0.00     0.329 A 
ATOM     21  H5  UNL     1       4.460   1.845   1.263  1.00  0.00     0.173 HD
HETATM   22  O5  UNL     1       6.237  -0.004   0.782  1.00  0.00    -0.246 OA
HETATM   23  N6  UNL     1       4.574  -1.027  -0.467  1.00  0.00    -0.275 N 
ATOM     24  H6  UNL     1       5.223  -1.782  -0.691  1.00  0.00     0.173 HD
HETATM   25  O6  UNL     1       2.917  -2.073  -1.728  1.00  0.00    -0.267 OA
ENDBRANCH  12  14
BRANCH   5  26
HETATM   26  O2  UNL     1      -4.353  -0.252   0.927  1.00  0.00    -0.342 OA
ATOM     27  H2  UNL     1      -5.187   0.160   1.121  1.00  0.00     0.219 HD
ENDBRANCH   5  26
BRANCH   6  28
HETATM   28  O3  UNL     1      -4.090   2.605   0.008  1.00  0.00    -0.342 OA
ATOM     29  H3  UNL     1      -3.995   3.504  -0.285  1.00  0.00     0.219 HD
ENDBRANCH   6  28
TORSDOF 3
