REMARK  5 active torsions:
REMARK  status: ('A' for Active; 'I' for Inactive)
REMARK       I    between atoms: C2_2  and  N1_4 
REMARK    1  A    between atoms: N1_4  and  C3_6 
REMARK    2  A    between atoms: C4_8  and  C6_10 
REMARK    3  A    between atoms: C6_10  and  O2_11 
REMARK    4  A    between atoms: C6_10  and  N2_13 
REMARK    5  A    between atoms: N2_13  and  C8_15 
ROOT
HETATM    1  C3  UNL     1       2.171  -1.201   0.285  1.00  0.00     0.174 A 
HETATM    2  S1  UNL     1       1.712  -2.615  -0.677  1.00  0.00    -0.120 SA
HETATM    3  C4  UNL     1       0.663  -1.355   0.142  1.00  0.00     0.100 A 
HETATM    4  C5  UNL     1       0.035  -1.886   1.425  1.00  0.00     0.039 C 
ENDROOT
BRANCH   3   5
HETATM    5  C6  UNL     1      -0.093  -0.536  -0.803  1.00  0.00     0.135 C 
BRANCH   5   6
HETATM    6  O2  UNL     1       0.537  -0.238  -1.930  1.00  0.00    -0.348 OA
ATOM      7  H2  UNL     1       0.046   0.294  -2.544  1.00  0.00     0.219 HD
ENDBRANCH   5   6
BRANCH   5   8
HETATM    8  N2  UNL     1      -1.368   0.007  -0.759  1.00  0.00    -0.364 N 
HETATM    9  C7  UNL     1      -1.840   0.792  -1.945  1.00  0.00     0.152 C 
BRANCH   8  10
HETATM   10  C8  UNL     1      -2.337  -0.053   0.281  1.00  0.00     0.077 C 
HETATM   11  C9  UNL     1      -2.747   1.376   0.682  1.00  0.00     0.032 C 
HETATM   12  C10 UNL     1      -3.626  -0.624  -0.371  1.00  0.00     0.032 C 
ENDBRANCH   8  10
ENDBRANCH   5   8
ENDBRANCH   3   5
BRANCH   1  13
HETATM   13  N1  UNL     1       2.892  -0.131  -0.324  1.00  0.00    -0.346 N 
HETATM   14  C2  UNL     1       3.870   0.587   0.416  1.00  0.00     0.214 C 
HETATM   15  C1  UNL     1       4.641   1.715  -0.199  1.00  0.00     0.117 C 
HETATM   16  O1  UNL     1       4.090   0.275   1.594  1.00  0.00    -0.274 OA
ATOM     17  H1  UNL     1       2.705   0.120  -1.295  1.00  0.00     0.163 HD
ENDBRANCH   1  13
TORSDOF 5
