REMARK  4 active torsions:
REMARK  status: ('A' for Active; 'I' for Inactive)
REMARK    1  A    between atoms: C2_2  and  C3_4 
REMARK    2  A    between atoms: C7_10  and  C9_12 
REMARK    3  A    between atoms: C9_12  and  C10_13 
REMARK    4  A    between atoms: C10_13  and  O3_14 
ROOT
HETATM    1  C3  UNL     1      -0.332   0.331   0.142  1.00  0.00     0.080 C 
HETATM    2  C4  UNL     1      -0.979  -1.034   0.181  1.00  0.00     0.006 C 
HETATM    3  C5  UNL     1      -2.084  -1.205   1.145  1.00  0.00     0.011 C 
HETATM    4  C6  UNL     1      -1.331  -1.360  -1.256  1.00  0.00     0.114 C 
HETATM    5  S1  UNL     1       0.243  -0.912  -2.016  1.00  0.00     0.025 S 
HETATM    6  O2  UNL     1       1.259  -2.246  -2.087  1.00  0.00    -0.257 OA
HETATM    7  C7  UNL     1       0.863   0.179  -0.719  1.00  0.00     0.046 C 
HETATM    8  C8  UNL     1       1.350   1.430  -1.401  1.00  0.00     0.030 C 
ENDROOT
BRANCH   7   9
HETATM    9  C9  UNL     1       1.980  -0.498   0.035  1.00  0.00     0.049 C 
BRANCH   9  10
HETATM   10  C10 UNL     1       2.443   0.230   1.262  1.00  0.00     0.165 C 
BRANCH  10  11
HETATM   11  O3  UNL     1       3.497  -0.566   1.792  1.00  0.00    -0.401 OA
ATOM     12  H3  UNL     1       3.790  -0.105   2.569  1.00  0.00     0.209 HD
ENDBRANCH  10  11
ENDBRANCH   9  10
ENDBRANCH   7   9
BRANCH   1  13
HETATM   13  C2  UNL     1      -1.296   1.383  -0.281  1.00  0.00     0.129 C 
HETATM   14  C1  UNL     1      -2.507   1.732   0.526  1.00  0.00     0.091 C 
HETATM   15  O1  UNL     1      -1.190   2.043  -1.302  1.00  0.00    -0.298 OA
ENDBRANCH   1  13
TORSDOF 4
