REMARK  4 active torsions:
REMARK  status: ('A' for Active; 'I' for Inactive)
REMARK    1  A    between atoms: O1_2  and  C2_3 
REMARK    2  A    between atoms: C3_5  and  C4_6 
REMARK    3  A    between atoms: C4_6  and  O3_7 
REMARK    4  A    between atoms: C9_15  and  O6_16 
ROOT
HETATM    1  C2  UNL     1       1.808  -0.127   0.247  1.00  0.00     0.294 C 
HETATM    2  O2  UNL     1       1.107   0.989   0.671  1.00  0.00    -0.318 OA
HETATM    3  C3  UNL     1      -0.163   0.926   0.167  1.00  0.00     0.220 C 
HETATM    4  O4  UNL     1      -1.051   0.244   0.962  1.00  0.00    -0.315 OA
HETATM    5  C5  UNL     1      -1.896  -0.486   0.132  1.00  0.00     0.161 C 
HETATM    6  C6  UNL     1      -3.197   0.290   0.007  1.00  0.00     0.078 C 
HETATM    7  C7  UNL     1      -2.245  -1.831   0.731  1.00  0.00     0.078 C 
HETATM    8  O5  UNL     1      -1.266  -0.658  -1.074  1.00  0.00    -0.342 OA
HETATM    9  C8  UNL     1      -0.136   0.130  -1.093  1.00  0.00     0.223 C 
HETATM   10  C9  UNL     1       1.140  -0.634  -1.004  1.00  0.00     0.208 C 
ENDROOT
BRANCH   3  11
HETATM   11  C4  UNL     1      -0.620   2.358  -0.102  1.00  0.00     0.235 C 
BRANCH  11  12
HETATM   12  O3  UNL     1       0.251   2.939  -1.023  1.00  0.00    -0.395 OA
ATOM     13  H3  UNL     1      -0.033   3.830  -1.190  1.00  0.00     0.209 HD
ENDBRANCH  11  12
ENDBRANCH   3  11
BRANCH   1  14
HETATM   14  O1  UNL     1       3.130   0.161  -0.065  1.00  0.00    -0.363 OA
HETATM   15  C1  UNL     1       3.941  -0.596   0.775  1.00  0.00     0.204 C 
ENDBRANCH   1  14
BRANCH  10  16
HETATM   16  O6  UNL     1       0.953  -2.006  -0.862  1.00  0.00    -0.388 OA
ATOM     17  H6  UNL     1       0.532  -2.326  -1.651  1.00  0.00     0.210 HD
ENDBRANCH  10  16
TORSDOF 4
