REMARK  0 active torsions:
REMARK  status: ('A' for Active; 'I' for Inactive)
REMARK       I    between atoms: N1_2  and  C2_4 
REMARK       I    between atoms: C2_4  and  N5_14 
REMARK       I    between atoms: N2_5  and  C3_7 
REMARK       I    between atoms: N4_9  and  C4_11 
ROOT
HETATM    1  C1  UNL     1      -1.862  -2.531   0.680  1.00  0.00     0.165 C 
HETATM    2  N1  UNL     1      -1.030  -1.509   1.314  1.00  0.00    -0.230 N 
ATOM      3  H1  UNL     1      -0.769  -1.624   2.293  1.00  0.00     0.177 HD
HETATM    4  C2  UNL     1      -0.572  -0.361   0.612  1.00  0.00     0.677 C 
HETATM    5  N2  UNL     1       0.713  -0.124   0.556  1.00  0.00    -0.164 N 
ATOM      6  H2  UNL     1       1.358  -0.766   1.016  1.00  0.00     0.187 HD
HETATM    7  C3  UNL     1       1.232   1.004  -0.129  1.00  0.00     0.209 C 
HETATM    8  N3  UNL     1       0.669   2.305  -0.084  1.00  0.00    -0.063 NA
HETATM    9  N4  UNL     1       2.290   0.845  -0.847  1.00  0.00    -0.301 N 
ATOM     10  H4  UNL     1       2.661   1.658  -1.338  1.00  0.00     0.171 HD
HETATM   11  C4  UNL     1       2.967  -0.381  -0.996  1.00  0.00     0.220 C 
HETATM   12  C5  UNL     1       4.273  -0.559  -0.328  1.00  0.00     0.117 C 
HETATM   13  O1  UNL     1       2.457  -1.290  -1.683  1.00  0.00    -0.274 OA
HETATM   14  N5  UNL     1      -1.531   0.480   0.000  1.00  0.00    -0.227 N 
HETATM   15  C6  UNL     1      -2.281   1.390   0.858  1.00  0.00     0.168 C 
HETATM   16  C7  UNL     1      -1.823   0.506  -1.406  1.00  0.00     0.168 C 
ENDROOT
TORSDOF 0
