REMARK  9 active torsions:
REMARK  status: ('A' for Active; 'I' for Inactive)
REMARK    1  A    between atoms: C2_2  and  C3_3 
REMARK    2  A    between atoms: C3_3  and  C4_4 
REMARK    3  A    between atoms: C4_4  and  N1_5 
REMARK    4  A    between atoms: N1_5  and  C5_8 
REMARK    5  A    between atoms: C5_8  and  C6_9 
REMARK    6  A    between atoms: C6_9  and  C7_10 
REMARK    7  A    between atoms: C7_10  and  C8_11 
REMARK    8  A    between atoms: C8_11  and  C9_12 
REMARK    9  A    between atoms: C9_12  and  C10_13 
ROOT
HETATM    1  C6  UNL     1       1.013  -0.920   0.408  1.00  0.00     0.027 C 
ENDROOT
BRANCH   1   2
HETATM    2  C5  UNL     1       2.416  -1.077  -0.188  1.00  0.00     0.232 C 
BRANCH   2   3
HETATM    3  N1  UNL     1       2.884   0.225  -0.613  1.00  0.00    -0.075 N 
ATOM      4  H12 UNL     1       2.962   0.867   0.176  1.00  0.00     0.277 HD
ATOM      5  H11 UNL     1       2.171   0.718  -1.151  1.00  0.00     0.277 HD
BRANCH   3   6
HETATM    6  C4  UNL     1       4.101   0.141  -1.329  1.00  0.00     0.236 C 
BRANCH   6   7
HETATM    7  C3  UNL     1       5.232  -0.285  -0.451  1.00  0.00     0.054 C 
BRANCH   7   8
HETATM    8  C2  UNL     1       5.460   0.682   0.651  1.00  0.00    -0.035 C 
HETATM    9  C1  UNL     1       5.389   0.296   1.916  1.00  0.00     0.007 C 
ENDBRANCH   7   8
ENDBRANCH   6   7
ENDBRANCH   3   6
ENDBRANCH   2   3
ENDBRANCH   1   2
BRANCH   1  10
HETATM   10  C7  UNL     1       0.095  -0.335  -0.640  1.00  0.00     0.002 C 
BRANCH  10  11
HETATM   11  C8  UNL     1      -1.293  -0.188  -0.059  1.00  0.00     0.000 C 
BRANCH  11  12
HETATM   12  C9  UNL     1      -2.198   0.386  -1.104  1.00  0.00     0.004 C 
BRANCH  12  13
HETATM   13  C10 UNL     1      -3.600   0.628  -0.783  1.00  0.00    -0.014 C 
HETATM   14  C11 UNL     1      -4.342  -0.640  -0.376  1.00  0.00     0.004 C 
HETATM   15  C12 UNL     1      -5.334  -0.157   0.699  1.00  0.00     0.000 C 
HETATM   16  C13 UNL     1      -4.470   0.884   1.394  1.00  0.00     0.000 C 
HETATM   17  C14 UNL     1      -3.937   1.650   0.220  1.00  0.00     0.004 C 
ENDBRANCH  12  13
ENDBRANCH  11  12
ENDBRANCH  10  11
ENDBRANCH   1  10
TORSDOF 9
