REMARK  9 active torsions:
REMARK  status: ('A' for Active; 'I' for Inactive)
REMARK    1  A    between atoms: C2_2  and  C3_3 
REMARK    2  A    between atoms: C3_3  and  C4_4 
REMARK    3  A    between atoms: C4_4  and  C5_5 
REMARK    4  A    between atoms: C5_5  and  C6_6 
REMARK    5  A    between atoms: C5_5  and  C10_10 
REMARK    6  A    between atoms: C6_6  and  C7_7 
REMARK    7  A    between atoms: C7_7  and  C8_8 
REMARK    8  A    between atoms: C10_10  and  N1_11 
REMARK    9  A    between atoms: N1_11  and  C12_13 
ROOT
HETATM    1  C5  UNL     1       0.069  -0.069  -0.104  1.00  0.00     0.014 C 
ENDROOT
BRANCH   1   2
HETATM    2  C4  UNL     1      -0.289  -1.249  -0.883  1.00  0.00     0.006 C 
BRANCH   2   3
HETATM    3  C3  UNL     1      -1.300  -2.192  -0.407  1.00  0.00     0.000 C 
BRANCH   3   4
HETATM    4  C2  UNL     1      -2.714  -1.854  -0.229  1.00  0.00    -0.005 C 
HETATM    5  C1  UNL     1      -3.416  -3.197   0.203  1.00  0.00     0.005 C 
ENDBRANCH   3   4
ENDBRANCH   2   3
ENDBRANCH   1   2
BRANCH   1   6
HETATM    6  C6  UNL     1      -1.027   0.894   0.126  1.00  0.00     0.006 C 
BRANCH   6   7
HETATM    7  C7  UNL     1      -0.556   2.144   0.900  1.00  0.00     0.000 C 
BRANCH   7   8
HETATM    8  C8  UNL     1      -1.842   2.977   1.046  1.00  0.00    -0.005 C 
HETATM    9  C9  UNL     1      -2.349   3.298  -0.333  1.00  0.00     0.005 C 
ENDBRANCH   7   8
ENDBRANCH   6   7
ENDBRANCH   1   6
BRANCH   1  10
HETATM   10  C10 UNL     1       1.287   0.653  -0.693  1.00  0.00     0.276 C 
BRANCH  10  11
HETATM   11  N1  UNL     1       2.456  -0.175  -0.771  1.00  0.00     0.084 N 
HETATM   12  C11 UNL     1       3.503   0.641  -1.357  1.00  0.00     0.309 C 
BRANCH  11  13
HETATM   13  C12 UNL     1       2.934  -0.621   0.509  1.00  0.00     0.267 C 
HETATM   14  C13 UNL     1       4.220  -1.434   0.255  1.00  0.00     0.037 C 
ENDBRANCH  11  13
ENDBRANCH  10  11
ENDBRANCH   1  10
TORSDOF 9
