REMARK  1 active torsions:
REMARK  status: ('A' for Active; 'I' for Inactive)
REMARK    1  A    between atoms: C2_2  and  C3_3 
ROOT
HETATM    1  C3  UNL     1      -0.117   0.351  -0.004  1.00  0.00    -0.003 A 
HETATM    2  C4  UNL     1      -1.151   1.262  -0.013  1.00  0.00     0.119 A 
HETATM    3  N1  UNL     1      -2.296   0.556  -0.000  1.00  0.00    -0.311 N 
ATOM      4  H1  UNL     1      -3.226   0.975  -0.002  1.00  0.00     0.186 HD
HETATM    5  N2  UNL     1      -2.071  -0.735   0.016  1.00  0.00    -0.311 N 
ATOM      6  H2  UNL     1      -2.771  -1.477   0.028  1.00  0.00     0.186 HD
HETATM    7  C5  UNL     1      -0.717  -0.891   0.014  1.00  0.00     0.119 A 
ENDROOT
BRANCH   1   8
HETATM    8  C2  UNL     1       1.311   0.650  -0.013  1.00  0.00     0.004 C 
HETATM    9  C1  UNL     1       2.207  -0.324  -0.003  1.00  0.00     0.012 C 
ENDBRANCH   1   8
TORSDOF 1
