REMARK  7 active torsions:
REMARK  status: ('A' for Active; 'I' for Inactive)
REMARK    1  A    between atoms: C2_2  and  C3_3 
REMARK    2  A    between atoms: C3_3  and  C4_4 
REMARK    3  A    between atoms: C4_4  and  C5_5 
REMARK    4  A    between atoms: C5_5  and  C6_6 
REMARK    5  A    between atoms: C6_6  and  C7_7 
REMARK    6  A    between atoms: C11_14  and  O3_15 
REMARK    7  A    between atoms: C14_21  and  O4_22 
ROOT
HETATM    1  C7  UNL     1       1.324  -1.059  -0.217  1.00  0.00    -0.014 A 
HETATM    2  C8  UNL     1       1.715  -2.392   0.063  1.00  0.00     0.116 A 
HETATM    3 CL1  UNL     1       0.521  -3.660  -0.081  1.00  0.00    -0.077 Cl
HETATM    4  C9  UNL     1       3.016  -2.578   0.428  1.00  0.00     0.310 A 
HETATM    5  O1  UNL     1       3.359  -3.782   0.677  1.00  0.00    -0.258 OA
HETATM    6  O2  UNL     1       3.885  -1.615   0.528  1.00  0.00    -0.270 OA
HETATM    7  C10 UNL     1       3.526  -0.372   0.270  1.00  0.00     0.128 A 
HETATM    8  C11 UNL     1       4.468   0.628   0.388  1.00  0.00     0.124 A 
HETATM    9  C12 UNL     1       4.158   1.946   0.137  1.00  0.00     0.094 A 
HETATM   10 CL2  UNL     1       5.357   3.199   0.289  1.00  0.00    -0.079 Cl
HETATM   11  C13 UNL     1       2.874   2.273  -0.240  1.00  0.00     0.092 A 
HETATM   12 CL3  UNL     1       2.382   3.912  -0.577  1.00  0.00    -0.079 Cl
HETATM   13  C14 UNL     1       1.902   1.294  -0.368  1.00  0.00     0.102 A 
HETATM   14  C15 UNL     1       2.219  -0.027  -0.118  1.00  0.00     0.044 A 
ENDROOT
BRANCH   1  15
HETATM   15  C6  UNL     1      -0.073  -0.861  -0.609  1.00  0.00     0.041 C 
BRANCH  15  16
HETATM   16  C5  UNL     1      -1.005  -0.807   0.589  1.00  0.00     0.005 C 
BRANCH  16  17
HETATM   17  C4  UNL     1      -2.439  -0.634   0.254  1.00  0.00     0.000 C 
BRANCH  17  18
HETATM   18  C3  UNL     1      -2.814   0.596  -0.495  1.00  0.00    -0.000 C 
BRANCH  18  19
HETATM   19  C2  UNL     1      -4.331   0.539  -0.716  1.00  0.00    -0.005 C 
HETATM   20  C1  UNL     1      -5.004   0.494   0.619  1.00  0.00     0.005 C 
ENDBRANCH  18  19
ENDBRANCH  17  18
ENDBRANCH  16  17
ENDBRANCH  15  16
ENDBRANCH   1  15
BRANCH  13  21
HETATM   21  O4  UNL     1       0.628   1.646  -0.741  1.00  0.00    -0.358 OA
ATOM     22  H4  UNL     1      -0.038   0.975  -0.829  1.00  0.00     0.217 HD
ENDBRANCH  13  21
BRANCH   8  23
HETATM   23  O3  UNL     1       5.776   0.360   0.763  1.00  0.00    -0.356 OA
ATOM     24  H3  UNL     1       6.425   1.049   0.844  1.00  0.00     0.218 HD
ENDBRANCH   8  23
TORSDOF 7
