REMARK  0 active torsions:
REMARK  status: ('A' for Active; 'I' for Inactive)
ROOT
HETATM    1  N1  UNL     1       4.171   0.016   0.079  1.00  0.00    -0.365 N 
ATOM      2  H11 UNL     1       4.788  -0.795   0.128  1.00  0.00     0.159 HD
ATOM      3  H12 UNL     1       4.747   0.858   0.103  1.00  0.00     0.159 HD
HETATM    4  C1  UNL     1       2.883  -0.015  -0.000  1.00  0.00     0.213 C 
HETATM    5  N2  UNL     1       2.014   1.127  -0.069  1.00  0.00    -0.349 N 
ATOM      6  H2  UNL     1       2.270   2.108   0.046  1.00  0.00     0.163 HD
HETATM    7  C2  UNL     1       0.708   0.594  -0.334  1.00  0.00     0.114 C 
HETATM    8  C3  UNL     1      -0.418   1.397   0.199  1.00  0.00     0.028 C 
HETATM    9  C4  UNL     1      -1.691   1.161  -0.561  1.00  0.00     0.002 C 
HETATM   10  C5  UNL     1      -2.347  -0.135  -0.309  1.00  0.00     0.000 C 
HETATM   11  C6  UNL     1      -1.573  -1.111   0.511  1.00  0.00     0.002 C 
HETATM   12  C7  UNL     1      -0.307  -1.596  -0.174  1.00  0.00     0.035 C 
HETATM   13  C8  UNL     1       0.815  -0.775   0.354  1.00  0.00     0.154 C 
HETATM   14  O1  UNL     1       2.088  -1.177  -0.033  1.00  0.00    -0.315 OA
ENDROOT
TORSDOF 0
