REMARK  2 active torsions:
REMARK  status: ('A' for Active; 'I' for Inactive)
REMARK    1  A    between atoms: C6_6  and  C7_7 
REMARK    2  A    between atoms: C8_10  and  O1_11 
ROOT
HETATM    1  C1  UNL     1      -2.355   0.975   0.485  1.00  0.00     0.014 C 
HETATM    2  C2  UNL     1      -1.054   0.186   0.670  1.00  0.00     0.031 C 
HETATM    3  C3  UNL     1      -1.305  -1.215   0.301  1.00  0.00     0.008 C 
HETATM    4  C4  UNL     1      -0.112  -2.032  -0.076  1.00  0.00     0.001 C 
HETATM    5  C5  UNL     1       0.998  -1.285  -0.718  1.00  0.00     0.014 C 
HETATM    6  C6  UNL     1       1.275  -0.044   0.117  1.00  0.00     0.100 C 
HETATM    7  C8  UNL     1       0.081   0.846  -0.118  1.00  0.00     0.158 C 
HETATM    8  C9  UNL     1       0.254   2.203   0.300  1.00  0.00     0.098 C 
HETATM    9  N1  UNL     1       0.373   3.304   0.634  1.00  0.00    -0.194 NA
ENDROOT
BRANCH   7  10
HETATM   10  O1  UNL     1      -0.305   0.737  -1.469  1.00  0.00    -0.374 OA
ATOM     11  H1  UNL     1       0.399   1.146  -1.958  1.00  0.00     0.212 HD
ENDBRANCH   7  10
BRANCH   6  12
HETATM   12  C7  UNL     1       2.593   0.584  -0.219  1.00  0.00     0.361 C 
HETATM   13  F1  UNL     1       3.577  -0.385   0.032  1.00  0.00    -0.214 F 
HETATM   14  F2  UNL     1       2.845   1.572   0.724  1.00  0.00    -0.214 F 
ENDBRANCH   6  12
TORSDOF 2
