REMARK  4 active torsions:
REMARK  status: ('A' for Active; 'I' for Inactive)
REMARK    1  A    between atoms: C2_2  and  C3_4 
REMARK    2  A    between atoms: C4_7  and  N2_8 
REMARK    3  A    between atoms: N2_8  and  N3_10 
REMARK    4  A    between atoms: C5_15  and  N5_16 
ROOT
HETATM    1  C3  UNL     1      -0.534   0.179  -0.131  1.00  0.00     0.068 A 
HETATM    2  N1  UNL     1       0.638   0.419  -0.610  1.00  0.00    -0.193 N 
ATOM      3  H1  UNL     1       0.812   0.836  -1.524  1.00  0.00     0.184 HD
HETATM    4  C4  UNL     1       1.647   0.032   0.290  1.00  0.00     0.699 A 
HETATM    5  N4  UNL     1       1.111  -0.451   1.335  1.00  0.00    -0.190 N 
ATOM      6  H4  UNL     1       1.617  -0.808   2.146  1.00  0.00     0.180 HD
HETATM    7  C5  UNL     1      -0.321  -0.416   1.197  1.00  0.00     0.344 A 
ENDROOT
BRANCH   4   8
HETATM    8  N2  UNL     1       3.052   0.181   0.022  1.00  0.00    -0.072 N 
ATOM      9  H2  UNL     1       3.706   0.240   0.803  1.00  0.00     0.212 HD
BRANCH   8  10
HETATM   10  N3  UNL     1       3.536   0.246  -1.273  1.00  0.00    -0.024 N 
HETATM   11  O1  UNL     1       4.038  -0.790  -1.757  1.00  0.00    -0.516 OA
HETATM   12  O2  UNL     1       3.505   1.362  -2.062  1.00  0.00    -0.516 OA
ENDBRANCH   8  10
ENDBRANCH   4   8
BRANCH   1  13
HETATM   13  C2  UNL     1      -1.824   0.464  -0.818  1.00  0.00     0.104 C 
HETATM   14  C1  UNL     1      -2.629  -0.824  -1.016  1.00  0.00     0.028 C 
HETATM   15 BR1  UNL     1      -2.863   1.788   0.124  1.00  0.00    -0.085 Br
ENDBRANCH   1  13
BRANCH   7  16
HETATM   16  N5  UNL     1      -0.954   0.343   2.257  1.00  0.00    -0.052 N 
ATOM     17  H53 UNL     1      -0.653   1.317   2.240  1.00  0.00     0.277 HD
ATOM     18  H52 UNL     1      -1.948   0.474   2.070  1.00  0.00     0.277 HD
ATOM     19  H51 UNL     1      -0.806  -0.070   3.178  1.00  0.00     0.277 HD
ENDBRANCH   7  16
TORSDOF 4
