REMARK  3 active torsions:
REMARK  status: ('A' for Active; 'I' for Inactive)
REMARK    1  A    between atoms: C1_2  and  C2_4 
REMARK    2  A    between atoms: C3_7  and  S1_8 
REMARK    3  A    between atoms: S1_8  and  N3_9 
ROOT
HETATM    1  C2  UNL     1       1.089   0.021  -0.476  1.00  0.00     0.128 A 
HETATM    2  N2  UNL     1      -0.189  -0.078  -0.662  1.00  0.00    -0.334 N 
ATOM      3  H2  UNL     1      -0.548  -0.629  -1.442  1.00  0.00     0.167 HD
HETATM    4  C3  UNL     1      -1.027   0.530   0.151  1.00  0.00     0.193 A 
HETATM    5  S2  UNL     1       0.016   1.298   1.256  1.00  0.00    -0.044 SA
HETATM    6  C4  UNL     1       1.505   0.783   0.597  1.00  0.00     0.109 A 
HETATM    7 CL1  UNL     1       3.166   1.118   1.125  1.00  0.00    -0.074 Cl
ENDROOT
BRANCH   4   8
HETATM    8  S1  UNL     1      -2.791   0.563   0.129  1.00  0.00     0.279 S 
HETATM    9  O2  UNL     1      -3.281   0.420  -1.298  1.00  0.00    -0.199 OA
HETATM   10  O3  UNL     1      -3.258   1.891   0.653  1.00  0.00    -0.199 OA
BRANCH   8  11
HETATM   11  N3  UNL     1      -3.471  -0.704   1.042  1.00  0.00    -0.323 N 
ATOM     12  H32 UNL     1      -2.909  -1.395   1.539  1.00  0.00     0.169 HD
ATOM     13  H31 UNL     1      -4.491  -0.685   1.029  1.00  0.00     0.169 HD
ENDBRANCH   8  11
ENDBRANCH   4   8
BRANCH   1  14
HETATM   14  C1  UNL     1       2.091  -0.628  -1.339  1.00  0.00     0.283 C 
HETATM   15  N1  UNL     1       3.485  -0.517  -1.132  1.00  0.00    -0.056 NA
HETATM   16  O1  UNL     1       1.684  -1.311  -2.303  1.00  0.00    -0.269 OA
ENDBRANCH   1  14
TORSDOF 3
