REMARK  1 active torsions:
REMARK  status: ('A' for Active; 'I' for Inactive)
REMARK    1  A    between atoms: C6_7  and  O2_8 
ROOT
HETATM    1  C1  UNL     1      -1.390  -0.787  -1.151  1.00  0.00     0.048 C 
HETATM    2  C2  UNL     1      -0.542  -0.209  -0.031  1.00  0.00     0.079 C 
HETATM    3  C3  UNL     1      -1.447   0.586   0.899  1.00  0.00     0.048 C 
HETATM    4  O1  UNL     1      -0.020  -1.250   0.683  1.00  0.00    -0.378 OA
HETATM    5  C4  UNL     1       1.316  -1.038   0.899  1.00  0.00     0.171 C 
HETATM    6  C5  UNL     1       1.819  -0.098  -0.171  1.00  0.00     0.061 C 
HETATM    7  C6  UNL     1       0.559   0.666  -0.515  1.00  0.00     0.153 C 
ENDROOT
BRANCH   7   8
HETATM    8  O2  UNL     1       0.640   1.887   0.186  1.00  0.00    -0.392 OA
ATOM      9  H2  UNL     1       1.343   2.446  -0.123  1.00  0.00     0.210 HD
ENDBRANCH   7   8
TORSDOF 1
