REMARK  6 active torsions:
REMARK  status: ('A' for Active; 'I' for Inactive)
REMARK    1  A    between atoms: C9_10  and  C11_12 
REMARK    2  A    between atoms: C11_12  and  O2_13 
REMARK    3  A    between atoms: C11_12  and  C12_15 
REMARK    4  A    between atoms: C13_16  and  C14_17 
REMARK    5  A    between atoms: C16_20  and  C18_22 
REMARK    6  A    between atoms: C18_22  and  O4_23 
ROOT
HETATM    1  C11 UNL     1      -1.208  -1.648  -0.574  1.00  0.00     0.150 C 
ENDROOT
BRANCH   1   2
HETATM    2  C9  UNL     1      -2.148  -0.721   0.172  1.00  0.00     0.000 C 
HETATM    3  C2  UNL     1      -1.830   0.711  -0.153  1.00  0.00    -0.007 C 
HETATM    4  C1  UNL     1      -2.151   0.981  -1.584  1.00  0.00     0.011 C 
HETATM    5  C3  UNL     1      -2.672   1.626   0.708  1.00  0.00     0.006 C 
HETATM    6  C4  UNL     1      -4.130   1.360   0.624  1.00  0.00     0.018 C 
HETATM    7  C5  UNL     1      -4.537   0.060   0.072  1.00  0.00     0.028 A 
HETATM    8  C6  UNL     1      -5.796   0.054  -0.806  1.00  0.00     0.024 C 
HETATM    9  C7  UNL     1      -4.527  -1.156   0.987  1.00  0.00     0.142 A 
HETATM   10  C8  UNL     1      -3.582  -0.977  -0.148  1.00  0.00     0.083 A 
HETATM   11  O1  UNL     1      -5.065  -1.669   1.945  1.00  0.00    -0.297 OA
HETATM   12  C10 UNL     1      -1.938  -1.030   1.643  1.00  0.00     0.019 C 
ENDBRANCH   1   2
BRANCH   1  13
HETATM   13  O2  UNL     1      -1.277  -1.525  -1.934  1.00  0.00    -0.391 OA
ATOM     14  H2  UNL     1      -0.688  -2.106  -2.401  1.00  0.00     0.210 HD
ENDBRANCH   1  13
BRANCH   1  15
HETATM   15  C12 UNL     1       0.167  -1.509  -0.022  1.00  0.00     0.004 C 
HETATM   16  C13 UNL     1       1.087  -0.813  -0.659  1.00  0.00     0.013 C 
BRANCH  16  17
HETATM   17  C14 UNL     1       2.447  -0.682  -0.102  1.00  0.00     0.243 C 
HETATM   18  O3  UNL     1       2.644   0.649   0.328  1.00  0.00    -0.369 OA
HETATM   19  C15 UNL     1       3.888   0.704   0.953  1.00  0.00     0.209 C 
HETATM   20  C16 UNL     1       5.039   0.383   0.062  1.00  0.00     0.109 C 
HETATM   21  C17 UNL     1       5.893  -0.709   0.670  1.00  0.00     0.051 C 
HETATM   22  O5  UNL     1       4.569  -0.107  -1.179  1.00  0.00    -0.304 OA
HETATM   23  C19 UNL     1       3.441  -0.915  -1.183  1.00  0.00     0.292 C 
HETATM   24  O6  UNL     1       3.310  -1.786  -2.077  1.00  0.00    -0.262 OA
BRANCH  20  25
HETATM   25  C18 UNL     1       5.921   1.589  -0.206  1.00  0.00     0.204 C 
BRANCH  25  26
HETATM   26  O4  UNL     1       5.251   2.602  -0.849  1.00  0.00    -0.398 OA
ATOM     27  H4  UNL     1       5.803   3.357  -1.017  1.00  0.00     0.209 HD
ENDBRANCH  25  26
ENDBRANCH  20  25
ENDBRANCH  16  17
ENDBRANCH   1  15
TORSDOF 6
