REMARK  4 active torsions:
REMARK  status: ('A' for Active; 'I' for Inactive)
REMARK    1  A    between atoms: C2_2  and  C4_4 
REMARK    2  A    between atoms: C4_4  and  C6_6 
REMARK       I    between atoms: C6_6  and  N1_8 
REMARK       I    between atoms: N3_14  and  C10_16 
REMARK       I    between atoms: C10_16  and  N4_18 
REMARK    3  A    between atoms: N4_18  and  S1_20 
REMARK    4  A    between atoms: S1_20  and  C11_23 
ROOT
HETATM    1  C6  UNL     1       2.123  -0.684  -0.371  1.00  0.00     0.246 C 
HETATM    2  O1  UNL     1       1.709  -0.886  -1.539  1.00  0.00    -0.272 OA
HETATM    3  N1  UNL     1       1.169  -0.612   0.680  1.00  0.00    -0.124 N 
HETATM    4  C7  UNL     1       1.432  -0.415   1.972  1.00  0.00     0.136 A 
HETATM    5  C8  UNL     1       0.219  -0.399   2.632  1.00  0.00     0.124 A 
HETATM    6  N2  UNL     1      -0.732  -0.591   1.694  1.00  0.00    -0.200 N 
ATOM      7  H2  UNL     1      -1.733  -0.627   1.887  1.00  0.00     0.183 HD
HETATM    8  C9  UNL     1      -0.190  -0.728   0.475  1.00  0.00     0.695 A 
HETATM    9  N3  UNL     1      -0.726  -0.928  -0.676  1.00  0.00    -0.140 N 
ATOM     10  H3  UNL     1      -0.120  -1.006  -1.493  1.00  0.00     0.189 HD
HETATM   11  C10 UNL     1      -2.119  -1.043  -0.851  1.00  0.00     0.348 C 
HETATM   12  O2  UNL     1      -2.874  -1.592   0.023  1.00  0.00    -0.245 OA
HETATM   13  N4  UNL     1      -2.753  -0.549  -2.019  1.00  0.00    -0.230 N 
ATOM     14  H4  UNL     1      -2.196  -0.102  -2.747  1.00  0.00     0.183 HD
ENDROOT
BRANCH  13  15
HETATM   15  S1  UNL     1      -4.444  -0.697  -2.216  1.00  0.00     0.288 S 
HETATM   16  O3  UNL     1      -4.836  -2.140  -2.143  1.00  0.00    -0.198 OA
HETATM   17  O4  UNL     1      -4.905  -0.155  -3.548  1.00  0.00    -0.198 OA
BRANCH  15  18
HETATM   18  C11 UNL     1      -5.273   0.196  -0.935  1.00  0.00     0.190 A 
HETATM   19  C12 UNL     1      -6.146  -0.318  -0.001  1.00  0.00     0.053 A 
HETATM   20  C13 UNL     1      -6.578   0.701   0.821  1.00  0.00     0.028 A 
HETATM   21  C14 UNL     1      -5.922   1.833   0.329  1.00  0.00     0.143 A 
HETATM   22  O5  UNL     1      -5.178   1.478  -0.691  1.00  0.00    -0.310 OA
ENDBRANCH  15  18
ENDBRANCH  13  15
BRANCH   1  23
HETATM   23  C4  UNL     1       3.579  -0.531  -0.176  1.00  0.00     0.078 C 
HETATM   24  C5  UNL     1       4.078  -1.531   0.843  1.00  0.00     0.020 C 
BRANCH  23  25
HETATM   25  C2  UNL     1       3.884   0.896   0.165  1.00  0.00    -0.010 C 
HETATM   26  C1  UNL     1       5.363   1.171   0.281  1.00  0.00     0.010 C 
HETATM   27  C3  UNL     1       3.350   1.769  -0.966  1.00  0.00     0.010 C 
ENDBRANCH  23  25
ENDBRANCH   1  23
TORSDOF 4
