REMARK  7 active torsions:
REMARK  status: ('A' for Active; 'I' for Inactive)
REMARK    1  A    between atoms: C2_2  and  O1_3 
REMARK    2  A    between atoms: O1_3  and  C3_4 
REMARK       I    between atoms: C3_4  and  N1_6 
REMARK    3  A    between atoms: C6_9  and  C7_10 
REMARK       I    between atoms: C7_10  and  N2_12 
REMARK    4  A    between atoms: N2_12  and  C8_14 
REMARK    5  A    between atoms: C11_18  and  C12_19 
REMARK       I    between atoms: C12_19  and  N3_21 
REMARK    6  A    between atoms: N3_21  and  C13_23 
REMARK    7  A    between atoms: C13_23  and  C14_24 
ROOT
HETATM    1  C8  UNL     1       1.098  -2.092  -0.885  1.00  0.00     0.092 A 
HETATM    2  S1  UNL     1       1.174  -3.650  -1.646  1.00  0.00    -0.083 SA
HETATM    3  C9  UNL     1       2.855  -3.826  -1.720  1.00  0.00     0.053 A 
HETATM    4  C10 UNL     1       3.320  -2.679  -1.155  1.00  0.00     0.027 A 
HETATM    5  C11 UNL     1       2.417  -1.776  -0.720  1.00  0.00     0.066 A 
ENDROOT
BRANCH   1   6
HETATM    6  N2  UNL     1      -0.112  -1.390  -0.551  1.00  0.00    -0.320 N 
HETATM    7  C7  UNL     1      -1.363  -2.033  -0.875  1.00  0.00     0.226 C 
HETATM    8  O3  UNL     1      -1.358  -3.156  -1.424  1.00  0.00    -0.273 OA
ATOM      9  H2  UNL     1      -0.087  -0.474  -0.103  1.00  0.00     0.169 HD
BRANCH   7  10
HETATM   10  C6  UNL     1      -2.654  -1.403  -0.577  1.00  0.00     0.081 C 
HETATM   11  C5  UNL     1      -3.826  -2.228  -0.989  1.00  0.00     0.034 C 
HETATM   12  C4  UNL     1      -5.095  -1.778  -0.305  1.00  0.00     0.129 C 
HETATM   13  N1  UNL     1      -4.991  -0.426   0.202  1.00  0.00    -0.328 N 
HETATM   14  C3  UNL     1      -6.029   0.532  -0.058  1.00  0.00     0.362 C 
HETATM   15  C19 UNL     1      -3.857   0.023   0.984  1.00  0.00     0.129 C 
HETATM   16  O2  UNL     1      -7.049   0.189  -0.741  1.00  0.00    -0.238 OA
HETATM   17  C18 UNL     1      -2.805  -1.064   0.902  1.00  0.00     0.034 C 
BRANCH  14  18
HETATM   18  O1  UNL     1      -5.971   1.826   0.405  1.00  0.00    -0.304 OA
BRANCH  18  19
HETATM   19  C2  UNL     1      -6.980   2.793   0.163  1.00  0.00     0.176 C 
HETATM   20  C1  UNL     1      -8.301   2.348   0.727  1.00  0.00     0.034 C 
ENDBRANCH  18  19
ENDBRANCH  14  18
ENDBRANCH   7  10
ENDBRANCH   1   6
BRANCH   5  21
HETATM   21  C12 UNL     1       2.838  -0.488  -0.087  1.00  0.00     0.254 C 
HETATM   22  O4  UNL     1       2.010   0.354   0.318  1.00  0.00    -0.268 OA
HETATM   23  N3  UNL     1       4.203  -0.146   0.091  1.00  0.00    -0.354 N 
ATOM     24  H3  UNL     1       4.915  -0.804  -0.226  1.00  0.00     0.162 HD
BRANCH  23  25
HETATM   25  C13 UNL     1       4.631   1.090   0.699  1.00  0.00     0.155 C 
BRANCH  25  26
HETATM   26  C14 UNL     1       6.152   1.177   0.753  1.00  0.00     0.139 C 
HETATM   27  C15 UNL     1       6.706   1.319  -0.666  1.00  0.00     0.035 C 
HETATM   28  C16 UNL     1       7.993   2.103  -0.477  1.00  0.00     0.029 C 
HETATM   29  C17 UNL     1       7.835   2.641   0.909  1.00  0.00     0.168 C 
HETATM   30  O5  UNL     1       6.556   2.364   1.336  1.00  0.00    -0.384 OA
ENDBRANCH  25  26
ENDBRANCH  23  25
ENDBRANCH   5  21
TORSDOF 7
