REMARK  9 active torsions:
REMARK  status: ('A' for Active; 'I' for Inactive)
REMARK    1  A    between atoms: C2_2  and  O2_4 
REMARK    2  A    between atoms: O2_4  and  C3_5 
REMARK    3  A    between atoms: C3_5  and  C4_6 
REMARK    4  A    between atoms: C4_6  and  C5_7 
REMARK    5  A    between atoms: C5_7  and  C6_9 
REMARK    6  A    between atoms: C6_9  and  C7_10 
REMARK    7  A    between atoms: C7_10  and  C9_12 
REMARK    8  A    between atoms: C9_12  and  C10_13 
REMARK    9  A    between atoms: C10_13  and  O4_14 
ROOT
HETATM    1  C10 UNL     1       1.164   0.184  -0.926  1.00  0.00     0.118 C 
HETATM    2  C11 UNL     1       0.779   0.532   0.445  1.00  0.00     0.047 C 
HETATM    3  C12 UNL     1      -0.748   0.626   0.504  1.00  0.00     0.013 C 
HETATM    4  C13 UNL     1      -1.273  -0.763   0.192  1.00  0.00    -0.033 C 
HETATM    5  C14 UNL     1      -0.441  -1.761   0.973  1.00  0.00     0.016 C 
HETATM    6  C15 UNL     1      -2.661  -0.852   0.747  1.00  0.00     0.016 C 
HETATM    7  C16 UNL     1      -3.623   0.130   0.110  1.00  0.00     0.010 C 
HETATM    8  C17 UNL     1      -4.471   0.870   1.090  1.00  0.00    -0.018 C 
HETATM    9  C18 UNL     1      -4.273   2.403   0.925  1.00  0.00     0.020 C 
HETATM   10  C19 UNL     1      -4.110   0.669   2.517  1.00  0.00    -0.013 C 
HETATM   11  C20 UNL     1      -4.849   0.136   3.441  1.00  0.00     0.047 C 
HETATM   12  C21 UNL     1      -6.189  -0.343   3.139  1.00  0.00     0.149 C 
HETATM   13  O5  UNL     1      -7.028  -0.610   3.999  1.00  0.00    -0.293 OA
HETATM   14  C22 UNL     1      -6.517  -0.505   1.672  1.00  0.00     0.088 C 
HETATM   15  C23 UNL     1      -5.943   0.675   0.979  1.00  0.00     0.005 C 
HETATM   16  C24 UNL     1      -6.286   0.870  -0.453  1.00  0.00     0.007 C 
HETATM   17  C25 UNL     1      -5.613   0.024  -1.444  1.00  0.00     0.013 C 
HETATM   18  C26 UNL     1      -4.213  -0.460  -1.095  1.00  0.00    -0.003 C 
HETATM   19  C27 UNL     1      -4.349  -1.965  -1.144  1.00  0.00     0.019 C 
HETATM   20  C28 UNL     1      -3.309  -0.120  -2.282  1.00  0.00     0.116 A 
HETATM   21  F1  UNL     1      -3.747   1.069  -2.905  1.00  0.00    -0.242 F 
HETATM   22  C29 UNL     1      -2.768  -1.120  -3.171  1.00  0.00     0.053 A 
HETATM   23  C30 UNL     1      -1.900  -0.277  -2.201  1.00  0.00     0.041 A 
HETATM   24  C31 UNL     1      -1.128  -1.079  -1.262  1.00  0.00     0.074 C 
HETATM   25  C32 UNL     1       0.339  -0.905  -1.526  1.00  0.00     0.166 C 
HETATM   26  O6  UNL     1       0.889  -1.683  -2.262  1.00  0.00    -0.294 OA
ENDROOT
BRANCH   1  27
HETATM   27  C9  UNL     1       2.605  -0.224  -1.060  1.00  0.00     0.050 C 
BRANCH  27  28
HETATM   28  C7  UNL     1       3.635   0.787  -0.786  1.00  0.00    -0.008 C 
HETATM   29  C8  UNL     1       3.705   1.321   0.614  1.00  0.00     0.010 C 
BRANCH  28  30
HETATM   30  C6  UNL     1       5.014   0.096  -0.994  1.00  0.00     0.082 C 
BRANCH  30  31
HETATM   31  C5  UNL     1       6.084   1.101  -0.847  1.00  0.00     0.129 C 
HETATM   32  O3  UNL     1       5.953   2.193  -1.358  1.00  0.00    -0.298 OA
BRANCH  31  33
HETATM   33  C4  UNL     1       7.322   0.815  -0.081  1.00  0.00     0.105 C 
BRANCH  33  34
HETATM   34  C3  UNL     1       8.388   0.109  -0.883  1.00  0.00     0.186 C 
BRANCH  34  35
HETATM   35  O2  UNL     1       9.505  -0.091  -0.049  1.00  0.00    -0.321 OA
BRANCH  35  36
HETATM   36  C2  UNL     1       9.552  -0.845   1.079  1.00  0.00     0.254 C 
HETATM   37  C1  UNL     1      10.799  -0.991   1.920  1.00  0.00     0.126 C 
HETATM   38  O1  UNL     1       8.541  -1.461   1.474  1.00  0.00    -0.266 OA
ENDBRANCH  35  36
ENDBRANCH  34  35
ENDBRANCH  33  34
ENDBRANCH  31  33
ENDBRANCH  30  31
ENDBRANCH  28  30
ENDBRANCH  27  28
ENDBRANCH   1  27
BRANCH   1  39
HETATM   39  O4  UNL     1       0.970   1.281  -1.800  1.00  0.00    -0.382 OA
ATOM     40  H4  UNL     1       0.060   1.539  -1.715  1.00  0.00     0.211 HD
ENDBRANCH   1  39
TORSDOF 9
