REMARK  7 active torsions:
REMARK  status: ('A' for Active; 'I' for Inactive)
REMARK    1  A    between atoms: C3_3  and  C4_4 
REMARK    2  A    between atoms: C4_4  and  C5_5 
REMARK       I    between atoms: C5_5  and  N1_7 
REMARK    3  A    between atoms: N1_7  and  C6_9 
REMARK    4  A    between atoms: C6_9  and  C7_10 
REMARK    5  A    between atoms: C18_23  and  C19_24 
REMARK    6  A    between atoms: N4_33  and  C26_34 
REMARK    7  A    between atoms: C28_36  and  C29_37 
ROOT
HETATM    1  C7  UNL     1      -7.982  -1.189  -0.817  1.00  0.00    -0.036 A 
HETATM    2  C8  UNL     1      -8.686  -2.191  -0.149  1.00  0.00     0.051 A 
HETATM    3  C9  UNL     1      -9.624  -1.895   0.814  1.00  0.00     0.118 A 
HETATM    4  F1  UNL     1     -10.312  -2.863   1.466  1.00  0.00    -0.206 F 
HETATM    5  C10 UNL     1      -9.900  -0.575   1.151  1.00  0.00     0.065 A 
HETATM    6  C11 UNL     1      -9.192   0.396   0.478  1.00  0.00     0.048 A 
HETATM    7  C12 UNL     1      -9.443   1.776   0.793  1.00  0.00     0.099 C 
HETATM    8  N2  UNL     1      -9.631   2.903   1.037  1.00  0.00    -0.191 NA
HETATM    9  C13 UNL     1      -8.242   0.118  -0.496  1.00  0.00     0.031 A 
ENDROOT
BRANCH   1  10
HETATM   10  C6  UNL     1      -6.981  -1.581  -1.854  1.00  0.00     0.161 C 
BRANCH  10  11
HETATM   11  N1  UNL     1      -5.722  -2.005  -1.295  1.00  0.00    -0.357 N 
HETATM   12  C5  UNL     1      -4.733  -1.139  -0.770  1.00  0.00     0.221 C 
HETATM   13  O1  UNL     1      -4.946   0.100  -0.780  1.00  0.00    -0.273 OA
ATOM     14  H1  UNL     1      -5.529  -3.006  -1.276  1.00  0.00     0.162 HD
BRANCH  12  15
HETATM   15  C4  UNL     1      -3.481  -1.727  -0.228  1.00  0.00     0.137 C 
BRANCH  15  16
HETATM   16  C3  UNL     1      -2.547  -0.697   0.261  1.00  0.00    -0.065 C 
HETATM   17  C2  UNL     1      -1.331  -0.558  -0.247  1.00  0.00    -0.053 C 
HETATM   18  C1  UNL     1      -0.880  -1.442  -1.321  1.00  0.00     0.049 C 
HETATM   19  C17 UNL     1      -0.408   0.506   0.251  1.00  0.00    -0.051 C 
HETATM   20  C16 UNL     1      -0.536   0.894   1.652  1.00  0.00     0.039 C 
HETATM   21  C18 UNL     1       0.467   0.983  -0.599  1.00  0.00     0.021 C 
HETATM   22  C15 UNL     1      -1.793   0.397   2.336  1.00  0.00     0.009 C 
HETATM   23  C14 UNL     1      -2.952   0.213   1.371  1.00  0.00     0.035 C 
BRANCH  21  24
HETATM   24  C19 UNL     1       1.438   2.021  -0.295  1.00  0.00    -0.013 A 
HETATM   25  C20 UNL     1       1.081   3.252   0.204  1.00  0.00     0.099 A 
HETATM   26  N3  UNL     1       2.002   4.176   0.496  1.00  0.00    -0.374 N 
HETATM   27  C21 UNL     1       3.299   3.950   0.316  1.00  0.00     0.097 A 
ATOM     28  H3  UNL     1       1.701   5.078   0.866  1.00  0.00     0.164 HD
HETATM   29  C22 UNL     1       3.734   2.716  -0.191  1.00  0.00    -0.018 A 
HETATM   30  C23 UNL     1       2.802   1.777  -0.486  1.00  0.00    -0.036 A 
HETATM   31  C33 UNL     1       5.191   2.511  -0.387  1.00  0.00     0.165 C 
HETATM   32  C24 UNL     1       3.179   0.464  -1.015  1.00  0.00     0.060 C 
HETATM   33  C25 UNL     1       4.552   0.031  -0.574  1.00  0.00     0.129 C 
HETATM   34  N4  UNL     1       5.476   1.104  -0.427  1.00  0.00    -0.363 N 
BRANCH  34  35
HETATM   35  C26 UNL     1       6.870   0.738  -0.305  1.00  0.00     0.103 A 
HETATM   36  C27 UNL     1       7.272  -0.579  -0.288  1.00  0.00     0.056 A 
HETATM   37  C28 UNL     1       8.608  -0.945  -0.178  1.00  0.00    -0.040 A 
HETATM   38  C31 UNL     1       9.570   0.036  -0.083  1.00  0.00     0.025 A 
HETATM   39  C32 UNL     1       9.154   1.348  -0.102  1.00  0.00     0.090 A 
HETATM   40  N6  UNL     1       7.851   1.657  -0.209  1.00  0.00    -0.352 N 
ATOM     41  H6  UNL     1       7.589   2.643  -0.218  1.00  0.00     0.166 HD
BRANCH  37  42
HETATM   42  C29 UNL     1       8.986  -2.383  -0.165  1.00  0.00     0.162 C 
HETATM   43  C30 UNL     1       9.012  -2.903   1.190  1.00  0.00     0.063 C 
HETATM   44  N5  UNL     1       9.014  -3.327   2.272  1.00  0.00    -0.197 NA
ENDBRANCH  37  42
ENDBRANCH  34  35
ENDBRANCH  21  24
ENDBRANCH  15  16
ENDBRANCH  12  15
ENDBRANCH  10  11
ENDBRANCH   1  10
TORSDOF 7
