REMARK  8 active torsions:
REMARK  status: ('A' for Active; 'I' for Inactive)
REMARK    1  A    between atoms: C2_2  and  C3_3 
REMARK    2  A    between atoms: N1_8  and  C8_9 
REMARK    3  A    between atoms: C8_9  and  C9_10 
REMARK    4  A    between atoms: C9_10  and  C10_11 
REMARK    5  A    between atoms: C10_11  and  N2_12 
REMARK       I    between atoms: N2_12  and  C11_14 
REMARK    6  A    between atoms: C11_14  and  C12_16 
REMARK       I    between atoms: C12_16  and  N3_18 
REMARK    7  A    between atoms: N3_18  and  C13_20 
REMARK    8  A    between atoms: C13_20  and  C14_21 
ROOT
HETATM    1  N2  UNL     1      -0.779   1.159  -1.411  1.00  0.00    -0.353 N 
ATOM      2  H2  UNL     1      -1.024   1.988  -0.869  1.00  0.00     0.162 HD
HETATM    3  C11 UNL     1       0.507   0.605  -1.208  1.00  0.00     0.309 C 
HETATM    4  O1  UNL     1       0.915  -0.416  -1.824  1.00  0.00    -0.262 OA
ENDROOT
BRANCH   3   5
HETATM    5  C12 UNL     1       1.403   1.226  -0.253  1.00  0.00     0.309 C 
HETATM    6  O2  UNL     1       1.031   2.241   0.378  1.00  0.00    -0.262 OA
HETATM    7  N3  UNL     1       2.689   0.680  -0.044  1.00  0.00    -0.350 N 
ATOM      8  H3  UNL     1       2.984  -0.147  -0.563  1.00  0.00     0.162 HD
BRANCH   7   9
HETATM    9  C13 UNL     1       3.595   1.303   0.918  1.00  0.00     0.155 C 
BRANCH   9  10
HETATM   10  C14 UNL     1       4.896   0.512   0.937  1.00  0.00     0.139 C 
HETATM   11  C15 UNL     1       5.673   0.719  -0.318  1.00  0.00     0.035 C 
HETATM   12  C16 UNL     1       7.131   1.102  -0.022  1.00  0.00     0.029 C 
HETATM   13  C17 UNL     1       7.912  -0.091   0.464  1.00  0.00     0.167 C 
HETATM   14  O3  UNL     1       7.137  -0.861   1.331  1.00  0.00    -0.389 OA
HETATM   15  C18 UNL     1       6.625  -1.916   0.598  1.00  0.00     0.193 C 
HETATM   16  C19 UNL     1       5.122  -1.777   0.564  1.00  0.00     0.194 C 
HETATM   17  O4  UNL     1       4.625  -0.754   1.300  1.00  0.00    -0.382 OA
ENDBRANCH   9  10
ENDBRANCH   7   9
ENDBRANCH   3   5
BRANCH   1  18
HETATM   18  C10 UNL     1      -1.770   0.646  -2.322  1.00  0.00     0.125 C 
BRANCH  18  19
HETATM   19  C9  UNL     1      -2.206  -0.766  -2.008  1.00  0.00     0.050 C 
BRANCH  19  20
HETATM   20  C8  UNL     1      -2.798  -0.858  -0.647  1.00  0.00     0.274 C 
BRANCH  20  21
HETATM   21  N1  UNL     1      -3.955  -0.036  -0.408  1.00  0.00     0.093 N 
HETATM   22  C3  UNL     1      -4.428  -0.169   0.945  1.00  0.00     0.222 C 
HETATM   23  C4  UNL     1      -5.576  -1.068   1.150  1.00  0.00     0.036 C 
HETATM   24  C5  UNL     1      -6.497  -1.318   0.021  1.00  0.00     0.004 C 
HETATM   25  C6  UNL     1      -5.685  -1.511  -1.243  1.00  0.00     0.030 C 
HETATM   26  C7  UNL     1      -4.929  -0.190  -1.408  1.00  0.00     0.273 C 
BRANCH  22  27
HETATM   27  C2  UNL     1      -4.601   1.179   1.612  1.00  0.00     0.031 C 
HETATM   28  C1  UNL     1      -5.779   1.959   1.143  1.00  0.00     0.007 C 
ENDBRANCH  22  27
ENDBRANCH  20  21
ENDBRANCH  19  20
ENDBRANCH  18  19
ENDBRANCH   1  18
TORSDOF 8
