REMARK  6 active torsions:
REMARK  status: ('A' for Active; 'I' for Inactive)
REMARK    1  A    between atoms: C2_2  and  C3_3 
REMARK    2  A    between atoms: C3_3  and  O1_4 
REMARK    3  A    between atoms: C3_3  and  C4_6 
REMARK    4  A    between atoms: C3_3  and  C15_22 
REMARK    5  A    between atoms: C4_6  and  N2_10 
REMARK    6  A    between atoms: N2_10  and  C5_12 
ROOT
HETATM    1  C4  UNL     1       1.136  -0.574  -0.317  1.00  0.00     0.106 C 
HETATM    2  N1  UNL     1       0.859  -1.518  -1.134  1.00  0.00    -0.387 N 
ATOM      3  H11 UNL     1      -0.091  -1.888  -1.137  1.00  0.00     0.157 HD
ATOM      4  H12 UNL     1       1.544  -1.914  -1.778  1.00  0.00     0.157 HD
ENDROOT
BRANCH   1   5
HETATM    5  C3  UNL     1       2.547  -0.024  -0.313  1.00  0.00     0.117 C 
BRANCH   5   6
HETATM    6  C2  UNL     1       2.405   1.412  -0.649  1.00  0.00     0.042 C 
HETATM    7  C1  UNL     1       3.643   2.210  -0.794  1.00  0.00     0.009 C 
ENDBRANCH   5   6
BRANCH   5   8
HETATM    8  O1  UNL     1       3.290  -0.670  -1.314  1.00  0.00    -0.382 OA
ATOM      9  H1  UNL     1       3.381  -1.591  -1.099  1.00  0.00     0.211 HD
ENDBRANCH   5   8
BRANCH   5  10
HETATM   10  C15 UNL     1       3.137  -0.350   1.011  1.00  0.00     0.019 C 
HETATM   11  C16 UNL     1       3.200  -1.869   1.183  1.00  0.00     0.013 C 
HETATM   12  C17 UNL     1       4.546   0.140   1.226  1.00  0.00     0.013 C 
ENDBRANCH   5  10
ENDBRANCH   1   5
BRANCH   1  13
HETATM   13  N2  UNL     1       0.187  -0.025   0.576  1.00  0.00    -0.368 N 
ATOM     14  H2  UNL     1       0.530   0.395   1.440  1.00  0.00     0.161 HD
BRANCH  13  15
HETATM   15  C5  UNL     1      -1.240  -0.023   0.340  1.00  0.00     0.032 C 
HETATM   16  C6  UNL     1      -1.723  -1.443   0.212  1.00  0.00     0.031 C 
HETATM   17  C7  UNL     1      -3.088  -1.656   0.811  1.00  0.00     0.007 C 
HETATM   18  C8  UNL     1      -4.142  -0.760   0.284  1.00  0.00    -0.014 C 
HETATM   19  C9  UNL     1      -3.848  -0.126  -1.032  1.00  0.00     0.010 C 
HETATM   20  C13 UNL     1      -4.389   0.464   1.173  1.00  0.00     0.010 C 
HETATM   21  C10 UNL     1      -3.050   1.103  -0.680  1.00  0.00    -0.008 C 
HETATM   22  C11 UNL     1      -1.589   0.772  -0.900  1.00  0.00     0.036 C 
HETATM   23  C12 UNL     1      -3.204   1.327   0.797  1.00  0.00    -0.008 C 
HETATM   24  C14 UNL     1      -1.963   0.752   1.413  1.00  0.00     0.036 C 
ENDBRANCH  13  15
ENDBRANCH   1  13
TORSDOF 6
