REMARK  7 active torsions:
REMARK  status: ('A' for Active; 'I' for Inactive)
REMARK    1  A    between atoms: C2_2  and  N1_4 
REMARK    2  A    between atoms: N1_4  and  C4_6 
REMARK    3  A    between atoms: C6_10  and  C7_11 
REMARK    4  A    between atoms: C7_11  and  O1_12 
REMARK    5  A    between atoms: O1_12  and  C8_13 
REMARK    6  A    between atoms: C8_13  and  C9_14 
REMARK    7  A    between atoms: C15_20  and  N3_21 
ROOT
HETATM    1  C4  UNL     1       3.406  -0.223  -0.278  1.00  0.00     0.679 A 
HETATM    2  N2  UNL     1       2.725   0.863  -0.645  1.00  0.00    -0.201 N 
ATOM      3  H2  UNL     1       3.156   1.672  -1.091  1.00  0.00     0.183 HD
HETATM    4  C5  UNL     1       1.356   0.779  -0.355  1.00  0.00     0.119 A 
HETATM    5  C6  UNL     1       0.809  -0.308   0.238  1.00  0.00     0.025 A 
HETATM    6  C15 UNL     1       1.592  -1.396   0.583  1.00  0.00     0.124 A 
HETATM    7  N4  UNL     1       2.886  -1.315   0.299  1.00  0.00    -0.177 N 
ATOM      8  H4  UNL     1       3.497  -2.100   0.525  1.00  0.00     0.186 HD
ENDROOT
BRANCH   5   9
HETATM    9  C7  UNL     1      -0.632  -0.367   0.717  1.00  0.00     0.211 C 
BRANCH   9  10
HETATM   10  O1  UNL     1      -1.294  -1.432   0.077  1.00  0.00    -0.386 OA
BRANCH  10  11
HETATM   11  C8  UNL     1      -2.538  -1.650   0.628  1.00  0.00     0.172 C 
BRANCH  11  12
HETATM   12  C9  UNL     1      -3.499  -0.588   0.264  1.00  0.00     0.009 C 
HETATM   13  C10 UNL     1      -3.842  -0.519  -1.213  1.00  0.00     0.007 C 
HETATM   14  C11 UNL     1      -4.389   0.851  -1.504  1.00  0.00     0.000 C 
HETATM   15  C12 UNL     1      -5.629   1.070  -0.644  1.00  0.00     0.000 C 
HETATM   16  C13 UNL     1      -5.250   0.920   0.827  1.00  0.00     0.000 C 
HETATM   17  C14 UNL     1      -4.763  -0.525   1.063  1.00  0.00     0.007 C 
ENDBRANCH  11  12
ENDBRANCH  10  11
ENDBRANCH   9  10
ENDBRANCH   5   9
BRANCH   6  18
HETATM   18  N3  UNL     1       1.070  -2.403   1.233  1.00  0.00    -0.385 N 
ATOM     19  H32 UNL     1       0.076  -2.465   1.451  1.00  0.00     0.157 HD
ATOM     20  H31 UNL     1       1.647  -3.205   1.487  1.00  0.00     0.157 HD
ENDBRANCH   6  18
BRANCH   1  21
HETATM   21  N1  UNL     1       4.668  -0.251  -0.335  1.00  0.00    -0.222 N 
ATOM     22  H1  UNL     1       5.094  -1.128  -0.035  1.00  0.00     0.178 HD
BRANCH  21  23
HETATM   23  C2  UNL     1       5.568   0.730  -0.744  1.00  0.00     0.091 C 
HETATM   24  C1  UNL     1       6.810   0.069  -1.276  1.00  0.00     0.032 C 
HETATM   25  C3  UNL     1       5.947   1.516   0.544  1.00  0.00     0.032 C 
ENDBRANCH  21  23
ENDBRANCH   1  21
TORSDOF 7
