REMARK  4 active torsions:
REMARK  status: ('A' for Active; 'I' for Inactive)
REMARK    1  A    between atoms: N1_1  and  C1_4 
REMARK    2  A    between atoms: C2_9  and  C3_10 
REMARK    3  A    between atoms: C3_10  and  C4_11 
REMARK       I    between atoms: C4_11  and  N4_13 
REMARK    4  A    between atoms: N4_13  and  C5_15 
ROOT
HETATM    1  C1  UNL     1       5.032  -0.528   1.343  1.00  0.00     0.705 A 
HETATM    2  N2  UNL     1       4.768   0.038   0.147  1.00  0.00    -0.130 N 
ATOM      3  H2  UNL     1       5.467   0.645  -0.281  1.00  0.00     0.205 HD
HETATM    4  N3  UNL     1       3.609  -0.177  -0.493  1.00  0.00    -0.273 N 
ATOM      5  H3  UNL     1       3.425   0.258  -1.397  1.00  0.00     0.189 HD
HETATM    6  C2  UNL     1       2.698  -0.975   0.079  1.00  0.00     0.120 A 
HETATM    7  N6  UNL     1       2.977  -1.527   1.264  1.00  0.00    -0.273 N 
ATOM      8  H6  UNL     1       2.280  -2.134   1.696  1.00  0.00     0.189 HD
HETATM    9  N7  UNL     1       4.123  -1.319   1.904  1.00  0.00    -0.130 N 
ATOM     10  H7  UNL     1       4.301  -1.758   2.807  1.00  0.00     0.205 HD
ENDROOT
BRANCH   6  11
HETATM   11  C3  UNL     1       1.408  -1.246  -0.579  1.00  0.00     0.182 C 
BRANCH  11  12
HETATM   12  C4  UNL     1       0.380  -0.232  -0.165  1.00  0.00     0.229 C 
HETATM   13  O1  UNL     1       0.746   0.642   0.630  1.00  0.00    -0.273 OA
HETATM   14  N4  UNL     1      -0.914  -0.329  -0.692  1.00  0.00    -0.325 N 
ATOM     15  H4  UNL     1      -1.068  -1.104  -1.337  1.00  0.00     0.169 HD
BRANCH  14  16
HETATM   16  C5  UNL     1      -2.031   0.494  -0.455  1.00  0.00     0.059 A 
HETATM   17  C6  UNL     1      -2.043   1.597   0.383  1.00  0.00     0.031 A 
HETATM   18  C7  UNL     1      -3.181   2.370   0.574  1.00  0.00     0.002 A 
HETATM   19  C8  UNL     1      -4.319   2.003  -0.104  1.00  0.00     0.002 A 
HETATM   20  C9  UNL     1      -4.345   0.913  -0.945  1.00  0.00     0.029 A 
HETATM   21  C10 UNL     1      -3.216   0.156  -1.128  1.00  0.00     0.073 A 
HETATM   22  N5  UNL     1      -3.272  -0.972  -2.008  1.00  0.00    -0.100 NA
ENDBRANCH  14  16
ENDBRANCH  11  12
ENDBRANCH   6  11
BRANCH   1  23
HETATM   23  N1  UNL     1       6.141  -0.316   1.943  1.00  0.00    -0.232 N 
ATOM     24  H12 UNL     1       6.839   0.291   1.512  1.00  0.00     0.174 HD
ATOM     25  H11 UNL     1       6.341  -0.744   2.847  1.00  0.00     0.174 HD
ENDBRANCH   1  23
TORSDOF 4
