REMARK  5 active torsions:
REMARK  status: ('A' for Active; 'I' for Inactive)
REMARK    1  A    between atoms: N1_2  and  C3_4 
REMARK    2  A    between atoms: C3_4  and  C4_5 
REMARK    3  A    between atoms: C4_5  and  C5_6 
REMARK    4  A    between atoms: C5_6  and  N2_7 
REMARK    5  A    between atoms: C6_8  and  N3_9 
ROOT
HETATM    1  N2  UNL     1      -0.864  -0.575  -0.801  1.00  0.00    -0.319 N 
HETATM    2  C6  UNL     1      -1.006  -1.802  -0.314  1.00  0.00     0.102 A 
HETATM    3  C7  UNL     1      -2.079  -2.160   0.500  1.00  0.00     0.049 A 
HETATM    4  C8  UNL     1      -3.026  -1.212   0.809  1.00  0.00     0.021 A 
HETATM    5  C9  UNL     1      -2.911   0.059   0.322  1.00  0.00     0.035 A 
HETATM    6  C10 UNL     1      -3.875   0.995   0.649  1.00  0.00     0.041 A 
HETATM    7  N4  UNL     1      -4.896   0.772   1.383  1.00  0.00    -0.398 N 
ATOM      8  H41 UNL     1      -5.607   1.462   1.624  1.00  0.00     0.156 HD
ATOM      9  H42 UNL     1      -5.017  -0.167   1.763  1.00  0.00     0.156 HD
HETATM   10  C11 UNL     1      -3.709   2.284   0.127  1.00  0.00     0.047 A 
HETATM   11  C12 UNL     1      -2.630   2.566  -0.664  1.00  0.00     0.092 A 
HETATM   12  N5  UNL     1      -1.702   1.601  -0.957  1.00  0.00    -0.351 N 
ATOM     13  H5  UNL     1      -0.907   1.841  -1.549  1.00  0.00     0.166 HD
HETATM   14  C13 UNL     1      -1.811   0.353  -0.487  1.00  0.00     0.121 A 
ENDROOT
BRANCH   1  15
HETATM   15  C5  UNL     1       0.251  -0.197  -1.599  1.00  0.00     0.134 C 
BRANCH  15  16
HETATM   16  C4  UNL     1       1.392   0.448  -0.873  1.00  0.00     0.050 C 
BRANCH  16  17
HETATM   17  C3  UNL     1       2.014  -0.380   0.201  1.00  0.00     0.273 C 
BRANCH  17  18
HETATM   18  N1  UNL     1       3.111   0.306   0.865  1.00  0.00     0.080 N 
HETATM   19  C1  UNL     1       3.625  -0.597   1.878  1.00  0.00     0.309 C 
HETATM   20  C2  UNL     1       4.187   0.547  -0.079  1.00  0.00     0.309 C 
ENDBRANCH  17  18
ENDBRANCH  16  17
ENDBRANCH  15  16
ENDBRANCH   1  15
BRANCH   2  21
HETATM   21  N3  UNL     1      -0.204  -2.749  -0.574  1.00  0.00    -0.385 N 
ATOM     22  H32 UNL     1       0.581  -2.487  -1.170  1.00  0.00     0.157 HD
ATOM     23  H31 UNL     1      -0.313  -3.692  -0.200  1.00  0.00     0.157 HD
ENDBRANCH   2  21
TORSDOF 5
