REMARK  16 active torsions:
REMARK  status: ('A' for Active; 'I' for Inactive)
REMARK    1  A    between atoms: C2_2  and  C3_3 
REMARK    2  A    between atoms: C3_3  and  C4_4 
REMARK    3  A    between atoms: C4_4  and  C5_5 
REMARK    4  A    between atoms: C4_4  and  C7_9 
REMARK    5  A    between atoms: C5_5  and  C6_6 
REMARK       I    between atoms: C7_9  and  N1_11 
REMARK    6  A    between atoms: N1_11  and  C8_13 
REMARK    7  A    between atoms: C8_13  and  C9_14 
REMARK    8  A    between atoms: C8_13  and  C21_32 
REMARK    9  A    between atoms: C9_14  and  C10_15 
REMARK   10  A    between atoms: C12_17  and  C13_18 
REMARK   11  A    between atoms: C13_18  and  O4_19 
REMARK   12  A    between atoms: C13_18  and  N2_21 
REMARK   13  A    between atoms: N2_21  and  C14_22 
REMARK   14  A    between atoms: N2_21  and  C17_25 
REMARK       I    between atoms: C21_32  and  N5_34 
REMARK       I    between atoms: N6_37  and  C24_38 
REMARK   15  A    between atoms: C24_38  and  O7_40 
REMARK   16  A    between atoms: O7_40  and  C25_41 
ROOT
HETATM    1  C8  UNL     1       0.729   1.262   0.314  1.00  0.00     0.182 C 
ENDROOT
BRANCH   1   2
HETATM    2  N1  UNL     1       0.090   2.523   0.707  1.00  0.00    -0.347 N 
HETATM    3  C7  UNL     1       0.170   3.697  -0.078  1.00  0.00     0.223 C 
HETATM    4  O3  UNL     1       0.805   3.666  -1.145  1.00  0.00    -0.273 OA
ATOM      5  H1  UNL     1      -0.433   2.554   1.582  1.00  0.00     0.163 HD
BRANCH   3   6
HETATM    6  C4  UNL     1      -0.484   4.959   0.353  1.00  0.00     0.088 C 
BRANCH   6   7
HETATM    7  C3  UNL     1      -0.303   6.096  -0.601  1.00  0.00     0.014 C 
BRANCH   7   8
HETATM    8  C2  UNL     1      -0.819   5.859  -1.991  1.00  0.00    -0.004 C 
HETATM    9  C1  UNL     1      -2.323   5.572  -1.948  1.00  0.00     0.005 C 
ENDBRANCH   7   8
ENDBRANCH   6   7
BRANCH   6  10
HETATM   10  C5  UNL     1       0.056   5.377   1.711  1.00  0.00     0.127 C 
BRANCH  10  11
HETATM   11  C6  UNL     1       1.456   5.693   1.785  1.00  0.00     0.173 C 
HETATM   12  O1  UNL     1       2.267   5.546   0.855  1.00  0.00    -0.648 OA
HETATM   13  O2  UNL     1       1.968   6.204   2.978  1.00  0.00    -0.648 OA
ENDBRANCH  10  11
ENDBRANCH   6  10
ENDBRANCH   3   6
ENDBRANCH   1   2
BRANCH   1  14
HETATM   14  C9  UNL     1      -0.262   0.185   0.580  1.00  0.00     0.093 C 
BRANCH  14  15
HETATM   15  C10 UNL     1      -1.522   0.360  -0.207  1.00  0.00     0.030 A 
HETATM   16  C11 UNL     1      -2.644  -0.491  -0.107  1.00  0.00     0.062 A 
HETATM   17  C12 UNL     1      -3.638  -0.090  -0.957  1.00  0.00     0.102 A 
HETATM   18  N3  UNL     1      -3.107   1.011  -1.571  1.00  0.00    -0.292 N 
HETATM   19  C20 UNL     1      -3.752   1.825  -2.582  1.00  0.00     0.178 C 
HETATM   20  N4  UNL     1      -1.877   1.247  -1.115  1.00  0.00    -0.302 N 
ATOM     21  H4  UNL     1      -1.285   2.016  -1.429  1.00  0.00     0.186 HD
BRANCH  17  22
HETATM   22  C13 UNL     1      -4.952  -0.618  -1.221  1.00  0.00     0.168 C 
BRANCH  22  23
HETATM   23  O4  UNL     1      -5.620   0.106  -2.139  1.00  0.00    -0.344 OA
ATOM     24  H4  UNL     1      -6.487  -0.242  -2.313  1.00  0.00     0.219 HD
ENDBRANCH  22  23
BRANCH  22  25
HETATM   25  N2  UNL     1      -5.693  -1.704  -0.747  1.00  0.00    -0.352 N 
BRANCH  25  26
HETATM   26  C14 UNL     1      -5.222  -2.631   0.217  1.00  0.00     0.078 C 
HETATM   27  C15 UNL     1      -5.223  -4.089  -0.225  1.00  0.00     0.032 C 
HETATM   28  C16 UNL     1      -6.026  -2.596   1.536  1.00  0.00     0.032 C 
ENDBRANCH  25  26
BRANCH  25  29
HETATM   29  C17 UNL     1      -7.036  -1.855  -1.334  1.00  0.00     0.078 C 
HETATM   30  C18 UNL     1      -8.155  -1.689  -0.364  1.00  0.00     0.032 C 
HETATM   31  C19 UNL     1      -7.224  -3.084  -2.153  1.00  0.00     0.032 C 
ENDBRANCH  25  29
ENDBRANCH  22  25
ENDBRANCH  17  22
ENDBRANCH  14  15
ENDBRANCH   1  14
BRANCH   1  32
HETATM   32  C21 UNL     1       1.884   1.015   1.252  1.00  0.00     0.243 C 
HETATM   33  O5  UNL     1       2.037   1.811   2.233  1.00  0.00    -0.271 OA
HETATM   34  N5  UNL     1       2.801  -0.039   1.110  1.00  0.00    -0.347 N 
HETATM   35  C22 UNL     1       2.709  -0.955  -0.010  1.00  0.00     0.146 C 
HETATM   36  C30 UNL     1       3.847  -0.227   2.095  1.00  0.00     0.146 C 
HETATM   37  C23 UNL     1       4.118  -1.175  -0.531  1.00  0.00     0.148 C 
HETATM   38  N6  UNL     1       4.896  -1.780   0.521  1.00  0.00    -0.325 N 
HETATM   39  C24 UNL     1       6.025  -2.587   0.158  1.00  0.00     0.363 C 
HETATM   40  C29 UNL     1       4.538  -1.561   1.908  1.00  0.00     0.148 C 
HETATM   41  O6  UNL     1       6.305  -2.748  -1.056  1.00  0.00    -0.238 OA
BRANCH  39  42
HETATM   42  O7  UNL     1       6.827  -3.204   1.094  1.00  0.00    -0.294 OA
BRANCH  42  43
HETATM   43  C25 UNL     1       7.921  -3.982   0.660  1.00  0.00     0.061 C 
HETATM   44  C26 UNL     1       8.832  -3.061  -0.130  1.00  0.00     0.046 C 
HETATM   45  C27 UNL     1       7.521  -5.166  -0.184  1.00  0.00     0.046 C 
HETATM   46  C28 UNL     1       8.709  -4.515   1.848  1.00  0.00     0.046 C 
ENDBRANCH  42  43
ENDBRANCH  39  42
ENDBRANCH   1  32
TORSDOF 16
