REMARK  14 active torsions:
REMARK  status: ('A' for Active; 'I' for Inactive)
REMARK    1  A    between atoms: C2_2  and  C3_3 
REMARK    2  A    between atoms: C3_3  and  C5_5 
REMARK    3  A    between atoms: C5_5  and  N1_6 
REMARK    4  A    between atoms: C5_5  and  C27_37 
REMARK       I    between atoms: N1_6  and  C6_8 
REMARK    5  A    between atoms: C6_8  and  C7_10 
REMARK       I    between atoms: N2_14  and  C11_15 
REMARK    6  A    between atoms: C11_15  and  C12_17 
REMARK    7  A    between atoms: C12_17  and  N3_18 
REMARK    8  A    between atoms: C12_17  and  C15_23 
REMARK       I    between atoms: N3_18  and  C13_20 
REMARK    9  A    between atoms: C19_27  and  C20_28 
REMARK   10  A    between atoms: C21_31  and  C22_32 
REMARK   11  A    between atoms: C22_32  and  C23_33 
REMARK   12  A    between atoms: C27_37  and  O6_38 
REMARK   13  A    between atoms: C27_37  and  N4_42 
REMARK   14  A    between atoms: O6_38  and  C28_39 
ROOT
HETATM    1  N4  UNL     1       3.058   0.682  -1.350  1.00  0.00    -0.294 N 
HETATM    2  C30 UNL     1       3.475   1.979  -0.953  1.00  0.00     0.165 C 
HETATM    3  C31 UNL     1       2.598   0.411  -2.613  1.00  0.00     0.181 C 
HETATM    4  N5  UNL     1       2.226   0.193  -3.694  1.00  0.00    -0.172 NA
ENDROOT
BRANCH   1   5
HETATM    5  C27 UNL     1       3.239  -0.462  -0.371  1.00  0.00     0.264 C 
BRANCH   5   6
HETATM    6  C5  UNL     1       2.946  -0.048   1.007  1.00  0.00     0.138 C 
BRANCH   6   7
HETATM    7  C3  UNL     1       3.713  -0.693   2.089  1.00  0.00     0.008 C 
HETATM    8  C4  UNL     1       3.208  -2.151   2.298  1.00  0.00     0.012 C 
BRANCH   7   9
HETATM    9  C2  UNL     1       5.181  -0.811   2.008  1.00  0.00     0.002 C 
HETATM   10  C1  UNL     1       5.923   0.503   1.818  1.00  0.00     0.005 C 
ENDBRANCH   7   9
ENDBRANCH   6   7
BRANCH   6  11
HETATM   11  N1  UNL     1       1.538   0.014   1.373  1.00  0.00    -0.350 N 
HETATM   12  C6  UNL     1       0.336  -0.042   0.731  1.00  0.00     0.241 C 
HETATM   13  O1  UNL     1       0.184  -0.202  -0.484  1.00  0.00    -0.271 OA
ATOM     14  H1  UNL     1       1.419   0.131   2.379  1.00  0.00     0.163 HD
BRANCH  12  15
HETATM   15  C7  UNL     1      -0.952   0.091   1.510  1.00  0.00     0.184 C 
HETATM   16  C8  UNL     1      -1.353   1.458   1.775  1.00  0.00     0.029 C 
HETATM   17  C9  UNL     1      -2.898   1.371   1.826  1.00  0.00     0.025 C 
HETATM   18  C21 UNL     1      -1.554   2.422   0.570  1.00  0.00     0.008 C 
HETATM   19  C10 UNL     1      -3.155   0.303   0.809  1.00  0.00     0.133 C 
HETATM   20  C19 UNL     1      -2.826   2.811   1.272  1.00  0.00     0.097 C 
HETATM   21  N2  UNL     1      -2.023  -0.598   0.899  1.00  0.00    -0.336 N 
HETATM   22  C11 UNL     1      -2.065  -1.969   0.453  1.00  0.00     0.244 C 
HETATM   23  O2  UNL     1      -1.039  -2.650   0.637  1.00  0.00    -0.271 OA
BRANCH  22  24
HETATM   24  C12 UNL     1      -3.249  -2.557  -0.184  1.00  0.00     0.184 C 
BRANCH  24  25
HETATM   25  N3  UNL     1      -3.387  -3.945   0.322  1.00  0.00    -0.347 N 
HETATM   26  C13 UNL     1      -4.515  -4.348   1.034  1.00  0.00     0.214 C 
HETATM   27  C14 UNL     1      -4.728  -5.709   1.571  1.00  0.00     0.117 C 
HETATM   28  O3  UNL     1      -5.433  -3.505   1.248  1.00  0.00    -0.274 OA
ATOM     29  H3  UNL     1      -2.641  -4.618   0.145  1.00  0.00     0.163 HD
ENDBRANCH  24  25
BRANCH  24  30
HETATM   30  C15 UNL     1      -3.143  -2.737  -1.681  1.00  0.00    -0.022 C 
HETATM   31  C16 UNL     1      -2.911  -1.490  -2.455  1.00  0.00     0.017 C 
HETATM   32  C17 UNL     1      -4.529  -3.260  -2.109  1.00  0.00     0.017 C 
HETATM   33  C18 UNL     1      -2.174  -3.822  -2.083  1.00  0.00     0.017 C 
ENDBRANCH  24  30
ENDBRANCH  22  24
BRANCH  20  34
HETATM   34  C20 UNL     1      -4.020   3.132   0.529  1.00  0.00     0.177 C 
HETATM   35  O4  UNL     1      -4.775   4.065   1.022  1.00  0.00    -0.648 OA
HETATM   36  O5  UNL     1      -4.508   2.608  -0.639  1.00  0.00    -0.648 OA
ENDBRANCH  20  34
BRANCH  18  37
HETATM   37  C22 UNL     1      -0.410   3.337   0.504  1.00  0.00     0.014 C 
BRANCH  37  38
HETATM   38  C23 UNL     1      -0.347   4.357  -0.571  1.00  0.00    -0.051 C 
HETATM   39  C24 UNL     1      -1.493   5.336  -0.570  1.00  0.00     0.014 C 
HETATM   40  C25 UNL     1       0.908   5.208  -0.305  1.00  0.00     0.014 C 
HETATM   41  C26 UNL     1      -0.124   3.754  -1.946  1.00  0.00     0.014 C 
ENDBRANCH  37  38
ENDBRANCH  18  37
ENDBRANCH  12  15
ENDBRANCH   6  11
ENDBRANCH   5   6
BRANCH   5  42
HETATM   42  O6  UNL     1       4.649  -0.661  -0.584  1.00  0.00    -0.293 OA
BRANCH  42  43
HETATM   43  C28 UNL     1       5.070  -1.691  -1.437  1.00  0.00     0.256 C 
HETATM   44  C29 UNL     1       6.504  -1.949  -1.688  1.00  0.00     0.126 C 
HETATM   45  O7  UNL     1       4.185  -2.388  -1.978  1.00  0.00    -0.266 OA
ENDBRANCH  42  43
ENDBRANCH   5  42
ENDBRANCH   1   5
TORSDOF 14
