REMARK  4 active torsions:
REMARK  status: ('A' for Active; 'I' for Inactive)
REMARK    1  A    between atoms: C2_2  and  C4_4 
REMARK    2  A    between atoms: C8_9  and  O2_10 
REMARK    3  A    between atoms: C10_14  and  O4_15 
REMARK    4  A    between atoms: C16_22  and  O5_23 
ROOT
HETATM    1  C4  UNL     1      -2.198   0.337   1.094  1.00  0.00     0.133 C 
HETATM    2  O1  UNL     1      -1.854  -0.893   1.780  1.00  0.00    -0.379 OA
HETATM    3  C5  UNL     1      -1.773  -1.874   0.848  1.00  0.00     0.132 A 
HETATM    4  C6  UNL     1      -0.452  -2.605   0.569  1.00  0.00     0.032 A 
HETATM    5  C7  UNL     1       0.728  -1.754   0.476  1.00  0.00     0.034 A 
HETATM    6  C8  UNL     1       2.089  -1.807  -0.021  1.00  0.00     0.153 C 
HETATM    7  C9  UNL     1       2.476  -0.389  -0.499  1.00  0.00     0.162 C 
HETATM    8  O3  UNL     1       1.591   0.225  -1.277  1.00  0.00    -0.343 OA
HETATM    9  C10 UNL     1       0.845   1.275  -0.999  1.00  0.00     0.198 C 
HETATM   10  C11 UNL     1       1.210   2.095   0.206  1.00  0.00     0.073 C 
HETATM   11  C12 UNL     1       2.133   1.463   1.172  1.00  0.00     0.017 C 
HETATM   12  C13 UNL     1       3.097   0.456   0.574  1.00  0.00    -0.019 C 
HETATM   13  C14 UNL     1       4.207   1.315  -0.068  1.00  0.00     0.017 C 
HETATM   14  C15 UNL     1       3.745  -0.268   1.696  1.00  0.00     0.017 C 
HETATM   15  C16 UNL     1      -0.696   1.014  -0.994  1.00  0.00     0.138 C 
HETATM   16  C17 UNL     1      -0.898   0.358  -2.334  1.00  0.00     0.013 C 
HETATM   17  C18 UNL     1      -0.703  -0.891  -2.743  1.00  0.00    -0.027 C 
HETATM   18  C19 UNL     1      -0.198  -2.101  -1.969  1.00  0.00     0.038 C 
HETATM   19  C20 UNL     1      -0.216  -1.772  -0.571  1.00  0.00    -0.018 A 
HETATM   20  C21 UNL     1      -1.534  -1.114  -0.382  1.00  0.00     0.035 A 
HETATM   21  C22 UNL     1      -1.134   0.282   0.126  1.00  0.00     0.066 C 
ENDROOT
BRANCH   1  22
HETATM   22  C2  UNL     1      -3.602   0.150   0.704  1.00  0.00     0.007 C 
HETATM   23  C1  UNL     1      -4.252   1.265  -0.033  1.00  0.00     0.012 C 
HETATM   24  C3  UNL     1      -4.406  -0.037   2.004  1.00  0.00     0.012 C 
ENDBRANCH   1  22
BRANCH  15  25
HETATM   25  O5  UNL     1      -1.245   2.312  -1.111  1.00  0.00    -0.380 OA
ATOM     26  H5  UNL     1      -2.182   2.153  -1.108  1.00  0.00     0.211 HD
ENDBRANCH  15  25
BRANCH   9  27
HETATM   27  O4  UNL     1       0.956   2.156  -2.109  1.00  0.00    -0.363 OA
ATOM     28  H4  UNL     1       0.418   2.913  -1.909  1.00  0.00     0.213 HD
ENDBRANCH   9  27
BRANCH   6  29
HETATM   29  O2  UNL     1       2.435  -2.790  -0.929  1.00  0.00    -0.393 OA
ATOM     30  H2  UNL     1       3.327  -2.825  -1.255  1.00  0.00     0.210 HD
ENDBRANCH   6  29
TORSDOF 4
