REMARK  6 active torsions:
REMARK  status: ('A' for Active; 'I' for Inactive)
REMARK    1  A    between atoms: N1_3  and  C2_4 
REMARK    2  A    between atoms: C2_4  and  C3_5 
REMARK    3  A    between atoms: C3_5  and  C4_6 
REMARK    4  A    between atoms: C10_12  and  O2_13 
REMARK    5  A    between atoms: C11_15  and  O3_16 
REMARK    6  A    between atoms: N2_18  and  C12_19 
ROOT
HETATM    1  O1  UNL     1      -1.462  -0.224   1.616  1.00  0.00    -0.246 OA
HETATM    2  C1  UNL     1      -1.563  -0.365   0.375  1.00  0.00     0.337 A 
HETATM    3  N1  UNL     1      -0.523  -0.680  -0.439  1.00  0.00    -0.276 N 
HETATM    4  C10 UNL     1      -0.989  -0.750  -1.701  1.00  0.00     0.199 A 
HETATM    5  C11 UNL     1      -2.336  -0.469  -1.614  1.00  0.00     0.204 A 
HETATM    6  N2  UNL     1      -2.687  -0.232  -0.337  1.00  0.00    -0.238 N 
ENDROOT
BRANCH   6   7
HETATM    7  C12 UNL     1      -3.997   0.090   0.123  1.00  0.00     0.071 A 
HETATM    8  C13 UNL     1      -4.268   1.307   0.721  1.00  0.00     0.057 A 
HETATM    9  C14 UNL     1      -5.532   1.636   1.172  1.00  0.00     0.059 A 
HETATM   10 CL1  UNL     1      -5.839   3.188   1.925  1.00  0.00    -0.082 Cl
HETATM   11  C15 UNL     1      -6.577   0.746   1.037  1.00  0.00     0.079 A 
HETATM   12 CL2  UNL     1      -8.201   1.100   1.587  1.00  0.00    -0.081 Cl
HETATM   13  C16 UNL     1      -6.336  -0.479   0.443  1.00  0.00     0.081 A 
HETATM   14 CL3  UNL     1      -7.662  -1.619   0.268  1.00  0.00    -0.081 Cl
HETATM   15  C17 UNL     1      -5.056  -0.788  -0.003  1.00  0.00     0.085 A 
HETATM   16 CL4  UNL     1      -4.745  -2.330  -0.753  1.00  0.00    -0.080 Cl
ENDBRANCH   6   7
BRANCH   5  17
HETATM   17  O3  UNL     1      -3.203  -0.438  -2.715  1.00  0.00    -0.342 OA
ATOM     18  H3  UNL     1      -4.131  -0.244  -2.655  1.00  0.00     0.219 HD
ENDBRANCH   5  17
BRANCH   3  19
HETATM   19  C2  UNL     1       0.846  -0.901  -0.028  1.00  0.00     0.140 C 
BRANCH  19  20
HETATM   20  C3  UNL     1       1.609   0.412  -0.064  1.00  0.00     0.054 C 
BRANCH  20  21
HETATM   21  C4  UNL     1       3.027   0.222   0.354  1.00  0.00    -0.082 C 
HETATM   22  C5  UNL     1       3.567   0.830   1.386  1.00  0.00    -0.024 C 
HETATM   23  C6  UNL     1       4.960   0.684   1.848  1.00  0.00     0.027 C 
HETATM   24  C7  UNL     1       5.796  -0.201   0.986  1.00  0.00     0.004 C 
HETATM   25  C8  UNL     1       5.288  -0.128  -0.451  1.00  0.00     0.005 C 
HETATM   26  C9  UNL     1       3.893  -0.711  -0.438  1.00  0.00     0.034 C 
ENDBRANCH  20  21
ENDBRANCH  19  20
ENDBRANCH   3  19
BRANCH   4  27
HETATM   27  O2  UNL     1      -0.241  -1.051  -2.857  1.00  0.00    -0.343 OA
ATOM     28  H2  UNL     1      -0.570  -1.100  -3.747  1.00  0.00     0.219 HD
ENDBRANCH   4  27
TORSDOF 6
