REMARK  5 active torsions:
REMARK  status: ('A' for Active; 'I' for Inactive)
REMARK    1  A    between atoms: C2_2  and  C4_4 
REMARK    2  A    between atoms: C2_2  and  C8_13 
REMARK    3  A    between atoms: C6_7  and  C7_8 
REMARK    4  A    between atoms: C7_8  and  O1_9 
REMARK    5  A    between atoms: C13_22  and  C14_23 
ROOT
HETATM    1  C8  UNL     1      -0.570  -0.352  -0.806  1.00  0.00    -0.005 A 
HETATM    2  C9  UNL     1       0.141  -1.251  -1.652  1.00  0.00     0.066 A 
HETATM    3 CL1  UNL     1       1.599  -0.775  -2.499  1.00  0.00    -0.082 Cl
HETATM    4  C10 UNL     1      -0.320  -2.530  -1.830  1.00  0.00     0.079 A 
HETATM    5 CL2  UNL     1       0.560  -3.632  -2.871  1.00  0.00    -0.081 Cl
HETATM    6  C11 UNL     1      -1.456  -2.987  -1.217  1.00  0.00     0.080 A 
HETATM    7 CL3  UNL     1      -2.013  -4.616  -1.464  1.00  0.00    -0.081 Cl
HETATM    8  C12 UNL     1      -2.119  -2.119  -0.418  1.00  0.00     0.072 A 
HETATM    9 CL4  UNL     1      -3.587  -2.613   0.411  1.00  0.00    -0.081 Cl
HETATM   10  C13 UNL     1      -1.693  -0.788  -0.196  1.00  0.00     0.042 A 
ENDROOT
BRANCH   1  11
HETATM   11  C2  UNL     1       0.057   0.953  -0.724  1.00  0.00     0.025 C 
HETATM   12  C1  UNL     1      -0.488   1.996   0.221  1.00  0.00     0.027 C 
HETATM   13  C3  UNL     1       0.194   1.595  -2.115  1.00  0.00     0.027 C 
BRANCH  11  14
HETATM   14  C4  UNL     1       1.481   0.778  -0.178  1.00  0.00     0.029 A 
HETATM   15  C5  UNL     1       2.463   1.670  -0.496  1.00  0.00     0.077 A 
HETATM   16  S1  UNL     1       3.807   1.025   0.389  1.00  0.00    -0.085 SA
HETATM   17  C6  UNL     1       3.014  -0.319   1.087  1.00  0.00     0.074 A 
HETATM   18  N1  UNL     1       1.788  -0.204   0.614  1.00  0.00    -0.354 N 
ATOM     19  H1  UNL     1       1.078  -0.890   0.872  1.00  0.00     0.166 HD
BRANCH  17  20
HETATM   20  C7  UNL     1       3.570  -1.379   2.014  1.00  0.00     0.229 C 
BRANCH  20  21
HETATM   21  O1  UNL     1       4.931  -1.058   2.217  1.00  0.00    -0.394 OA
ATOM     22  H1  UNL     1       5.280  -1.723   2.799  1.00  0.00     0.209 HD
ENDBRANCH  20  21
ENDBRANCH  17  20
ENDBRANCH  11  14
ENDBRANCH   1  11
BRANCH  10  23
HETATM   23  C14 UNL     1      -2.537   0.021   0.661  1.00  0.00     0.133 A 
HETATM   24  N2  UNL     1      -3.610   0.734   0.284  1.00  0.00    -0.336 N 
HETATM   25  C15 UNL     1      -4.156   1.281   1.372  1.00  0.00     0.199 A 
ATOM     26  H2  UNL     1      -3.950   0.840  -0.672  1.00  0.00     0.168 HD
HETATM   27  N3  UNL     1      -3.440   0.922   2.437  1.00  0.00    -0.295 N 
HETATM   28  N4  UNL     1      -2.456   0.154   1.985  1.00  0.00    -0.284 N 
ATOM     29  H3  UNL     1      -3.614   1.185   3.407  1.00  0.00     0.187 HD
ATOM     30  H4  UNL     1      -1.738  -0.275   2.569  1.00  0.00     0.188 HD
ENDBRANCH  10  23
TORSDOF 5
