REMARK  6 active torsions:
REMARK  status: ('A' for Active; 'I' for Inactive)
REMARK    1  A    between atoms: C2_2  and  O1_3 
REMARK    2  A    between atoms: O1_3  and  C3_4 
REMARK    3  A    between atoms: C3_4  and  C4_5 
REMARK    4  A    between atoms: C4_5  and  C5_6 
REMARK    5  A    between atoms: C5_6  and  N1_7 
REMARK    6  A    between atoms: N2_17  and  C15_18 
ROOT
HETATM    1  C3  UNL     1       0.923  -1.335   0.626  1.00  0.00     0.073 C 
HETATM    2  C11 UNL     1       0.887  -0.687   2.031  1.00  0.00     0.118 C 
HETATM    3  C12 UNL     1      -0.069   0.340   1.943  1.00  0.00    -0.179 C 
HETATM    4  C13 UNL     1      -0.937   1.394   2.283  1.00  0.00     0.099 C 
HETATM    5  C14 UNL     1      -1.711   1.657   0.933  1.00  0.00     0.128 C 
HETATM    6  N2  UNL     1      -1.960   0.503   0.189  1.00  0.00    -0.407 N 
HETATM    7  C23 UNL     1      -0.976  -0.088  -0.702  1.00  0.00     0.120 C 
HETATM    8  C24 UNL     1      -0.355  -1.329  -0.122  1.00  0.00     0.058 C 
ENDROOT
BRANCH   1   9
HETATM    9  O1  UNL     1       1.266  -2.631   0.881  1.00  0.00    -0.380 OA
BRANCH   9  10
HETATM   10  C2  UNL     1       1.445  -3.519  -0.106  1.00  0.00     0.164 C 
HETATM   11  C1  UNL     1       1.840  -4.854   0.561  1.00  0.00     0.033 C 
ENDBRANCH   9  10
ENDBRANCH   1   9
BRANCH   1  12
HETATM   12  C4  UNL     1       1.984  -0.719  -0.222  1.00  0.00     0.069 C 
BRANCH  12  13
HETATM   13  C5  UNL     1       3.362  -0.686   0.333  1.00  0.00     0.275 C 
BRANCH  13  14
HETATM   14  N1  UNL     1       4.273  -0.084  -0.662  1.00  0.00     0.088 N 
HETATM   15  C6  UNL     1       3.982   1.299  -0.822  1.00  0.00     0.272 C 
HETATM   16  C7  UNL     1       5.104   2.097  -1.433  1.00  0.00     0.030 C 
HETATM   17  C8  UNL     1       6.451   1.824  -0.819  1.00  0.00     0.003 C 
HETATM   18  C9  UNL     1       6.686   0.318  -0.953  1.00  0.00     0.030 C 
HETATM   19  C10 UNL     1       5.605  -0.352  -0.154  1.00  0.00     0.272 C 
ENDBRANCH  13  14
ENDBRANCH  12  13
ENDBRANCH   1  12
BRANCH   6  20
HETATM   20  C15 UNL     1      -3.322   0.325  -0.246  1.00  0.00     0.079 C 
HETATM   21  C16 UNL     1      -3.674   1.452  -1.160  1.00  0.00     0.029 C 
HETATM   22  C17 UNL     1      -5.154   1.701  -1.288  1.00  0.00    -0.012 C 
HETATM   23  C18 UNL     1      -5.962   0.465  -1.534  1.00  0.00     0.005 C 
HETATM   24  C21 UNL     1      -5.634   2.101   0.114  1.00  0.00     0.009 C 
HETATM   25  C19 UNL     1      -6.338  -0.111  -0.185  1.00  0.00     0.005 C 
HETATM   26  C20 UNL     1      -5.576   0.753   0.807  1.00  0.00    -0.012 C 
HETATM   27  C22 UNL     1      -4.190   0.230   0.968  1.00  0.00     0.029 C 
ENDBRANCH   6  20
TORSDOF 6
