REMARK  4 active torsions:
REMARK  status: ('A' for Active; 'I' for Inactive)
REMARK    1  A    between atoms: O1_1  and  C1_3 
REMARK    2  A    between atoms: C1_3  and  C2_4 
REMARK    3  A    between atoms: C1_3  and  N1_13 
REMARK    4  A    between atoms: N2_17  and  C12_18 
ROOT
HETATM    1  N1  UNL     1      -0.310   0.727  -0.779  1.00  0.00    -0.362 N 
HETATM    2  C9  UNL     1      -0.228   0.340   0.623  1.00  0.00     0.126 C 
HETATM    3  C10 UNL     1      -0.087  -1.168   0.644  1.00  0.00     0.039 C 
HETATM    4  C11 UNL     1       1.395  -1.539   0.667  1.00  0.00     0.119 C 
HETATM    5  N2  UNL     1       2.107  -0.549  -0.050  1.00  0.00    -0.406 N 
HETATM    6  C18 UNL     1       1.783  -0.388  -1.421  1.00  0.00     0.137 C 
HETATM    7  C19 UNL     1       0.862   0.787  -1.634  1.00  0.00     0.144 C 
ENDROOT
BRANCH   1   8
HETATM    8  C1  UNL     1      -1.507   1.067  -1.386  1.00  0.00     0.143 C 
BRANCH   8   9
HETATM    9  O1  UNL     1      -1.411   1.389  -2.643  1.00  0.00    -0.347 OA
ATOM     10  H1  UNL     1      -0.521   1.348  -2.972  1.00  0.00     0.219 HD
ENDBRANCH   8   9
BRANCH   8  11
HETATM   11  C2  UNL     1      -2.873   1.130  -0.881  1.00  0.00     0.198 C 
HETATM   12  C3  UNL     1      -3.426  -0.118  -0.318  1.00  0.00     0.080 C 
HETATM   13  C4  UNL     1      -4.922   0.130  -0.424  1.00  0.00     0.085 C 
HETATM   14  C5  UNL     1      -5.430   0.863   0.771  1.00  0.00     0.042 C 
HETATM   15  O2  UNL     1      -5.655  -1.039  -0.412  1.00  0.00    -0.378 OA
HETATM   16  C8  UNL     1      -4.970   0.890  -1.714  1.00  0.00     0.207 C 
HETATM   17  C6  UNL     1      -5.504  -0.276   1.797  1.00  0.00     0.029 C 
HETATM   18  C7  UNL     1      -5.462  -1.491   0.900  1.00  0.00     0.169 C 
HETATM   19  O3  UNL     1      -3.772   1.527  -1.860  1.00  0.00    -0.375 OA
ENDBRANCH   8  11
ENDBRANCH   1   8
BRANCH   5  20
HETATM   20  C12 UNL     1       3.440  -0.283   0.330  1.00  0.00     0.079 C 
HETATM   21  C13 UNL     1       3.886   1.133   0.002  1.00  0.00     0.025 C 
HETATM   22  C14 UNL     1       5.147   1.392   0.796  1.00  0.00     0.002 C 
HETATM   23  C15 UNL     1       6.239   0.412   0.500  1.00  0.00     0.000 C 
HETATM   24  C16 UNL     1       5.753  -1.018   0.545  1.00  0.00     0.002 C 
HETATM   25  C17 UNL     1       4.462  -1.226  -0.235  1.00  0.00     0.025 C 
ENDBRANCH   5  20
TORSDOF 4
