REMARK  5 active torsions:
REMARK  status: ('A' for Active; 'I' for Inactive)
REMARK    1  A    between atoms: N1_1  and  C1_5 
REMARK    2  A    between atoms: C1_5  and  C2_6 
REMARK    3  A    between atoms: C2_6  and  N2_7 
REMARK    4  A    between atoms: N2_7  and  C3_9 
REMARK    5  A    between atoms: C4_10  and  C5_11 
ROOT
HETATM    1  C3  UNL     1      -0.102   0.452  -0.337  1.00  0.00     0.070 A 
HETATM    2  C4  UNL     1       1.104   0.752   0.190  1.00  0.00     0.085 A 
HETATM    3  N3  UNL     1       1.477   2.073   0.338  1.00  0.00    -0.297 N 
ATOM      4  H3  UNL     1       2.391   2.282   0.740  1.00  0.00     0.187 HD
HETATM    5  N4  UNL     1       0.701   3.071  -0.018  1.00  0.00    -0.299 N 
ATOM      6  H4  UNL     1       1.028   4.028   0.117  1.00  0.00     0.187 HD
HETATM    7  C11 UNL     1      -0.513   2.863  -0.555  1.00  0.00     0.060 A 
HETATM    8  C12 UNL     1      -1.301   3.930  -0.922  1.00  0.00     0.032 A 
HETATM    9  C13 UNL     1      -2.547   3.689  -1.474  1.00  0.00     0.002 A 
HETATM   10  C14 UNL     1      -2.968   2.388  -1.643  1.00  0.00     0.001 A 
HETATM   11  C15 UNL     1      -2.152   1.313  -1.263  1.00  0.00     0.016 A 
HETATM   12  C16 UNL     1      -0.915   1.562  -0.714  1.00  0.00     0.021 A 
ENDROOT
BRANCH   1  13
HETATM   13  N2  UNL     1      -0.619  -0.635  -0.480  1.00  0.00    -0.386 N 
ATOM     14  H2  UNL     1      -1.514  -0.410  -0.914  1.00  0.00     0.159 HD
BRANCH  13  15
HETATM   15  C2  UNL     1      -0.657  -1.985  -0.378  1.00  0.00     0.147 C 
BRANCH  15  16
HETATM   16  C1  UNL     1      -2.074  -2.600  -0.443  1.00  0.00     0.249 C 
BRANCH  16  17
HETATM   17  N1  UNL     1      -2.806  -2.033   0.662  1.00  0.00    -0.078 N 
ATOM     18  H13 UNL     1      -2.347  -2.164   1.563  1.00  0.00     0.274 HD
ATOM     19  H12 UNL     1      -2.805  -1.013   0.669  1.00  0.00     0.274 HD
ATOM     20  H11 UNL     1      -3.741  -2.439   0.619  1.00  0.00     0.274 HD
ENDBRANCH  16  17
ENDBRANCH  15  16
ENDBRANCH  13  15
ENDBRANCH   1  13
BRANCH   2  21
HETATM   21  C5  UNL     1       2.038  -0.267   0.628  1.00  0.00    -0.006 A 
HETATM   22  C6  UNL     1       2.540  -1.260  -0.161  1.00  0.00     0.014 A 
HETATM   23  C7  UNL     1       3.431  -2.224   0.317  1.00  0.00     0.001 A 
HETATM   24  C8  UNL     1       3.844  -2.207   1.631  1.00  0.00     0.000 A 
HETATM   25  C9  UNL     1       3.346  -1.210   2.441  1.00  0.00     0.001 A 
HETATM   26  C10 UNL     1       2.467  -0.262   1.962  1.00  0.00     0.014 A 
ENDBRANCH   2  21
TORSDOF 5
