REMARK  6 active torsions:
REMARK  status: ('A' for Active; 'I' for Inactive)
REMARK    1  A    between atoms: C3_6  and  C4_7 
REMARK    2  A    between atoms: N3_8  and  N4_10 
REMARK       I    between atoms: N4_10  and  C5_12 
REMARK    3  A    between atoms: C5_12  and  C6_14 
REMARK    4  A    between atoms: C7_19  and  S1_20 
REMARK    5  A    between atoms: S1_20  and  N7_21 
REMARK    6  A    between atoms: C9_28  and  O4_29 
ROOT
HETATM    1  N4  UNL     1       0.086   0.958   0.442  1.00  0.00    -0.265 N 
ATOM      2  H4  UNL     1      -0.203   1.626   1.156  1.00  0.00     0.190 HD
HETATM    3  C5  UNL     1      -0.903   0.163  -0.191  1.00  0.00     0.289 C 
HETATM    4  O1  UNL     1      -0.568  -0.672  -1.077  1.00  0.00    -0.264 OA
ENDROOT
BRANCH   3   5
HETATM    5  C6  UNL     1      -2.307   0.283   0.155  1.00  0.00     0.145 A 
HETATM    6  N5  UNL     1      -2.793   1.125   1.074  1.00  0.00    -0.293 N 
HETATM    7  N6  UNL     1      -4.100   0.974   1.135  1.00  0.00    -0.286 N 
ATOM      8  H5  UNL     1      -2.243   1.776   1.634  1.00  0.00     0.187 HD
HETATM    9  C7  UNL     1      -4.518   0.037   0.268  1.00  0.00     0.190 A 
ATOM     10  H6  UNL     1      -4.714   1.499   1.758  1.00  0.00     0.188 HD
HETATM   11  C8  UNL     1      -3.369  -0.417  -0.370  1.00  0.00     0.121 A 
HETATM   12  N8  UNL     1      -3.328  -1.423  -1.380  1.00  0.00    -0.097 NA
BRANCH   9  13
HETATM   13  S1  UNL     1      -6.149  -0.495   0.001  1.00  0.00     0.275 S 
HETATM   14  O2  UNL     1      -6.390  -0.878  -1.413  1.00  0.00    -0.199 OA
HETATM   15  O3  UNL     1      -7.074   0.634   0.365  1.00  0.00    -0.199 OA
BRANCH  13  16
HETATM   16  N7  UNL     1      -6.537  -1.818   1.047  1.00  0.00    -0.323 N 
ATOM     17  H72 UNL     1      -5.886  -2.219   1.722  1.00  0.00     0.169 HD
ATOM     18  H71 UNL     1      -7.495  -2.131   0.890  1.00  0.00     0.169 HD
ENDBRANCH  13  16
ENDBRANCH   9  13
ENDBRANCH   3   5
BRANCH   1  19
HETATM   19  N3  UNL     1       1.430   0.859   0.125  1.00  0.00    -0.309 N 
HETATM   20  C4  UNL     1       1.904   1.420  -0.902  1.00  0.00     0.109 C 
ATOM     21  H3  UNL     1       2.049   0.323   0.733  1.00  0.00     0.186 HD
BRANCH  20  22
HETATM   22  C3  UNL     1       3.281   1.348  -1.272  1.00  0.00     0.048 C 
HETATM   23  C2  UNL     1       4.181   0.690  -0.568  1.00  0.00     0.069 C 
HETATM   24  N2  UNL     1       5.582   0.589  -0.903  1.00  0.00    -0.324 N 
HETATM   25  C9  UNL     1       4.017  -0.072   0.672  1.00  0.00     0.317 C 
HETATM   26  C1  UNL     1       6.186   0.061   0.069  1.00  0.00     0.234 C 
ATOM     27  H2  UNL     1       6.010   0.893  -1.777  1.00  0.00     0.169 HD
HETATM   28  N1  UNL     1       7.610  -0.183   0.056  1.00  0.00    -0.056 NA
HETATM   29  O5  UNL     1       5.372  -0.247   1.113  1.00  0.00    -0.287 OA
BRANCH  25  30
HETATM   30  O4  UNL     1       3.409  -1.314   0.491  1.00  0.00    -0.365 OA
ATOM     31  H4  UNL     1       3.303  -1.808   1.295  1.00  0.00     0.213 HD
ENDBRANCH  25  30
ENDBRANCH  20  22
ENDBRANCH   1  19
TORSDOF 6
