REMARK  8 active torsions:
REMARK  status: ('A' for Active; 'I' for Inactive)
REMARK    1  A    between atoms: N1_1  and  C1_5 
REMARK    2  A    between atoms: C1_5  and  N2_6 
REMARK    3  A    between atoms: C3_11  and  S1_12 
REMARK    4  A    between atoms: S1_12  and  C4_13 
REMARK    5  A    between atoms: C6_18  and  O1_19 
REMARK    6  A    between atoms: C6_18  and  C7_21 
REMARK       I    between atoms: C7_21  and  N7_23 
REMARK    7  A    between atoms: C11_27  and  C12_28 
REMARK    8  A    between atoms: C12_28  and  O3_29 
ROOT
HETATM    1  C4  UNL     1       0.804  -0.465  -1.424  1.00  0.00     0.111 C 
HETATM    2  N5  UNL     1       1.164  -1.529  -2.046  1.00  0.00    -0.298 N 
ATOM      3  H5  UNL     1       2.076  -1.973  -1.937  1.00  0.00     0.183 HD
HETATM    4  N6  UNL     1       0.160  -2.006  -2.889  1.00  0.00    -0.137 NA
HETATM    5  C5  UNL     1      -0.703  -0.855  -3.173  1.00  0.00     0.190 C 
HETATM    6  C6  UNL     1      -0.581  -0.146  -1.834  1.00  0.00     0.203 C 
ENDROOT
BRANCH   1   7
HETATM    7  S1  UNL     1       1.806   0.472  -0.239  1.00  0.00    -0.035 SA
BRANCH   7   8
HETATM    8  C3  UNL     1       3.404  -0.330  -0.095  1.00  0.00     0.163 C 
HETATM    9  N2  UNL     1       4.470   0.101   0.736  1.00  0.00    -0.247 N 
HETATM   10  N3  UNL     1       5.651  -0.418   0.207  1.00  0.00    -0.116 NA
HETATM   11  C2  UNL     1       5.181  -1.709  -0.307  1.00  0.00     0.258 C 
HETATM   12  N4  UNL     1       3.808  -1.402  -0.720  1.00  0.00    -0.354 N 
ATOM     13  H4  UNL     1       3.257  -1.940  -1.389  1.00  0.00     0.163 HD
BRANCH   9  14
HETATM   14  C1  UNL     1       4.351   0.933   1.923  1.00  0.00     0.375 C 
BRANCH  14  15
HETATM   15  N1  UNL     1       2.992   1.295   2.188  1.00  0.00    -0.062 N 
ATOM     16  H13 UNL     1       2.563   1.742   1.378  1.00  0.00     0.276 HD
ATOM     17  H12 UNL     1       2.395   0.471   2.252  1.00  0.00     0.276 HD
ATOM     18  H11 UNL     1       2.909   1.878   3.020  1.00  0.00     0.276 HD
ENDBRANCH  14  15
ENDBRANCH   9  14
ENDBRANCH   7   8
ENDBRANCH   1   7
BRANCH   6  19
HETATM   19  O1  UNL     1      -0.617   1.221  -2.079  1.00  0.00    -0.373 OA
ATOM     20  H1  UNL     1      -1.506   1.426  -2.342  1.00  0.00     0.211 HD
ENDBRANCH   6  19
BRANCH   6  21
HETATM   21  C7  UNL     1      -1.583  -0.621  -0.870  1.00  0.00     0.263 C 
HETATM   22  O2  UNL     1      -1.560  -1.881  -0.651  1.00  0.00    -0.269 OA
HETATM   23  N7  UNL     1      -2.517   0.214  -0.213  1.00  0.00    -0.342 N 
HETATM   24  C8  UNL     1      -2.583   1.648  -0.419  1.00  0.00     0.126 C 
HETATM   25  C11 UNL     1      -3.543  -0.120   0.733  1.00  0.00     0.111 C 
HETATM   26  C9  UNL     1      -3.621   2.172   0.583  1.00  0.00     0.022 C 
HETATM   27  C10 UNL     1      -3.486   1.086   1.661  1.00  0.00     0.029 C 
BRANCH  25  28
HETATM   28  C12 UNL     1      -3.380  -1.408   1.454  1.00  0.00     0.189 C 
BRANCH  28  29
HETATM   29  O3  UNL     1      -4.493  -1.515   2.327  1.00  0.00    -0.399 OA
ATOM     30  H3  UNL     1      -4.389  -2.339   2.788  1.00  0.00     0.209 HD
ENDBRANCH  28  29
ENDBRANCH  25  28
ENDBRANCH   6  21
TORSDOF 8
