REMARK  9 active torsions:
REMARK  status: ('A' for Active; 'I' for Inactive)
REMARK    1  A    between atoms: O1_2  and  C2_3 
REMARK    2  A    between atoms: C3_4  and  N1_5 
REMARK    3  A    between atoms: C5_10  and  N2_11 
REMARK       I    between atoms: N2_11  and  C6_13 
REMARK    4  A    between atoms: C6_13  and  C7_15 
REMARK    5  A    between atoms: C7_15  and  N3_17 
REMARK    6  A    between atoms: N3_17  and  C9_19 
REMARK    7  A    between atoms: C9_19  and  N4_21 
REMARK    8  A    between atoms: N4_21  and  S2_23 
REMARK    9  A    between atoms: S2_23  and  C10_26 
ROOT
HETATM    1  N2  UNL     1      -1.037   0.340   0.775  1.00  0.00    -0.354 N 
ATOM      2  H2  UNL     1      -0.797   1.270   1.119  1.00  0.00     0.162 HD
HETATM    3  C6  UNL     1       0.020  -0.593   0.612  1.00  0.00     0.240 C 
HETATM    4  O2  UNL     1      -0.272  -1.734   0.188  1.00  0.00    -0.271 OA
ENDROOT
BRANCH   3   5
HETATM    5  C7  UNL     1       1.438  -0.303   0.909  1.00  0.00     0.172 C 
HETATM    6  C8  UNL     1       1.945   0.899   0.144  1.00  0.00     0.042 C 
BRANCH   5   7
HETATM    7  N3  UNL     1       2.250  -1.445   0.640  1.00  0.00    -0.354 N 
ATOM      8  H3  UNL     1       1.814  -2.297   0.288  1.00  0.00     0.162 HD
BRANCH   7   9
HETATM    9  C9  UNL     1       3.659  -1.417   0.854  1.00  0.00     0.181 C 
HETATM   10  S1  UNL     1       4.362  -0.095   1.485  1.00  0.00    -0.040 SA
BRANCH   9  11
HETATM   11  N4  UNL     1       4.428  -2.577   0.573  1.00  0.00    -0.260 N 
ATOM     12  H4  UNL     1       3.943  -3.414   0.248  1.00  0.00     0.181 HD
BRANCH  11  13
HETATM   13  S2  UNL     1       6.111  -2.638   0.751  1.00  0.00     0.236 S 
HETATM   14  O3  UNL     1       6.485  -2.279   2.193  1.00  0.00    -0.205 OA
HETATM   15  O4  UNL     1       6.560  -4.082   0.595  1.00  0.00    -0.205 OA
BRANCH  13  16
HETATM   16  C10 UNL     1       7.041  -1.577  -0.288  1.00  0.00     0.130 A 
HETATM   17  C11 UNL     1       6.976  -1.826  -1.779  1.00  0.00     0.023 A 
HETATM   18  C12 UNL     1       6.388  -0.595  -1.148  1.00  0.00     0.023 A 
ENDBRANCH  13  16
ENDBRANCH  11  13
ENDBRANCH   9  11
ENDBRANCH   7   9
ENDBRANCH   5   7
ENDBRANCH   3   5
BRANCH   1  19
HETATM   19  C5  UNL     1      -2.405   0.075   0.494  1.00  0.00     0.097 C 
HETATM   20  C4  UNL     1      -3.249   0.283   1.734  1.00  0.00     0.061 C 
HETATM   21  C3  UNL     1      -4.638   0.484   1.212  1.00  0.00     0.215 C 
HETATM   22  C2  UNL     1      -4.516   0.748  -0.274  1.00  0.00     0.161 C 
HETATM   23  C13 UNL     1      -3.029   1.021  -0.486  1.00  0.00     0.001 C 
HETATM   24  C14 UNL     1      -2.719   0.598  -1.905  1.00  0.00     0.020 C 
HETATM   25  C15 UNL     1      -2.691   2.454  -0.269  1.00  0.00     0.020 C 
BRANCH  21  26
HETATM   26  N1  UNL     1      -5.326   1.577   1.881  1.00  0.00    -0.072 N 
ATOM     27  H13 UNL     1      -4.878   2.474   1.694  1.00  0.00     0.274 HD
ATOM     28  H12 UNL     1      -6.234   1.766   1.457  1.00  0.00     0.274 HD
ATOM     29  H11 UNL     1      -5.408   1.399   2.882  1.00  0.00     0.274 HD
ENDBRANCH  21  26
BRANCH  22  30
HETATM   30  O1  UNL     1      -5.314   1.771  -0.719  1.00  0.00    -0.388 OA
HETATM   31  C1  UNL     1      -6.214   1.308  -1.706  1.00  0.00     0.202 C 
ENDBRANCH  22  30
ENDBRANCH   1  19
TORSDOF 9
