REMARK  4 active torsions:
REMARK  status: ('A' for Active; 'I' for Inactive)
REMARK    1  A    between atoms: O1_1  and  N1_3 
REMARK    2  A    between atoms: N1_3  and  N2_5 
REMARK    3  A    between atoms: C3_10  and  N4_11 
REMARK    4  A    between atoms: N4_11  and  C4_13 
ROOT
HETATM    1  N2  UNL     1       2.743   0.894   0.210  1.00  0.00    -0.103 N 
HETATM    2  C1  UNL     1       3.956   0.064   0.147  1.00  0.00     0.190 C 
HETATM    3  C2  UNL     1       3.363  -1.295   0.439  1.00  0.00     0.160 C 
HETATM    4  N3  UNL     1       2.055  -1.192  -0.162  1.00  0.00    -0.223 N 
ATOM      5  H3  UNL     1       1.480  -1.985  -0.448  1.00  0.00     0.177 HD
HETATM    6  C3  UNL     1       1.723   0.027  -0.283  1.00  0.00     0.692 C 
ENDROOT
BRANCH   6   7
HETATM    7  N4  UNL     1       0.474   0.456  -0.847  1.00  0.00    -0.220 N 
ATOM      8  H4  UNL     1       0.440   1.296  -1.424  1.00  0.00     0.178 HD
BRANCH   7   9
HETATM    9  C4  UNL     1      -0.735  -0.296  -0.602  1.00  0.00     0.099 C 
HETATM   10  C5  UNL     1      -0.970  -0.312   0.883  1.00  0.00     0.026 C 
HETATM   11  C6  UNL     1      -2.371  -0.622   1.276  1.00  0.00     0.002 C 
HETATM   12  C7  UNL     1      -3.312   0.301   0.534  1.00  0.00     0.000 C 
HETATM   13  C8  UNL     1      -3.217  -0.106  -0.941  1.00  0.00     0.002 C 
HETATM   14  C9  UNL     1      -1.837   0.284  -1.400  1.00  0.00     0.026 C 
ENDBRANCH   7   9
ENDBRANCH   6   7
BRANCH   1  15
HETATM   15  N1  UNL     1       2.608   2.214   0.646  1.00  0.00    -0.194 N 
ATOM     16  H1  UNL     1       1.838   2.481   1.259  1.00  0.00     0.216 HD
BRANCH  15  17
HETATM   17  O1  UNL     1       3.447   3.064   0.273  1.00  0.00    -0.274 OA
ATOM     18  H1  UNL     1       3.355   3.962   0.570  1.00  0.00     0.246 HD
ENDBRANCH  15  17
ENDBRANCH   1  15
TORSDOF 4
