REMARK  10 active torsions:
REMARK  status: ('A' for Active; 'I' for Inactive)
REMARK    1  A    between atoms: N1_1  and  C1_5 
REMARK    2  A    between atoms: C1_5  and  C2_6 
REMARK       I    between atoms: C2_6  and  N2_8 
REMARK    3  A    between atoms: N2_8  and  C3_10 
REMARK    4  A    between atoms: C5_12  and  O2_13 
REMARK    5  A    between atoms: C5_12  and  C6_15 
REMARK    6  A    between atoms: C7_18  and  O5_19 
REMARK    7  A    between atoms: C8_21  and  O6_22 
REMARK    8  A    between atoms: C9_24  and  C10_25 
REMARK    9  A    between atoms: C10_25  and  N3_26 
REMARK   10  A    between atoms: C10_25  and  O7_30 
ROOT
HETATM    1  C3  UNL     1       1.420   0.288  -0.784  1.00  0.00     0.021 C 
HETATM    2  C4  UNL     1       1.050  -0.302  -1.897  1.00  0.00     0.050 C 
HETATM    3  C5  UNL     1      -0.297  -0.910  -1.754  1.00  0.00     0.200 C 
HETATM    4  C7  UNL     1      -0.850  -0.117  -0.594  1.00  0.00     0.145 C 
HETATM    5  C8  UNL     1      -1.956  -0.866   0.118  1.00  0.00     0.209 C 
HETATM    6  C9  UNL     1      -2.655   0.104   1.005  1.00  0.00     0.097 C 
HETATM    7  N4  UNL     1      -2.198   1.202   1.491  1.00  0.00    -0.268 N 
ATOM      8  H4  UNL     1      -2.858   1.714   2.077  1.00  0.00     0.194 HD
HETATM    9  O8  UNL     1      -0.982   1.797   1.355  1.00  0.00    -0.280 OA
HETATM   10  C11 UNL     1       0.268   1.215   1.215  1.00  0.00     0.215 C 
HETATM   11  C12 UNL     1       0.351   0.115   0.212  1.00  0.00     0.103 C 
ENDROOT
BRANCH   1  12
HETATM   12  N2  UNL     1       2.657   0.964  -0.600  1.00  0.00    -0.329 N 
HETATM   13  C2  UNL     1       3.608   0.581   0.384  1.00  0.00     0.247 C 
HETATM   14  O1  UNL     1       3.294  -0.418   1.111  1.00  0.00    -0.271 OA
ATOM     15  H2  UNL     1       2.872   1.760  -1.201  1.00  0.00     0.168 HD
BRANCH  13  16
HETATM   16  C1  UNL     1       4.886   1.282   0.571  1.00  0.00     0.332 C 
BRANCH  16  17
HETATM   17  N1  UNL     1       5.620   0.649   1.646  1.00  0.00    -0.071 N 
ATOM     18  H13 UNL     1       5.077   0.596   2.508  1.00  0.00     0.274 HD
ATOM     19  H12 UNL     1       5.745  -0.352   1.494  1.00  0.00     0.274 HD
ATOM     20  H11 UNL     1       6.507   1.136   1.776  1.00  0.00     0.274 HD
ENDBRANCH  16  17
ENDBRANCH  13  16
ENDBRANCH   1  12
BRANCH   3  21
HETATM   21  O2  UNL     1      -1.069  -0.647  -2.912  1.00  0.00    -0.372 OA
ATOM     22  H2  UNL     1      -1.931  -1.036  -2.821  1.00  0.00     0.211 HD
ENDBRANCH   3  21
BRANCH   3  23
HETATM   23  C6  UNL     1      -0.165  -2.344  -1.528  1.00  0.00     0.216 C 
HETATM   24  O3  UNL     1      -0.731  -3.204  -2.289  1.00  0.00    -0.645 OA
HETATM   25  O4  UNL     1       0.571  -2.872  -0.492  1.00  0.00    -0.645 OA
ENDBRANCH   3  23
BRANCH   4  26
HETATM   26  O5  UNL     1      -1.398   1.030  -1.170  1.00  0.00    -0.382 OA
ATOM     27  H5  UNL     1      -1.746   1.529  -0.440  1.00  0.00     0.210 HD
ENDBRANCH   4  26
BRANCH   5  28
HETATM   28  O6  UNL     1      -2.823  -1.306  -0.889  1.00  0.00    -0.386 OA
ATOM     29  H6  UNL     1      -3.517  -1.776  -0.442  1.00  0.00     0.210 HD
ENDBRANCH   5  28
BRANCH   6  30
HETATM   30  C10 UNL     1      -4.047  -0.188   1.402  1.00  0.00     0.367 C 
BRANCH  30  31
HETATM   31  N3  UNL     1      -4.955  -0.288   0.288  1.00  0.00    -0.048 N 
ATOM     32  H33 UNL     1      -4.913   0.553  -0.288  1.00  0.00     0.277 HD
ATOM     33  H32 UNL     1      -4.621  -0.974  -0.389  1.00  0.00     0.277 HD
ATOM     34  H31 UNL     1      -5.917  -0.490   0.562  1.00  0.00     0.277 HD
ENDBRANCH  30  31
BRANCH  30  35
HETATM   35  O7  UNL     1      -4.493   0.800   2.268  1.00  0.00    -0.365 OA
ATOM     36  H7  UNL     1      -5.389   0.612   2.523  1.00  0.00     0.212 HD
ENDBRANCH  30  35
ENDBRANCH   6  30
TORSDOF 10
