REMARK  11 active torsions:
REMARK  status: ('A' for Active; 'I' for Inactive)
REMARK    1  A    between atoms: N1_1  and  S1_4 
REMARK    2  A    between atoms: S1_4  and  N2_5 
REMARK    3  A    between atoms: S1_4  and  N3_8 
REMARK    4  A    between atoms: C1_16  and  O1_17 
REMARK    5  A    between atoms: C2_20  and  C3_21 
REMARK    6  A    between atoms: C3_21  and  O2_22 
REMARK    7  A    between atoms: C3_21  and  C4_24 
REMARK    8  A    between atoms: C4_24  and  C5_26 
REMARK    9  A    between atoms: C5_26  and  O4_27 
REMARK   10  A    between atoms: C5_26  and  C6_29 
REMARK   11  A    between atoms: C6_29  and  O5_30 
ROOT
HETATM    1  S1  UNL     1      -1.705  -0.201  -0.492  1.00  0.00     0.026 SA
HETATM    2  N7  UNL     1      -2.956  -1.123   0.352  1.00  0.00    -0.308 N 
ATOM      3  H7  UNL     1      -3.867  -0.703   0.537  1.00  0.00     0.173 HD
HETATM    4  C1  UNL     1      -2.682  -2.451   0.769  1.00  0.00     0.291 C 
HETATM    5  S2  UNL     1      -0.845  -2.540   0.906  1.00  0.00    -0.093 SA
HETATM    6  C2  UNL     1      -0.571  -0.730   0.799  1.00  0.00     0.196 C 
ENDROOT
BRANCH   1   7
HETATM    7  N1  UNL     1      -0.477  -0.756  -1.744  1.00  0.00    -0.353 N 
ATOM      8  H12 UNL     1      -0.502  -0.768  -2.764  1.00  0.00     0.166 HD
ATOM      9  H11 UNL     1       0.224  -1.041  -1.060  1.00  0.00     0.166 HD
ENDBRANCH   1   7
BRANCH   1  10
HETATM   10  N2  UNL     1      -2.862   0.270  -1.621  1.00  0.00    -0.353 N 
ATOM     11  H22 UNL     1      -2.867   0.249  -2.641  1.00  0.00     0.166 HD
ATOM     12  H21 UNL     1      -3.543   0.578  -0.927  1.00  0.00     0.166 HD
ENDBRANCH   1  10
BRANCH   1  13
HETATM   13  N3  UNL     1      -1.418   1.694   0.053  1.00  0.00    -0.120 N 
HETATM   14  N4  UNL     1      -0.638   2.638  -0.337  1.00  0.00    -0.195 N 
HETATM   15  N5  UNL     1      -1.166   3.480   0.573  1.00  0.00     0.014 NA
ATOM     16  H4  UNL     1       0.088   2.718  -1.049  1.00  0.00     0.208 HD
HETATM   17  N6  UNL     1      -1.954   2.461   0.939  1.00  0.00    -0.195 N 
ATOM     18  H6  UNL     1      -2.686   2.340   1.639  1.00  0.00     0.208 HD
ENDBRANCH   1  13
BRANCH   6  19
HETATM   19  C3  UNL     1       0.895  -0.345   0.885  1.00  0.00     0.218 C 
BRANCH  19  20
HETATM   20  O2  UNL     1       1.424  -0.980   2.047  1.00  0.00    -0.386 OA
ATOM     21  H2  UNL     1       2.341  -0.739   2.101  1.00  0.00     0.210 HD
ENDBRANCH  19  20
BRANCH  19  22
HETATM   22  C4  UNL     1       1.773  -0.707  -0.199  1.00  0.00     0.187 C 
HETATM   23  O3  UNL     1       2.054  -1.858  -0.530  1.00  0.00    -0.292 OA
BRANCH  22  24
HETATM   24  C5  UNL     1       2.422   0.363  -1.006  1.00  0.00     0.213 C 
BRANCH  24  25
HETATM   25  O4  UNL     1       3.064  -0.224  -2.125  1.00  0.00    -0.386 OA
ATOM     26  H4  UNL     1       3.478   0.459  -2.640  1.00  0.00     0.210 HD
ENDBRANCH  24  25
BRANCH  24  27
HETATM   27  C6  UNL     1       3.543   1.034  -0.215  1.00  0.00     0.203 C 
BRANCH  27  28
HETATM   28  O5  UNL     1       3.132   1.677   0.917  1.00  0.00    -0.398 OA
ATOM     29  H5  UNL     1       3.829   2.094   1.409  1.00  0.00     0.209 HD
ENDBRANCH  27  28
ENDBRANCH  24  27
ENDBRANCH  22  24
ENDBRANCH  19  22
ENDBRANCH   6  19
BRANCH   4  30
HETATM   30  O1  UNL     1      -3.181  -2.719   2.022  1.00  0.00    -0.367 OA
ATOM     31  H1  UNL     1      -2.998  -3.608   2.301  1.00  0.00     0.213 HD
ENDBRANCH   4  30
TORSDOF 11
