REMARK  13 active torsions:
REMARK  status: ('A' for Active; 'I' for Inactive)
REMARK    1  A    between atoms: C2_2  and  C3_3 
REMARK    2  A    between atoms: C3_3  and  N1_4 
REMARK    3  A    between atoms: C3_3  and  C13_18 
REMARK       I    between atoms: N1_4  and  C4_5 
REMARK    4  A    between atoms: C4_5  and  C5_7 
REMARK    5  A    between atoms: C5_7  and  N2_9 
REMARK    6  A    between atoms: N2_9  and  C7_10 
REMARK    7  A    between atoms: N2_9  and  C9_14 
REMARK    8  A    between atoms: C7_10  and  C8_11 
REMARK    9  A    between atoms: C9_14  and  C10_15 
REMARK   10  A    between atoms: C13_18  and  O4_19 
REMARK   11  A    between atoms: C13_18  and  N3_21 
REMARK   12  A    between atoms: N3_21  and  C14_23 
REMARK   13  A    between atoms: C14_23  and  C15_24 
ROOT
HETATM    1  N1  UNL     1       1.384   0.415  -0.194  1.00  0.00    -0.369 NA
HETATM    2  C4  UNL     1       0.317   0.808   0.513  1.00  0.00     0.314 C 
HETATM    3  O1  UNL     1       0.018   1.613   1.287  1.00  0.00    -0.255 OA
ENDROOT
BRANCH   1   4
HETATM    4  C3  UNL     1       2.544   0.016  -0.941  1.00  0.00     0.138 C 
BRANCH   4   5
HETATM    5  C2  UNL     1       3.174   1.134  -1.763  1.00  0.00     0.073 C 
HETATM    6  C1  UNL     1       2.118   1.522  -2.802  1.00  0.00     0.013 C 
ENDBRANCH   4   5
BRANCH   4   7
HETATM    7  C13 UNL     1       3.464  -0.848  -0.228  1.00  0.00     0.173 C 
BRANCH   7   8
HETATM    8  O4  UNL     1       2.887  -1.658   0.700  1.00  0.00    -0.344 OA
ATOM      9  H4  UNL     1       3.490  -2.224   1.167  1.00  0.00     0.219 HD
ENDBRANCH   7   8
BRANCH   7  10
HETATM   10  N3  UNL     1       4.826  -1.049  -0.229  1.00  0.00    -0.358 N 
ATOM     11  H3  UNL     1       5.454  -0.717  -0.961  1.00  0.00     0.162 HD
BRANCH  10  12
HETATM   12  C14 UNL     1       5.277  -1.826   0.995  1.00  0.00     0.235 C 
BRANCH  12  13
HETATM   13  C15 UNL     1       4.804  -0.913   2.074  1.00  0.00     0.191 C 
HETATM   14  O5  UNL     1       4.034  -1.281   2.941  1.00  0.00    -0.647 OA
HETATM   15  O6  UNL     1       5.236   0.455   2.074  1.00  0.00    -0.647 OA
ENDBRANCH  12  13
ENDBRANCH  10  12
ENDBRANCH   7  10
ENDBRANCH   4   7
ENDBRANCH   1   4
BRANCH   2  16
HETATM   16  C5  UNL     1      -0.839  -0.260   0.077  1.00  0.00     0.187 C 
HETATM   17  C6  UNL     1      -0.489  -1.470   0.965  1.00  0.00     0.043 C 
BRANCH  16  18
HETATM   18  N2  UNL     1      -2.028   0.206   0.130  1.00  0.00    -0.369 N 
BRANCH  18  19
HETATM   19  C7  UNL     1      -2.645  -0.145  -1.191  1.00  0.00     0.235 C 
BRANCH  19  20
HETATM   20  C8  UNL     1      -2.876  -1.546  -1.362  1.00  0.00     0.191 C 
HETATM   21  O2  UNL     1      -1.606  -2.155  -1.736  1.00  0.00    -0.647 OA
HETATM   22  O3  UNL     1      -3.721  -2.561  -1.353  1.00  0.00    -0.647 OA
ENDBRANCH  19  20
ENDBRANCH  18  19
BRANCH  18  23
HETATM   23  C9  UNL     1      -2.822   0.185   1.293  1.00  0.00     0.063 C 
BRANCH  23  24
HETATM   24  C10 UNL     1      -4.092   0.922   1.342  1.00  0.00     0.016 C 
HETATM   25  C11 UNL     1      -5.212   0.540   0.420  1.00  0.00     0.015 C 
HETATM   26  C12 UNL     1      -3.742   2.382   1.029  1.00  0.00     0.015 C 
ENDBRANCH  23  24
ENDBRANCH  18  23
ENDBRANCH  16  18
ENDBRANCH   2  16
TORSDOF 13
