REMARK  4 active torsions:
REMARK  status: ('A' for Active; 'I' for Inactive)
REMARK    1  A    between atoms: C2_2  and  O1_3 
REMARK    2  A    between atoms: O1_3  and  C3_4 
REMARK    3  A    between atoms: C3_4  and  C4_6 
REMARK    4  A    between atoms: C5_7  and  C6_8 
ROOT
HETATM    1  C4  UNL     1      -0.110   0.114   0.341  1.00  0.00     0.133 C 
HETATM    2  C5  UNL     1       0.960   0.863  -0.429  1.00  0.00     0.087 C 
HETATM    3  C10 UNL     1       1.140   0.389  -1.842  1.00  0.00     0.203 C 
HETATM    4  C11 UNL     1       2.350   1.015  -2.366  1.00  0.00     0.075 C 
HETATM    5  N1  UNL     1       3.324   1.512  -2.766  1.00  0.00    -0.196 NA
HETATM    6  C12 UNL     1       1.316  -1.071  -1.854  1.00  0.00     0.278 C 
HETATM    7  O4  UNL     1       2.162  -1.643  -2.616  1.00  0.00    -0.264 OA
HETATM    8  O5  UNL     1       0.544  -1.812  -1.022  1.00  0.00    -0.308 OA
HETATM    9  C13 UNL     1      -0.305  -1.302  -0.009  1.00  0.00     0.084 C 
HETATM   10  C14 UNL     1       0.004  -2.216   1.197  1.00  0.00     0.039 C 
HETATM   11  C15 UNL     1      -0.673  -3.508   0.719  1.00  0.00     0.003 C 
HETATM   12  C16 UNL     1      -2.046  -2.969   0.389  1.00  0.00     0.003 C 
HETATM   13  C17 UNL     1      -1.700  -1.717  -0.389  1.00  0.00     0.039 C 
ENDROOT
BRANCH   2  14
HETATM   14  C6  UNL     1       2.248   0.923   0.311  1.00  0.00     0.061 A 
HETATM   15  C7  UNL     1       3.121  -0.081   0.617  1.00  0.00     0.037 A 
HETATM   16  C8  UNL     1       4.167   0.474   1.312  1.00  0.00     0.052 A 
HETATM   17  C9  UNL     1       3.871   1.818   1.396  1.00  0.00     0.145 A 
HETATM   18 CL1  UNL     1       4.941   2.962   2.215  1.00  0.00    -0.057 Cl
HETATM   19  O3  UNL     1       2.744   2.031   0.798  1.00  0.00    -0.302 OA
ENDBRANCH   2  14
BRANCH   1  20
HETATM   20  C3  UNL     1      -1.356   0.927   0.404  1.00  0.00     0.266 C 
HETATM   21  O2  UNL     1      -1.930   1.239   1.475  1.00  0.00    -0.265 OA
BRANCH  20  22
HETATM   22  O1  UNL     1      -1.941   1.380  -0.768  1.00  0.00    -0.321 OA
BRANCH  22  23
HETATM   23  C2  UNL     1      -3.143   2.164  -0.711  1.00  0.00     0.174 C 
HETATM   24  C1  UNL     1      -2.961   3.429   0.058  1.00  0.00     0.034 C 
ENDBRANCH  22  23
ENDBRANCH  20  22
ENDBRANCH   1  20
TORSDOF 4
