REMARK  4 active torsions:
REMARK  status: ('A' for Active; 'I' for Inactive)
REMARK    1  A    between atoms: O1_2  and  C2_3 
REMARK    2  A    between atoms: C2_3  and  C4_5 
REMARK    3  A    between atoms: C4_5  and  N1_6 
REMARK    4  A    between atoms: N3_19  and  C12_20 
ROOT
HETATM    1  N1  UNL     1       1.958  -0.795  -0.298  1.00  0.00    -0.366 N 
HETATM    2  C5  UNL     1       1.095   0.175  -0.662  1.00  0.00     0.068 C 
HETATM    3  C6  UNL     1      -0.422  -0.216  -0.713  1.00  0.00     0.086 C 
HETATM    4  C7  UNL     1      -0.748  -1.022   0.415  1.00  0.00    -0.004 A 
HETATM    5  C8  UNL     1       0.259  -1.912   0.838  1.00  0.00     0.064 A 
HETATM    6  C9  UNL     1       0.002  -2.704   1.933  1.00  0.00     0.301 A 
HETATM    7  O2  UNL     1       0.934  -3.507   2.302  1.00  0.00    -0.259 OA
HETATM    8  O3  UNL     1      -1.121  -2.662   2.580  1.00  0.00    -0.255 OA
HETATM    9  C10 UNL     1      -2.089  -1.853   2.224  1.00  0.00     0.181 A 
HETATM   10  N2  UNL     1      -3.289  -1.697   2.778  1.00  0.00    -0.311 N 
ATOM     11  H2  UNL     1      -3.666  -2.186   3.590  1.00  0.00     0.170 HD
HETATM   12  C11 UNL     1      -3.905  -0.742   2.025  1.00  0.00     0.184 A 
HETATM   13 CL1  UNL     1      -5.520  -0.201   2.391  1.00  0.00    -0.044 Cl
HETATM   14  N3  UNL     1      -3.116  -0.304   1.020  1.00  0.00    -0.310 N 
HETATM   15  C16 UNL     1      -1.925  -0.998   1.114  1.00  0.00     0.097 A 
HETATM   16  C17 UNL     1       1.571  -2.055   0.134  1.00  0.00     0.108 C 
ENDROOT
BRANCH   1  17
HETATM   17  C4  UNL     1       3.186  -0.421   0.345  1.00  0.00     0.158 C 
BRANCH  17  18
HETATM   18  C2  UNL     1       4.158   0.293  -0.535  1.00  0.00     0.135 C 
HETATM   19  C3  UNL     1       4.687  -0.564  -1.658  1.00  0.00     0.041 C 
BRANCH  18  20
HETATM   20  O1  UNL     1       3.601   1.471  -1.024  1.00  0.00    -0.389 OA
HETATM   21  C1  UNL     1       4.321   2.593  -0.587  1.00  0.00     0.202 C 
ENDBRANCH  18  20
ENDBRANCH  17  18
ENDBRANCH   1  17
BRANCH  14  22
HETATM   22  C12 UNL     1      -3.366   0.658  -0.003  1.00  0.00     0.029 C 
HETATM   23  C13 UNL     1      -2.782   2.038   0.212  1.00  0.00     0.038 C 
HETATM   24  C14 UNL     1      -3.527   0.182  -1.416  1.00  0.00     0.038 C 
HETATM   25  C15 UNL     1      -4.861   1.070   0.223  1.00  0.00     0.038 C 
ENDBRANCH  14  22
TORSDOF 4
