REMARK  6 active torsions:
REMARK  status: ('A' for Active; 'I' for Inactive)
REMARK    1  A    between atoms: O1_2  and  C2_3 
REMARK    2  A    between atoms: C4_5  and  C5_6 
REMARK    3  A    between atoms: C10_13  and  O2_14 
REMARK    4  A    between atoms: O2_14  and  C11_15 
REMARK       I    between atoms: C11_15  and  N3_17 
REMARK    5  A    between atoms: N3_17  and  C12_19 
REMARK    6  A    between atoms: C17_24  and  O4_25 
ROOT
HETATM    1  C5  UNL     1       4.219   1.394  -0.531  1.00  0.00     0.045 C 
HETATM    2  C6  UNL     1       4.392   2.456   0.198  1.00  0.00     0.125 C 
HETATM    3  C7  UNL     1       3.739   2.754   1.443  1.00  0.00     0.110 C 
HETATM    4  N1  UNL     1       3.233   3.000   2.460  1.00  0.00    -0.191 NA
HETATM    5  C8  UNL     1       5.342   3.453  -0.284  1.00  0.00     0.110 C 
HETATM    6  N2  UNL     1       6.095   4.220  -0.659  1.00  0.00    -0.191 NA
ENDROOT
BRANCH   1   7
HETATM    7  C4  UNL     1       3.303   0.343  -0.155  1.00  0.00    -0.029 A 
HETATM    8  C3  UNL     1       3.683  -0.996  -0.201  1.00  0.00     0.051 A 
HETATM    9  C2  UNL     1       2.789  -1.977   0.136  1.00  0.00     0.104 A 
HETATM   10  C17 UNL     1       1.487  -1.682   0.532  1.00  0.00     0.133 A 
HETATM   11  C10 UNL     1       1.148  -0.358   0.565  1.00  0.00     0.117 A 
HETATM   12  C9  UNL     1       2.026   0.670   0.230  1.00  0.00     0.052 A 
BRANCH   9  13
HETATM   13  O1  UNL     1       3.191  -3.293   0.083  1.00  0.00    -0.353 OA
HETATM   14  C1  UNL     1       4.425  -3.805  -0.279  1.00  0.00     0.210 C 
ENDBRANCH   9  13
BRANCH  10  15
HETATM   15  O4  UNL     1       0.634  -2.708   0.859  1.00  0.00    -0.356 OA
ATOM     16  H4  UNL     1      -0.254  -2.507   1.129  1.00  0.00     0.218 HD
ENDBRANCH  10  15
BRANCH  11  17
HETATM   17  O2  UNL     1      -0.165  -0.068   0.965  1.00  0.00    -0.259 OA
BRANCH  17  18
HETATM   18  C11 UNL     1      -1.142   0.033  -0.012  1.00  0.00     0.366 C 
HETATM   19  O3  UNL     1      -0.804  -0.139  -1.203  1.00  0.00    -0.238 OA
HETATM   20  N3  UNL     1      -2.484   0.325   0.352  1.00  0.00    -0.332 N 
ATOM     21  H3  UNL     1      -2.714   0.457   1.337  1.00  0.00     0.165 HD
BRANCH  20  22
HETATM   22  C12 UNL     1      -3.536   0.440  -0.641  1.00  0.00     0.086 C 
HETATM   23  C13 UNL     1      -4.591  -0.592  -0.282  1.00  0.00     0.025 C 
HETATM   24  C14 UNL     1      -5.845   0.072  -0.824  1.00  0.00     0.002 C 
HETATM   25  C15 UNL     1      -5.678   1.549  -0.541  1.00  0.00     0.002 C 
HETATM   26  C16 UNL     1      -4.182   1.792  -0.480  1.00  0.00     0.025 C 
ENDBRANCH  20  22
ENDBRANCH  17  18
ENDBRANCH  11  17
ENDBRANCH   1   7
TORSDOF 6
