REMARK  7 active torsions:
REMARK  status: ('A' for Active; 'I' for Inactive)
REMARK    1  A    between atoms: C2_3  and  C3_4 
REMARK    2  A    between atoms: C3_4  and  C4_5 
REMARK    3  A    between atoms: C4_5  and  C5_6 
REMARK       I    between atoms: C5_6  and  N2_8 
REMARK    4  A    between atoms: C8_11  and  C9_12 
REMARK    5  A    between atoms: C9_12  and  N3_13 
REMARK    6  A    between atoms: C15_19  and  N4_20 
REMARK    7  A    between atoms: C16_21  and  O2_22 
ROOT
HETATM    1  N1  UNL     1      -9.834  -0.189   2.744  1.00  0.00    -0.197 NA
HETATM    2  C1  UNL     1      -8.840  -0.344   2.154  1.00  0.00     0.059 C 
HETATM    3  C2  UNL     1      -7.593  -0.526   1.410  1.00  0.00     0.124 C 
ENDROOT
BRANCH   3   4
HETATM    4  C3  UNL     1      -6.971   0.788   1.030  1.00  0.00     0.023 C 
BRANCH   4   5
HETATM    5  C4  UNL     1      -5.701   0.686   0.274  1.00  0.00     0.104 C 
BRANCH   5   6
HETATM    6  C5  UNL     1      -4.592   0.030   0.983  1.00  0.00     0.219 C 
HETATM    7  O1  UNL     1      -4.762  -0.203   2.234  1.00  0.00    -0.273 OA
HETATM    8  N2  UNL     1      -3.398  -0.326   0.333  1.00  0.00    -0.352 N 
HETATM    9  C6  UNL     1      -3.202  -0.064  -1.061  1.00  0.00     0.126 C 
HETATM   10  C21 UNL     1      -2.314  -0.968   1.031  1.00  0.00     0.126 C 
HETATM   11  C7  UNL     1      -2.130   0.981  -1.179  1.00  0.00     0.030 C 
HETATM   12  C8  UNL     1      -0.896   0.500  -0.412  1.00  0.00     0.027 C 
HETATM   13  C20 UNL     1      -1.021  -0.821   0.216  1.00  0.00     0.030 C 
BRANCH  12  14
HETATM   14  C9  UNL     1       0.273   0.658  -1.349  1.00  0.00     0.064 C 
BRANCH  14  15
HETATM   15  N3  UNL     1       1.548   0.298  -0.944  1.00  0.00    -0.384 N 
HETATM   16  C10 UNL     1       2.023  -1.007  -0.814  1.00  0.00     0.086 C 
HETATM   17  C11 UNL     1       2.675  -1.312  -2.192  1.00  0.00     0.027 C 
HETATM   18  C19 UNL     1       3.136  -1.007   0.240  1.00  0.00     0.051 C 
HETATM   19  C12 UNL     1       3.001   0.056  -2.686  1.00  0.00     0.027 C 
HETATM   20  C13 UNL     1       2.583   1.038  -1.606  1.00  0.00     0.086 C 
HETATM   21  C14 UNL     1       3.708   1.224  -0.590  1.00  0.00     0.051 C 
HETATM   22  C15 UNL     1       4.258  -0.163  -0.288  1.00  0.00     0.098 C 
BRANCH  22  23
HETATM   23  N4  UNL     1       5.379  -0.103   0.631  1.00  0.00    -0.298 N 
HETATM   24  C16 UNL     1       5.343   0.290   1.930  1.00  0.00     0.160 A 
HETATM   25  C17 UNL     1       6.607   0.208   2.479  1.00  0.00     0.146 A 
HETATM   26  N5  UNL     1       7.411  -0.239   1.500  1.00  0.00    -0.339 N 
HETATM   27  C18 UNL     1       6.674  -0.420   0.410  1.00  0.00     0.180 A 
ATOM     28  H5  UNL     1       8.413  -0.410   1.580  1.00  0.00     0.167 HD
HETATM   29  S1  UNL     1       7.243  -0.958  -1.025  1.00  0.00    -0.040 SA
BRANCH  24  30
HETATM   30  O2  UNL     1       4.232   0.715   2.636  1.00  0.00    -0.345 OA
ATOM     31  H2  UNL     1       4.207   0.990   3.545  1.00  0.00     0.219 HD
ENDBRANCH  24  30
ENDBRANCH  22  23
ENDBRANCH  14  15
ENDBRANCH  12  14
ENDBRANCH   5   6
ENDBRANCH   4   5
ENDBRANCH   3   4
TORSDOF 7
