REMARK  7 active torsions:
REMARK  status: ('A' for Active; 'I' for Inactive)
REMARK    1  A    between atoms: O1_2  and  C2_3 
REMARK    2  A    between atoms: C5_7  and  N1_8 
REMARK    3  A    between atoms: N1_8  and  C6_10 
REMARK    4  A    between atoms: C7_11  and  C8_12 
REMARK    5  A    between atoms: C8_12  and  N2_14 
REMARK    6  A    between atoms: N2_14  and  C10_16 
REMARK    7  A    between atoms: C16_27  and  C17_28 
ROOT
HETATM    1  C6  UNL     1      -0.647   1.693   0.222  1.00  0.00     0.061 A 
HETATM    2  C7  UNL     1      -1.845   0.974   0.344  1.00  0.00     0.059 A 
HETATM    3  C13 UNL     1      -2.935   1.449  -0.318  1.00  0.00     0.257 A 
HETATM    4  O2  UNL     1      -4.041   0.866  -0.262  1.00  0.00    -0.267 OA
HETATM    5  N3  UNL     1      -2.850   2.587  -1.071  1.00  0.00    -0.308 N 
ATOM      6  H3  UNL     1      -3.681   2.923  -1.559  1.00  0.00     0.170 HD
HETATM    7  C14 UNL     1      -1.704   3.274  -1.186  1.00  0.00     0.121 A 
HETATM    8  N4  UNL     1      -1.369   4.400  -1.845  1.00  0.00    -0.351 N 
ATOM      9  H4  UNL     1      -2.013   4.943  -2.420  1.00  0.00     0.166 HD
HETATM   10  C15 UNL     1      -0.098   4.711  -1.652  1.00  0.00     0.105 A 
HETATM   11  C16 UNL     1       0.465   3.750  -0.820  1.00  0.00     0.033 A 
HETATM   12  C18 UNL     1      -0.537   2.857  -0.537  1.00  0.00     0.050 A 
ENDROOT
BRANCH   1  13
HETATM   13  N1  UNL     1       0.450   1.177   0.900  1.00  0.00    -0.352 N 
ATOM     14  H1  UNL     1       0.582   1.449   1.874  1.00  0.00     0.166 HD
BRANCH  13  15
HETATM   15  C5  UNL     1       1.397   0.295   0.321  1.00  0.00     0.074 A 
HETATM   16  C4  UNL     1       2.387  -0.280   1.151  1.00  0.00     0.145 A 
HETATM   17  C3  UNL     1       3.352  -1.101   0.636  1.00  0.00     0.084 A 
HETATM   18  F1  UNL     1       2.370  -0.018   2.467  1.00  0.00    -0.204 F 
HETATM   19  C2  UNL     1       3.418  -1.416  -0.705  1.00  0.00     0.109 A 
HETATM   20  C20 UNL     1       2.455  -0.859  -1.516  1.00  0.00     0.151 A 
HETATM   21  C19 UNL     1       1.492  -0.039  -1.003  1.00  0.00     0.077 A 
HETATM   22  F2  UNL     1       2.501  -1.164  -2.854  1.00  0.00    -0.203 F 
BRANCH  19  23
HETATM   23  O1  UNL     1       4.405  -2.254  -1.217  1.00  0.00    -0.353 OA
HETATM   24  C1  UNL     1       5.356  -2.785  -0.329  1.00  0.00     0.210 C 
ENDBRANCH  19  23
ENDBRANCH  13  15
ENDBRANCH   1  13
BRANCH   2  25
HETATM   25  C8  UNL     1      -1.907  -0.286   1.123  1.00  0.00     0.114 C 
HETATM   26  C9  UNL     1      -3.283  -0.597   1.666  1.00  0.00     0.037 C 
BRANCH  25  27
HETATM   27  N2  UNL     1      -1.644  -1.356   0.166  1.00  0.00    -0.409 N 
ATOM     28  H2  UNL     1      -1.582  -1.153  -0.832  1.00  0.00     0.154 HD
BRANCH  27  29
HETATM   29  C10 UNL     1      -1.478  -2.665   0.636  1.00  0.00     0.077 A 
HETATM   30  C11 UNL     1      -2.420  -3.548   1.330  1.00  0.00     0.027 A 
HETATM   31  C12 UNL     1      -2.250  -3.718  -0.139  1.00  0.00     0.027 A 
ENDBRANCH  27  29
ENDBRANCH  25  27
ENDBRANCH   2  25
BRANCH  11  32
HETATM   32  C17 UNL     1       1.801   3.744  -0.290  1.00  0.00     0.272 C 
HETATM   33  O3  UNL     1       2.724   4.500  -0.724  1.00  0.00    -0.301 OA
ENDBRANCH  11  32
TORSDOF 7
