REMARK  6 active torsions:
REMARK  status: ('A' for Active; 'I' for Inactive)
REMARK    1  A    between atoms: C2_2  and  C3_3 
REMARK    2  A    between atoms: C3_3  and  O1_5 
REMARK    3  A    between atoms: O1_5  and  C5_6 
REMARK    4  A    between atoms: C9_11  and  O3_12 
REMARK    5  A    between atoms: C10_14  and  O4_15 
REMARK    6  A    between atoms: C11_17  and  O5_18 
ROOT
HETATM    1  C5  UNL     1       0.173   0.423  -0.298  1.00  0.00     0.189 C 
HETATM    2  C6  UNL     1       0.233   0.658  -1.817  1.00  0.00     0.082 C 
HETATM    3  O2  UNL     1       1.039   1.368   0.247  1.00  0.00    -0.345 OA
HETATM    4  C7  UNL     1       2.352   1.191  -0.003  1.00  0.00     0.152 C 
HETATM    5  C8  UNL     1       3.112   2.356   0.602  1.00  0.00     0.042 C 
HETATM    6  C9  UNL     1       2.791  -0.073   0.737  1.00  0.00     0.178 C 
HETATM    7  C10 UNL     1       2.062  -1.209   0.109  1.00  0.00     0.183 C 
HETATM    8  C11 UNL     1       0.596  -0.986  -0.075  1.00  0.00     0.211 C 
ENDROOT
BRANCH   1   9
HETATM    9  O1  UNL     1      -1.056   0.778   0.186  1.00  0.00    -0.348 OA
BRANCH   9  10
HETATM   10  C3  UNL     1      -2.151   0.065  -0.148  1.00  0.00     0.120 C 
HETATM   11  C4  UNL     1      -3.211   0.996  -0.767  1.00  0.00     0.039 C 
BRANCH  10  12
HETATM   12  C2  UNL     1      -2.793  -0.473   1.117  1.00  0.00     0.027 C 
HETATM   13  C1  UNL     1      -4.066  -1.235   0.817  1.00  0.00     0.007 C 
ENDBRANCH  10  12
ENDBRANCH   9  10
ENDBRANCH   1   9
BRANCH   8  14
HETATM   14  O5  UNL     1       0.234  -1.754  -1.210  1.00  0.00    -0.387 OA
ATOM     15  H5  UNL     1       0.504  -2.654  -1.068  1.00  0.00     0.210 HD
ENDBRANCH   8  14
BRANCH   7  16
HETATM   16  O4  UNL     1       2.248  -2.385   0.858  1.00  0.00    -0.390 OA
ATOM     17  H4  UNL     1       1.783  -3.110   0.457  1.00  0.00     0.210 HD
ENDBRANCH   7  16
BRANCH   6  18
HETATM   18  O3  UNL     1       4.151  -0.265   0.633  1.00  0.00    -0.390 OA
ATOM     19  H3  UNL     1       4.424  -1.050   1.093  1.00  0.00     0.210 HD
ENDBRANCH   6  18
TORSDOF 6
