REMARK  14 active torsions:
REMARK  status: ('A' for Active; 'I' for Inactive)
REMARK    1  A    between atoms: C2_2  and  C4_4 
REMARK    2  A    between atoms: C4_4  and  N1_5 
REMARK    3  A    between atoms: N1_5  and  C5_6 
REMARK    4  A    between atoms: N1_5  and  C9_14 
REMARK    5  A    between atoms: C5_6  and  C6_7 
REMARK    6  A    between atoms: C9_14  and  C10_15 
REMARK    7  A    between atoms: C10_15  and  O1_16 
REMARK    8  A    between atoms: C10_15  and  C11_18 
REMARK    9  A    between atoms: C11_18  and  C12_19 
REMARK   10  A    between atoms: C12_19  and  C13_20 
REMARK   11  A    between atoms: C12_19  and  C24_31 
REMARK   12  A    between atoms: C13_20  and  C14_21 
REMARK   13  A    between atoms: C19_26  and  C20_27 
REMARK       I    between atoms: C24_31  and  N4_33 
REMARK   14  A    between atoms: C27_36  and  C28_37 
ROOT
HETATM    1  C12 UNL     1      -0.797   0.714  -0.505  1.00  0.00     0.081 C 
ENDROOT
BRANCH   1   2
HETATM    2  C11 UNL     1       0.446  -0.038  -0.925  1.00  0.00     0.047 C 
BRANCH   2   3
HETATM    3  C10 UNL     1       1.603   0.946  -0.886  1.00  0.00     0.137 C 
BRANCH   3   4
HETATM    4  C9  UNL     1       2.920   0.371  -1.284  1.00  0.00     0.159 C 
BRANCH   4   5
HETATM    5  N1  UNL     1       3.548  -0.536  -0.332  1.00  0.00    -0.365 N 
BRANCH   5   6
HETATM    6  C4  UNL     1       4.049   0.052   0.795  1.00  0.00     0.067 C 
BRANCH   6   7
HETATM    7  C2  UNL     1       5.374  -0.114   1.394  1.00  0.00     0.016 C 
HETATM    8  C1  UNL     1       5.772  -1.462   1.883  1.00  0.00     0.015 C 
HETATM    9  C3  UNL     1       5.428   0.820   2.622  1.00  0.00     0.015 C 
ENDBRANCH   6   7
ENDBRANCH   5   6
BRANCH   5  10
HETATM   10  C5  UNL     1       3.252  -1.862  -0.564  1.00  0.00     0.121 C 
BRANCH  10  11
HETATM   11  C6  UNL     1       4.264  -2.879  -0.800  1.00  0.00     0.064 A 
HETATM   12  C7  UNL     1       5.369  -2.903  -1.603  1.00  0.00     0.119 A 
HETATM   13  N2  UNL     1       5.943  -4.099  -1.461  1.00  0.00    -0.360 N 
HETATM   14  C8  UNL     1       5.236  -4.847  -0.587  1.00  0.00     0.180 A 
ATOM     15  H2  UNL     1       6.790  -4.403  -1.941  1.00  0.00     0.166 HD
HETATM   16  N3  UNL     1       4.214  -4.102  -0.186  1.00  0.00    -0.350 N 
ATOM     17  H3  UNL     1       3.499  -4.396   0.479  1.00  0.00     0.166 HD
ENDBRANCH  10  11
ENDBRANCH   5  10
ENDBRANCH   4   5
ENDBRANCH   3   4
BRANCH   3  18
HETATM   18  O1  UNL     1       1.645   1.663   0.280  1.00  0.00    -0.394 OA
ATOM     19  H1  UNL     1       0.806   2.029   0.534  1.00  0.00     0.210 HD
ENDBRANCH   3  18
ENDBRANCH   2   3
ENDBRANCH   1   2
BRANCH   1  20
HETATM   20  C13 UNL     1      -2.028  -0.183  -0.483  1.00  0.00     0.019 C 
BRANCH  20  21
HETATM   21  C14 UNL     1      -1.921  -1.329   0.444  1.00  0.00    -0.009 C 
HETATM   22  C15 UNL     1      -1.708  -0.711   1.842  1.00  0.00     0.005 C 
HETATM   23  C16 UNL     1      -1.785  -1.670   2.954  1.00  0.00     0.000 C 
HETATM   24  C17 UNL     1      -1.807  -3.115   2.589  1.00  0.00     0.000 C 
HETATM   25  C18 UNL     1      -2.587  -3.451   1.363  1.00  0.00     0.005 C 
HETATM   26  C19 UNL     1      -3.073  -2.222   0.610  1.00  0.00    -0.003 C 
BRANCH  26  27
HETATM   27  C20 UNL     1      -3.868  -2.683  -0.539  1.00  0.00    -0.047 C 
HETATM   28  C21 UNL     1      -4.565  -1.625  -1.355  1.00  0.00     0.015 C 
HETATM   29  C22 UNL     1      -4.981  -3.582   0.030  1.00  0.00     0.015 C 
HETATM   30  C23 UNL     1      -3.085  -3.636  -1.451  1.00  0.00     0.015 C 
ENDBRANCH  26  27
ENDBRANCH  20  21
ENDBRANCH   1  20
BRANCH   1  31
HETATM   31  C24 UNL     1      -1.100   1.703  -1.575  1.00  0.00     0.224 C 
HETATM   32  O2  UNL     1      -0.700   1.488  -2.733  1.00  0.00    -0.273 OA
HETATM   33  N4  UNL     1      -1.832   2.861  -1.282  1.00  0.00    -0.352 N 
HETATM   34  C25 UNL     1      -2.118   3.813  -2.373  1.00  0.00     0.126 C 
HETATM   35  C30 UNL     1      -2.339   3.229   0.003  1.00  0.00     0.126 C 
HETATM   36  C26 UNL     1      -1.225   4.998  -2.089  1.00  0.00     0.033 C 
HETATM   37  C27 UNL     1      -1.513   5.502  -0.709  1.00  0.00     0.078 C 
HETATM   38  C29 UNL     1      -2.563   4.728   0.034  1.00  0.00     0.033 C 
BRANCH  37  39
HETATM   39  C28 UNL     1      -1.980   6.929  -0.734  1.00  0.00     0.235 C 
HETATM   40  N5  UNL     1      -2.296   7.533   0.490  1.00  0.00    -0.062 NA
HETATM   41  O3  UNL     1      -2.060   7.490  -1.838  1.00  0.00    -0.277 OA
ENDBRANCH  37  39
ENDBRANCH   1  31
TORSDOF 14
