REMARK  11 active torsions:
REMARK  status: ('A' for Active; 'I' for Inactive)
REMARK    1  A    between atoms: C2_2  and  C4_4 
REMARK    2  A    between atoms: C4_4  and  C5_5 
REMARK    3  A    between atoms: C5_5  and  C6_6 
REMARK    4  A    between atoms: C5_5  and  N1_14 
REMARK    5  A    between atoms: C5_5  and  C22_29 
REMARK    6  A    between atoms: C6_6  and  C7_7 
REMARK       I    between atoms: N1_14  and  C14_16 
REMARK    7  A    between atoms: C14_16  and  C15_18 
REMARK    8  A    between atoms: C15_18  and  N2_20 
REMARK       I    between atoms: N2_20  and  C17_22 
REMARK    9  A    between atoms: C17_22  and  C18_24 
REMARK   10  A    between atoms: C18_24  and  C19_25 
REMARK   11  A    between atoms: C19_25  and  N3_26 
REMARK       I    between atoms: C22_29  and  N4_31 
ROOT
HETATM    1  C5  UNL     1      -1.192  -1.113   0.157  1.00  0.00     0.114 C 
ENDROOT
BRANCH   1   2
HETATM    2  C4  UNL     1      -1.231  -0.892  -1.307  1.00  0.00     0.045 C 
BRANCH   2   3
HETATM    3  C2  UNL     1      -2.282  -1.371  -2.186  1.00  0.00    -0.020 C 
HETATM    4  C1  UNL     1      -3.692  -0.972  -2.092  1.00  0.00     0.009 C 
HETATM    5  C3  UNL     1      -1.849  -0.960  -3.631  1.00  0.00     0.009 C 
ENDBRANCH   2   3
ENDBRANCH   1   2
BRANCH   1   6
HETATM    6  C6  UNL     1      -2.350  -0.499   0.896  1.00  0.00     0.045 C 
BRANCH   6   7
HETATM    7  C7  UNL     1      -2.607   0.931   0.866  1.00  0.00    -0.012 C 
HETATM    8  C8  UNL     1      -3.920   1.102   1.710  1.00  0.00     0.005 C 
HETATM    9  C9  UNL     1      -4.653   2.304   1.203  1.00  0.00     0.004 C 
HETATM   10  C10 UNL     1      -3.655   3.299   0.679  1.00  0.00    -0.019 C 
HETATM   11  C11 UNL     1      -4.291   4.677   0.797  1.00  0.00     0.010 C 
HETATM   12  C12 UNL     1      -2.456   3.257   1.595  1.00  0.00     0.004 C 
HETATM   13  C13 UNL     1      -1.698   1.923   1.489  1.00  0.00     0.005 C 
ENDBRANCH   6   7
ENDBRANCH   1   6
BRANCH   1  14
HETATM   14  N1  UNL     1       0.030  -0.512   0.661  1.00  0.00    -0.341 N 
HETATM   15  C14 UNL     1       1.349  -0.583   0.209  1.00  0.00     0.241 C 
HETATM   16  O1  UNL     1       1.767  -1.203  -0.774  1.00  0.00    -0.271 OA
ATOM     17  H1  UNL     1      -0.098   0.064   1.493  1.00  0.00     0.163 HD
BRANCH  15  18
HETATM   18  C15 UNL     1       2.452   0.157   0.958  1.00  0.00     0.172 C 
HETATM   19  C16 UNL     1       2.508  -0.308   2.387  1.00  0.00     0.042 C 
BRANCH  18  20
HETATM   20  N2  UNL     1       3.730  -0.031   0.358  1.00  0.00    -0.348 N 
HETATM   21  C17 UNL     1       4.514   1.017  -0.192  1.00  0.00     0.220 C 
HETATM   22  O2  UNL     1       4.056   2.186  -0.147  1.00  0.00    -0.274 OA
ATOM     23  H2  UNL     1       4.106  -0.979   0.321  1.00  0.00     0.163 HD
BRANCH  21  24
HETATM   24  C18 UNL     1       5.835   0.807  -0.810  1.00  0.00     0.133 C 
BRANCH  24  25
HETATM   25  C19 UNL     1       6.443   2.093  -1.310  1.00  0.00     0.280 C 
BRANCH  25  26
HETATM   26  N3  UNL     1       7.733   1.892  -1.913  1.00  0.00     0.080 N 
HETATM   27  C20 UNL     1       8.748   1.498  -0.962  1.00  0.00     0.309 C 
HETATM   28  C21 UNL     1       8.161   2.963  -2.756  1.00  0.00     0.309 C 
ENDBRANCH  25  26
ENDBRANCH  24  25
ENDBRANCH  21  24
ENDBRANCH  18  20
ENDBRANCH  15  18
ENDBRANCH   1  14
BRANCH   1  29
HETATM   29  C22 UNL     1      -1.083  -2.558   0.461  1.00  0.00     0.248 C 
HETATM   30  O3  UNL     1       0.142  -2.975   0.360  1.00  0.00    -0.271 OA
HETATM   31  N4  UNL     1      -2.066  -3.496   0.828  1.00  0.00    -0.350 N 
HETATM   32  C23 UNL     1      -1.671  -4.905   1.062  1.00  0.00     0.126 C 
HETATM   33  C26 UNL     1      -3.471  -3.453   1.082  1.00  0.00     0.126 C 
HETATM   34  C24 UNL     1      -2.866  -5.731   0.754  1.00  0.00     0.021 C 
HETATM   35  C25 UNL     1      -3.916  -4.854   1.456  1.00  0.00     0.021 C 
ENDBRANCH   1  29
TORSDOF 11
