REMARK  10 active torsions:
REMARK  status: ('A' for Active; 'I' for Inactive)
REMARK    1  A    between atoms: C2_2  and  C4_4 
REMARK    2  A    between atoms: C4_4  and  N1_5 
REMARK    3  A    between atoms: C4_4  and  C26_33 
REMARK       I    between atoms: N1_5  and  C5_7 
REMARK    4  A    between atoms: C5_7  and  C6_9 
REMARK    5  A    between atoms: C6_9  and  N2_10 
REMARK    6  A    between atoms: C6_9  and  C19_25 
REMARK       I    between atoms: N2_10  and  C7_12 
REMARK    7  A    between atoms: C7_12  and  C8_14 
REMARK    8  A    between atoms: C8_14  and  C9_15 
REMARK    9  A    between atoms: C19_25  and  C21_27 
REMARK   10  A    between atoms: C21_27  and  N3_28 
ROOT
HETATM    1  C6  UNL     1      -0.864  -0.471   0.099  1.00  0.00     0.182 C 
ENDROOT
BRANCH   1   2
HETATM    2  C5  UNL     1      -1.523   0.408  -0.886  1.00  0.00     0.241 C 
HETATM    3  N1  UNL     1      -2.710   1.127  -0.658  1.00  0.00    -0.344 N 
ATOM      4  H1  UNL     1      -3.168   1.042   0.250  1.00  0.00     0.163 HD
HETATM    5  O1  UNL     1      -1.008   0.569  -2.051  1.00  0.00    -0.271 OA
BRANCH   3   6
HETATM    6  C4  UNL     1      -3.309   1.985  -1.662  1.00  0.00     0.189 C 
BRANCH   6   7
HETATM    7  C2  UNL     1      -3.168   3.440  -1.223  1.00  0.00     0.010 C 
HETATM    8  C1  UNL     1      -3.862   3.690   0.108  1.00  0.00     0.012 C 
HETATM    9  C3  UNL     1      -3.739   4.394  -2.239  1.00  0.00     0.012 C 
ENDBRANCH   6   7
BRANCH   6  10
HETATM   10  C26 UNL     1      -4.703   1.634  -1.948  1.00  0.00     0.197 C 
HETATM   11  O3  UNL     1      -5.321   0.710  -1.398  1.00  0.00    -0.646 OA
HETATM   12  O4  UNL     1      -5.407   2.389  -2.915  1.00  0.00    -0.646 OA
ENDBRANCH   6  10
ENDBRANCH   3   6
ENDBRANCH   1   2
BRANCH   1  13
HETATM   13  N2  UNL     1       0.454  -0.768  -0.462  1.00  0.00    -0.347 N 
HETATM   14  C7  UNL     1       1.669  -0.252   0.052  1.00  0.00     0.219 C 
HETATM   15  O2  UNL     1       1.538   0.507   1.063  1.00  0.00    -0.274 OA
ATOM     16  H2  UNL     1       0.501  -1.385  -1.273  1.00  0.00     0.163 HD
BRANCH  14  17
HETATM   17  C8  UNL     1       2.953  -0.574  -0.542  1.00  0.00     0.112 C 
BRANCH  17  18
HETATM   18  C9  UNL     1       4.169   0.043   0.023  1.00  0.00    -0.031 C 
HETATM   19  C10 UNL     1       4.191   1.540  -0.013  1.00  0.00     0.014 C 
HETATM   20  C11 UNL     1       5.550   2.004   0.487  1.00  0.00    -0.013 C 
HETATM   21  C12 UNL     1       6.655   1.496  -0.413  1.00  0.00     0.009 C 
HETATM   22  C16 UNL     1       5.821   1.497   1.885  1.00  0.00     0.009 C 
HETATM   23  C13 UNL     1       6.657  -0.013  -0.369  1.00  0.00    -0.013 C 
HETATM   24  C14 UNL     1       6.867  -0.548   1.029  1.00  0.00     0.009 C 
HETATM   25  C18 UNL     1       5.328  -0.493  -0.856  1.00  0.00     0.014 C 
HETATM   26  C15 UNL     1       5.778  -0.035   1.918  1.00  0.00    -0.013 C 
HETATM   27  C17 UNL     1       4.389  -0.415   1.444  1.00  0.00     0.014 C 
ENDBRANCH  17  18
ENDBRANCH  14  17
ENDBRANCH   1  13
BRANCH   1  28
HETATM   28  C19 UNL     1      -1.633  -1.704   0.339  1.00  0.00     0.042 C 
HETATM   29  C20 UNL     1      -0.872  -2.544   1.380  1.00  0.00     0.014 C 
BRANCH  28  30
HETATM   30  C21 UNL     1      -3.040  -1.563   0.833  1.00  0.00     0.279 C 
BRANCH  30  31
HETATM   31  N3  UNL     1      -3.588  -2.931   1.023  1.00  0.00     0.088 N 
HETATM   32  C22 UNL     1      -3.769  -3.619  -0.216  1.00  0.00     0.272 C 
HETATM   33  C23 UNL     1      -5.164  -4.246  -0.150  1.00  0.00     0.032 C 
HETATM   34  C24 UNL     1      -5.860  -3.179   0.698  1.00  0.00     0.032 C 
HETATM   35  C25 UNL     1      -4.819  -2.909   1.745  1.00  0.00     0.272 C 
ENDBRANCH  30  31
ENDBRANCH  28  30
ENDBRANCH   1  28
TORSDOF 10
