REMARK  4 active torsions:
REMARK  status: ('A' for Active; 'I' for Inactive)
REMARK       I    between atoms: N1_2  and  C2_4 
REMARK    1  A    between atoms: C2_4  and  O2_6 
REMARK    2  A    between atoms: O2_6  and  C3_7 
REMARK    3  A    between atoms: C3_7  and  C4_9 
REMARK    4  A    between atoms: C10_16  and  C11_17 
ROOT
HETATM    1  C4  UNL     1       2.178  -0.684  -0.285  1.00  0.00     0.091 C 
HETATM    2  C5  UNL     1       2.394  -1.669   0.858  1.00  0.00     0.041 C 
HETATM    3  C6  UNL     1       1.386  -2.748   0.711  1.00  0.00     0.169 C 
HETATM    4  O4  UNL     1       0.167  -2.431   0.295  1.00  0.00    -0.380 OA
HETATM    5  C7  UNL     1      -0.244  -1.160   0.171  1.00  0.00     0.061 C 
HETATM    6  C8  UNL     1      -0.992  -0.781   1.444  1.00  0.00     0.038 C 
HETATM    7  C9  UNL     1      -2.483  -0.680   1.204  1.00  0.00     0.008 C 
HETATM    8  C10 UNL     1      -2.701   0.431   0.216  1.00  0.00    -0.007 C 
HETATM    9  C15 UNL     1      -2.049   0.088  -1.069  1.00  0.00     0.008 C 
HETATM   10  C16 UNL     1      -1.189  -1.136  -1.037  1.00  0.00     0.038 C 
HETATM   11  C17 UNL     1       0.794  -0.115  -0.068  1.00  0.00     0.052 C 
ENDROOT
BRANCH   1  12
HETATM   12  C3  UNL     1       3.198   0.385  -0.131  1.00  0.00     0.271 C 
HETATM   13  O3  UNL     1       2.892   1.593   0.031  1.00  0.00    -0.264 OA
BRANCH  12  14
HETATM   14  O2  UNL     1       4.547   0.064  -0.164  1.00  0.00    -0.227 OA
BRANCH  14  15
HETATM   15  C2  UNL     1       5.557   1.000  -0.029  1.00  0.00     0.367 C 
HETATM   16  N1  UNL     1       6.931   0.642  -0.067  1.00  0.00    -0.341 N 
HETATM   17  C1  UNL     1       7.973   1.637   0.077  1.00  0.00     0.151 C 
ATOM     18  H1  UNL     1       7.189  -0.336  -0.198  1.00  0.00     0.164 HD
HETATM   19  O1  UNL     1       5.265   2.212   0.134  1.00  0.00    -0.238 OA
ENDBRANCH  14  15
ENDBRANCH  12  14
ENDBRANCH   1  12
BRANCH   8  20
HETATM   20  C11 UNL     1      -4.156   0.808   0.086  1.00  0.00    -0.048 C 
HETATM   21  C12 UNL     1      -4.718   1.276   1.412  1.00  0.00     0.015 C 
HETATM   22  C13 UNL     1      -4.388   1.905  -0.908  1.00  0.00     0.015 C 
HETATM   23  C14 UNL     1      -4.998  -0.383  -0.346  1.00  0.00     0.015 C 
ENDBRANCH   8  20
TORSDOF 4
