REMARK  12 active torsions:
REMARK  status: ('A' for Active; 'I' for Inactive)
REMARK    1  A    between atoms: C1_4  and  N2_5 
REMARK    2  A    between atoms: C1_4  and  C6_24 
REMARK    3  A    between atoms: N3_7  and  C2_9 
REMARK    4  A    between atoms: C4_13  and  S1_14 
REMARK    5  A    between atoms: S1_14  and  N5_15 
REMARK    6  A    between atoms: N8_29  and  S3_31 
REMARK    7  A    between atoms: S3_31  and  O6_34 
REMARK    8  A    between atoms: O6_34  and  N9_35 
REMARK    9  A    between atoms: C9_38  and  N10_39 
REMARK   10  A    between atoms: N10_39  and  C10_41 
REMARK   11  A    between atoms: C12_45  and  O9_46 
REMARK   12  A    between atoms: C13_48  and  O10_49 
ROOT
HETATM    1  C6  UNL     1      -0.089  -0.330   0.000  1.00  0.00     0.075 A 
HETATM    2  C7  UNL     1       0.216   0.925   0.491  1.00  0.00     0.106 A 
HETATM    3  N7  UNL     1       1.502   1.521   0.349  1.00  0.00    -0.093 NA
HETATM    4  S2  UNL     1      -1.041   1.741   1.285  1.00  0.00    -0.053 SA
HETATM    5  C8  UNL     1      -2.486   0.834   1.331  1.00  0.00     0.116 A 
HETATM    6  N8  UNL     1      -3.592   1.233   1.880  1.00  0.00    -0.252 N 
ATOM      7  H8  UNL     1      -4.437   0.661   1.887  1.00  0.00     0.181 HD
HETATM    8  C9  UNL     1      -2.433  -0.408   0.729  1.00  0.00     0.099 A 
HETATM    9  C13 UNL     1      -1.322  -0.939   0.118  1.00  0.00     0.111 A 
ENDROOT
BRANCH   1  10
HETATM   10  C1  UNL     1       1.014  -1.045  -0.697  1.00  0.00     0.129 C 
HETATM   11  N1  UNL     1       0.952  -2.147  -1.195  1.00  0.00    -0.384 N 
ATOM     12  H12 UNL     1       1.708  -2.637  -1.673  1.00  0.00     0.157 HD
ATOM     13  H11 UNL     1       0.051  -2.620  -1.123  1.00  0.00     0.157 HD
BRANCH  10  14
HETATM   14  N2  UNL     1       2.305  -0.368  -0.800  1.00  0.00    -0.284 N 
HETATM   15  N3  UNL     1       3.338  -1.057  -0.586  1.00  0.00    -0.293 N 
ATOM     16  H3  UNL     1       3.204  -2.041  -0.354  1.00  0.00     0.187 HD
ATOM     17  H2  UNL     1       2.367   0.622  -1.036  1.00  0.00     0.188 HD
BRANCH  15  18
HETATM   18  C2  UNL     1       4.660  -0.582  -0.640  1.00  0.00     0.132 A 
HETATM   19  C3  UNL     1       4.965   0.716  -0.982  1.00  0.00     0.127 A 
HETATM   20  N4  UNL     1       6.272   1.070  -1.002  1.00  0.00    -0.339 N 
HETATM   21  C4  UNL     1       7.260   0.229  -0.709  1.00  0.00     0.226 A 
ATOM     22  H4  UNL     1       6.511   2.029  -1.254  1.00  0.00     0.167 HD
HETATM   23  N6  UNL     1       6.937  -1.036  -0.377  1.00  0.00    -0.296 N 
HETATM   24  C5  UNL     1       5.673  -1.493  -0.326  1.00  0.00     0.277 A 
ATOM     25  H6  UNL     1       7.693  -1.683  -0.152  1.00  0.00     0.171 HD
HETATM   26  O3  UNL     1       5.384  -2.670  -0.016  1.00  0.00    -0.266 OA
BRANCH  21  27
HETATM   27  S1  UNL     1       8.905   0.768  -0.760  1.00  0.00     0.289 S 
HETATM   28  O1  UNL     1       9.552   0.670   0.594  1.00  0.00    -0.198 OA
HETATM   29  O2  UNL     1       8.953   2.187  -1.247  1.00  0.00    -0.198 OA
BRANCH  27  30
HETATM   30  N5  UNL     1       9.760  -0.190  -1.920  1.00  0.00    -0.322 N 
ATOM     31  H52 UNL     1       9.350  -0.942  -2.473  1.00  0.00     0.169 HD
ATOM     32  H51 UNL     1      10.729   0.127  -1.950  1.00  0.00     0.169 HD
ENDBRANCH  27  30
ENDBRANCH  21  27
ENDBRANCH  15  18
ENDBRANCH  10  14
ENDBRANCH   1  10
BRANCH   9  33
HETATM   33  O10 UNL     1      -1.453  -2.213  -0.431  1.00  0.00    -0.357 OA
ATOM     34  H10 UNL     1      -2.302  -2.632  -0.350  1.00  0.00     0.217 HD
ENDBRANCH   9  33
BRANCH   8  35
HETATM   35  N10 UNL     1      -3.665  -1.151   0.786  1.00  0.00    -0.364 N 
ATOM     36  H10 UNL     1      -3.741  -1.874   1.502  1.00  0.00     0.161 HD
BRANCH  35  37
HETATM   37  C10 UNL     1      -4.777  -0.966  -0.063  1.00  0.00     0.222 C 
HETATM   38  N11 UNL     1      -4.512  -1.122  -1.471  1.00  0.00    -0.120 NA
HETATM   39  N12 UNL     1      -5.838  -1.180  -1.997  1.00  0.00    -0.144 NA
HETATM   40  C11 UNL     1      -6.514  -2.167  -1.159  1.00  0.00     0.165 C 
HETATM   41  C12 UNL     1      -5.751  -2.136   0.148  1.00  0.00     0.173 C 
BRANCH  41  42
HETATM   42  O9  UNL     1      -4.993  -3.286   0.331  1.00  0.00    -0.391 OA
ATOM     43  H9  UNL     1      -5.595  -4.009   0.461  1.00  0.00     0.210 HD
ENDBRANCH  41  42
ENDBRANCH  35  37
ENDBRANCH   8  35
BRANCH   6  44
HETATM   44  S3  UNL     1      -3.529   2.819   2.606  1.00  0.00     0.388 S 
HETATM   45  O4  UNL     1      -4.640   2.896   3.616  1.00  0.00    -0.173 OA
HETATM   46  O5  UNL     1      -2.236   3.021   3.345  1.00  0.00    -0.173 OA
BRANCH  44  47
HETATM   47  O6  UNL     1      -3.688   4.021   1.408  1.00  0.00    -0.071 OA
BRANCH  47  48
HETATM   48  N9  UNL     1      -3.984   5.302   1.790  1.00  0.00     0.022 N 
HETATM   49  O7  UNL     1      -3.119   6.180   1.623  1.00  0.00    -0.510 OA
HETATM   50  O8  UNL     1      -5.189   5.614   2.338  1.00  0.00    -0.510 OA
ENDBRANCH  47  48
ENDBRANCH  44  47
ENDBRANCH   6  44
TORSDOF 12
