REMARK  7 active torsions:
REMARK  status: ('A' for Active; 'I' for Inactive)
REMARK    1  A    between atoms: O1_2  and  C2_3 
REMARK    2  A    between atoms: C4_5  and  C5_6 
REMARK    3  A    between atoms: C5_6  and  C6_7 
REMARK    4  A    between atoms: C6_7  and  N1_8 
REMARK    5  A    between atoms: N1_8  and  C7_10 
REMARK    6  A    between atoms: C18_30  and  O2_31 
REMARK    7  A    between atoms: C20_33  and  O3_34 
ROOT
HETATM    1  C7  UNL     1      -2.030   0.719  -0.492  1.00  0.00     0.114 A 
HETATM    2  N2  UNL     1      -1.474   1.231  -1.604  1.00  0.00    -0.338 N 
ATOM      3  H2  UNL     1      -0.460   1.326  -1.651  1.00  0.00     0.168 HD
HETATM    4  C8  UNL     1      -2.217   1.623  -2.659  1.00  0.00     0.182 A 
HETATM    5  N3  UNL     1      -3.560   1.517  -2.643  1.00  0.00    -0.351 N 
ATOM      6  H3  UNL     1      -4.125   1.812  -3.439  1.00  0.00     0.166 HD
HETATM    7  C9  UNL     1      -4.125   1.006  -1.535  1.00  0.00     0.055 A 
HETATM    8  C10 UNL     1      -5.502   0.903  -1.531  1.00  0.00    -0.005 A 
HETATM    9  C11 UNL     1      -6.298   1.343  -2.706  1.00  0.00     0.053 C 
HETATM   10  C12 UNL     1      -6.142   0.382  -0.412  1.00  0.00     0.069 A 
HETATM   11  N4  UNL     1      -7.456   0.182  -0.170  1.00  0.00    -0.330 N 
ATOM     12  H4  UNL     1      -8.225   0.394  -0.806  1.00  0.00     0.168 HD
HETATM   13  C13 UNL     1      -7.567  -0.351   1.069  1.00  0.00     0.180 A 
HETATM   14 CL1  UNL     1      -9.091  -0.780   1.817  1.00  0.00    -0.045 Cl
HETATM   15  N5  UNL     1      -6.328  -0.475   1.578  1.00  0.00    -0.331 N 
ATOM     16  H5  UNL     1      -6.108  -0.849   2.501  1.00  0.00     0.168 HD
HETATM   17  C14 UNL     1      -5.425  -0.032   0.689  1.00  0.00     0.063 A 
HETATM   18  C15 UNL     1      -4.051   0.077   0.671  1.00  0.00     0.049 A 
HETATM   19  C16 UNL     1      -3.397   0.594  -0.437  1.00  0.00     0.037 A 
ENDROOT
BRANCH   1  20
HETATM   20  N1  UNL     1      -1.348   0.341   0.517  1.00  0.00    -0.375 N 
ATOM     21  H1  UNL     1      -1.864  -0.035   1.313  1.00  0.00     0.161 HD
BRANCH  20  22
HETATM   22  C6  UNL     1       0.083   0.398   0.631  1.00  0.00     0.126 C 
BRANCH  22  23
HETATM   23  C5  UNL     1       0.718  -0.856   0.030  1.00  0.00     0.058 C 
BRANCH  23  24
HETATM   24  C4  UNL     1       2.179  -0.832   0.129  1.00  0.00    -0.051 A 
HETATM   25  C3  UNL     1       2.819  -1.360   1.237  1.00  0.00     0.047 A 
HETATM   26  C2  UNL     1       4.192  -1.362   1.378  1.00  0.00     0.104 A 
HETATM   27  C20 UNL     1       4.976  -0.818   0.384  1.00  0.00     0.135 A 
HETATM   28  C18 UNL     1       4.356  -0.280  -0.741  1.00  0.00     0.104 A 
HETATM   29  C17 UNL     1       2.979  -0.288  -0.865  1.00  0.00     0.047 A 
BRANCH  26  30
HETATM   30  O1  UNL     1       4.828  -1.898   2.502  1.00  0.00    -0.353 OA
HETATM   31  C1  UNL     1       4.007  -2.450   3.510  1.00  0.00     0.210 C 
ENDBRANCH  26  30
BRANCH  27  32
HETATM   32  O3  UNL     1       6.355  -0.827   0.539  1.00  0.00    -0.351 OA
HETATM   33  C21 UNL     1       6.987   0.270   1.174  1.00  0.00     0.210 C 
ENDBRANCH  27  32
BRANCH  28  34
HETATM   34  O2  UNL     1       5.201   0.252  -1.706  1.00  0.00    -0.353 OA
HETATM   35  C19 UNL     1       4.701   0.832  -2.903  1.00  0.00     0.210 C 
ENDBRANCH  28  34
ENDBRANCH  23  24
ENDBRANCH  22  23
ENDBRANCH  20  22
ENDBRANCH   1  20
TORSDOF 7
