REMARK  3 active torsions:
REMARK  status: ('A' for Active; 'I' for Inactive)
REMARK    1  A    between atoms: C11_11  and  N1_12 
REMARK    2  A    between atoms: N1_12  and  C12_14 
REMARK    3  A    between atoms: N2_28  and  C24_29 
ROOT
HETATM    1  C1  UNL     1      -3.875   0.670   1.477  1.00  0.00     0.013 C 
HETATM    2  C2  UNL     1      -2.970  -0.268   0.692  1.00  0.00     0.014 C 
HETATM    3  C3  UNL     1      -2.833   0.238  -0.743  1.00  0.00     0.095 C 
HETATM    4  C4  UNL     1      -1.527   0.749  -0.787  1.00  0.00     0.013 C 
HETATM    5  C5  UNL     1      -1.117   1.790   0.253  1.00  0.00     0.007 C 
HETATM    6  C6  UNL     1       0.302   2.268   0.036  1.00  0.00     0.009 C 
HETATM    7  C7  UNL     1       1.117   1.118  -0.424  1.00  0.00     0.030 C 
HETATM    8  C8  UNL     1       0.524  -0.137   0.242  1.00  0.00    -0.002 C 
HETATM    9  C9  UNL     1       1.671  -1.124   0.092  1.00  0.00     0.015 C 
HETATM   10  C10 UNL     1       2.892  -0.356  -0.273  1.00  0.00     0.049 C 
HETATM   11  C11 UNL     1       4.153  -0.813   0.353  1.00  0.00     0.091 C 
HETATM   12  C13 UNL     1       5.022   0.391   0.634  1.00  0.00     0.026 C 
HETATM   13  C14 UNL     1       4.870   1.472  -0.410  1.00  0.00     0.009 C 
HETATM   14  C15 UNL     1       3.470   1.999  -0.517  1.00  0.00     0.022 C 
HETATM   15  C16 UNL     1       3.184   2.256  -1.978  1.00  0.00     0.013 C 
HETATM   16  C17 UNL     1       2.513   1.067   0.121  1.00  0.00     0.116 C 
HETATM   17  F1  UNL     1       2.442   1.224   1.484  1.00  0.00    -0.242 F 
HETATM   18  C18 UNL     1      -0.655  -0.517  -0.642  1.00  0.00    -0.004 C 
HETATM   19  C19 UNL     1      -1.206  -1.767  -0.232  1.00  0.00     0.006 C 
HETATM   20  C20 UNL     1      -2.593  -2.275  -0.396  1.00  0.00     0.011 C 
HETATM   21  C21 UNL     1      -3.685  -1.530   0.280  1.00  0.00    -0.023 C 
HETATM   22  C22 UNL     1      -4.326  -2.244   1.423  1.00  0.00     0.017 C 
HETATM   23  C23 UNL     1      -4.732  -0.831  -0.606  1.00  0.00     0.135 C 
HETATM   24  N2  UNL     1      -4.148   0.497  -0.884  1.00  0.00    -0.353 N 
ENDROOT
BRANCH  11  25
HETATM   25  N1  UNL     1       3.983  -1.578   1.559  1.00  0.00    -0.363 N 
ATOM     26  H1  UNL     1       3.495  -1.141   2.341  1.00  0.00     0.162 HD
BRANCH  25  27
HETATM   27  C12 UNL     1       4.452  -2.896   1.721  1.00  0.00     0.348 C 
HETATM   28  O1  UNL     1       5.055  -3.469   0.788  1.00  0.00    -0.284 OA
ENDBRANCH  25  27
ENDBRANCH  11  25
BRANCH  24  29
HETATM   29  C24 UNL     1      -4.903   1.626  -1.197  1.00  0.00     0.351 C 
HETATM   30  O2  UNL     1      -4.374   2.762  -1.436  1.00  0.00    -0.284 OA
ENDBRANCH  24  29
TORSDOF 3
