REMARK  11 active torsions:
REMARK  status: ('A' for Active; 'I' for Inactive)
REMARK    1  A    between atoms: O1_2  and  C2_3 
REMARK    2  A    between atoms: C2_3  and  C3_4 
REMARK    3  A    between atoms: C3_4  and  N1_5 
REMARK    4  A    between atoms: N1_5  and  C4_6 
REMARK    5  A    between atoms: N1_5  and  C6_10 
REMARK    6  A    between atoms: C4_6  and  C5_7 
REMARK    7  A    between atoms: C6_10  and  O3_11 
REMARK    8  A    between atoms: C6_10  and  C7_13 
REMARK    9  A    between atoms: C10_16  and  C11_17 
REMARK   10  A    between atoms: C12_18  and  C13_19 
REMARK   11  A    between atoms: C16_22  and  C17_23 
ROOT
HETATM    1  C7  UNL     1      -1.987  -0.656  -0.758  1.00  0.00     0.018 A 
HETATM    2  C8  UNL     1      -1.355  -0.190   0.363  1.00  0.00     0.017 A 
HETATM    3  C9  UNL     1       0.043  -0.036   0.426  1.00  0.00     0.025 A 
HETATM    4  C10 UNL     1       0.850  -0.344  -0.635  1.00  0.00     0.056 A 
HETATM    5  C20 UNL     1       0.239  -0.811  -1.768  1.00  0.00     0.136 A 
HETATM    6  F1  UNL     1       1.010  -1.122  -2.830  1.00  0.00    -0.205 F 
HETATM    7  C21 UNL     1      -1.124  -0.961  -1.827  1.00  0.00     0.059 A 
ENDROOT
BRANCH   4   8
HETATM    8  C11 UNL     1       2.272  -0.172  -0.531  1.00  0.00    -0.058 C 
HETATM    9  C12 UNL     1       3.457  -0.025  -0.422  1.00  0.00    -0.061 C 
BRANCH   9  10
HETATM   10  C13 UNL     1       4.869   0.169  -0.306  1.00  0.00     0.018 A 
HETATM   11  C14 UNL     1       5.462   1.262  -0.883  1.00  0.00     0.021 A 
HETATM   12  C15 UNL     1       6.815   1.461  -0.780  1.00  0.00     0.016 A 
HETATM   13  C16 UNL     1       7.608   0.587  -0.107  1.00  0.00     0.005 A 
HETATM   14  C18 UNL     1       7.020  -0.526   0.483  1.00  0.00     0.016 A 
HETATM   15  C19 UNL     1       5.662  -0.735   0.386  1.00  0.00     0.021 A 
BRANCH  13  16
HETATM   16  C17 UNL     1       9.033   0.766   0.021  1.00  0.00     0.120 C 
HETATM   17  N3  UNL     1       9.624   1.761  -0.496  1.00  0.00    -0.387 N 
ATOM     18  H32 UNL     1       9.066   2.443  -1.011  1.00  0.00     0.157 HD
ATOM     19  H31 UNL     1      10.632   1.888  -0.405  1.00  0.00     0.157 HD
HETATM   20  N4  UNL     1       9.818  -0.193   0.745  1.00  0.00    -0.082 NA
ENDBRANCH  13  16
ENDBRANCH   9  10
ENDBRANCH   4   8
BRANCH   1  21
HETATM   21  C6  UNL     1      -3.411  -0.844  -0.873  1.00  0.00     0.149 C 
BRANCH  21  22
HETATM   22  N1  UNL     1      -4.468  -0.686  -0.002  1.00  0.00    -0.351 N 
BRANCH  22  23
HETATM   23  C3  UNL     1      -4.510  -0.277   1.352  1.00  0.00     0.151 C 
BRANCH  23  24
HETATM   24  C2  UNL     1      -4.659   1.223   1.561  1.00  0.00     0.186 C 
BRANCH  24  25
HETATM   25  O1  UNL     1      -5.822   1.707   0.995  1.00  0.00    -0.394 OA
HETATM   26  C1  UNL     1      -5.976   3.072   1.174  1.00  0.00     0.201 C 
ENDBRANCH  24  25
ENDBRANCH  23  24
ENDBRANCH  22  23
BRANCH  22  27
HETATM   27  C4  UNL     1      -5.816  -1.000  -0.582  1.00  0.00     0.224 C 
BRANCH  27  28
HETATM   28  C5  UNL     1      -6.105  -2.432  -0.350  1.00  0.00     0.248 C 
HETATM   29  N2  UNL     1      -7.306  -3.056  -0.777  1.00  0.00    -0.061 NA
HETATM   30  O2  UNL     1      -5.253  -3.128   0.250  1.00  0.00    -0.275 OA
ENDBRANCH  27  28
ENDBRANCH  22  27
ENDBRANCH  21  22
BRANCH  21  31
HETATM   31  O3  UNL     1      -3.748  -1.262  -2.092  1.00  0.00    -0.346 OA
ATOM     32  H3  UNL     1      -3.020  -1.371  -2.692  1.00  0.00     0.219 HD
ENDBRANCH  21  31
ENDBRANCH   1  21
TORSDOF 11
