REMARK  20 active torsions:
REMARK  status: ('A' for Active; 'I' for Inactive)
REMARK    1  A    between atoms: O1_2  and  C2_3 
REMARK    2  A    between atoms: C2_3  and  C3_4 
REMARK    3  A    between atoms: C3_4  and  O2_5 
REMARK    4  A    between atoms: O2_5  and  C4_6 
REMARK    5  A    between atoms: C4_6  and  C5_7 
REMARK    6  A    between atoms: C5_7  and  N1_8 
REMARK    7  A    between atoms: N1_8  and  C6_9 
REMARK    8  A    between atoms: N1_8  and  C12_21 
REMARK    9  A    between atoms: C6_9  and  C7_10 
REMARK   10  A    between atoms: C7_10  and  S1_11 
REMARK   11  A    between atoms: S1_11  and  C8_12 
REMARK       I    between atoms: C8_12  and  N2_14 
REMARK   12  A    between atoms: N2_14  and  C9_16 
REMARK   13  A    between atoms: C9_16  and  C10_17 
REMARK   14  A    between atoms: C10_17  and  C11_18 
REMARK   15  A    between atoms: C11_18  and  O4_19 
REMARK   16  A    between atoms: C12_21  and  C13_22 
REMARK   17  A    between atoms: C21_30  and  O5_31 
REMARK   18  A    between atoms: C23_35  and  O7_36 
REMARK   19  A    between atoms: C26_40  and  O8_41 
REMARK   20  A    between atoms: O8_41  and  C27_42 
ROOT
HETATM    1  C13 UNL     1      -0.190  -0.259   1.189  1.00  0.00     0.140 C 
HETATM    2  C14 UNL     1      -0.697  -1.472   2.025  1.00  0.00     0.037 C 
HETATM    3  C15 UNL     1      -1.758  -0.846   2.957  1.00  0.00     0.030 C 
HETATM    4  C16 UNL     1      -3.121  -0.886   2.491  1.00  0.00    -0.022 C 
HETATM    5  C17 UNL     1      -3.965   0.236   2.049  1.00  0.00    -0.064 C 
HETATM    6  C18 UNL     1      -3.447   1.613   2.308  1.00  0.00     0.005 C 
HETATM    7  C19 UNL     1      -4.479   2.722   2.169  1.00  0.00     0.022 C 
HETATM    8  C20 UNL     1      -3.226   1.669   3.841  1.00  0.00     0.022 C 
HETATM    9  C21 UNL     1      -2.259   2.024   1.533  1.00  0.00     0.161 C 
HETATM   10  C22 UNL     1      -1.801   1.251   0.382  1.00  0.00     0.180 C 
HETATM   11  O6  UNL     1      -1.256   0.035   0.468  1.00  0.00    -0.374 OA
HETATM   12  C23 UNL     1      -2.852   1.078  -0.728  1.00  0.00     0.154 C 
HETATM   13  C24 UNL     1      -3.751  -0.073  -0.457  1.00  0.00     0.032 C 
HETATM   14  C25 UNL     1      -4.568  -0.346  -1.682  1.00  0.00     0.041 C 
HETATM   15  C26 UNL     1      -5.250  -1.689  -1.629  1.00  0.00     0.132 C 
HETATM   16  C29 UNL     1      -4.909  -2.334  -0.325  1.00  0.00     0.034 C 
HETATM   17  C30 UNL     1      -5.241  -1.449   0.845  1.00  0.00     0.016 C 
HETATM   18  C31 UNL     1      -4.642  -0.036   0.723  1.00  0.00    -0.014 C 
HETATM   19  C32 UNL     1      -5.806   0.839   0.400  1.00  0.00     0.020 C 
ENDROOT
BRANCH   1  20
HETATM   20  C12 UNL     1       1.056  -0.741   0.556  1.00  0.00     0.159 C 
BRANCH  20  21
HETATM   21  N1  UNL     1       1.676   0.126  -0.420  1.00  0.00    -0.369 N 
BRANCH  21  22
HETATM   22  C5  UNL     1       2.202   1.313   0.078  1.00  0.00     0.089 C 
BRANCH  22  23
HETATM   23  C4  UNL     1       3.387   1.358   0.942  1.00  0.00     0.212 C 
BRANCH  23  24
HETATM   24  O2  UNL     1       3.735   2.671   1.339  1.00  0.00    -0.384 OA
BRANCH  24  25
HETATM   25  C3  UNL     1       4.038   3.509   0.304  1.00  0.00     0.194 C 
BRANCH  25  26
HETATM   26  C2  UNL     1       4.442   4.899   0.809  1.00  0.00     0.193 C 
BRANCH  26  27
HETATM   27  O1  UNL     1       4.754   5.758  -0.222  1.00  0.00    -0.394 OA
HETATM   28  C1  UNL     1       3.739   5.999  -1.111  1.00  0.00     0.201 C 
ENDBRANCH  26  27
ENDBRANCH  25  26
ENDBRANCH  24  25
ENDBRANCH  23  24
ENDBRANCH  22  23
ENDBRANCH  21  22
BRANCH  21  29
HETATM   29  C6  UNL     1       2.321  -0.612  -1.427  1.00  0.00     0.073 C 
BRANCH  29  30
HETATM   30  C7  UNL     1       3.587  -1.323  -1.145  1.00  0.00     0.128 C 
BRANCH  30  31
HETATM   31  S1  UNL     1       4.162  -2.255  -2.629  1.00  0.00    -0.064 SA
BRANCH  31  32
HETATM   32  C8  UNL     1       5.698  -3.099  -2.124  1.00  0.00     0.283 C 
HETATM   33  O3  UNL     1       6.270  -3.782  -2.997  1.00  0.00    -0.260 OA
HETATM   34  N2  UNL     1       6.165  -2.952  -0.808  1.00  0.00    -0.332 N 
ATOM     35  H2  UNL     1       5.589  -2.380  -0.191  1.00  0.00     0.168 HD
BRANCH  34  36
HETATM   36  C9  UNL     1       7.327  -3.496  -0.237  1.00  0.00     0.067 C 
BRANCH  36  37
HETATM   37  C10 UNL     1       8.672  -3.055  -0.648  1.00  0.00     0.070 C 
BRANCH  37  38
HETATM   38  C11 UNL     1       9.100  -3.179  -2.066  1.00  0.00     0.169 C 
BRANCH  38  39
HETATM   39  O4  UNL     1      10.464  -2.740  -2.171  1.00  0.00    -0.401 OA
ATOM     40  H4  UNL     1      10.738  -2.819  -3.077  1.00  0.00     0.209 HD
ENDBRANCH  38  39
ENDBRANCH  37  38
ENDBRANCH  36  37
ENDBRANCH  34  36
ENDBRANCH  31  32
ENDBRANCH  30  31
ENDBRANCH  29  30
ENDBRANCH  21  29
ENDBRANCH  20  21
ENDBRANCH   1  20
BRANCH   9  41
HETATM   41  O5  UNL     1      -2.392   3.373   1.077  1.00  0.00    -0.392 OA
ATOM     42  H5  UNL     1      -1.628   3.637   0.578  1.00  0.00     0.210 HD
ENDBRANCH   9  41
BRANCH  12  43
HETATM   43  O7  UNL     1      -3.373   2.230  -1.206  1.00  0.00    -0.392 OA
ATOM     44  H7  UNL     1      -4.022   2.123  -1.891  1.00  0.00     0.210 HD
ENDBRANCH  12  43
BRANCH  15  45
HETATM   45  O8  UNL     1      -4.823  -2.525  -2.695  1.00  0.00    -0.316 OA
BRANCH  45  46
HETATM   46  C27 UNL     1      -5.695  -3.097  -3.599  1.00  0.00     0.255 C 
HETATM   47  C28 UNL     1      -5.202  -3.970  -4.709  1.00  0.00     0.126 C 
HETATM   48  O9  UNL     1      -6.926  -2.888  -3.499  1.00  0.00    -0.266 OA
ENDBRANCH  45  46
ENDBRANCH  15  45
TORSDOF 20
