REMARK  3 active torsions:
REMARK  status: ('A' for Active; 'I' for Inactive)
REMARK    1  A    between atoms: C2_9  and  O1_10 
REMARK    2  A    between atoms: C2_9  and  C3_12 
REMARK    3  A    between atoms: C3_12  and  N4_13 
ROOT
HETATM    1  N1  UNL     1      -4.704  -0.156  -0.441  1.00  0.00    -0.370 N 
ATOM      2  H11 UNL     1      -5.311   0.577  -0.074  1.00  0.00     0.159 HD
ATOM      3  H12 UNL     1      -5.297  -0.743  -1.028  1.00  0.00     0.159 HD
HETATM    4  C1  UNL     1      -3.425  -0.296  -0.193  1.00  0.00     0.191 A 
HETATM    5  N2  UNL     1      -2.583  -1.312  -0.702  1.00  0.00    -0.272 N 
ATOM      6  H2  UNL     1      -2.908  -2.050  -1.327  1.00  0.00     0.189 HD
HETATM    7  N3  UNL     1      -1.395  -1.214  -0.306  1.00  0.00    -0.280 N 
ATOM      8  H3  UNL     1      -0.631  -1.843  -0.554  1.00  0.00     0.185 HD
HETATM    9  C2  UNL     1      -1.292  -0.079   0.546  1.00  0.00     0.246 A 
HETATM   10  N6  UNL     1      -2.598   0.522   0.625  1.00  0.00    -0.310 N 
ATOM     11  H6  UNL     1      -2.870   1.352   1.152  1.00  0.00     0.167 HD
ENDROOT
BRANCH   9  12
HETATM   12  O1  UNL     1      -0.851  -0.531   1.800  1.00  0.00    -0.352 OA
ATOM     13  H1  UNL     1      -0.782   0.227   2.369  1.00  0.00     0.214 HD
ENDBRANCH   9  12
BRANCH   9  14
HETATM   14  C3  UNL     1      -0.345   0.976   0.018  1.00  0.00     0.220 C 
BRANCH  14  15
HETATM   15  N4  UNL     1       0.978   0.440  -0.128  1.00  0.00    -0.303 N 
HETATM   16  C4  UNL     1       1.278  -0.124  -1.327  1.00  0.00     0.101 A 
HETATM   17  C5  UNL     1       2.540  -0.648  -1.498  1.00  0.00     0.092 A 
HETATM   18  C6  UNL     1       3.436  -0.581  -0.467  1.00  0.00     0.250 A 
HETATM   19  O2  UNL     1       4.597  -1.075  -0.657  1.00  0.00    -0.268 OA
HETATM   20  N5  UNL     1       3.145  -0.027   0.713  1.00  0.00    -0.275 N 
HETATM   21  C7  UNL     1       1.895   0.482   0.858  1.00  0.00     0.329 A 
ATOM     22  H5  UNL     1       3.829   0.012   1.469  1.00  0.00     0.173 HD
HETATM   23  O3  UNL     1       1.586   1.012   1.954  1.00  0.00    -0.246 OA
ENDBRANCH  14  15
ENDBRANCH   9  14
TORSDOF 3
