REMARK  1 active torsions:
REMARK  status: ('A' for Active; 'I' for Inactive)
REMARK    1  A    between atoms: C2_2  and  C4_4 
REMARK       I    between atoms: N2_10  and  C7_11 
ROOT
HETATM    1  C4  UNL     1      -0.382  -0.618   0.711  1.00  0.00     0.142 C 
HETATM    2  C5  UNL     1      -0.192  -2.001   0.141  1.00  0.00     0.264 C 
HETATM    3  N1  UNL     1       0.179  -1.737  -1.240  1.00  0.00    -0.057 N 
ATOM      4  H11 UNL     1      -0.599  -1.826  -1.894  1.00  0.00     0.279 HD
ATOM      5  H12 UNL     1       0.768  -2.463  -1.648  1.00  0.00     0.279 HD
HETATM    6  C6  UNL     1       0.797  -0.414  -1.247  1.00  0.00     0.360 C 
HETATM    7  N2  UNL     1       0.745   0.060   0.107  1.00  0.00    -0.318 N 
HETATM    8  C7  UNL     1       1.613   0.986   0.706  1.00  0.00     0.217 C 
HETATM    9  C8  UNL     1       2.729   1.596  -0.052  1.00  0.00     0.117 C 
HETATM   10  O1  UNL     1       1.456   1.316   1.909  1.00  0.00    -0.274 OA
ENDROOT
BRANCH   1  11
HETATM   11  C2  UNL     1      -1.651  -0.040   0.240  1.00  0.00    -0.069 C 
HETATM   12  C1  UNL     1      -2.507  -0.631  -0.558  1.00  0.00     0.016 C 
HETATM   13  C3  UNL     1      -1.991   1.343   0.716  1.00  0.00     0.044 C 
ENDBRANCH   1  11
TORSDOF 1
