REMARK  2 active torsions:
REMARK  status: ('A' for Active; 'I' for Inactive)
REMARK    1  A    between atoms: C7_8  and  C9_10 
REMARK    2  A    between atoms: C9_10  and  C10_11 
ROOT
HETATM    1  C1  UNL     1      -2.002  -0.384  -1.770  1.00  0.00     0.045 C 
HETATM    2  C2  UNL     1      -1.412   0.132  -0.481  1.00  0.00     0.056 C 
HETATM    3  C3  UNL     1      -2.268   1.305  -0.030  1.00  0.00     0.045 C 
HETATM    4  C4  UNL     1      -1.465  -0.895   0.627  1.00  0.00     0.059 C 
HETATM    5  C5  UNL     1      -0.219  -0.440   1.391  1.00  0.00     0.130 C 
HETATM    6  C6  UNL     1       0.278  -1.427   2.297  1.00  0.00     0.067 C 
HETATM    7  N1  UNL     1       0.694  -2.219   3.023  1.00  0.00    -0.197 NA
HETATM    8  C7  UNL     1       0.699  -0.160   0.226  1.00  0.00     0.084 C 
HETATM    9  C8  UNL     1       1.298  -1.437  -0.280  1.00  0.00     0.048 C 
HETATM   10  O3  UNL     1      -0.108   0.471  -0.703  1.00  0.00    -0.368 OA
ENDROOT
BRANCH   8  11
HETATM   11  C9  UNL     1       1.800   0.806   0.601  1.00  0.00     0.152 C 
BRANCH  11  12
HETATM   12  C10 UNL     1       2.681   1.061  -0.558  1.00  0.00     0.175 C 
HETATM   13  O1  UNL     1       2.427   0.484  -1.645  1.00  0.00    -0.648 OA
HETATM   14  O2  UNL     1       3.773   1.913  -0.482  1.00  0.00    -0.648 OA
ENDBRANCH  11  12
ENDBRANCH   8  11
TORSDOF 2
