REMARK  3 active torsions:
REMARK  status: ('A' for Active; 'I' for Inactive)
REMARK    1  A    between atoms: C2_2  and  O1_3 
REMARK    2  A    between atoms: C2_2  and  C3_5 
REMARK    3  A    between atoms: C4_6  and  C5_7 
ROOT
HETATM    1  C5  UNL     1      -0.448  -0.176  -0.562  1.00  0.00     0.101 C 
HETATM    2  C6  UNL     1      -0.113  -0.946  -1.802  1.00  0.00     0.053 C 
HETATM    3  O2  UNL     1      -1.041   1.042  -0.881  1.00  0.00    -0.371 OA
HETATM    4  C7  UNL     1      -1.592   1.672   0.215  1.00  0.00     0.201 C 
HETATM    5  C8  UNL     1      -2.439   0.776   1.071  1.00  0.00     0.146 C 
HETATM    6  C9  UNL     1      -3.572   0.141   0.286  1.00  0.00     0.036 C 
HETATM    7  C10 UNL     1      -2.789  -0.854  -0.574  1.00  0.00     0.038 C 
HETATM    8  C11 UNL     1      -1.503  -0.978   0.196  1.00  0.00     0.160 C 
HETATM    9  O3  UNL     1      -1.684  -0.337   1.414  1.00  0.00    -0.375 OA
ENDROOT
BRANCH   1  10
HETATM   10  C4  UNL     1       0.745  -0.001   0.276  1.00  0.00     0.011 C 
HETATM   11  C3  UNL     1       1.942  -0.423  -0.116  1.00  0.00     0.003 C 
BRANCH  11  12
HETATM   12  C2  UNL     1       3.149  -0.251   0.720  1.00  0.00     0.136 C 
HETATM   13  C1  UNL     1       3.906   0.958   0.151  1.00  0.00     0.043 C 
BRANCH  12  14
HETATM   14  O1  UNL     1       3.984  -1.351   0.547  1.00  0.00    -0.392 OA
ATOM     15  H1  UNL     1       3.516  -2.099   0.899  1.00  0.00     0.210 HD
ENDBRANCH  12  14
ENDBRANCH  11  12
ENDBRANCH   1  10
TORSDOF 3
