REMARK  7 active torsions:
REMARK  status: ('A' for Active; 'I' for Inactive)
REMARK    1  A    between atoms: N1_1  and  C1_4 
REMARK    2  A    between atoms: C4_12  and  N4_13 
REMARK    3  A    between atoms: N4_13  and  N5_15 
REMARK    4  A    between atoms: C5_17  and  C6_18 
REMARK    5  A    between atoms: C6_18  and  O2_19 
REMARK    6  A    between atoms: C6_18  and  C7_21 
REMARK    7  A    between atoms: C7_21  and  C8_23 
ROOT
HETATM    1  C1  UNL     1       5.452  -0.018  -0.275  1.00  0.00     0.679 A 
HETATM    2  N2  UNL     1       4.911  -1.218  -0.553  1.00  0.00    -0.154 N 
ATOM      3  H2  UNL     1       5.529  -1.991  -0.801  1.00  0.00     0.187 HD
HETATM    4  C2  UNL     1       3.583  -1.435  -0.516  1.00  0.00     0.289 A 
HETATM    5  O1  UNL     1       3.092  -2.576  -0.783  1.00  0.00    -0.265 OA
HETATM    6  C3  UNL     1       2.760  -0.381  -0.180  1.00  0.00     0.150 A 
HETATM    7  N3  UNL     1       1.425  -0.539  -0.128  1.00  0.00    -0.182 N 
ATOM      8  H3  UNL     1       1.027  -1.454  -0.342  1.00  0.00     0.184 HD
HETATM    9  C4  UNL     1       0.595   0.475   0.198  1.00  0.00     0.700 A 
HETATM   10  N7  UNL     1       1.159   1.655   0.470  1.00  0.00    -0.153 N 
ATOM     11  H7  UNL     1       0.542   2.428   0.718  1.00  0.00     0.187 HD
HETATM   12  C9  UNL     1       2.475   1.896   0.441  1.00  0.00     0.289 A 
HETATM   13  O5  UNL     1       2.987   3.022   0.702  1.00  0.00    -0.265 OA
HETATM   14  C10 UNL     1       3.313   0.853   0.106  1.00  0.00     0.150 A 
HETATM   15  N8  UNL     1       4.640   0.995   0.050  1.00  0.00    -0.184 N 
ATOM     16  H8  UNL     1       5.048   1.906   0.262  1.00  0.00     0.184 HD
ENDROOT
BRANCH   9  17
HETATM   17  N4  UNL     1      -0.685   0.284   0.238  1.00  0.00    -0.132 N 
ATOM     18  H4  UNL     1      -1.311   1.051   0.484  1.00  0.00     0.205 HD
BRANCH  17  19
HETATM   19  N5  UNL     1      -1.201  -0.970  -0.056  1.00  0.00    -0.299 N 
HETATM   20  C5  UNL     1      -2.452  -1.086  -0.328  1.00  0.00     0.120 C 
ATOM     21  H5  UNL     1      -0.595  -1.790  -0.056  1.00  0.00     0.186 HD
BRANCH  20  22
HETATM   22  C6  UNL     1      -3.332   0.106  -0.326  1.00  0.00     0.237 C 
BRANCH  22  23
HETATM   23  O2  UNL     1      -3.105   0.939   0.739  1.00  0.00    -0.382 OA
ATOM     24  H2  UNL     1      -3.669   1.703   0.740  1.00  0.00     0.211 HD
ENDBRANCH  22  23
BRANCH  22  25
HETATM   25  C7  UNL     1      -4.740  -0.324  -0.405  1.00  0.00     0.247 C 
HETATM   26  O3  UNL     1      -5.089  -1.089  -1.330  1.00  0.00    -0.284 OA
BRANCH  25  27
HETATM   27  C8  UNL     1      -5.684   0.141   0.580  1.00  0.00     0.303 C 
HETATM   28  N6  UNL     1      -7.040  -0.278   0.497  1.00  0.00    -0.054 NA
HETATM   29  O4  UNL     1      -5.332   0.908   1.507  1.00  0.00    -0.268 OA
ENDBRANCH  25  27
ENDBRANCH  22  25
ENDBRANCH  20  22
ENDBRANCH  17  19
ENDBRANCH   9  17
BRANCH   1  30
HETATM   30  N1  UNL     1       6.724   0.195  -0.308  1.00  0.00    -0.234 N 
ATOM     31  H12 UNL     1       7.343  -0.577  -0.556  1.00  0.00     0.174 HD
ATOM     32  H11 UNL     1       7.134   1.105  -0.097  1.00  0.00     0.174 HD
ENDBRANCH   1  30
TORSDOF 7
