REMARK  6 active torsions:
REMARK  status: ('A' for Active; 'I' for Inactive)
REMARK    1  A    between atoms: N1_1  and  N2_4 
REMARK    2  A    between atoms: C3_11  and  N4_12 
REMARK    3  A    between atoms: C5_19  and  N7_20 
REMARK    4  A    between atoms: N7_20  and  N8_22 
REMARK    5  A    between atoms: N8_22  and  C6_24 
REMARK    6  A    between atoms: C6_24  and  C7_25 
ROOT
HETATM    1  N4  UNL     1       3.267   1.759  -0.307  1.00  0.00    -0.204 N 
ATOM      2  H4  UNL     1       2.874   2.602  -0.725  1.00  0.00     0.179 HD
HETATM    3  C4  UNL     1       2.438   0.830  -0.278  1.00  0.00     0.708 A 
HETATM    4  N5  UNL     1       2.541  -0.409   0.175  1.00  0.00    -0.117 N 
ATOM      5  H5  UNL     1       3.378  -0.810   0.597  1.00  0.00     0.206 HD
HETATM    6  N6  UNL     1       1.376  -1.063  -0.004  1.00  0.00    -0.116 N 
ATOM      7  H6  UNL     1       1.181  -2.030   0.255  1.00  0.00     0.206 HD
HETATM    8  C5  UNL     1       0.521  -0.208  -0.585  1.00  0.00     0.726 A 
HETATM    9  N13 UNL     1       1.162   0.952  -0.756  1.00  0.00    -0.018 N 
ATOM     10  H13 UNL     1       0.764   1.793  -1.175  1.00  0.00     0.203 HD
ENDROOT
BRANCH   8  11
HETATM   11  N7  UNL     1      -0.708  -0.508  -0.905  1.00  0.00    -0.134 N 
ATOM     12  H7  UNL     1      -1.298   0.198  -1.345  1.00  0.00     0.205 HD
BRANCH  11  13
HETATM   13  N8  UNL     1      -1.226  -1.771  -0.657  1.00  0.00    -0.315 N 
ATOM     14  H8  UNL     1      -0.924  -2.562  -1.226  1.00  0.00     0.181 HD
BRANCH  13  15
HETATM   15  C6  UNL     1      -2.187  -1.977   0.397  1.00  0.00     0.216 C 
BRANCH  15  16
HETATM   16  C7  UNL     1      -3.386  -1.171   0.136  1.00  0.00     0.099 C 
HETATM   17  N9  UNL     1      -4.493  -1.807  -0.171  1.00  0.00    -0.377 N 
HETATM   18  C8  UNL     1      -5.818  -1.358  -0.481  1.00  0.00     0.140 C 
ATOM     19  H9  UNL     1      -4.389  -2.821  -0.193  1.00  0.00     0.160 HD
HETATM   20  C9  UNL     1      -6.232  -0.083   0.174  1.00  0.00     0.142 C 
HETATM   21  N10 UNL     1      -5.435   1.061  -0.216  1.00  0.00    -0.363 N 
HETATM   22  C10 UNL     1      -4.154   1.226  -0.197  1.00  0.00     0.189 C 
ATOM     23  H10 UNL     1      -5.968   1.861  -0.559  1.00  0.00     0.162 HD
HETATM   24  N11 UNL     1      -3.601   2.460  -0.637  1.00  0.00    -0.064 NA
HETATM   25  N12 UNL     1      -3.207   0.234   0.247  1.00  0.00    -0.319 N 
ATOM     26  H12 UNL     1      -2.342   0.566   0.674  1.00  0.00     0.169 HD
ENDBRANCH  15  16
ENDBRANCH  13  15
ENDBRANCH  11  13
ENDBRANCH   8  11
BRANCH   1  27
HETATM   27  C3  UNL     1       4.593   1.946   0.084  1.00  0.00     0.261 C 
HETATM   28  C1  UNL     1       5.456   0.801   0.421  1.00  0.00     0.131 C 
HETATM   29  N2  UNL     1       5.952   0.277   1.468  1.00  0.00    -0.293 N 
HETATM   30  N3  UNL     1       5.530   0.506  -0.955  1.00  0.00    -0.311 N 
ATOM     31  H2  UNL     1       5.737   0.695   2.373  1.00  0.00     0.187 HD
HETATM   32  C2  UNL     1       5.459   1.911  -1.164  1.00  0.00     0.254 C 
ATOM     33  H3  UNL     1       5.602  -0.330  -1.534  1.00  0.00     0.170 HD
HETATM   34  O1  UNL     1       5.891   2.743  -1.974  1.00  0.00    -0.270 OA
BRANCH  29  35
HETATM   35  N1  UNL     1       6.777  -0.844   1.428  1.00  0.00    -0.344 N 
ATOM     36  H12 UNL     1       6.982  -1.249   0.514  1.00  0.00     0.176 HD
ATOM     37  H11 UNL     1       7.175  -1.264   2.268  1.00  0.00     0.176 HD
ENDBRANCH  29  35
ENDBRANCH   1  27
TORSDOF 6
