REMARK  9 active torsions:
REMARK  status: ('A' for Active; 'I' for Inactive)
REMARK    1  A    between atoms: C2_2  and  C3_3 
REMARK    2  A    between atoms: C5_7  and  C6_8 
REMARK    3  A    between atoms: C7_9  and  C8_10 
REMARK    4  A    between atoms: C8_10  and  O1_11 
REMARK    5  A    between atoms: C8_10  and  N2_13 
REMARK    6  A    between atoms: N2_13  and  C9_15 
REMARK    7  A    between atoms: C9_15  and  C10_16 
REMARK    8  A    between atoms: C10_16  and  C11_17 
REMARK    9  A    between atoms: N4_24  and  C17_25 
ROOT
HETATM    1  C6  UNL     1      -2.203  -1.056   0.519  1.00  0.00     0.077 A 
HETATM    2  C7  UNL     1      -1.194  -1.756  -0.044  1.00  0.00     0.104 A 
HETATM    3  N4  UNL     1      -1.572  -2.981  -0.713  1.00  0.00    -0.330 N 
HETATM    4  C19 UNL     1      -2.906  -3.453  -0.808  1.00  0.00     0.102 A 
HETATM    5  C20 UNL     1      -3.248  -4.554  -1.429  1.00  0.00     0.064 C 
HETATM    6  N5  UNL     1      -3.965  -2.679  -0.202  1.00  0.00    -0.304 N 
HETATM    7  C21 UNL     1      -5.326  -3.166  -0.308  1.00  0.00     0.161 C 
HETATM    8  C22 UNL     1      -3.603  -1.508   0.445  1.00  0.00     0.262 A 
HETATM    9  O2  UNL     1      -4.501  -0.786   1.003  1.00  0.00    -0.267 OA
ENDROOT
BRANCH   2  10
HETATM   10  C8  UNL     1       0.136  -1.231   0.038  1.00  0.00     0.164 C 
BRANCH  10  11
HETATM   11  O1  UNL     1       0.153  -0.076   0.688  1.00  0.00    -0.345 OA
ATOM     12  H1  UNL     1       1.035   0.272   0.742  1.00  0.00     0.219 HD
ENDBRANCH  10  11
BRANCH  10  13
HETATM   13  N2  UNL     1       1.381  -1.628  -0.395  1.00  0.00    -0.369 N 
ATOM     14  H2  UNL     1       1.464  -2.506  -0.908  1.00  0.00     0.161 HD
BRANCH  13  15
HETATM   15  C9  UNL     1       2.600  -0.835  -0.147  1.00  0.00     0.126 C 
BRANCH  15  16
HETATM   16  C10 UNL     1       2.629   0.512  -0.715  1.00  0.00     0.058 C 
BRANCH  16  17
HETATM   17  C11 UNL     1       3.946   1.117  -0.424  1.00  0.00    -0.054 A 
HETATM   18  C12 UNL     1       4.237   1.840   0.701  1.00  0.00     0.024 A 
HETATM   19  C13 UNL     1       5.496   2.387   0.891  1.00  0.00     0.090 A 
HETATM   20  N3  UNL     1       6.470   2.232  -0.009  1.00  0.00    -0.371 N 
HETATM   21  C14 UNL     1       7.761   2.836   0.256  1.00  0.00     0.154 C 
HETATM   22  C15 UNL     1       6.230   1.526  -1.132  1.00  0.00     0.090 A 
HETATM   23  C16 UNL     1       4.984   0.969  -1.351  1.00  0.00     0.024 A 
ENDBRANCH  16  17
ENDBRANCH  15  16
ENDBRANCH  13  15
ENDBRANCH  10  13
ENDBRANCH   2  10
BRANCH   1  24
HETATM   24  C5  UNL     1      -2.080   0.215   1.240  1.00  0.00     0.026 A 
HETATM   25  C4  UNL     1      -2.551   1.446   0.767  1.00  0.00     0.074 A 
HETATM   26  N1  UNL     1      -3.094   2.056  -0.293  1.00  0.00    -0.352 N 
HETATM   27  C24 UNL     1      -2.397   2.338   1.795  1.00  0.00     0.080 A 
HETATM   28  C3  UNL     1      -3.313   3.372   0.017  1.00  0.00     0.051 A 
ATOM     29  H1  UNL     1      -3.310   1.613  -1.186  1.00  0.00     0.166 HD
HETATM   30  C25 UNL     1      -2.887   3.557   1.298  1.00  0.00     0.066 A 
HETATM   31 BR1  UNL     1      -2.879   5.134   2.368  1.00  0.00    -0.046 Br
HETATM   32  N6  UNL     1      -1.860   1.756   2.875  1.00  0.00    -0.362 N 
HETATM   33  C23 UNL     1      -1.665   0.469   2.548  1.00  0.00     0.103 A 
ATOM     34  H6  UNL     1      -1.643   2.201   3.767  1.00  0.00     0.165 HD
BRANCH  28  35
HETATM   35  C2  UNL     1      -3.885   4.362  -0.873  1.00  0.00     0.021 C 
HETATM   36  C1  UNL     1      -4.364   5.536  -0.569  1.00  0.00     0.013 C 
ENDBRANCH  28  35
ENDBRANCH   1  24
BRANCH   3  37
HETATM   37  C17 UNL     1      -0.527  -3.863  -1.223  1.00  0.00     0.126 C 
HETATM   38  C18 UNL     1       0.090  -4.530  -0.013  1.00  0.00     0.027 C 
ENDBRANCH   3  37
TORSDOF 9
