REMARK  4 active torsions:
REMARK  status: ('A' for Active; 'I' for Inactive)
REMARK    1  A    between atoms: O1_2  and  C2_3 
REMARK    2  A    between atoms: C2_3  and  C3_4 
REMARK    3  A    between atoms: C5_8  and  N2_9 
REMARK    4  A    between atoms: N2_9  and  C6_11 
ROOT
HETATM    1  C3  UNL     1       2.354  -0.883  -1.028  1.00  0.00     0.034 C 
HETATM    2  C4  UNL     1       1.938  -2.285  -0.787  1.00  0.00     0.128 C 
HETATM    3  N1  UNL     1       0.766  -2.174   0.053  1.00  0.00    -0.380 N 
ATOM      4  H1  UNL     1       0.412  -2.939   0.628  1.00  0.00     0.160 HD
HETATM    5  C5  UNL     1       0.217  -1.015   0.001  1.00  0.00     0.073 C 
HETATM    6  C11 UNL     1       1.001  -0.162  -0.933  1.00  0.00     0.084 C 
ENDROOT
BRANCH   5   7
HETATM    7  N2  UNL     1      -0.943  -0.584   0.704  1.00  0.00    -0.375 N 
ATOM      8  H2  UNL     1      -0.846  -0.306   1.681  1.00  0.00     0.161 HD
BRANCH   7   9
HETATM    9  C6  UNL     1      -2.255  -0.522   0.095  1.00  0.00     0.082 C 
HETATM   10  C7  UNL     1      -3.291  -0.051   1.049  1.00  0.00     0.025 C 
HETATM   11  C8  UNL     1      -4.277   0.801   0.240  1.00  0.00     0.002 C 
HETATM   12  C9  UNL     1      -3.336   1.518  -0.682  1.00  0.00     0.002 C 
HETATM   13  C10 UNL     1      -2.355   0.424  -1.044  1.00  0.00     0.025 C 
ENDBRANCH   7   9
ENDBRANCH   5   7
BRANCH   1  14
HETATM   14  C2  UNL     1       3.243  -0.319   0.054  1.00  0.00     0.173 C 
BRANCH  14  15
HETATM   15  O1  UNL     1       3.583   0.988  -0.251  1.00  0.00    -0.396 OA
HETATM   16  C1  UNL     1       4.402   1.532   0.731  1.00  0.00     0.201 C 
ENDBRANCH  14  15
ENDBRANCH   1  14
TORSDOF 4
