REMARK  1 active torsions:
REMARK  status: ('A' for Active; 'I' for Inactive)
REMARK    1  A    between atoms: O1_1  and  C1_3 
ROOT
HETATM    1  C1  UNL     1      -1.093  -0.380   0.092  1.00  0.00     0.288 C 
HETATM    2  O2  UNL     1      -0.308  -1.335  -0.598  1.00  0.00    -0.358 OA
HETATM    3  C2  UNL     1       0.981  -1.151  -0.068  1.00  0.00     0.188 C 
HETATM    4  C3  UNL     1       1.520   0.213  -0.276  1.00  0.00     0.150 C 
HETATM    5  N1  UNL     1       0.586   1.279  -0.225  1.00  0.00    -0.160 NA
HETATM    6  O3  UNL     1       0.174   1.613   1.010  1.00  0.00    -0.225 OA
HETATM    7  S1  UNL     1      -1.203   2.406   0.334  1.00  0.00     0.040 SA
HETATM    8  C4  UNL     1      -0.759   0.936  -0.587  1.00  0.00     0.233 C 
ENDROOT
BRANCH   1   9
HETATM    9  O1  UNL     1      -2.428  -0.682   0.073  1.00  0.00    -0.369 OA
ATOM     10  H1  UNL     1      -2.955  -0.041   0.536  1.00  0.00     0.212 HD
ENDBRANCH   1   9
TORSDOF 1
