REMARK  6 active torsions:
REMARK  status: ('A' for Active; 'I' for Inactive)
REMARK    1  A    between atoms: N2_9  and  C8_10 
REMARK    2  A    between atoms: C8_10  and  C9_11 
REMARK    3  A    between atoms: C9_11  and  C10_12 
REMARK    4  A    between atoms: C12_16  and  C13_17 
REMARK    5  A    between atoms: C13_17  and  C14_18 
REMARK    6  A    between atoms: C14_18  and  O3_19 
ROOT
HETATM    1  C1  UNL     1       5.907   0.892   1.112  1.00  0.00     0.154 C 
HETATM    2  N1  UNL     1       4.872   1.027   0.105  1.00  0.00    -0.378 N 
HETATM    3  C2  UNL     1       4.018   2.095   0.384  1.00  0.00     0.063 C 
HETATM    4  C3  UNL     1       2.685   2.116  -0.273  1.00  0.00     0.050 C 
HETATM    5  C4  UNL     1       2.043   0.766  -0.022  1.00  0.00     0.001 C 
HETATM    6  C5  UNL     1       0.679   0.642  -0.634  1.00  0.00     0.032 C 
HETATM    7  C6  UNL     1      -0.336   0.059   0.322  1.00  0.00     0.112 C 
HETATM    8  C7  UNL     1      -1.321   1.137   0.614  1.00  0.00     0.297 C 
HETATM    9  N2  UNL     1      -2.628   0.650   0.974  1.00  0.00     0.092 N 
HETATM   10  C11 UNL     1      -3.030  -0.213  -0.111  1.00  0.00     0.297 C 
HETATM   11  C12 UNL     1      -2.158  -1.521   0.154  1.00  0.00     0.114 C 
HETATM   12  N3  UNL     1      -0.825  -1.192  -0.168  1.00  0.00    -0.381 N 
HETATM   13  C15 UNL     1       0.054  -2.277  -0.025  1.00  0.00     0.059 C 
HETATM   14  C16 UNL     1       1.504  -1.991   0.304  1.00  0.00     0.045 C 
HETATM   15  C17 UNL     1       2.328  -1.575  -0.864  1.00  0.00     0.015 C 
HETATM   16  C18 UNL     1       2.936  -0.216  -0.789  1.00  0.00     0.029 C 
HETATM   17  C19 UNL     1       4.342  -0.203  -0.317  1.00  0.00     0.067 C 
ENDROOT
BRANCH   9  18
HETATM   18  C8  UNL     1      -3.548   1.727   1.138  1.00  0.00     0.283 C 
BRANCH  18  19
HETATM   19  C9  UNL     1      -3.916   2.465  -0.103  1.00  0.00     0.143 C 
BRANCH  19  20
HETATM   20  C10 UNL     1      -4.880   3.538   0.227  1.00  0.00     0.174 C 
HETATM   21  O1  UNL     1      -5.242   3.683   1.417  1.00  0.00    -0.648 OA
HETATM   22  O2  UNL     1      -5.368   4.370  -0.797  1.00  0.00    -0.648 OA
ENDBRANCH  19  20
ENDBRANCH  18  19
ENDBRANCH   9  18
BRANCH  11  23
HETATM   23  C13 UNL     1      -2.876  -2.608  -0.506  1.00  0.00     0.053 C 
BRANCH  23  24
HETATM   24  C14 UNL     1      -2.408  -4.006  -0.443  1.00  0.00     0.166 C 
BRANCH  24  25
HETATM   25  O3  UNL     1      -3.373  -4.847  -1.130  1.00  0.00    -0.401 OA
ATOM     26  H3  UNL     1      -3.072  -5.747  -1.089  1.00  0.00     0.209 HD
ENDBRANCH  24  25
ENDBRANCH  23  24
ENDBRANCH  11  23
TORSDOF 6
