REMARK  6 active torsions:
REMARK  status: ('A' for Active; 'I' for Inactive)
REMARK    1  A    between atoms: O1_2  and  C2_3 
REMARK    2  A    between atoms: C2_3  and  C3_4 
REMARK    3  A    between atoms: C6_7  and  C7_8 
REMARK    4  A    between atoms: C7_8  and  O2_11 
REMARK    5  A    between atoms: C11_14  and  O3_15 
REMARK    6  A    between atoms: C16_21  and  O4_22 
ROOT
HETATM    1  C3  UNL     1      -0.698  -0.879   0.105  1.00  0.00    -0.005 C 
HETATM    2  C4  UNL     1      -0.880  -1.016   1.574  1.00  0.00     0.013 C 
HETATM    3  C5  UNL     1      -2.041  -0.094   1.986  1.00  0.00     0.009 C 
HETATM    4  C6  UNL     1      -2.701   0.153   0.681  1.00  0.00     0.027 C 
HETATM    5  C10 UNL     1      -1.592   0.264  -0.299  1.00  0.00     0.033 C 
HETATM    6  C11 UNL     1      -0.983   1.608  -0.403  1.00  0.00     0.124 C 
HETATM    7  C12 UNL     1       0.425   1.599  -1.011  1.00  0.00     0.038 C 
HETATM    8  C13 UNL     1       1.210   0.716  -0.112  1.00  0.00     0.001 C 
HETATM    9  C14 UNL     1       2.646   0.868   0.007  1.00  0.00    -0.003 C 
HETATM   10  C15 UNL     1       3.339   2.033  -0.608  1.00  0.00     0.037 C 
HETATM   11  C16 UNL     1       4.780   1.733  -0.191  1.00  0.00     0.118 C 
HETATM   12  C17 UNL     1       4.853   0.217   0.043  1.00  0.00     0.036 C 
HETATM   13  C18 UNL     1       3.521  -0.243  -0.582  1.00  0.00    -0.008 C 
HETATM   14  C19 UNL     1       3.081  -1.587  -0.170  1.00  0.00     0.006 C 
HETATM   15  C20 UNL     1       1.684  -1.535   0.475  1.00  0.00     0.011 C 
HETATM   16  C21 UNL     1       0.740  -0.730  -0.328  1.00  0.00    -0.030 C 
HETATM   17  C22 UNL     1       0.734  -1.046  -1.816  1.00  0.00     0.016 C 
ENDROOT
BRANCH   4  18
HETATM   18  C7  UNL     1      -3.847   1.057   0.614  1.00  0.00     0.055 C 
HETATM   19  C8  UNL     1      -3.753   2.464   1.019  1.00  0.00     0.045 C 
HETATM   20  C9  UNL     1      -4.461   0.902  -0.787  1.00  0.00     0.045 C 
BRANCH  18  21
HETATM   21  O2  UNL     1      -4.849   0.483   1.452  1.00  0.00    -0.390 OA
ATOM     22  H2  UNL     1      -5.594   1.071   1.408  1.00  0.00     0.210 HD
ENDBRANCH  18  21
ENDBRANCH   4  18
BRANCH   1  23
HETATM   23  C2  UNL     1      -1.286  -2.134  -0.543  1.00  0.00     0.177 C 
BRANCH  23  24
HETATM   24  O1  UNL     1      -0.663  -3.309  -0.122  1.00  0.00    -0.395 OA
HETATM   25  C1  UNL     1      -1.250  -4.376  -0.749  1.00  0.00     0.201 C 
ENDBRANCH  23  24
ENDBRANCH   1  23
BRANCH   6  26
HETATM   26  O3  UNL     1      -0.724   2.207   0.860  1.00  0.00    -0.395 OA
ATOM     27  H3  UNL     1      -0.333   3.070   0.793  1.00  0.00     0.210 HD
ENDBRANCH   6  26
BRANCH  11  28
HETATM   28  O4  UNL     1       4.976   2.345   1.041  1.00  0.00    -0.396 OA
ATOM     29  H4  UNL     1       5.871   2.159   1.300  1.00  0.00     0.210 HD
ENDBRANCH  11  28
TORSDOF 6
