REMARK  5 active torsions:
REMARK  status: ('A' for Active; 'I' for Inactive)
REMARK    1  A    between atoms: C2_2  and  O1_3 
REMARK    2  A    between atoms: O1_3  and  C3_4 
REMARK    3  A    between atoms: C8_9  and  O2_10 
REMARK    4  A    between atoms: C10_13  and  O3_14 
REMARK    5  A    between atoms: C17_22  and  O4_23 
ROOT
HETATM    1  C3  UNL     1       0.447   1.595   0.326  1.00  0.00     0.127 C 
HETATM    2  C4  UNL     1       1.881   1.596  -0.259  1.00  0.00     0.042 C 
HETATM    3  C5  UNL     1       2.383   0.233  -0.633  1.00  0.00    -0.033 C 
HETATM    4  C6  UNL     1       2.395   0.114  -2.104  1.00  0.00     0.016 C 
HETATM    5  C7  UNL     1       3.841   0.080  -0.164  1.00  0.00     0.041 C 
HETATM    6  C8  UNL     1       4.409  -1.248  -0.529  1.00  0.00     0.121 C 
HETATM    7  C9  UNL     1       3.449  -2.380  -0.577  1.00  0.00     0.063 C 
HETATM    8  C10 UNL     1       2.277  -2.111   0.329  1.00  0.00     0.125 C 
HETATM    9  C11 UNL     1       1.624  -0.778   0.144  1.00  0.00     0.027 C 
HETATM   10  C12 UNL     1       0.168  -0.832  -0.169  1.00  0.00     0.000 C 
HETATM   11  C13 UNL     1      -0.233  -1.490  -1.445  1.00  0.00     0.006 C 
HETATM   12  C14 UNL     1      -1.731  -1.750  -1.262  1.00  0.00     0.006 C 
HETATM   13  C15 UNL     1      -2.454  -0.483  -1.026  1.00  0.00    -0.004 C 
HETATM   14  C16 UNL     1      -3.888  -0.777  -0.784  1.00  0.00     0.037 C 
HETATM   15  C17 UNL     1      -4.280  -1.019   0.629  1.00  0.00     0.118 C 
HETATM   16  C18 UNL     1      -3.128  -1.011   1.593  1.00  0.00     0.032 C 
HETATM   17  C19 UNL     1      -2.154   0.083   1.398  1.00  0.00     0.012 C 
HETATM   18  C20 UNL     1      -1.833   0.472  -0.011  1.00  0.00    -0.034 C 
HETATM   19  C21 UNL     1      -2.576   1.780  -0.287  1.00  0.00     0.016 C 
HETATM   20  C22 UNL     1      -0.384   0.590  -0.323  1.00  0.00     0.028 C 
ENDROOT
BRANCH   1  21
HETATM   21  O1  UNL     1       0.072   2.899   0.296  1.00  0.00    -0.386 OA
BRANCH  21  22
HETATM   22  C2  UNL     1       0.167   3.701   1.364  1.00  0.00     0.163 C 
HETATM   23  C1  UNL     1      -0.569   3.322   2.619  1.00  0.00     0.033 C 
ENDBRANCH  21  22
ENDBRANCH   1  21
BRANCH   6  24
HETATM   24  O2  UNL     1       5.165  -1.148  -1.721  1.00  0.00    -0.395 OA
ATOM     25  H2  UNL     1       5.527  -1.995  -1.954  1.00  0.00     0.210 HD
ENDBRANCH   6  24
BRANCH   8  26
HETATM   26  O3  UNL     1       1.346  -3.178   0.276  1.00  0.00    -0.395 OA
ATOM     27  H3  UNL     1       0.606  -3.008   0.848  1.00  0.00     0.210 HD
ENDBRANCH   8  26
BRANCH  15  28
HETATM   28  O4  UNL     1      -5.214  -0.039   1.042  1.00  0.00    -0.396 OA
ATOM     29  H4  UNL     1      -5.465  -0.194   1.945  1.00  0.00     0.210 HD
ENDBRANCH  15  28
TORSDOF 5
