REMARK  2 active torsions:
REMARK  status: ('A' for Active; 'I' for Inactive)
REMARK    1  A    between atoms: C2_2  and  C3_3 
REMARK    2  A    between atoms: C3_3  and  N1_4 
ROOT
HETATM    1  N1  UNL     1      -1.882   1.027  -0.620  1.00  0.00    -0.296 N 
HETATM    2  N2  UNL     1      -0.674   1.507  -1.133  1.00  0.00    -0.306 N 
ATOM      3  H2  UNL     1      -0.670   2.266  -1.815  1.00  0.00     0.186 HD
HETATM    4  C4  UNL     1       0.421   0.990  -0.743  1.00  0.00     0.038 C 
HETATM    5  C5  UNL     1       1.878   1.228  -1.059  1.00  0.00     0.095 C 
HETATM    6  C6  UNL     1       2.512  -0.032  -0.519  1.00  0.00     0.067 C 
HETATM    7  C7  UNL     1       3.467  -0.554  -1.568  1.00  0.00     0.038 C 
HETATM    8  C8  UNL     1       4.587  -1.233  -0.834  1.00  0.00     0.003 C 
HETATM    9  C9  UNL     1       4.591  -0.669   0.557  1.00  0.00     0.003 C 
HETATM   10  C10 UNL     1       3.384   0.230   0.681  1.00  0.00     0.038 C 
HETATM   11  O1  UNL     1       1.492  -0.941  -0.241  1.00  0.00    -0.366 OA
HETATM   12  C11 UNL     1       0.493  -0.099   0.250  1.00  0.00     0.203 C 
HETATM   13  C12 UNL     1      -0.794  -0.672   0.548  1.00  0.00     0.210 C 
HETATM   14  O2  UNL     1      -0.954  -2.041   0.606  1.00  0.00    -0.343 OA
HETATM   15  C13 UNL     1      -2.361  -2.168   0.653  1.00  0.00     0.160 C 
HETATM   16  C14 UNL     1      -2.717  -2.443   2.082  1.00  0.00     0.078 C 
HETATM   17  C15 UNL     1      -2.829  -3.289  -0.246  1.00  0.00     0.078 C 
HETATM   18  O3  UNL     1      -2.918  -0.987   0.168  1.00  0.00    -0.327 OA
HETATM   19  C16 UNL     1      -1.887  -0.413  -0.506  1.00  0.00     0.274 C 
ENDROOT
BRANCH   1  20
HETATM   20  C3  UNL     1      -3.008   1.822  -0.239  1.00  0.00     0.145 C 
BRANCH  20  21
HETATM   21  C2  UNL     1      -2.729   3.287  -0.462  1.00  0.00     0.017 C 
HETATM   22  C1  UNL     1      -1.542   3.706   0.362  1.00  0.00     0.007 C 
ENDBRANCH  20  21
ENDBRANCH   1  20
TORSDOF 2
