REMARK  4 active torsions:
REMARK  status: ('A' for Active; 'I' for Inactive)
REMARK    1  A    between atoms: N1_1  and  C1_4 
REMARK    2  A    between atoms: C2_7  and  N3_8 
REMARK    3  A    between atoms: C7_16  and  C8_17 
REMARK    4  A    between atoms: C9_20  and  N6_21 
ROOT
HETATM    1  C1  UNL     1      -0.070  -2.775  -0.348  1.00  0.00     0.679 A 
HETATM    2  N2  UNL     1       1.136  -2.222  -0.308  1.00  0.00    -0.176 N 
ATOM      3  H2  UNL     1       1.981  -2.783  -0.418  1.00  0.00     0.186 HD
HETATM    4  C2  UNL     1       1.200  -0.864  -0.112  1.00  0.00     0.138 A 
HETATM    5  C7  UNL     1       0.019  -0.122   0.036  1.00  0.00     0.117 A 
HETATM    6  C9  UNL     1      -1.214  -0.706  -0.008  1.00  0.00     0.138 A 
HETATM    7  N8  UNL     1      -1.179  -2.072  -0.209  1.00  0.00    -0.176 N 
ATOM      8  H8  UNL     1      -2.068  -2.570  -0.253  1.00  0.00     0.186 HD
ENDROOT
BRANCH   4   9
HETATM    9  N3  UNL     1       2.479  -0.309  -0.069  1.00  0.00    -0.363 N 
HETATM   10  C3  UNL     1       3.002   0.592  -1.058  1.00  0.00     0.152 C 
HETATM   11  C4  UNL     1       4.440   0.085  -1.335  1.00  0.00     0.252 C 
HETATM   12  N4  UNL     1       5.231   0.425  -0.185  1.00  0.00    -0.072 N 
HETATM   13  C5  UNL     1       4.590   0.203   1.063  1.00  0.00     0.252 C 
ATOM     14  H42 UNL     1       6.126  -0.063  -0.215  1.00  0.00     0.277 HD
ATOM     15  H41 UNL     1       5.554   1.390  -0.250  1.00  0.00     0.277 HD
HETATM   16  C6  UNL     1       3.370  -0.650   1.021  1.00  0.00     0.152 C 
ENDBRANCH   4   9
BRANCH   5  17
HETATM   17  C8  UNL     1       0.190   1.276   0.276  1.00  0.00     0.272 C 
HETATM   18  N5  UNL     1       0.285   2.259  -0.727  1.00  0.00    -0.057 NA
HETATM   19  O1  UNL     1       0.263   1.648   1.492  1.00  0.00    -0.271 OA
ENDBRANCH   5  17
BRANCH   1  20
HETATM   20  N1  UNL     1      -0.105  -4.074  -0.537  1.00  0.00    -0.234 N 
ATOM     21  H12 UNL     1       0.752  -4.617  -0.644  1.00  0.00     0.174 HD
ATOM     22  H11 UNL     1      -1.032  -4.499  -0.568  1.00  0.00     0.174 HD
ENDBRANCH   1  20
BRANCH   6  23
HETATM   23  N6  UNL     1      -2.460  -0.051   0.091  1.00  0.00    -0.363 N 
HETATM   24  C10 UNL     1      -2.743   1.336  -0.140  1.00  0.00     0.152 C 
HETATM   25  C11 UNL     1      -4.283   1.562  -0.083  1.00  0.00     0.252 C 
HETATM   26  N7  UNL     1      -4.611   1.204   1.289  1.00  0.00    -0.072 N 
HETATM   27  C12 UNL     1      -4.653  -0.245   1.270  1.00  0.00     0.252 C 
ATOM     28  H72 UNL     1      -3.980   1.597   1.988  1.00  0.00     0.277 HD
ATOM     29  H71 UNL     1      -5.459   1.644   1.647  1.00  0.00     0.277 HD
HETATM   30  C13 UNL     1      -3.584  -0.914   0.507  1.00  0.00     0.152 C 
ENDBRANCH   6  23
TORSDOF 4
