REMARK  5 active torsions:
REMARK  status: ('A' for Active; 'I' for Inactive)
REMARK    1  A    between atoms: N2_10  and  C6_11 
REMARK    2  A    between atoms: C6_11  and  C7_12 
REMARK       I    between atoms: C7_12  and  N3_14 
REMARK    3  A    between atoms: N3_14  and  C8_16 
REMARK    4  A    between atoms: C8_16  and  C9_17 
REMARK       I    between atoms: C9_17  and  N4_19 
REMARK    5  A    between atoms: N4_19  and  N5_21 
ROOT
HETATM    1  C7  UNL     1      -0.571   0.384   2.176  1.00  0.00     0.237 C 
HETATM    2  O2  UNL     1      -1.600   0.840   2.732  1.00  0.00    -0.272 OA
HETATM    3  N3  UNL     1      -0.672  -0.147   0.871  1.00  0.00    -0.342 N 
ATOM      4  H3  UNL     1       0.168  -0.516   0.425  1.00  0.00     0.163 HD
ENDROOT
BRANCH   1   5
HETATM    5  C6  UNL     1       0.732   0.406   2.886  1.00  0.00     0.237 C 
BRANCH   5   6
HETATM    6  N2  UNL     1       1.772  -0.168   2.062  1.00  0.00    -0.283 N 
HETATM    7  C3  UNL     1       2.576   0.466   1.178  1.00  0.00     0.108 A 
HETATM    8  S1  UNL     1       2.971   1.965   0.472  1.00  0.00    -0.074 SA
HETATM    9  C4  UNL     1       3.447  -0.401   0.578  1.00  0.00     0.077 A 
HETATM   10  C2  UNL     1       4.229   1.456  -0.566  1.00  0.00    -0.011 A 
HETATM   11  C1  UNL     1       5.044   2.307  -1.509  1.00  0.00     0.057 C 
HETATM   12  C15 UNL     1       4.304   0.110  -0.326  1.00  0.00    -0.019 A 
HETATM   13  C16 UNL     1       5.343  -0.688  -1.096  1.00  0.00     0.052 C 
HETATM   14  N1  UNL     1       3.133  -1.608   1.144  1.00  0.00    -0.305 N 
HETATM   15  C5  UNL     1       2.143  -1.451   2.016  1.00  0.00     0.328 A 
ATOM     16  H1  UNL     1       3.590  -2.494   0.929  1.00  0.00     0.171 HD
HETATM   17  O1  UNL     1       1.642  -2.408   2.696  1.00  0.00    -0.246 OA
ENDBRANCH   5   6
ENDBRANCH   1   5
BRANCH   3  18
HETATM   18  C8  UNL     1      -1.957  -0.189   0.123  1.00  0.00     0.115 C 
HETATM   19  C10 UNL     1      -2.416   1.192  -0.125  1.00  0.00     0.041 C 
HETATM   20  C11 UNL     1      -3.787   1.596   0.296  1.00  0.00     0.003 C 
HETATM   21  C12 UNL     1      -4.760   0.476   0.494  1.00  0.00     0.000 C 
HETATM   22  C13 UNL     1      -4.180  -0.659   1.272  1.00  0.00     0.003 C 
HETATM   23  C14 UNL     1      -2.876  -1.147   0.772  1.00  0.00     0.041 C 
BRANCH  18  24
HETATM   24  C9  UNL     1      -1.571  -0.825  -1.199  1.00  0.00     0.264 C 
HETATM   25  O3  UNL     1      -0.392  -1.168  -1.420  1.00  0.00    -0.269 OA
HETATM   26  N4  UNL     1      -2.529  -1.043  -2.209  1.00  0.00    -0.275 N 
ATOM     27  H4  UNL     1      -3.493  -0.762  -2.029  1.00  0.00     0.189 HD
BRANCH  26  28
HETATM   28  N5  UNL     1      -2.228  -1.623  -3.442  1.00  0.00    -0.343 N 
ATOM     29  H52 UNL     1      -1.259  -1.898  -3.604  1.00  0.00     0.176 HD
ATOM     30  H51 UNL     1      -2.921  -1.781  -4.173  1.00  0.00     0.176 HD
ENDBRANCH  26  28
ENDBRANCH  18  24
ENDBRANCH   3  18
TORSDOF 5
