REMARK  9 active torsions:
REMARK  status: ('A' for Active; 'I' for Inactive)
REMARK    1  A    between atoms: C1_2  and  C2_3 
REMARK    2  A    between atoms: C2_3  and  C3_4 
REMARK    3  A    between atoms: C2_3  and  C8_14 
REMARK    4  A    between atoms: C3_4  and  O2_5 
REMARK    5  A    between atoms: O2_5  and  C4_6 
REMARK    6  A    between atoms: C4_6  and  C5_7 
REMARK    7  A    between atoms: C8_14  and  O3_15 
REMARK    8  A    between atoms: C8_14  and  N3_17 
REMARK    9  A    between atoms: N3_17  and  C9_19 
ROOT
HETATM    1  C8  UNL     1      -1.320  -0.048   0.665  1.00  0.00     0.232 C 
ENDROOT
BRANCH   1   2
HETATM    2  C2  UNL     1       0.121   0.162   0.175  1.00  0.00     0.119 C 
BRANCH   2   3
HETATM    3  C1  UNL     1       0.206  -0.524  -1.127  1.00  0.00     0.242 C 
HETATM    4  O1  UNL     1       0.026  -1.749  -1.177  1.00  0.00    -0.306 OA
ENDBRANCH   2   3
BRANCH   2   5
HETATM    5  C3  UNL     1       1.110  -0.389   1.145  1.00  0.00     0.184 C 
BRANCH   5   6
HETATM    6  O2  UNL     1       2.385  -0.255   0.802  1.00  0.00    -0.384 OA
BRANCH   6   7
HETATM    7  C4  UNL     1       2.975  -0.737  -0.293  1.00  0.00     0.226 C 
BRANCH   7   8
HETATM    8  C5  UNL     1       4.461  -0.420  -0.165  1.00  0.00     0.049 A 
HETATM    9  C6  UNL     1       5.457  -1.182   0.371  1.00  0.00     0.116 A 
HETATM   10  N1  UNL     1       6.637  -0.541   0.294  1.00  0.00    -0.360 N 
HETATM   11  C7  UNL     1       6.360   0.628  -0.296  1.00  0.00     0.180 A 
ATOM     12  H1  UNL     1       7.546  -0.874   0.616  1.00  0.00     0.166 HD
HETATM   13  N2  UNL     1       5.045   0.713  -0.578  1.00  0.00    -0.353 N 
ATOM     14  H2  UNL     1       4.577   1.501  -1.027  1.00  0.00     0.166 HD
ENDBRANCH   7   8
ENDBRANCH   6   7
ENDBRANCH   5   6
ENDBRANCH   2   5
ENDBRANCH   1   2
BRANCH   1  15
HETATM   15  O3  UNL     1      -1.527   0.556   1.893  1.00  0.00    -0.376 OA
ATOM     16  H3  UNL     1      -2.418   0.426   2.196  1.00  0.00     0.212 HD
ENDBRANCH   1  15
BRANCH   1  17
HETATM   17  N3  UNL     1      -2.201   0.524  -0.341  1.00  0.00    -0.345 N 
ATOM     18  H3  UNL     1      -1.787   0.953  -1.169  1.00  0.00     0.163 HD
BRANCH  17  19
HETATM   19  C9  UNL     1      -3.609   0.508  -0.215  1.00  0.00     0.172 A 
HETATM   20  N4  UNL     1      -4.155  -0.055   0.871  1.00  0.00    -0.347 N 
HETATM   21  C10 UNL     1      -5.506  -0.095   1.038  1.00  0.00     0.107 A 
ATOM     22  H4  UNL     1      -3.549  -0.460   1.584  1.00  0.00     0.167 HD
HETATM   23  C11 UNL     1      -6.326   0.451   0.076  1.00  0.00     0.108 A 
HETATM   24  N5  UNL     1      -5.799   1.016  -1.014  1.00  0.00    -0.329 N 
HETATM   25  C12 UNL     1      -4.443   1.047  -1.163  1.00  0.00     0.289 A 
ATOM     26  H5  UNL     1      -6.405   1.420  -1.728  1.00  0.00     0.168 HD
HETATM   27  O4  UNL     1      -3.941   1.569  -2.171  1.00  0.00    -0.264 OA
ENDBRANCH  17  19
ENDBRANCH   1  17
TORSDOF 9
