REMARK  2 active torsions:
REMARK  status: ('A' for Active; 'I' for Inactive)
REMARK    1  A    between atoms: C2_3  and  C3_4 
REMARK       I    between atoms: C3_4  and  N2_6 
REMARK    2  A    between atoms: N2_6  and  C4_8 
ROOT
HETATM    1  N1  UNL     1      -2.389  -2.452   1.922  1.00  0.00    -0.192 NA
HETATM    2  C1  UNL     1      -2.028  -1.551   1.308  1.00  0.00     0.124 C 
HETATM    3  C2  UNL     1      -1.566  -0.341   0.537  1.00  0.00     0.286 C 
HETATM    4  N7  UNL     1      -2.251   0.851   1.113  1.00  0.00    -0.296 N 
ATOM      5  H7  UNL     1      -2.025   1.592   1.776  1.00  0.00     0.168 HD
HETATM    6  C5  UNL     1      -3.335   0.488   0.333  1.00  0.00     0.322 C 
HETATM    7  O2  UNL     1      -4.617   0.582   0.252  1.00  0.00    -0.247 OA
HETATM    8  N8  UNL     1      -2.354  -0.152  -0.590  1.00  0.00    -0.296 N 
ATOM      9  H8  UNL     1      -2.291  -0.356  -1.587  1.00  0.00     0.168 HD
ENDROOT
BRANCH   3  10
HETATM   10  C3  UNL     1      -0.114  -0.233   0.640  1.00  0.00     0.289 C 
HETATM   11  O1  UNL     1       0.517  -1.052   1.331  1.00  0.00    -0.267 OA
HETATM   12  N2  UNL     1       0.595   0.823  -0.029  1.00  0.00    -0.292 N 
ATOM     13  H2  UNL     1       0.065   1.652  -0.297  1.00  0.00     0.172 HD
BRANCH  12  14
HETATM   14  C4  UNL     1       1.811   0.801  -0.306  1.00  0.00     0.218 A 
HETATM   15  N3  UNL     1       2.588   1.709  -0.925  1.00  0.00    -0.254 N 
HETATM   16  N4  UNL     1       3.807   1.263  -1.109  1.00  0.00    -0.225 N 
ATOM     17  H3  UNL     1       2.267   2.633  -1.216  1.00  0.00     0.191 HD
HETATM   18  N5  UNL     1       3.893   0.056  -0.627  1.00  0.00    -0.225 N 
ATOM     19  H4  UNL     1       4.565   1.778  -1.557  1.00  0.00     0.210 HD
HETATM   20  N6  UNL     1       2.681  -0.261  -0.123  1.00  0.00    -0.254 N 
ATOM     21  H5  UNL     1       4.722  -0.539  -0.630  1.00  0.00     0.210 HD
ATOM     22  H6  UNL     1       2.443  -1.146   0.324  1.00  0.00     0.191 HD
ENDBRANCH  12  14
ENDBRANCH   3  10
TORSDOF 2
