REMARK  6 active torsions:
REMARK  status: ('A' for Active; 'I' for Inactive)
REMARK    1  A    between atoms: C2_2  and  C3_3 
REMARK    2  A    between atoms: C3_3  and  N1_4 
REMARK    3  A    between atoms: C5_9  and  C6_10 
REMARK    4  A    between atoms: C7_11  and  O1_12 
REMARK    5  A    between atoms: C9_15  and  N3_16 
REMARK    6  A    between atoms: C15_28  and  N6_29 
ROOT
HETATM    1  N1  UNL     1       4.492  -0.404   1.460  1.00  0.00    -0.222 N 
ATOM      2  H1  UNL     1       4.076  -0.157   2.358  1.00  0.00     0.178 HD
HETATM    3  C4  UNL     1       3.701  -0.594   0.472  1.00  0.00     0.694 A 
HETATM    4  N2  UNL     1       2.352  -0.448   0.712  1.00  0.00    -0.175 N 
ATOM      5  H2  UNL     1       2.031  -0.200   1.648  1.00  0.00     0.186 HD
HETATM    6  C5  UNL     1       1.461  -0.627  -0.265  1.00  0.00     0.155 A 
HETATM    7  N5  UNL     1       2.005  -0.956  -1.469  1.00  0.00    -0.175 N 
ATOM      8  H5  UNL     1       1.356  -1.102  -2.242  1.00  0.00     0.186 HD
HETATM    9  C15 UNL     1       3.287  -1.104  -1.733  1.00  0.00     0.692 A 
HETATM   10  N7  UNL     1       4.172  -0.919  -0.738  1.00  0.00    -0.023 N 
ATOM     11  H7  UNL     1       5.174  -1.023  -0.901  1.00  0.00     0.203 HD
ENDROOT
BRANCH   6  12
HETATM   12  C6  UNL     1       0.013  -0.418  -0.138  1.00  0.00     0.110 A 
HETATM   13  C7  UNL     1      -0.893  -0.918  -1.062  1.00  0.00     0.088 A 
HETATM   14  C8  UNL     1      -2.280  -0.630  -0.950  1.00  0.00     0.086 A 
HETATM   15  C9  UNL     1      -2.760   0.135   0.058  1.00  0.00     0.108 A 
HETATM   16  N4  UNL     1      -1.878   0.611   0.943  1.00  0.00    -0.309 N 
HETATM   17  C14 UNL     1      -0.540   0.354   0.863  1.00  0.00     0.263 A 
ATOM     18  H4  UNL     1      -2.219   1.190   1.710  1.00  0.00     0.170 HD
HETATM   19  O3  UNL     1       0.182   0.861   1.754  1.00  0.00    -0.267 OA
BRANCH  13  20
HETATM   20  O1  UNL     1      -0.516  -1.701  -2.104  1.00  0.00    -0.359 OA
ATOM     21  H1  UNL     1      -1.136  -2.043  -2.737  1.00  0.00     0.217 HD
ENDBRANCH  13  20
BRANCH  15  22
HETATM   22  N3  UNL     1      -4.145   0.453   0.218  1.00  0.00    -0.363 N 
HETATM   23  C10 UNL     1      -5.144  -0.037  -0.679  1.00  0.00     0.150 C 
HETATM   24  C11 UNL     1      -6.441  -0.278   0.068  1.00  0.00     0.187 C 
HETATM   25  O2  UNL     1      -6.890   0.801   0.779  1.00  0.00    -0.388 OA
HETATM   26  C12 UNL     1      -5.972   1.803   0.978  1.00  0.00     0.187 C 
HETATM   27  C13 UNL     1      -4.584   1.299   1.314  1.00  0.00     0.150 C 
ENDBRANCH  15  22
ENDBRANCH   6  12
BRANCH   9  28
HETATM   28  N6  UNL     1       3.662  -1.424  -2.943  1.00  0.00    -0.234 N 
ATOM     29  H62 UNL     1       2.991  -1.564  -3.698  1.00  0.00     0.174 HD
ATOM     30  H61 UNL     1       4.655  -1.539  -3.147  1.00  0.00     0.174 HD
ENDBRANCH   9  28
BRANCH   1  31
HETATM   31  C3  UNL     1       5.913  -0.512   1.397  1.00  0.00     0.164 C 
BRANCH  31  32
HETATM   32  C2  UNL     1       6.582   0.803   1.153  1.00  0.00    -0.017 C 
HETATM   33  C1  UNL     1       7.340   0.998   0.086  1.00  0.00     0.008 C 
ENDBRANCH  31  32
ENDBRANCH   1  31
TORSDOF 6
