REMARK  19 active torsions:
REMARK  status: ('A' for Active; 'I' for Inactive)
REMARK    1  A    between atoms: C1_2  and  C2_4 
REMARK    2  A    between atoms: C3_5  and  C4_6 
REMARK    3  A    between atoms: C4_6  and  O3_7 
REMARK    4  A    between atoms: C4_6  and  O4_9 
REMARK    5  A    between atoms: O4_9  and  C5_10 
REMARK    6  A    between atoms: C5_10  and  C6_11 
REMARK    7  A    between atoms: C6_11  and  O5_12 
REMARK    8  A    between atoms: C6_11  and  C7_14 
REMARK    9  A    between atoms: C7_14  and  O6_15 
REMARK   10  A    between atoms: C10_19  and  O7_20 
REMARK   11  A    between atoms: O7_20  and  C11_21 
REMARK   12  A    between atoms: C11_21  and  O8_22 
REMARK   13  A    between atoms: C11_21  and  C12_24 
REMARK   14  A    between atoms: C13_26  and  C14_27 
REMARK   15  A    between atoms: C14_27  and  O10_28 
REMARK   16  A    between atoms: C14_27  and  O11_30 
REMARK   17  A    between atoms: C17_35  and  O13_36 
REMARK   18  A    between atoms: C18_42  and  O14_43 
REMARK   19  A    between atoms: C19_46  and  O16_47 
ROOT
HETATM    1  C2  UNL     1       1.477  -1.140   1.929  1.00  0.00     0.093 C 
HETATM    2  C3  UNL     1       1.883  -0.894   0.704  1.00  0.00     0.065 C 
HETATM    3  C8  UNL     1       1.084  -1.595  -0.363  1.00  0.00     0.216 C 
HETATM    4  C9  UNL     1      -0.368  -1.188  -0.367  1.00  0.00     0.093 C 
HETATM    5  C10 UNL     1      -1.144  -1.645   0.815  1.00  0.00     0.194 C 
HETATM    6  S1  UNL     1       0.041  -2.286   2.029  1.00  0.00    -0.090 SA
HETATM    7  N1  UNL     1       1.592  -1.187  -1.658  1.00  0.00    -0.007 N 
ATOM      8  H11 UNL     1       2.494  -0.712  -1.627  1.00  0.00     0.284 HD
ATOM      9  H12 UNL     1       1.081  -0.417  -2.088  1.00  0.00     0.284 HD
HETATM   10  C18 UNL     1       1.586  -2.416  -2.428  1.00  0.00     0.470 C 
HETATM   11  O15 UNL     1       2.188  -3.283  -1.502  1.00  0.00    -0.306 OA
HETATM   12  C19 UNL     1       1.339  -3.059  -0.380  1.00  0.00     0.303 C 
ENDROOT
BRANCH   5  13
HETATM   13  O7  UNL     1      -1.810  -0.579   1.398  1.00  0.00    -0.339 OA
BRANCH  13  14
HETATM   14  C11 UNL     1      -3.176  -0.804   1.529  1.00  0.00     0.320 C 
BRANCH  14  15
HETATM   15  O8  UNL     1      -3.618  -0.778   2.830  1.00  0.00    -0.365 OA
ATOM     16  H8  UNL     1      -4.551  -0.932   2.919  1.00  0.00     0.213 HD
ENDBRANCH  14  15
BRANCH  14  17
HETATM   17  C12 UNL     1      -3.957   0.138   0.651  1.00  0.00     0.145 A 
HETATM   18  O9  UNL     1      -4.958  -0.278  -0.086  1.00  0.00    -0.306 OA
HETATM   19  C13 UNL     1      -5.675   0.469  -0.864  1.00  0.00     0.112 A 
HETATM   20  C15 UNL     1      -5.371   1.813  -0.931  1.00  0.00     0.095 A 
HETATM   21  C16 UNL     1      -4.332   2.328  -0.186  1.00  0.00     0.210 A 
HETATM   22  O12 UNL     1      -4.030   3.536  -0.223  1.00  0.00    -0.285 OA
HETATM   23  C17 UNL     1      -3.620   1.477   0.613  1.00  0.00     0.151 A 
BRANCH  19  24
HETATM   24  C14 UNL     1      -6.812  -0.082  -1.682  1.00  0.00     0.312 C 
BRANCH  24  25
HETATM   25  O10 UNL     1      -6.431  -1.274  -2.307  1.00  0.00    -0.365 OA
ATOM     26  H10 UNL     1      -7.149  -1.622  -2.823  1.00  0.00     0.213 HD
ENDBRANCH  24  25
BRANCH  24  27
HETATM   27  O11 UNL     1      -7.924  -0.317  -0.876  1.00  0.00    -0.365 OA
ATOM     28  H11 UNL     1      -8.642  -0.665  -1.392  1.00  0.00     0.213 HD
ENDBRANCH  24  27
ENDBRANCH  19  24
BRANCH  23  29
HETATM   29  O13 UNL     1      -2.558   1.909   1.396  1.00  0.00    -0.355 OA
ATOM     30  H13 UNL     1      -2.326   2.830   1.370  1.00  0.00     0.218 HD
ENDBRANCH  23  29
ENDBRANCH  14  17
ENDBRANCH  13  14
ENDBRANCH   5  13
BRANCH   1  31
HETATM   31  C1  UNL     1       2.022  -0.629   3.138  1.00  0.00     0.217 C 
HETATM   32  O1  UNL     1       1.409  -1.049   4.211  1.00  0.00    -0.643 OA
HETATM   33  O2  UNL     1       3.043   0.204   3.434  1.00  0.00    -0.643 OA
ENDBRANCH   1  31
BRANCH   2  34
HETATM   34  C4  UNL     1       2.997  -0.028   0.353  1.00  0.00     0.189 C 
BRANCH  34  35
HETATM   35  O3  UNL     1       3.248   0.088  -0.918  1.00  0.00    -0.340 OA
ATOM     36  H3  UNL     1       3.976   0.654  -1.147  1.00  0.00     0.220 HD
ENDBRANCH  34  35
BRANCH  34  37
HETATM   37  O4  UNL     1       3.845   0.697   1.089  1.00  0.00    -0.328 OA
BRANCH  37  38
HETATM   38  C5  UNL     1       4.893   1.527   0.781  1.00  0.00     0.211 C 
BRANCH  38  39
HETATM   39  C6  UNL     1       4.672   2.783   0.043  1.00  0.00     0.166 C 
BRANCH  39  40
HETATM   40  O5  UNL     1       4.145   2.640  -1.202  1.00  0.00    -0.391 OA
ATOM     41  H5  UNL     1       4.003   3.450  -1.678  1.00  0.00     0.210 HD
ENDBRANCH  39  40
BRANCH  39  42
HETATM   42  C7  UNL     1       6.059   3.455  -0.078  1.00  0.00     0.198 C 
BRANCH  42  43
HETATM   43  O6  UNL     1       6.526   3.563   1.232  1.00  0.00    -0.398 OA
ATOM     44  H6  UNL     1       7.378   3.976   1.158  1.00  0.00     0.209 HD
ENDBRANCH  42  43
ENDBRANCH  39  42
ENDBRANCH  38  39
ENDBRANCH  37  38
ENDBRANCH  34  37
ENDBRANCH   2  34
BRANCH  12  45
HETATM   45  O16 UNL     1       0.222  -3.849  -0.642  1.00  0.00    -0.368 OA
ATOM     46  H16 UNL     1       0.385  -4.785  -0.653  1.00  0.00     0.212 HD
ENDBRANCH  12  45
BRANCH  10  47
HETATM   47  O14 UNL     1       2.384  -2.307  -3.562  1.00  0.00    -0.349 OA
ATOM     48  H14 UNL     1       2.380  -3.112  -4.066  1.00  0.00     0.214 HD
ENDBRANCH  10  47
TORSDOF 19
