REMARK  10 active torsions:
REMARK  status: ('A' for Active; 'I' for Inactive)
REMARK    1  A    between atoms: C2_2  and  C4_10 
REMARK    2  A    between atoms: N1_3  and  N2_5 
REMARK    3  A    between atoms: C5_12  and  N5_13 
REMARK    4  A    between atoms: N5_13  and  C6_15 
REMARK    5  A    between atoms: C6_15  and  C7_16 
REMARK    6  A    between atoms: C7_16  and  N6_17 
REMARK       I    between atoms: N6_17  and  C8_19 
REMARK    7  A    between atoms: C8_19  and  C9_21 
REMARK    8  A    between atoms: C9_21  and  N7_22 
REMARK    9  A    between atoms: C9_21  and  C10_26 
REMARK   10  A    between atoms: C10_26  and  N8_27 
ROOT
HETATM    1  N5  UNL     1      -0.633   1.993  -1.025  1.00  0.00    -0.369 N 
ATOM      2  H5  UNL     1      -0.951   2.794  -1.570  1.00  0.00     0.161 HD
ENDROOT
BRANCH   1   3
HETATM    3  C5  UNL     1       0.610   1.559  -1.059  1.00  0.00     0.146 A 
HETATM    4  S1  UNL     1       1.327   0.250  -0.229  1.00  0.00    -0.049 SA
HETATM    5  C4  UNL     1       2.917   0.404  -0.841  1.00  0.00     0.073 A 
HETATM    6  C11 UNL     1       2.794   1.486  -1.671  1.00  0.00     0.137 A 
HETATM    7  N9  UNL     1       1.627   2.052  -1.767  1.00  0.00    -0.324 N 
HETATM    8  N10 UNL     1       3.963   1.954  -2.405  1.00  0.00    -0.081 NA
ATOM      9  H9  UNL     1       1.492   2.860  -2.374  1.00  0.00     0.169 HD
BRANCH   5  10
HETATM   10  C2  UNL     1       4.076  -0.419  -0.536  1.00  0.00     0.042 C 
HETATM   11  C1  UNL     1       5.388  -0.161  -1.147  1.00  0.00     0.071 C 
HETATM   12  N1  UNL     1       3.937  -1.390   0.285  1.00  0.00    -0.302 N 
ATOM     13  H1  UNL     1       3.010  -1.536   0.686  1.00  0.00     0.186 HD
BRANCH  12  14
HETATM   14  N2  UNL     1       4.935  -2.253   0.671  1.00  0.00    -0.276 N 
HETATM   15  C3  UNL     1       5.814  -2.018   1.574  1.00  0.00     0.215 C 
HETATM   16  N3  UNL     1       5.860  -0.797   2.305  1.00  0.00    -0.065 NA
HETATM   17  N4  UNL     1       6.791  -2.996   1.876  1.00  0.00    -0.065 NA
ATOM     18  H2  UNL     1       4.980  -3.156   0.199  1.00  0.00     0.189 HD
ENDBRANCH  12  14
ENDBRANCH   5  10
ENDBRANCH   1   3
BRANCH   1  19
HETATM   19  C6  UNL     1      -1.526   1.231  -0.139  1.00  0.00     0.141 C 
BRANCH  19  20
HETATM   20  C7  UNL     1      -2.834   1.071  -0.882  1.00  0.00     0.142 C 
BRANCH  20  21
HETATM   21  N6  UNL     1      -3.731   0.320  -0.022  1.00  0.00    -0.358 N 
HETATM   22  C8  UNL     1      -5.035   0.057  -0.541  1.00  0.00     0.250 C 
HETATM   23  O1  UNL     1      -5.409   0.444  -1.675  1.00  0.00    -0.271 OA
ATOM     24  H6  UNL     1      -3.445  -0.002   0.903  1.00  0.00     0.162 HD
BRANCH  22  25
HETATM   25  C9  UNL     1      -5.970  -0.712   0.324  1.00  0.00     0.299 C 
BRANCH  25  26
HETATM   26  N7  UNL     1      -7.247  -0.900  -0.332  1.00  0.00    -0.065 N 
ATOM     27  H73 UNL     1      -7.652  -0.012  -0.628  1.00  0.00     0.275 HD
ATOM     28  H72 UNL     1      -7.139  -1.334  -1.249  1.00  0.00     0.275 HD
ATOM     29  H71 UNL     1      -7.888  -1.427   0.261  1.00  0.00     0.275 HD
ENDBRANCH  25  26
BRANCH  25  30
HETATM   30  C10 UNL     1      -6.126   0.038   1.630  1.00  0.00     0.272 C 
BRANCH  30  31
HETATM   31  N8  UNL     1      -7.020  -0.640   2.531  1.00  0.00    -0.077 N 
ATOM     32  H83 UNL     1      -7.924  -0.817   2.094  1.00  0.00     0.274 HD
ATOM     33  H82 UNL     1      -6.728  -1.604   2.689  1.00  0.00     0.274 HD
ATOM     34  H81 UNL     1      -7.125  -0.135   3.411  1.00  0.00     0.274 HD
ENDBRANCH  30  31
ENDBRANCH  25  30
ENDBRANCH  22  25
ENDBRANCH  20  21
ENDBRANCH  19  20
ENDBRANCH   1  19
TORSDOF 10
