REMARK  1 active torsions:
REMARK  status: ('A' for Active; 'I' for Inactive)
REMARK    1  A    between atoms: N1_1  and  C1_5 
ROOT
HETATM    1  C1  UNL     1       1.298   0.257  -0.599  1.00  0.00     0.188 C 
HETATM    2  C2  UNL     1       0.909  -1.199  -0.484  1.00  0.00     0.037 C 
HETATM    3  C3  UNL     1      -0.255  -1.227   0.485  1.00  0.00    -0.012 C 
HETATM    4  C4  UNL     1      -1.569  -0.986  -0.201  1.00  0.00     0.005 C 
HETATM    5  C5  UNL     1      -2.033   0.434  -0.142  1.00  0.00     0.001 C 
HETATM    6  C6  UNL     1      -0.910   1.432  -0.366  1.00  0.00     0.007 C 
HETATM    7  C7  UNL     1       0.364   1.029   0.305  1.00  0.00     0.016 C 
HETATM    8  C8  UNL     1       0.049  -0.031   1.366  1.00  0.00     0.011 C 
ENDROOT
BRANCH   1   9
HETATM    9  N1  UNL     1       2.646   0.488  -0.113  1.00  0.00    -0.075 N 
ATOM     10  H13 UNL     1       2.763   0.145   0.840  1.00  0.00     0.274 HD
ATOM     11  H12 UNL     1       3.320  -0.116  -0.582  1.00  0.00     0.274 HD
ATOM     12  H11 UNL     1       2.909   1.471  -0.191  1.00  0.00     0.274 HD
ENDBRANCH   1   9
TORSDOF 1
