REMARK  3 active torsions:
REMARK  status: ('A' for Active; 'I' for Inactive)
REMARK    1  A    between atoms: C2_2  and  O1_3 
REMARK    2  A    between atoms: O1_3  and  C3_4 
REMARK    3  A    between atoms: C5_6  and  N1_7 
ROOT
HETATM    1  C3  UNL     1       0.278   0.363   0.766  1.00  0.00     0.131 C 
HETATM    2  C4  UNL     1      -0.940   1.242   0.475  1.00  0.00     0.065 C 
HETATM    3  C5  UNL     1      -1.518  -0.002  -0.216  1.00  0.00     0.188 C 
HETATM    4  C6  UNL     1      -0.720  -0.798   0.824  1.00  0.00     0.065 C 
ENDROOT
BRANCH   3   5
HETATM    5  N1  UNL     1      -2.925  -0.179  -0.037  1.00  0.00    -0.075 N 
ATOM      6  H13 UNL     1      -3.159  -0.183   0.956  1.00  0.00     0.274 HD
ATOM      7  H12 UNL     1      -3.429   0.657  -0.332  1.00  0.00     0.274 HD
ATOM      8  H11 UNL     1      -3.309  -1.005  -0.496  1.00  0.00     0.274 HD
ENDBRANCH   3   5
BRANCH   1   9
HETATM    9  O1  UNL     1       1.071   0.246  -0.391  1.00  0.00    -0.358 OA
BRANCH   9  10
HETATM   10  C2  UNL     1       2.242  -0.491  -0.434  1.00  0.00     0.125 C 
HETATM   11  C1  UNL     1       3.370   0.022  -0.023  1.00  0.00     0.037 C 
ENDBRANCH   9  10
ENDBRANCH   1   9
TORSDOF 3
