REMARK  1 active torsions:
REMARK  status: ('A' for Active; 'I' for Inactive)
REMARK    1  A    between atoms: N1_1  and  N2_4 
ROOT
HETATM    1  N2  UNL     1       0.682   0.197   0.018  1.00  0.00    -0.293 N 
HETATM    2  C1  UNL     1       0.006   1.436   0.115  1.00  0.00     0.195 C 
HETATM    3  N3  UNL     1      -1.258   1.277   0.138  1.00  0.00    -0.383 N 
ATOM      4  H3  UNL     1      -1.944   2.029   0.203  1.00  0.00     0.160 HD
HETATM    5  C2  UNL     1      -1.570  -0.126   0.058  1.00  0.00     0.142 C 
HETATM    6  C3  UNL     1      -0.307  -0.710  -0.526  1.00  0.00     0.168 C 
ENDROOT
BRANCH   1   7
HETATM    7  N1  UNL     1       1.994  -0.069   0.368  1.00  0.00    -0.342 N 
ATOM      8  H12 UNL     1       2.691   0.570   0.751  1.00  0.00     0.177 HD
ATOM      9  H11 UNL     1       2.481  -0.962   0.298  1.00  0.00     0.177 HD
ENDBRANCH   1   7
TORSDOF 1
