REMARK  6 active torsions:
REMARK  status: ('A' for Active; 'I' for Inactive)
REMARK    1  A    between atoms: N1_1  and  C1_4 
REMARK    2  A    between atoms: C3_9  and  N4_10 
REMARK    3  A    between atoms: C8_15  and  N5_16 
REMARK    4  A    between atoms: N5_16  and  C9_18 
REMARK    5  A    between atoms: C9_18  and  C10_19 
REMARK    6  A    between atoms: C10_19  and  N6_20 
ROOT
HETATM    1  C1  UNL     1      -1.821   2.865  -1.840  1.00  0.00     0.678 A 
HETATM    2  N2  UNL     1      -3.093   2.499  -1.641  1.00  0.00    -0.177 N 
ATOM      3  H2  UNL     1      -3.841   3.066  -2.040  1.00  0.00     0.185 HD
HETATM    4  C2  UNL     1      -3.409   1.406  -0.930  1.00  0.00     0.162 A 
HETATM    5  N3  UNL     1      -4.804   1.046  -0.738  1.00  0.00    -0.080 NA
HETATM    6  C3  UNL     1      -2.412   0.649  -0.399  1.00  0.00     0.117 A 
HETATM    7  C8  UNL     1      -1.079   1.031  -0.608  1.00  0.00     0.147 A 
HETATM    8  N7  UNL     1      -0.798   2.130  -1.322  1.00  0.00    -0.175 N 
ATOM      9  H7  UNL     1       0.170   2.412  -1.476  1.00  0.00     0.186 HD
ENDROOT
BRANCH   7  10
HETATM   10  N5  UNL     1      -0.150   0.288  -0.103  1.00  0.00    -0.372 N 
ATOM     11  H5  UNL     1      -0.407  -0.545   0.427  1.00  0.00     0.161 HD
BRANCH  10  12
HETATM   12  C9  UNL     1       1.226   0.612  -0.273  1.00  0.00     0.141 C 
BRANCH  12  13
HETATM   13  C10 UNL     1       2.011  -0.690   0.002  1.00  0.00     0.146 C 
BRANCH  13  14
HETATM   14  N6  UNL     1       3.399  -0.392  -0.140  1.00  0.00    -0.368 N 
HETATM   15  C11 UNL     1       3.875   0.443   0.884  1.00  0.00     0.089 C 
HETATM   16  C12 UNL     1       5.337   0.350   1.184  1.00  0.00     0.212 C 
HETATM   17  O1  UNL     1       5.812  -0.966   1.035  1.00  0.00    -0.381 OA
HETATM   18  C13 UNL     1       5.696  -1.248  -0.323  1.00  0.00     0.212 C 
HETATM   19  C14 UNL     1       4.235  -1.396  -0.649  1.00  0.00     0.089 C 
ENDBRANCH  13  14
ENDBRANCH  12  13
ENDBRANCH  10  12
ENDBRANCH   7  10
BRANCH   6  20
HETATM   20  N4  UNL     1      -2.702  -0.497   0.362  1.00  0.00    -0.375 N 
HETATM   21  C4  UNL     1      -2.900  -0.502   1.822  1.00  0.00     0.123 C 
HETATM   22  C5  UNL     1      -3.195  -1.940   2.159  1.00  0.00     0.021 C 
HETATM   23  C6  UNL     1      -3.856  -2.422   0.861  1.00  0.00     0.021 C 
HETATM   24  C7  UNL     1      -2.853  -1.851  -0.150  1.00  0.00     0.123 C 
ENDBRANCH   6  20
BRANCH   1  25
HETATM   25  N1  UNL     1      -1.502   3.912  -2.518  1.00  0.00    -0.234 N 
ATOM     26  H12 UNL     1      -2.268   4.462  -2.906  1.00  0.00     0.174 HD
ATOM     27  H11 UNL     1      -0.533   4.191  -2.670  1.00  0.00     0.174 HD
ENDBRANCH   1  25
TORSDOF 6
