REMARK  7 active torsions:
REMARK  status: ('A' for Active; 'I' for Inactive)
REMARK    1  A    between atoms: C2_2  and  N1_3 
REMARK    2  A    between atoms: C2_2  and  C3_7 
REMARK    3  A    between atoms: C2_2  and  C10_27 
REMARK    4  A    between atoms: C3_7  and  N2_8 
REMARK    5  A    between atoms: C3_7  and  C6_15 
REMARK       I    between atoms: N2_8  and  C4_10 
REMARK    6  A    between atoms: C4_10  and  C5_12 
REMARK       I    between atoms: C6_15  and  N3_17 
REMARK    7  A    between atoms: N3_17  and  C7_19 
ROOT
HETATM    1  C3  UNL     1      -1.284  -0.522   0.109  1.00  0.00     0.125 C 
ENDROOT
BRANCH   1   2
HETATM    2  C2  UNL     1      -2.007  -1.835   0.239  1.00  0.00     0.263 C 
HETATM    3  C1  UNL     1      -3.330  -1.580   1.001  1.00  0.00     0.063 C 
BRANCH   2   4
HETATM    4  N1  UNL     1      -1.193  -2.731   0.996  1.00  0.00    -0.056 N 
ATOM      5  H13 UNL     1      -1.034  -2.399   1.947  1.00  0.00     0.276 HD
ATOM      6  H12 UNL     1      -1.681  -3.597   1.225  1.00  0.00     0.276 HD
ATOM      7  H11 UNL     1      -0.321  -2.899   0.494  1.00  0.00     0.276 HD
ENDBRANCH   2   4
BRANCH   2   8
HETATM    8  C10 UNL     1      -2.428  -2.332  -1.113  1.00  0.00     0.425 C 
HETATM    9  F1  UNL     1      -1.409  -2.630  -1.960  1.00  0.00    -0.168 F 
HETATM   10  F2  UNL     1      -3.204  -3.494  -0.983  1.00  0.00    -0.168 F 
HETATM   11  F3  UNL     1      -3.221  -1.382  -1.764  1.00  0.00    -0.168 F 
ENDBRANCH   2   8
ENDBRANCH   1   2
BRANCH   1  12
HETATM   12  N2  UNL     1      -1.946   0.544   0.363  1.00  0.00    -0.321 N 
HETATM   13  C4  UNL     1      -1.550   1.877   0.327  1.00  0.00     0.255 C 
HETATM   14  O1  UNL     1      -0.893   2.336   1.326  1.00  0.00    -0.270 OA
ATOM     15  H2  UNL     1      -2.917   0.392   0.635  1.00  0.00     0.169 HD
BRANCH  13  16
HETATM   16  C5  UNL     1      -1.844   2.809  -0.800  1.00  0.00     0.270 C 
HETATM   17 CL1  UNL     1      -3.636   2.906  -0.889  1.00  0.00    -0.098 Cl
HETATM   18 CL2  UNL     1      -1.255   4.446  -0.433  1.00  0.00    -0.098 Cl
ENDBRANCH  13  16
ENDBRANCH   1  12
BRANCH   1  19
HETATM   19  C6  UNL     1       0.101  -0.532  -0.329  1.00  0.00     0.272 C 
HETATM   20  O2  UNL     1       0.723  -1.606  -0.548  1.00  0.00    -0.266 OA
HETATM   21  N3  UNL     1       0.772   0.701  -0.515  1.00  0.00    -0.307 N 
ATOM     22  H3  UNL     1       0.209   1.495  -0.819  1.00  0.00     0.170 HD
BRANCH  21  23
HETATM   23  C7  UNL     1       2.016   0.906  -0.337  1.00  0.00     0.126 A 
HETATM   24  C8  UNL     1       3.030   0.090   0.055  1.00  0.00     0.096 A 
HETATM   25  C9  UNL     1       4.199   0.797   0.092  1.00  0.00     0.134 A 
HETATM   26  N4  UNL     1       5.476   0.303   0.451  1.00  0.00    -0.081 NA
HETATM   27  N5  UNL     1       3.870   2.049  -0.284  1.00  0.00    -0.286 N 
HETATM   28  N6  UNL     1       2.576   2.123  -0.540  1.00  0.00    -0.284 N 
ATOM     29  H5  UNL     1       4.525   2.827  -0.360  1.00  0.00     0.188 HD
ATOM     30  H6  UNL     1       2.079   2.961  -0.842  1.00  0.00     0.188 HD
ENDBRANCH  21  23
ENDBRANCH   1  19
TORSDOF 7
