REMARK  10 active torsions:
REMARK  status: ('A' for Active; 'I' for Inactive)
REMARK    1  A    between atoms: C1_2  and  C2_4 
REMARK    2  A    between atoms: C2_4  and  C3_5 
REMARK    3  A    between atoms: C3_5  and  C4_6 
REMARK    4  A    between atoms: C4_6  and  C5_7 
REMARK    5  A    between atoms: C5_7  and  C6_8 
REMARK    6  A    between atoms: C6_8  and  C7_9 
REMARK    7  A    between atoms: C7_9  and  C8_10 
REMARK    8  A    between atoms: C8_10  and  C9_11 
REMARK    9  A    between atoms: C9_11  and  C10_12 
REMARK   10  A    between atoms: C10_12  and  N2_13 
ROOT
HETATM    1  C9  UNL     1      -2.098   1.184  -0.468  1.00  0.00     0.020 C 
ENDROOT
BRANCH   1   2
HETATM    2  C8  UNL     1      -1.535   1.201  -1.853  1.00  0.00     0.002 C 
BRANCH   2   3
HETATM    3  C7  UNL     1      -1.043  -0.152  -2.291  1.00  0.00     0.000 C 
BRANCH   3   4
HETATM    4  C6  UNL     1       0.042  -0.721  -1.426  1.00  0.00     0.000 C 
BRANCH   4   5
HETATM    5  C5  UNL     1       1.243   0.165  -1.408  1.00  0.00     0.000 C 
BRANCH   5   6
HETATM    6  C4  UNL     1       2.352  -0.404  -0.537  1.00  0.00     0.000 C 
BRANCH   6   7
HETATM    7  C3  UNL     1       3.501   0.537  -0.578  1.00  0.00     0.009 C 
BRANCH   7   8
HETATM    8  C2  UNL     1       4.695   0.159   0.221  1.00  0.00     0.099 C 
BRANCH   8   9
HETATM    9  C1  UNL     1       5.331  -1.102  -0.171  1.00  0.00     0.231 C 
HETATM   10  N1  UNL     1       6.423  -1.550   0.655  1.00  0.00    -0.062 NA
HETATM   11  O1  UNL     1       4.993  -1.778  -1.143  1.00  0.00    -0.277 OA
ENDBRANCH   8   9
ENDBRANCH   7   8
ENDBRANCH   6   7
ENDBRANCH   5   6
ENDBRANCH   4   5
ENDBRANCH   3   4
ENDBRANCH   2   3
ENDBRANCH   1   2
BRANCH   1  12
HETATM   12  C10 UNL     1      -3.275   0.240  -0.327  1.00  0.00     0.132 C 
BRANCH  12  13
HETATM   13  N2  UNL     1      -3.736   0.307   1.054  1.00  0.00    -0.313 N 
HETATM   14  C11 UNL     1      -3.309  -0.467   2.082  1.00  0.00     0.196 A 
HETATM   15  N3  UNL     1      -2.318  -1.480   1.936  1.00  0.00    -0.063 NA
HETATM   16  N4  UNL     1      -3.955  -0.126   3.213  1.00  0.00    -0.322 N 
HETATM   17  C12 UNL     1      -4.815   0.877   2.938  1.00  0.00     0.116 A 
ATOM     18  H4  UNL     1      -3.817  -0.555   4.128  1.00  0.00     0.169 HD
HETATM   19 BR1  UNL     1      -5.986   1.744   4.179  1.00  0.00    -0.028 Br
HETATM   20  C13 UNL     1      -4.658   1.125   1.590  1.00  0.00     0.118 A 
HETATM   21 BR2  UNL     1      -5.613   2.450   0.601  1.00  0.00    -0.028 Br
ENDBRANCH  12  13
ENDBRANCH   1  12
TORSDOF 10
