REMARK  11 active torsions:
REMARK  status: ('A' for Active; 'I' for Inactive)
REMARK    1  A    between atoms: C2_5  and  N2_6 
REMARK    2  A    between atoms: N2_6  and  C3_8 
REMARK    3  A    between atoms: C3_8  and  C4_9 
REMARK    4  A    between atoms: C4_9  and  C5_10 
REMARK    5  A    between atoms: C5_10  and  C6_11 
REMARK    6  A    between atoms: C6_11  and  C7_12 
REMARK    7  A    between atoms: C7_12  and  C8_13 
REMARK    8  A    between atoms: C8_13  and  C9_14 
REMARK    9  A    between atoms: C9_14  and  C10_15 
REMARK   10  A    between atoms: C10_15  and  C11_16 
REMARK   11  A    between atoms: C11_16  and  C12_17 
ROOT
HETATM    1  N2  UNL     1       3.619  -1.761   0.052  1.00  0.00    -0.226 N 
ATOM      2  H2  UNL     1       3.759  -2.726   0.352  1.00  0.00     0.177 HD
ENDROOT
BRANCH   1   3
HETATM    3  C2  UNL     1       4.625  -1.036  -0.288  1.00  0.00     0.680 A 
HETATM    4  N1  UNL     1       5.861  -1.555  -0.247  1.00  0.00    -0.155 N 
HETATM    5  C1  UNL     1       6.935  -0.814  -0.599  1.00  0.00     0.278 A 
ATOM      6  H1  UNL     1       5.992  -2.521   0.054  1.00  0.00     0.187 HD
HETATM    7  O1  UNL     1       8.079  -1.326  -0.551  1.00  0.00    -0.266 OA
HETATM    8  C14 UNL     1       6.746   0.500  -1.007  1.00  0.00     0.095 A 
HETATM    9  C13 UNL     1       5.474   1.029  -1.047  1.00  0.00     0.131 A 
HETATM   10 BR2  UNL     1       8.270   1.529  -1.499  1.00  0.00    -0.044 Br
HETATM   11  N3  UNL     1       4.458   0.231  -0.683  1.00  0.00    -0.200 N 
ATOM     12  H3  UNL     1       3.511   0.610  -0.709  1.00  0.00     0.183 HD
ENDBRANCH   1   3
BRANCH   1  13
HETATM   13  C3  UNL     1       2.271  -1.191   0.006  1.00  0.00     0.138 C 
BRANCH  13  14
HETATM   14  C4  UNL     1       1.252  -2.200   0.486  1.00  0.00     0.020 C 
BRANCH  14  15
HETATM   15  C5  UNL     1      -0.158  -1.679   0.457  1.00  0.00     0.002 C 
BRANCH  15  16
HETATM   16  C6  UNL     1      -0.279  -0.466   1.348  1.00  0.00     0.000 C 
BRANCH  16  17
HETATM   17  C7  UNL     1      -1.682   0.088   1.362  1.00  0.00     0.000 C 
BRANCH  17  18
HETATM   18  C8  UNL     1      -2.160   0.521  -0.006  1.00  0.00     0.000 C 
BRANCH  18  19
HETATM   19  C9  UNL     1      -3.565   1.052   0.176  1.00  0.00     0.000 C 
BRANCH  19  20
HETATM   20  C10 UNL     1      -4.163   1.521  -1.128  1.00  0.00     0.001 C 
BRANCH  20  21
HETATM   21  C11 UNL     1      -5.560   2.048  -0.925  1.00  0.00     0.011 C 
BRANCH  21  22
HETATM   22  C12 UNL     1      -6.461   0.979  -0.361  1.00  0.00     0.085 C 
HETATM   23 BR1  UNL     1      -6.517  -0.504  -1.592  1.00  0.00    -0.097 Br
ENDBRANCH  21  22
ENDBRANCH  20  21
ENDBRANCH  19  20
ENDBRANCH  18  19
ENDBRANCH  17  18
ENDBRANCH  16  17
ENDBRANCH  15  16
ENDBRANCH  14  15
ENDBRANCH  13  14
ENDBRANCH   1  13
TORSDOF 11
