REMARK  12 active torsions:
REMARK  status: ('A' for Active; 'I' for Inactive)
REMARK    1  A    between atoms: N1_2  and  C2_5 
REMARK    2  A    between atoms: C2_5  and  C3_6 
REMARK    3  A    between atoms: C3_6  and  C4_7 
REMARK    4  A    between atoms: C4_7  and  C5_8 
REMARK    5  A    between atoms: C5_8  and  C6_9 
REMARK    6  A    between atoms: C6_9  and  C7_10 
REMARK    7  A    between atoms: C6_9  and  N4_22 
REMARK    8  A    between atoms: C7_10  and  N2_11 
REMARK    9  A    between atoms: N3_14  and  C10_15 
REMARK   10  A    between atoms: C10_15  and  C11_16 
REMARK   11  A    between atoms: N4_22  and  C16_24 
REMARK   12  A    between atoms: C16_24  and  C17_26 
ROOT
HETATM    1  C6  UNL     1      -0.646  -0.078  -0.661  1.00  0.00     0.104 C 
ENDROOT
BRANCH   1   2
HETATM    2  C5  UNL     1      -1.023   1.178   0.050  1.00  0.00     0.026 C 
BRANCH   2   3
HETATM    3  C4  UNL     1      -2.318   1.794  -0.510  1.00  0.00     0.004 C 
BRANCH   3   4
HETATM    4  C3  UNL     1      -2.671   3.041   0.262  1.00  0.00     0.027 C 
BRANCH   4   5
HETATM    5  C2  UNL     1      -3.957   3.682  -0.196  1.00  0.00     0.231 C 
BRANCH   5   6
HETATM    6  N1  UNL     1      -5.093   2.788  -0.036  1.00  0.00    -0.079 N 
HETATM    7  C1  UNL     1      -6.347   3.438  -0.428  1.00  0.00     0.266 C 
ATOM      8  H12 UNL     1      -5.145   2.417   0.913  1.00  0.00     0.276 HD
ATOM      9  H11 UNL     1      -4.953   1.912  -0.540  1.00  0.00     0.276 HD
ENDBRANCH   5   6
ENDBRANCH   4   5
ENDBRANCH   3   4
ENDBRANCH   2   3
ENDBRANCH   1   2
BRANCH   1  10
HETATM   10  C7  UNL     1       0.586  -0.698  -0.189  1.00  0.00     0.262 C 
BRANCH  10  11
HETATM   11  N2  UNL     1       1.881  -0.138  -0.223  1.00  0.00    -0.060 N 
HETATM   12  C8  UNL     1       2.129   1.210   0.053  1.00  0.00     0.265 C 
HETATM   13  C9  UNL     1       3.608   1.505   0.241  1.00  0.00     0.265 C 
HETATM   14  N3  UNL     1       4.407   0.373  -0.092  1.00  0.00    -0.061 N 
HETATM   15  C12 UNL     1       4.055  -0.668   0.873  1.00  0.00     0.265 C 
HETATM   16  C14 UNL     1       3.978  -0.143  -1.407  1.00  0.00     0.265 C 
HETATM   17  C13 UNL     1       2.632  -0.997   0.745  1.00  0.00     0.265 C 
HETATM   18  C15 UNL     1       2.543  -0.457  -1.501  1.00  0.00     0.265 C 
BRANCH  14  19
HETATM   19  C10 UNL     1       5.803   0.564  -0.206  1.00  0.00     0.252 C 
BRANCH  19  20
HETATM   20  C11 UNL     1       6.535   1.264   0.860  1.00  0.00     0.142 C 
HETATM   21 CL1  UNL     1       6.058   2.943   1.146  1.00  0.00    -0.129 Cl
ENDBRANCH  19  20
ENDBRANCH  14  19
ENDBRANCH  10  11
ENDBRANCH   1  10
BRANCH   1  22
HETATM   22  N4  UNL     1      -1.763  -1.024  -0.666  1.00  0.00    -0.399 N 
ATOM     23  H4  UNL     1      -2.247  -1.242  -1.537  1.00  0.00     0.155 HD
BRANCH  22  24
HETATM   24  C16 UNL     1      -2.159  -1.623   0.526  1.00  0.00     0.182 C 
HETATM   25 CL2  UNL     1      -3.722  -1.085   1.215  1.00  0.00    -0.102 Cl
BRANCH  24  26
HETATM   26  C17 UNL     1      -2.349  -3.144   0.356  1.00  0.00    -0.018 C 
HETATM   27  C18 UNL     1      -3.402  -3.437  -0.679  1.00  0.00     0.018 C 
HETATM   28  C19 UNL     1      -1.119  -3.900   0.052  1.00  0.00     0.018 C 
HETATM   29  C20 UNL     1      -2.858  -3.646   1.708  1.00  0.00     0.018 C 
ENDBRANCH  24  26
ENDBRANCH  22  24
ENDBRANCH   1  22
TORSDOF 12
