REMARK  7 active torsions:
REMARK  status: ('A' for Active; 'I' for Inactive)
REMARK    1  A    between atoms: C3_3  and  O1_4 
REMARK    2  A    between atoms: C4_6  and  N1_7 
REMARK    3  A    between atoms: N2_9  and  C5_11 
REMARK    4  A    between atoms: C8_15  and  O3_16 
REMARK    5  A    between atoms: C13_23  and  C14_24 
REMARK    6  A    between atoms: C14_24  and  O5_25 
REMARK    7  A    between atoms: O5_25  and  C15_26 
ROOT
HETATM    1  C1  UNL     1      -3.245  -2.502  -1.369  1.00  0.00     0.054 C 
HETATM    2  C2  UNL     1      -2.089  -1.656  -0.942  1.00  0.00     0.009 A 
HETATM    3  C3  UNL     1      -0.796  -2.072  -1.168  1.00  0.00     0.103 A 
HETATM    4  C4  UNL     1       0.249  -1.259  -0.758  1.00  0.00     0.095 A 
HETATM    5  C6  UNL     1       0.013  -0.063  -0.141  1.00  0.00     0.039 A 
HETATM    6  C7  UNL     1      -1.305   0.356   0.090  1.00  0.00     0.116 A 
HETATM    7  C8  UNL     1      -2.338  -0.434  -0.307  1.00  0.00     0.108 A 
HETATM    8  O4  UNL     1      -1.387   1.584   0.732  1.00  0.00    -0.337 OA
HETATM    9  C9  UNL     1      -0.531   1.924   1.814  1.00  0.00     0.065 C 
HETATM   10  C10 UNL     1      -1.124   1.286   3.053  1.00  0.00     0.046 C 
HETATM   11  C11 UNL     1      -0.509   3.431   2.028  1.00  0.00     0.046 C 
HETATM   12  C12 UNL     1       0.896   1.486   1.646  1.00  0.00     0.079 C 
HETATM   13  C13 UNL     1       1.047   0.849   0.282  1.00  0.00    -0.017 C 
ENDROOT
BRANCH   4  14
HETATM   14  N1  UNL     1       1.624  -1.657  -0.891  1.00  0.00    -0.295 N 
HETATM   15  N2  UNL     1       2.201  -2.438  -0.106  1.00  0.00    -0.277 N 
ATOM     16  H2  UNL     1       3.180  -2.646  -0.304  1.00  0.00     0.189 HD
ATOM     17  H1  UNL     1       2.160  -1.279  -1.672  1.00  0.00     0.187 HD
BRANCH  15  18
HETATM   18  C5  UNL     1       1.639  -3.060   1.022  1.00  0.00     0.368 C 
HETATM   19  O2  UNL     1       0.709  -2.530   1.709  1.00  0.00    -0.282 OA
ENDBRANCH  15  18
ENDBRANCH   4  14
BRANCH   3  20
HETATM   20  O1  UNL     1      -0.525  -3.274  -1.791  1.00  0.00    -0.358 OA
ATOM     21  H1  UNL     1       0.367  -3.561  -1.947  1.00  0.00     0.217 HD
ENDBRANCH   3  20
BRANCH  13  22
HETATM   22  C14 UNL     1       2.016   1.173  -0.520  1.00  0.00     0.155 C 
BRANCH  22  23
HETATM   23  O5  UNL     1       2.175   0.732  -1.806  1.00  0.00    -0.276 OA
BRANCH  23  24
HETATM   24  C15 UNL     1       3.225   1.169  -2.626  1.00  0.00     0.377 C 
HETATM   25  N3  UNL     1       3.281   0.642  -3.932  1.00  0.00    -0.032 NA
HETATM   26  O6  UNL     1       4.027   1.985  -2.149  1.00  0.00    -0.242 OA
ENDBRANCH  23  24
ENDBRANCH  22  23
ENDBRANCH  13  22
BRANCH   7  27
HETATM   27  O3  UNL     1      -3.634  -0.021  -0.080  1.00  0.00    -0.357 OA
ATOM     28  H3  UNL     1      -3.803   0.809   0.351  1.00  0.00     0.217 HD
ENDBRANCH   7  27
TORSDOF 7
