REMARK  8 active torsions:
REMARK  status: ('A' for Active; 'I' for Inactive)
REMARK    1  A    between atoms: C3_3  and  O1_4 
REMARK    2  A    between atoms: O1_4  and  O2_5 
REMARK    3  A    between atoms: C4_8  and  O4_9 
REMARK    4  A    between atoms: O4_9  and  C5_10 
REMARK    5  A    between atoms: C5_10  and  C6_12 
REMARK    6  A    between atoms: C19_27  and  O8_28 
REMARK    7  A    between atoms: O8_28  and  C20_29 
REMARK    8  A    between atoms: C20_29  and  C21_31 
ROOT
HETATM    1  C1  UNL     1       3.307  -2.287  -0.935  1.00  0.00     0.022 C 
HETATM    2  C2  UNL     1       2.231  -1.536  -0.761  1.00  0.00     0.001 C 
HETATM    3  C3  UNL     1       1.869  -0.636  -1.913  1.00  0.00     0.331 C 
HETATM    4  O3  UNL     1       1.894   0.690  -1.625  1.00  0.00    -0.321 OA
HETATM    5  C4  UNL     1       1.091   1.182  -0.640  1.00  0.00     0.307 C 
HETATM    6  C9  UNL     1       0.413   0.110   0.080  1.00  0.00     0.234 C 
HETATM    7  O6  UNL     1       1.303  -0.444   1.024  1.00  0.00    -0.361 OA
HETATM    8  C10 UNL     1       1.587  -1.728   0.564  1.00  0.00     0.191 C 
HETATM    9  C11 UNL     1       0.321  -2.493   0.529  1.00  0.00     0.009 A 
HETATM   10  C12 UNL     1       0.593  -3.796   0.175  1.00  0.00     0.020 A 
HETATM   11  C13 UNL     1      -0.410  -4.748   0.072  1.00  0.00    -0.055 A 
HETATM   12  C14 UNL     1      -0.126  -6.164  -0.312  1.00  0.00     0.049 C 
HETATM   13  C15 UNL     1      -1.709  -4.371   0.334  1.00  0.00    -0.053 A 
HETATM   14  C16 UNL     1      -2.792  -5.403   0.223  1.00  0.00     0.049 C 
HETATM   15  C17 UNL     1      -1.990  -3.078   0.687  1.00  0.00     0.044 A 
HETATM   16  C18 UNL     1      -0.992  -2.133   0.788  1.00  0.00     0.082 A 
HETATM   17  O7  UNL     1      -1.422  -0.857   1.156  1.00  0.00    -0.316 OA
HETATM   18  C19 UNL     1      -0.834   0.431   0.854  1.00  0.00     0.310 C 
ENDROOT
BRANCH  18  19
HETATM   19  O8  UNL     1      -1.727   1.269   0.205  1.00  0.00    -0.283 OA
BRANCH  19  20
HETATM   20  C20 UNL     1      -2.202   2.485   0.686  1.00  0.00     0.291 C 
HETATM   21  O9  UNL     1      -1.768   2.833   1.814  1.00  0.00    -0.260 OA
BRANCH  20  22
HETATM   22  C21 UNL     1      -3.139   3.314  -0.053  1.00  0.00     0.009 C 
HETATM   23  C22 UNL     1      -3.580   4.590   0.555  1.00  0.00     0.054 C 
HETATM   24  C23 UNL     1      -3.582   2.938  -1.226  1.00  0.00    -0.018 C 
HETATM   25  C24 UNL     1      -4.539   3.766  -2.002  1.00  0.00     0.036 C 
ENDBRANCH  20  22
ENDBRANCH  19  20
ENDBRANCH  18  19
BRANCH   5  26
HETATM   26  O4  UNL     1       1.974   1.852   0.282  1.00  0.00    -0.283 OA
BRANCH  26  27
HETATM   27  C5  UNL     1       1.925   3.220   0.487  1.00  0.00     0.285 C 
HETATM   28  O5  UNL     1       1.065   3.851  -0.177  1.00  0.00    -0.260 OA
BRANCH  27  29
HETATM   29  C6  UNL     1       2.785   3.937   1.396  1.00  0.00     0.078 C 
HETATM   30  C7  UNL     1       3.686   3.290   2.093  1.00  0.00    -0.025 C 
HETATM   31  C8  UNL     1       4.613   3.945   3.052  1.00  0.00     0.036 C 
ENDBRANCH  27  29
ENDBRANCH  26  27
ENDBRANCH   5  26
BRANCH   3  32
HETATM   32  O1  UNL     1       2.870  -0.810  -2.906  1.00  0.00    -0.205 OA
BRANCH  32  33
HETATM   33  O2  UNL     1       2.421  -1.287  -4.018  1.00  0.00    -0.248 OA
ATOM     34  H2  UNL     1       3.090  -1.403  -4.682  1.00  0.00     0.253 HD
ENDBRANCH  32  33
ENDBRANCH   3  32
TORSDOF 8
