REMARK  10 active torsions:
REMARK  status: ('A' for Active; 'I' for Inactive)
REMARK    1  A    between atoms: C1_2  and  C2_3 
REMARK    2  A    between atoms: C2_3  and  O1_5 
REMARK    3  A    between atoms: O1_5  and  C3_6 
REMARK    4  A    between atoms: C3_6  and  C4_7 
REMARK    5  A    between atoms: C6_9  and  N1_10 
REMARK    6  A    between atoms: N1_10  and  C7_12 
REMARK    7  A    between atoms: C12_18  and  O3_19 
REMARK    8  A    between atoms: O3_19  and  C13_20 
REMARK    9  A    between atoms: C18_28  and  O4_29 
REMARK   10  A    between atoms: O4_29  and  C19_30 
ROOT
HETATM    1  C4  UNL     1      -0.221  -2.579  -0.491  1.00  0.00     0.017 C 
HETATM    2  C5  UNL     1       1.061  -2.187   0.109  1.00  0.00     0.061 C 
HETATM    3  C6  UNL     1       1.241  -0.811   0.593  1.00  0.00     0.015 C 
HETATM    4  C12 UNL     1       0.077   0.125   0.556  1.00  0.00     0.205 C 
HETATM    5  C18 UNL     1      -0.835  -0.155  -0.636  1.00  0.00     0.164 C 
HETATM    6  C25 UNL     1      -1.346  -1.592  -0.301  1.00  0.00     0.042 C 
ENDROOT
BRANCH   4   7
HETATM    7  O3  UNL     1       0.411   1.466   0.666  1.00  0.00    -0.322 OA
BRANCH   7   8
HETATM    8  C13 UNL     1      -0.063   2.393   1.563  1.00  0.00     0.142 A 
HETATM    9  C14 UNL     1       0.437   3.709   1.549  1.00  0.00     0.058 A 
HETATM   10  C15 UNL     1      -0.046   4.607   2.446  1.00  0.00     0.029 A 
HETATM   11  C16 UNL     1      -1.007   4.266   3.363  1.00  0.00     0.049 A 
HETATM   12 CL1  UNL     1      -1.640   5.427   4.533  1.00  0.00    -0.083 Cl
HETATM   13  C17 UNL     1      -1.488   2.967   3.363  1.00  0.00     0.114 A 
HETATM   14  N2  UNL     1      -0.990   2.102   2.464  1.00  0.00    -0.345 N 
ATOM     15  H2  UNL     1      -1.353   1.149   2.476  1.00  0.00     0.167 HD
ENDBRANCH   7   8
ENDBRANCH   4   7
BRANCH   3  16
HETATM   16  N1  UNL     1       2.432  -0.145   0.247  1.00  0.00    -0.389 N 
ATOM     17  H1  UNL     1       3.048   0.139   1.009  1.00  0.00     0.159 HD
BRANCH  16  18
HETATM   18  C7  UNL     1       2.836   0.156  -1.038  1.00  0.00     0.085 C 
HETATM   19  C8  UNL     1       3.287   1.607  -1.119  1.00  0.00     0.051 C 
HETATM   20  C9  UNL     1       4.825   1.675  -1.049  1.00  0.00     0.169 C 
HETATM   21  O2  UNL     1       5.342   0.754  -0.173  1.00  0.00    -0.391 OA
HETATM   22  C10 UNL     1       5.130  -0.552  -0.538  1.00  0.00     0.169 C 
HETATM   23  C11 UNL     1       4.044  -0.628  -1.561  1.00  0.00     0.051 C 
ENDBRANCH  16  18
ENDBRANCH   3  16
BRANCH   5  24
HETATM   24  O4  UNL     1      -1.923   0.657  -0.659  1.00  0.00    -0.341 OA
BRANCH  24  25
HETATM   25  C19 UNL     1      -2.685   1.260  -1.564  1.00  0.00     0.091 A 
HETATM   26  C20 UNL     1      -3.741   2.070  -1.081  1.00  0.00     0.040 A 
HETATM   27  C21 UNL     1      -4.598   2.741  -1.903  1.00  0.00     0.026 A 
HETATM   28  C22 UNL     1      -4.491   2.675  -3.260  1.00  0.00     0.035 A 
HETATM   29 CL2  UNL     1      -5.572   3.527  -4.331  1.00  0.00    -0.084 Cl
HETATM   30  C23 UNL     1      -3.480   1.901  -3.783  1.00  0.00     0.050 A 
HETATM   31  C24 UNL     1      -2.607   1.217  -2.938  1.00  0.00     0.069 A 
HETATM   32 CL3  UNL     1      -1.388   0.265  -3.755  1.00  0.00    -0.081 Cl
ENDBRANCH  24  25
ENDBRANCH   5  24
BRANCH   1  33
HETATM   33  C3  UNL     1      -0.779  -3.916   0.017  1.00  0.00     0.176 C 
BRANCH  33  34
HETATM   34  O1  UNL     1      -0.982  -3.878   1.379  1.00  0.00    -0.354 OA
BRANCH  34  35
HETATM   35  C2  UNL     1      -1.550  -4.999   1.923  1.00  0.00     0.335 C 
HETATM   36  F2  UNL     1      -0.641  -5.523   2.860  1.00  0.00    -0.217 F 
BRANCH  35  37
HETATM   37  C1  UNL     1      -2.789  -4.674   2.739  1.00  0.00     0.287 C 
HETATM   38  F1  UNL     1      -2.371  -3.753   3.695  1.00  0.00    -0.250 F 
ENDBRANCH  35  37
ENDBRANCH  34  35
ENDBRANCH  33  34
ENDBRANCH   1  33
TORSDOF 10
