REMARK  3 active torsions:
REMARK  status: ('A' for Active; 'I' for Inactive)
REMARK    1  A    between atoms: C2_2  and  O1_3 
REMARK    2  A    between atoms: O1_3  and  C3_4 
REMARK    3  A    between atoms: C3_4  and  C4_6 
ROOT
HETATM    1  C4  UNL     1       1.733  -0.282   0.094  1.00  0.00     0.090 A 
HETATM    2  C5  UNL     1       1.257  -1.586   0.317  1.00  0.00     0.162 A 
HETATM    3  O3  UNL     1      -0.007  -1.864   0.384  1.00  0.00    -0.320 OA
HETATM    4  C6  UNL     1      -0.932  -0.958   0.250  1.00  0.00     0.094 A 
HETATM    5  C7  UNL     1      -2.244  -1.347   0.338  1.00  0.00    -0.021 A 
HETATM    6  C8  UNL     1      -2.557  -2.779   0.579  1.00  0.00     0.052 C 
HETATM    7  C9  UNL     1      -3.230  -0.405   0.201  1.00  0.00    -0.047 A 
HETATM    8  C10 UNL     1      -4.655  -0.828   0.297  1.00  0.00     0.049 C 
HETATM    9  C11 UNL     1      -2.868   0.889  -0.018  1.00  0.00    -0.049 A 
HETATM   10  C12 UNL     1      -3.925   1.920  -0.172  1.00  0.00     0.049 C 
HETATM   11  C13 UNL     1      -1.531   1.332  -0.115  1.00  0.00    -0.040 A 
HETATM   12  C14 UNL     1      -1.237   2.739  -0.338  1.00  0.00     0.050 C 
HETATM   13  C15 UNL     1      -0.576   0.357   0.027  1.00  0.00     0.033 A 
HETATM   14  C16 UNL     1       0.810   0.713  -0.058  1.00  0.00     0.073 A 
HETATM   15  N1  UNL     1       1.076   1.854  -0.336  1.00  0.00    -0.292 N 
ATOM     16  H1  UNL     1       0.173   2.326  -0.369  1.00  0.00     0.178 HD
HETATM   17  C17 UNL     1       1.956   2.801  -0.620  1.00  0.00     0.182 C 
HETATM   18  N2  UNL     1       2.684   3.647  -0.885  1.00  0.00    -0.172 NA
ENDROOT
BRANCH   1  19
HETATM   19  C3  UNL     1       3.155  -0.083   0.137  1.00  0.00     0.297 C 
HETATM   20  O2  UNL     1       3.848   0.868   0.446  1.00  0.00    -0.259 OA
BRANCH  19  21
HETATM   21  O1  UNL     1       3.931  -1.220  -0.263  1.00  0.00    -0.318 OA
BRANCH  21  22
HETATM   22  C2  UNL     1       5.332  -1.168  -0.273  1.00  0.00     0.174 C 
HETATM   23  C1  UNL     1       5.933  -0.877   1.070  1.00  0.00     0.034 C 
ENDBRANCH  21  22
ENDBRANCH  19  21
ENDBRANCH   1  19
TORSDOF 3
