REMARK  2 active torsions:
REMARK  status: ('A' for Active; 'I' for Inactive)
REMARK    1  A    between atoms: C2_2  and  N1_3 
REMARK    2  A    between atoms: N1_3  and  C3_5 
ROOT
HETATM    1  C3  UNL     1      -0.295   0.073  -0.333  1.00  0.00     0.136 A 
HETATM    2  N2  UNL     1      -0.488   1.062   0.549  1.00  0.00    -0.282 N 
ATOM      3  H2  UNL     1      -1.414   1.450   0.731  1.00  0.00     0.188 HD
HETATM    4  N3  UNL     1       0.587   1.505   1.168  1.00  0.00    -0.263 N 
ATOM      5  H3  UNL     1       0.455   2.258   1.843  1.00  0.00     0.190 HD
HETATM    6  C4  UNL     1       1.835   1.059   0.993  1.00  0.00     0.288 A 
HETATM    7  O1  UNL     1       2.757   1.597   1.669  1.00  0.00    -0.264 OA
HETATM    8  C5  UNL     1       2.098   0.018   0.075  1.00  0.00     0.126 A 
HETATM    9  N4  UNL     1       3.250  -0.540  -0.222  1.00  0.00    -0.312 N 
ATOM     10  H4  UNL     1       4.111  -0.231   0.230  1.00  0.00     0.170 HD
HETATM   11  C6  UNL     1       3.269  -1.518  -1.127  1.00  0.00     0.289 A 
HETATM   12  O2  UNL     1       4.292  -2.173  -1.539  1.00  0.00    -0.260 OA
HETATM   13  S1  UNL     1       1.625  -1.661  -1.575  1.00  0.00    -0.023 SA
HETATM   14  C7  UNL     1       0.989  -0.445  -0.567  1.00  0.00     0.087 A 
ENDROOT
BRANCH   1  15
HETATM   15  N1  UNL     1      -1.221  -0.481  -1.025  1.00  0.00    -0.374 N 
ATOM     16  H1  UNL     1      -0.998  -1.231  -1.680  1.00  0.00     0.161 HD
BRANCH  15  17
HETATM   17  C2  UNL     1      -2.582  -0.030  -0.866  1.00  0.00     0.116 C 
HETATM   18  C1  UNL     1      -3.218  -0.548   0.417  1.00  0.00     0.026 C 
ENDBRANCH  15  17
ENDBRANCH   1  15
TORSDOF 2
