REMARK  16 active torsions:
REMARK  status: ('A' for Active; 'I' for Inactive)
REMARK    1  A    between atoms: C1_2  and  C2_3 
REMARK       I    between atoms: C1_2  and  N2_10 
REMARK    2  A    between atoms: C3_4  and  C4_5 
REMARK    3  A    between atoms: N2_10  and  C6_12 
REMARK    4  A    between atoms: C6_12  and  C7_13 
REMARK    5  A    between atoms: C7_13  and  C8_14 
REMARK    6  A    between atoms: C8_14  and  C9_15 
REMARK    7  A    between atoms: C9_15  and  N3_16 
REMARK    8  A    between atoms: N3_16  and  C10_18 
REMARK    9  A    between atoms: C11_21  and  N5_22 
REMARK   10  A    between atoms: N5_22  and  C12_24 
REMARK   11  A    between atoms: C12_24  and  C13_25 
REMARK   12  A    between atoms: C13_25  and  C14_26 
REMARK   13  A    between atoms: C14_26  and  N6_27 
REMARK   14  A    between atoms: C16_29  and  O3_30 
REMARK   15  A    between atoms: C18_36  and  N8_37 
REMARK   16  A    between atoms: N8_37  and  C19_39 
ROOT
HETATM    1  C10 UNL     1      -0.121  -1.054   0.470  1.00  0.00     0.707 A 
HETATM    2  N4  UNL     1      -0.800  -0.010   0.950  1.00  0.00    -0.022 N 
ATOM      3  H4  UNL     1      -0.384   0.920   0.903  1.00  0.00     0.203 HD
HETATM    4  C11 UNL     1      -2.041  -0.161   1.503  1.00  0.00     0.707 A 
HETATM    5  N7  UNL     1      -2.615  -1.352   1.583  1.00  0.00    -0.022 N 
ATOM      6  H7  UNL     1      -3.541  -1.454   1.998  1.00  0.00     0.203 HD
HETATM    7  C18 UNL     1      -1.941  -2.452   1.096  1.00  0.00     0.707 A 
HETATM    8  N9  UNL     1      -0.732  -2.274   0.561  1.00  0.00    -0.022 N 
ATOM      9  H9  UNL     1      -0.238  -3.090   0.201  1.00  0.00     0.203 HD
ENDROOT
BRANCH   1  10
HETATM   10  N3  UNL     1       1.043  -0.904  -0.039  1.00  0.00    -0.225 N 
ATOM     11  H3  UNL     1       1.453   0.029  -0.076  1.00  0.00     0.177 HD
BRANCH  10  12
HETATM   12  C9  UNL     1       1.783  -2.012  -0.557  1.00  0.00     0.138 C 
BRANCH  12  13
HETATM   13  C8  UNL     1       3.236  -1.656  -0.830  1.00  0.00     0.022 C 
BRANCH  13  14
HETATM   14  C7  UNL     1       3.804  -1.229   0.525  1.00  0.00     0.021 C 
BRANCH  14  15
HETATM   15  C6  UNL     1       5.247  -0.858   0.335  1.00  0.00     0.123 C 
BRANCH  15  16
HETATM   16  N2  UNL     1       5.356   0.218  -0.589  1.00  0.00    -0.358 N 
HETATM   17  C1  UNL     1       6.653   0.750  -0.929  1.00  0.00     0.241 C 
HETATM   18  O1  UNL     1       7.612   0.201  -0.361  1.00  0.00    -0.269 OA
ATOM     19  H2  UNL     1       4.516   0.614  -1.012  1.00  0.00     0.162 HD
BRANCH  17  20
HETATM   20  C2  UNL     1       6.763   1.848  -1.873  1.00  0.00     0.077 C 
HETATM   21  C3  UNL     1       7.826   2.429  -2.276  1.00  0.00     0.046 C 
BRANCH  21  22
HETATM   22  C4  UNL     1       9.187   2.154  -1.905  1.00  0.00     0.116 A 
HETATM   23  C5  UNL     1      10.435   2.702  -2.260  1.00  0.00     0.153 A 
HETATM   24  N1  UNL     1      11.005   1.820  -1.439  1.00  0.00    -0.269 N 
HETATM   25  O2  UNL     1       9.855   1.346  -1.137  1.00  0.00    -0.237 OA
ATOM     26  H1  UNL     1      11.964   1.609  -1.164  1.00  0.00     0.194 HD
ENDBRANCH  21  22
ENDBRANCH  17  20
ENDBRANCH  15  16
ENDBRANCH  14  15
ENDBRANCH  13  14
ENDBRANCH  12  13
ENDBRANCH  10  12
ENDBRANCH   1  10
BRANCH   4  27
HETATM   27  N5  UNL     1      -2.651   0.908   1.952  1.00  0.00    -0.225 N 
ATOM     28  H5  UNL     1      -2.196   1.818   1.881  1.00  0.00     0.177 HD
BRANCH  27  29
HETATM   29  C12 UNL     1      -3.947   0.809   2.539  1.00  0.00     0.139 C 
BRANCH  29  30
HETATM   30  C13 UNL     1      -5.081   0.773   1.566  1.00  0.00     0.037 C 
BRANCH  30  31
HETATM   31  C14 UNL     1      -5.066   2.056   0.738  1.00  0.00     0.122 C 
BRANCH  31  32
HETATM   32  N6  UNL     1      -6.187   2.031  -0.219  1.00  0.00    -0.195 NA
HETATM   33  C15 UNL     1      -6.146   3.226  -0.991  1.00  0.00     0.154 C 
HETATM   34  C16 UNL     1      -7.330   4.035  -0.452  1.00  0.00     0.159 C 
HETATM   35  C17 UNL     1      -8.223   2.875  -0.008  1.00  0.00     0.227 C 
HETATM   36  O4  UNL     1      -7.295   2.014   0.536  1.00  0.00    -0.301 OA
BRANCH  34  37
HETATM   37  O3  UNL     1      -6.853   4.771   0.629  1.00  0.00    -0.392 OA
ATOM     38  H3  UNL     1      -7.587   5.273   0.963  1.00  0.00     0.210 HD
ENDBRANCH  34  37
ENDBRANCH  31  32
ENDBRANCH  30  31
ENDBRANCH  29  30
ENDBRANCH  27  29
ENDBRANCH   4  27
BRANCH   7  39
HETATM   39  N8  UNL     1      -2.519  -3.527   1.196  1.00  0.00    -0.220 N 
ATOM     40  H8  UNL     1      -3.429  -3.402   1.639  1.00  0.00     0.178 HD
BRANCH  39  41
HETATM   41  C19 UNL     1      -2.310  -4.857   0.890  1.00  0.00     0.099 A 
HETATM   42  C20 UNL     1      -0.998  -5.573   0.888  1.00  0.00     0.028 A 
HETATM   43  C21 UNL     1      -1.634  -5.301  -0.399  1.00  0.00     0.028 A 
ENDBRANCH  39  41
ENDBRANCH   7  39
TORSDOF 16
