REMARK  2 active torsions:
REMARK  status: ('A' for Active; 'I' for Inactive)
REMARK    1  A    between atoms: N1_1  and  C1_4 
REMARK    2  A    between atoms: N4_13  and  C5_14 
ROOT
HETATM    1  C1  UNL     1      -1.866  -0.721  -0.059  1.00  0.00     0.680 A 
HETATM    2  N2  UNL     1      -2.284   0.536   0.173  1.00  0.00    -0.154 N 
ATOM      3  H2  UNL     1      -3.286   0.716   0.239  1.00  0.00     0.187 HD
HETATM    4  C2  UNL     1      -1.433   1.560   0.321  1.00  0.00     0.290 A 
HETATM    5  O1  UNL     1      -1.789   2.739   0.538  1.00  0.00    -0.265 OA
HETATM    6  C3  UNL     1      -0.085   1.306   0.229  1.00  0.00     0.148 A 
HETATM    7  N3  UNL     1       1.007   2.089   0.327  1.00  0.00    -0.344 N 
ATOM      8  H3  UNL     1       0.987   3.094   0.502  1.00  0.00     0.167 HD
HETATM    9  C4  UNL     1       2.121   1.368   0.163  1.00  0.00     0.193 A 
HETATM   10  N4  UNL     1       1.718   0.080  -0.046  1.00  0.00    -0.269 N 
HETATM   11  C6  UNL     1       0.377   0.008  -0.012  1.00  0.00     0.163 A 
HETATM   12  N5  UNL     1      -0.548  -0.964  -0.148  1.00  0.00    -0.174 N 
ATOM     13  H5  UNL     1      -0.235  -1.919  -0.325  1.00  0.00     0.186 HD
ENDROOT
BRANCH   1  14
HETATM   14  N1  UNL     1      -2.765  -1.657  -0.190  1.00  0.00    -0.234 N 
ATOM     15  H12 UNL     1      -3.766  -1.472  -0.122  1.00  0.00     0.174 HD
ATOM     16  H11 UNL     1      -2.448  -2.610  -0.366  1.00  0.00     0.174 HD
ENDBRANCH   1  14
BRANCH  10  17
HETATM   17  C5  UNL     1       2.589  -1.028  -0.269  1.00  0.00     0.362 C 
HETATM   18  O2  UNL     1       2.164  -2.189  -0.455  1.00  0.00    -0.283 OA
ENDBRANCH  10  17
TORSDOF 2
