REMARK  14 active torsions:
REMARK  status: ('A' for Active; 'I' for Inactive)
REMARK    1  A    between atoms: C5_5  and  N1_6 
REMARK    2  A    between atoms: N1_6  and  C6_8 
REMARK    3  A    between atoms: C6_8  and  C7_9 
REMARK    4  A    between atoms: C7_9  and  O1_10 
REMARK    5  A    between atoms: C7_9  and  C8_12 
REMARK    6  A    between atoms: C8_12  and  C9_13 
REMARK    7  A    between atoms: C8_12  and  N2_16 
REMARK    8  A    between atoms: C9_13  and  C10_14 
REMARK       I    between atoms: N2_16  and  C11_18 
REMARK    9  A    between atoms: C11_18  and  C12_20 
REMARK   10  A    between atoms: C12_20  and  C13_21 
REMARK   11  A    between atoms: C12_20  and  N3_28 
REMARK   12  A    between atoms: C13_21  and  C14_22 
REMARK   13  A    between atoms: N3_28  and  C20_30 
REMARK   14  A    between atoms: C20_30  and  C21_31 
ROOT
HETATM    1  C8  UNL     1      -0.384  -1.080  -0.466  1.00  0.00     0.119 C 
ENDROOT
BRANCH   1   2
HETATM    2  C7  UNL     1      -1.004  -0.751   0.887  1.00  0.00     0.179 C 
BRANCH   2   3
HETATM    3  C6  UNL     1      -2.089  -1.698   1.257  1.00  0.00     0.096 C 
BRANCH   3   4
HETATM    4  N1  UNL     1      -3.359  -1.668   0.712  1.00  0.00    -0.351 N 
ATOM      5  H1  UNL     1      -3.617  -2.396   0.046  1.00  0.00     0.166 HD
BRANCH   4   6
HETATM    6  C5  UNL     1      -4.322  -0.675   1.033  1.00  0.00     0.122 C 
HETATM    7  C4  UNL     1      -4.078   0.725   0.643  1.00  0.00     0.114 C 
HETATM    8  C2  UNL     1      -5.327   1.567   0.534  1.00  0.00     0.028 C 
HETATM    9  C1  UNL     1      -5.733   2.184   1.845  1.00  0.00     0.038 C 
HETATM   10  C3  UNL     1      -4.994   2.721  -0.411  1.00  0.00     0.038 C 
HETATM   11  N4  UNL     1      -6.438   0.900  -0.026  1.00  0.00    -0.383 N 
HETATM   12  C22 UNL     1      -6.447  -0.513   0.024  1.00  0.00     0.131 C 
ATOM     13  H4  UNL     1      -7.206   1.419  -0.451  1.00  0.00     0.157 HD
HETATM   14  O5  UNL     1      -5.624  -1.146   0.873  1.00  0.00    -0.309 OA
HETATM   15  C23 UNL     1      -6.380  -1.031  -1.415  1.00  0.00     0.070 C 
HETATM   16  C24 UNL     1      -7.883  -0.888   0.480  1.00  0.00     0.070 C 
ENDBRANCH   4   6
ENDBRANCH   3   4
ENDBRANCH   2   3
BRANCH   2  17
HETATM   17  O1  UNL     1       0.073  -1.152   1.784  1.00  0.00    -0.388 OA
ATOM     18  H1  UNL     1       0.766  -0.547   1.548  1.00  0.00     0.210 HD
ENDBRANCH   2  17
ENDBRANCH   1   2
BRANCH   1  19
HETATM   19  C9  UNL     1      -1.222  -0.601  -1.617  1.00  0.00     0.043 C 
BRANCH  19  20
HETATM   20  C10 UNL     1      -0.594  -0.945  -2.927  1.00  0.00     0.116 C 
HETATM   21 CL1  UNL     1      -1.596  -0.371  -4.294  1.00  0.00    -0.130 Cl
ENDBRANCH  19  20
ENDBRANCH   1  19
BRANCH   1  22
HETATM   22  N2  UNL     1       0.902  -0.352  -0.498  1.00  0.00    -0.352 N 
HETATM   23  C11 UNL     1       2.055  -1.014  -0.980  1.00  0.00     0.240 C 
HETATM   24  O2  UNL     1       1.903  -2.200  -1.372  1.00  0.00    -0.271 OA
ATOM     25  H2  UNL     1       0.957   0.615  -0.177  1.00  0.00     0.163 HD
BRANCH  23  26
HETATM   26  C12 UNL     1       3.354  -0.305  -1.002  1.00  0.00     0.173 C 
BRANCH  26  27
HETATM   27  C13 UNL     1       3.725  -0.046   0.452  1.00  0.00     0.039 C 
BRANCH  27  28
HETATM   28  C14 UNL     1       5.013   0.643   0.676  1.00  0.00    -0.012 C 
HETATM   29  C15 UNL     1       5.111   2.014   0.059  1.00  0.00     0.005 C 
HETATM   30  C16 UNL     1       6.560   2.438   0.195  1.00  0.00     0.000 C 
HETATM   31  C17 UNL     1       6.981   2.464   1.624  1.00  0.00     0.000 C 
HETATM   32  C18 UNL     1       6.584   1.262   2.428  1.00  0.00     0.000 C 
HETATM   33  C19 UNL     1       5.155   0.857   2.187  1.00  0.00     0.005 C 
ENDBRANCH  27  28
ENDBRANCH  26  27
BRANCH  26  34
HETATM   34  N3  UNL     1       4.375  -0.915  -1.738  1.00  0.00    -0.380 N 
ATOM     35  H3  UNL     1       4.744  -0.399  -2.537  1.00  0.00     0.160 HD
BRANCH  34  36
HETATM   36  C20 UNL     1       4.923  -2.143  -1.482  1.00  0.00     0.169 C 
BRANCH  36  37
HETATM   37  C21 UNL     1       5.983  -2.430  -2.511  1.00  0.00     0.214 C 
HETATM   38  O3  UNL     1       6.249  -1.595  -3.409  1.00  0.00    -0.644 OA
HETATM   39  O4  UNL     1       6.713  -3.604  -2.526  1.00  0.00    -0.644 OA
ENDBRANCH  36  37
ENDBRANCH  34  36
ENDBRANCH  26  34
ENDBRANCH  23  26
ENDBRANCH   1  22
TORSDOF 14
