REMARK  9 active torsions:
REMARK  status: ('A' for Active; 'I' for Inactive)
REMARK    1  A    between atoms: S1_2  and  N1_4 
REMARK    2  A    between atoms: S1_2  and  C20_28 
REMARK    3  A    between atoms: N1_4  and  C1_6 
REMARK    4  A    between atoms: C1_6  and  C2_7 
REMARK    5  A    between atoms: C2_7  and  C3_8 
REMARK    6  A    between atoms: C3_8  and  C4_9 
REMARK    7  A    between atoms: C4_9  and  N2_10 
REMARK    8  A    between atoms: C7_13  and  N3_14 
REMARK    9  A    between atoms: N3_14  and  C8_16 
ROOT
HETATM    1  N2  UNL     1       0.504  -0.684  -0.289  1.00  0.00     0.088 N 
HETATM    2  C5  UNL     1      -0.054  -2.008  -0.520  1.00  0.00     0.274 C 
HETATM    3  C6  UNL     1      -1.561  -2.031  -0.270  1.00  0.00     0.055 C 
HETATM    4  C7  UNL     1      -2.267  -1.085  -1.185  1.00  0.00     0.080 C 
HETATM    5  C18 UNL     1      -1.504   0.250  -1.119  1.00  0.00     0.055 C 
HETATM    6  C19 UNL     1      -0.598   0.191   0.100  1.00  0.00     0.274 C 
ENDROOT
BRANCH   1   7
HETATM    7  C4  UNL     1       1.597  -0.702   0.660  1.00  0.00     0.272 C 
BRANCH   7   8
HETATM    8  C3  UNL     1       2.724  -1.452  -0.009  1.00  0.00     0.032 C 
BRANCH   8   9
HETATM    9  C2  UNL     1       3.956  -1.632   0.786  1.00  0.00     0.022 C 
BRANCH   9  10
HETATM   10  C1  UNL     1       4.696  -0.392   1.142  1.00  0.00     0.132 C 
BRANCH  10  11
HETATM   11  N1  UNL     1       5.186   0.262  -0.083  1.00  0.00    -0.315 N 
ATOM     12  H1  UNL     1       5.024  -0.081  -1.030  1.00  0.00     0.172 HD
BRANCH  11  13
HETATM   13  S1  UNL     1       6.064   1.675   0.303  1.00  0.00     0.258 S 
HETATM   14  O1  UNL     1       5.604   2.857  -0.534  1.00  0.00    -0.201 OA
HETATM   15  O2  UNL     1       5.856   2.041   1.712  1.00  0.00    -0.201 OA
BRANCH  13  16
HETATM   16  C20 UNL     1       7.771   1.433  -0.030  1.00  0.00     0.079 A 
HETATM   17  C21 UNL     1       8.502   0.521   0.662  1.00  0.00     0.027 A 
HETATM   18  C22 UNL     1       9.857   0.321   0.463  1.00  0.00     0.025 A 
HETATM   19  C23 UNL     1      10.536   1.076  -0.485  1.00  0.00     0.034 A 
HETATM   20 CL1  UNL     1      12.249   0.872  -0.765  1.00  0.00    -0.084 Cl
HETATM   21  C24 UNL     1       9.772   1.999  -1.181  1.00  0.00     0.025 A 
HETATM   22  C25 UNL     1       8.438   2.188  -0.980  1.00  0.00     0.027 A 
ENDBRANCH  13  16
ENDBRANCH  11  13
ENDBRANCH  10  11
ENDBRANCH   9  10
ENDBRANCH   8   9
ENDBRANCH   7   8
ENDBRANCH   1   7
BRANCH   4  23
HETATM   23  N3  UNL     1      -3.631  -0.904  -0.902  1.00  0.00    -0.412 N 
ATOM     24  H3  UNL     1      -4.318  -1.505  -1.357  1.00  0.00     0.154 HD
BRANCH  23  25
HETATM   25  C8  UNL     1      -4.077   0.095   0.002  1.00  0.00     0.085 C 
HETATM   26  C9  UNL     1      -4.954  -0.402   1.089  1.00  0.00     0.009 C 
HETATM   27  C10 UNL     1      -6.111  -1.269   0.646  1.00  0.00     0.011 C 
HETATM   28  C14 UNL     1      -5.611   0.788   1.822  1.00  0.00     0.011 C 
HETATM   29  C11 UNL     1      -6.914  -0.500  -0.362  1.00  0.00    -0.013 C 
HETATM   30  C12 UNL     1      -7.605   0.639   0.334  1.00  0.00     0.009 C 
HETATM   31  C17 UNL     1      -5.999  -0.030  -1.461  1.00  0.00     0.011 C 
HETATM   32  C13 UNL     1      -6.526   1.531   0.896  1.00  0.00    -0.013 C 
HETATM   33  C15 UNL     1      -5.654   2.076  -0.226  1.00  0.00     0.011 C 
HETATM   34  C16 UNL     1      -4.975   0.965  -0.914  1.00  0.00     0.009 C 
ENDBRANCH  23  25
ENDBRANCH   4  23
TORSDOF 9
