REMARK  7 active torsions:
REMARK  status: ('A' for Active; 'I' for Inactive)
REMARK    1  A    between atoms: S1_2  and  C2_3 
REMARK    2  A    between atoms: C2_3  and  C3_4 
REMARK    3  A    between atoms: C4_6  and  O2_7 
REMARK    4  A    between atoms: C5_9  and  O3_10 
REMARK    5  A    between atoms: C6_12  and  O4_13 
REMARK    6  A    between atoms: C7_15  and  C8_16 
REMARK    7  A    between atoms: C8_16  and  O5_20 
ROOT
HETATM    1  C3  UNL     1       0.499  -0.521   0.711  1.00  0.00     0.148 C 
HETATM    2  O1  UNL     1       0.971   0.744   0.787  1.00  0.00    -0.352 OA
HETATM    3  C4  UNL     1       0.341   1.721   0.108  1.00  0.00     0.288 C 
HETATM    4  C5  UNL     1      -0.655   1.318  -0.910  1.00  0.00     0.202 C 
HETATM    5  C6  UNL     1      -1.658   0.398  -0.254  1.00  0.00     0.166 C 
HETATM    6  C7  UNL     1      -0.983  -0.680   0.535  1.00  0.00     0.121 C 
ENDROOT
BRANCH   6   7
HETATM    7  C8  UNL     1      -1.353  -1.994  -0.029  1.00  0.00     0.118 C 
HETATM    8  N1  UNL     1      -1.964  -2.067  -1.140  1.00  0.00    -0.383 N 
ATOM      9  H12 UNL     1      -2.193  -1.204  -1.632  1.00  0.00     0.157 HD
ATOM     10  H11 UNL     1      -2.220  -2.974  -1.529  1.00  0.00     0.157 HD
BRANCH   7  11
HETATM   11  O5  UNL     1      -1.044  -3.158   0.635  1.00  0.00    -0.349 OA
ATOM     12  H5  UNL     1      -1.282  -4.003   0.272  1.00  0.00     0.219 HD
ENDBRANCH   7  11
ENDBRANCH   6   7
BRANCH   1  13
HETATM   13  C2  UNL     1       1.332  -1.296  -0.282  1.00  0.00     0.106 C 
BRANCH  13  14
HETATM   14  S1  UNL     1       3.048  -1.294   0.311  1.00  0.00    -0.171 SA
HETATM   15  C1  UNL     1       3.814   0.323   0.300  1.00  0.00     0.089 C 
ENDBRANCH  13  14
ENDBRANCH   1  13
BRANCH   5  16
HETATM   16  O4  UNL     1      -2.490   1.222   0.512  1.00  0.00    -0.392 OA
ATOM     17  H4  UNL     1      -3.121   0.644   0.924  1.00  0.00     0.210 HD
ENDBRANCH   5  16
BRANCH   4  18
HETATM   18  O3  UNL     1      -1.379   2.469  -1.306  1.00  0.00    -0.388 OA
ATOM     19  H3  UNL     1      -2.018   2.210  -1.959  1.00  0.00     0.210 HD
ENDBRANCH   4  18
BRANCH   3  20
HETATM   20  O2  UNL     1      -0.329   2.534   1.053  1.00  0.00    -0.369 OA
ATOM     21  H2  UNL     1      -0.774   3.223   0.574  1.00  0.00     0.212 HD
ENDBRANCH   3  20
TORSDOF 7
