REMARK  9 active torsions:
REMARK  status: ('A' for Active; 'I' for Inactive)
REMARK    1  A    between atoms: C2_2  and  C4_4 
REMARK    2  A    between atoms: C4_4  and  C5_5 
REMARK    3  A    between atoms: C4_4  and  C18_23 
REMARK    4  A    between atoms: C5_5  and  N1_6 
REMARK    5  A    between atoms: N1_6  and  C6_8 
REMARK    6  A    between atoms: C6_8  and  O1_9 
REMARK    7  A    between atoms: C6_8  and  C7_11 
REMARK    8  A    between atoms: C7_11  and  C8_13 
REMARK       I    between atoms: C18_23  and  N2_25 
REMARK    9  A    between atoms: C21_28  and  C22_29 
ROOT
HETATM    1  N1  UNL     1      -0.311   0.366  -0.675  1.00  0.00    -0.370 N 
ATOM      2  H1  UNL     1      -0.212  -0.217  -1.506  1.00  0.00     0.161 HD
ENDROOT
BRANCH   1   3
HETATM    3  C5  UNL     1       0.614   0.330   0.377  1.00  0.00     0.073 C 
BRANCH   3   4
HETATM    4  C4  UNL     1       1.817  -0.555   0.152  1.00  0.00     0.119 C 
BRANCH   4   5
HETATM    5  C2  UNL     1       1.508  -1.984  -0.080  1.00  0.00    -0.005 C 
HETATM    6  C1  UNL     1       0.638  -2.266  -1.279  1.00  0.00     0.011 C 
HETATM    7  C3  UNL     1       0.844  -2.643   1.118  1.00  0.00     0.011 C 
ENDBRANCH   4   5
BRANCH   4   8
HETATM    8  C18 UNL     1       2.817   0.045  -0.755  1.00  0.00     0.229 C 
HETATM    9  O3  UNL     1       2.403   0.925  -1.573  1.00  0.00    -0.273 OA
HETATM   10  N2  UNL     1       4.189  -0.260  -0.807  1.00  0.00    -0.351 N 
HETATM   11  C19 UNL     1       4.746  -1.251   0.105  1.00  0.00     0.126 C 
HETATM   12  C24 UNL     1       5.036   0.427  -1.766  1.00  0.00     0.126 C 
HETATM   13  C20 UNL     1       6.219  -0.915   0.395  1.00  0.00     0.033 C 
HETATM   14  C21 UNL     1       6.363   0.569   0.352  1.00  0.00     0.078 C 
HETATM   15  C23 UNL     1       6.253   1.023  -1.087  1.00  0.00     0.033 C 
BRANCH  14  16
HETATM   16  C22 UNL     1       7.689   0.967   0.846  1.00  0.00     0.235 C 
HETATM   17  N3  UNL     1       8.102   2.342   0.916  1.00  0.00    -0.062 NA
HETATM   18  O4  UNL     1       8.499   0.082   1.223  1.00  0.00    -0.277 OA
ENDBRANCH  14  16
ENDBRANCH   4   8
ENDBRANCH   3   4
ENDBRANCH   1   3
BRANCH   1  19
HETATM   19  C6  UNL     1      -1.407   1.277  -0.507  1.00  0.00     0.289 C 
BRANCH  19  20
HETATM   20  O1  UNL     1      -2.097   1.302  -1.747  1.00  0.00    -0.370 OA
ATOM     21  H1  UNL     1      -2.823   1.905  -1.636  1.00  0.00     0.212 HD
ENDBRANCH  19  20
BRANCH  19  22
HETATM   22  C7  UNL     1      -2.313   1.014   0.612  1.00  0.00     0.183 C 
HETATM   23  O2  UNL     1      -1.900   1.024   1.770  1.00  0.00    -0.292 OA
BRANCH  22  24
HETATM   24  C8  UNL     1      -3.764   0.723   0.440  1.00  0.00     0.026 C 
HETATM   25  C9  UNL     1      -4.379   0.472   1.833  1.00  0.00     0.022 C 
HETATM   26  C10 UNL     1      -5.836   0.159   1.720  1.00  0.00    -0.013 C 
HETATM   27  C11 UNL     1      -6.047  -1.116   0.931  1.00  0.00     0.009 C 
HETATM   28  C15 UNL     1      -6.610   1.250   1.007  1.00  0.00     0.009 C 
HETATM   29  C12 UNL     1      -5.410  -0.942  -0.423  1.00  0.00    -0.013 C 
HETATM   30  C13 UNL     1      -6.059   0.181  -1.176  1.00  0.00     0.009 C 
HETATM   31  C17 UNL     1      -3.929  -0.585  -0.287  1.00  0.00     0.022 C 
HETATM   32  C14 UNL     1      -5.972   1.424  -0.345  1.00  0.00    -0.013 C 
HETATM   33  C16 UNL     1      -4.544   1.859  -0.134  1.00  0.00     0.022 C 
ENDBRANCH  22  24
ENDBRANCH  19  22
ENDBRANCH   1  19
TORSDOF 9
