REMARK  10 active torsions:
REMARK  status: ('A' for Active; 'I' for Inactive)
REMARK    1  A    between atoms: C2_2  and  C4_4 
REMARK    2  A    between atoms: C4_4  and  N1_5 
REMARK    3  A    between atoms: C4_4  and  C13_16 
REMARK       I    between atoms: N1_5  and  C5_6 
REMARK       I    between atoms: C5_6  and  N2_8 
REMARK    4  A    between atoms: N2_8  and  C7_10 
REMARK       I    between atoms: C13_16  and  N3_18 
REMARK    5  A    between atoms: N3_18  and  C14_19 
REMARK    6  A    between atoms: C14_19  and  C15_20 
REMARK       I    between atoms: C15_20  and  N4_22 
REMARK    7  A    between atoms: N4_22  and  C16_23 
REMARK    8  A    between atoms: N4_22  and  C24_33 
REMARK    9  A    between atoms: C16_23  and  C17_24 
REMARK   10  A    between atoms: C16_23  and  C18_27 
ROOT
HETATM    1  C13 UNL     1       1.008  -0.382   0.236  1.00  0.00     0.352 C 
HETATM    2  O2  UNL     1       1.276   0.382   1.126  1.00  0.00    -0.248 OA
HETATM    3  N3  UNL     1      -0.236  -0.537  -0.445  1.00  0.00    -0.372 NA
ENDROOT
BRANCH   3   4
HETATM    4  C14 UNL     1      -1.505  -0.478  -0.905  1.00  0.00     0.260 C 
BRANCH   4   5
HETATM    5  C15 UNL     1      -2.609  -0.587   0.146  1.00  0.00     0.273 C 
HETATM    6  O3  UNL     1      -2.125  -0.592   1.300  1.00  0.00    -0.266 OA
HETATM    7  N4  UNL     1      -3.957  -0.653  -0.124  1.00  0.00    -0.325 N 
BRANCH   7   8
HETATM    8  C16 UNL     1      -4.950  -0.375   0.933  1.00  0.00     0.181 C 
BRANCH   8   9
HETATM    9  C17 UNL     1      -4.954  -1.450   1.982  1.00  0.00     0.254 C 
HETATM   10  N5  UNL     1      -6.172  -1.623   2.753  1.00  0.00    -0.060 NA
HETATM   11  O4  UNL     1      -4.030  -2.206   2.254  1.00  0.00    -0.275 OA
ENDBRANCH   8   9
BRANCH   8  12
HETATM   12  C18 UNL     1      -4.663   0.953   1.546  1.00  0.00     0.017 C 
HETATM   13  C19 UNL     1      -5.632   1.397   2.568  1.00  0.00     0.007 C 
HETATM   14  C20 UNL     1      -6.769   2.222   1.928  1.00  0.00     0.000 C 
HETATM   15  C21 UNL     1      -6.166   3.551   1.543  1.00  0.00     0.000 C 
HETATM   16  C22 UNL     1      -4.824   3.353   0.925  1.00  0.00     0.000 C 
HETATM   17  C23 UNL     1      -4.545   1.998   0.432  1.00  0.00     0.007 C 
ENDBRANCH   8  12
ENDBRANCH   7   8
BRANCH   7  18
HETATM   18  C24 UNL     1      -4.517  -1.118  -1.390  1.00  0.00     0.025 C 
HETATM   19  C25 UNL     1      -6.041  -1.158  -1.391  1.00  0.00     0.037 C 
HETATM   20  C26 UNL     1      -4.152  -2.616  -1.532  1.00  0.00     0.037 C 
HETATM   21  C27 UNL     1      -4.098  -0.399  -2.610  1.00  0.00     0.037 C 
ENDBRANCH   7  18
ENDBRANCH   4   5
ENDBRANCH   3   4
BRANCH   1  22
HETATM   22  C4  UNL     1       2.096  -1.340  -0.279  1.00  0.00     0.175 C 
BRANCH  22  23
HETATM   23  C2  UNL     1       1.825  -1.736  -1.669  1.00  0.00     0.049 C 
HETATM   24  C1  UNL     1       2.026  -0.768  -2.759  1.00  0.00     0.017 C 
HETATM   25  C3  UNL     1       2.633  -3.012  -2.002  1.00  0.00     0.017 C 
ENDBRANCH  22  23
BRANCH  22  26
HETATM   26  N1  UNL     1       3.338  -0.965   0.130  1.00  0.00    -0.349 NA
HETATM   27  C5  UNL     1       4.563  -0.606   0.585  1.00  0.00     0.396 C 
HETATM   28  O1  UNL     1       4.942  -0.672   1.814  1.00  0.00    -0.230 OA
HETATM   29  N2  UNL     1       5.614  -0.093  -0.229  1.00  0.00    -0.322 N 
HETATM   30  C6  UNL     1       5.413   0.027  -1.652  1.00  0.00     0.156 C 
BRANCH  29  31
HETATM   31  C7  UNL     1       6.887   0.375   0.256  1.00  0.00     0.089 C 
HETATM   32  C8  UNL     1       7.699  -0.557   1.061  1.00  0.00     0.025 C 
HETATM   33  C9  UNL     1       9.075   0.103   1.252  1.00  0.00     0.002 C 
HETATM   34  C10 UNL     1       9.199   1.409   0.546  1.00  0.00     0.000 C 
HETATM   35  C11 UNL     1       8.110   2.394   0.820  1.00  0.00     0.002 C 
HETATM   36  C12 UNL     1       6.782   1.676   1.036  1.00  0.00     0.025 C 
ENDBRANCH  29  31
ENDBRANCH  22  26
ENDBRANCH   1  22
TORSDOF 10
