REMARK  1 active torsions:
REMARK  status: ('A' for Active; 'I' for Inactive)
REMARK    1  A    between atoms: N1_27  and  O6_28 
ROOT
HETATM    1  C1  UNL     1       1.144   1.689  -3.573  1.00  0.00     0.025 C 
HETATM    2  C2  UNL     1       1.331   1.396  -2.307  1.00  0.00     0.011 C 
HETATM    3  C3  UNL     1       0.164   1.507  -1.445  1.00  0.00     0.082 C 
HETATM    4  C4  UNL     1       0.151   0.620  -0.250  1.00  0.00     0.070 C 
HETATM    5  C5  UNL     1      -0.405  -0.735  -0.751  1.00  0.00     0.041 C 
HETATM    6  C6  UNL     1      -1.193  -1.420   0.353  1.00  0.00     0.045 C 
HETATM    7  C7  UNL     1      -2.532  -0.763   0.456  1.00  0.00     0.103 C 
HETATM    8  C8  UNL     1      -2.355   0.680   0.003  1.00  0.00     0.045 C 
HETATM    9  C9  UNL     1      -1.037   1.140   0.595  1.00  0.00     0.041 C 
HETATM   10  O1  UNL     1      -2.999  -0.678   1.780  1.00  0.00    -0.228 OA
HETATM   11  O2  UNL     1      -4.114   0.022   1.770  1.00  0.00    -0.231 OA
HETATM   12  C10 UNL     1      -5.160  -0.627   1.131  1.00  0.00     0.183 C 
HETATM   13  C11 UNL     1      -5.376  -0.033  -0.243  1.00  0.00     0.004 C 
HETATM   14  C12 UNL     1      -4.473  -0.533  -1.074  1.00  0.00    -0.020 C 
HETATM   15  C13 UNL     1      -3.601  -1.481  -0.338  1.00  0.00     0.048 C 
HETATM   16  C14 UNL     1      -4.606  -1.998   0.709  1.00  0.00     0.051 C 
HETATM   17  O3  UNL     1       1.148   0.397   0.504  1.00  0.00    -0.324 OA
HETATM   18  C15 UNL     1       2.421   0.362   0.475  1.00  0.00     0.294 C 
HETATM   19  O4  UNL     1       3.149   0.911  -0.632  1.00  0.00    -0.257 OA
HETATM   20  C16 UNL     1       2.681   1.001  -1.942  1.00  0.00     0.292 C 
HETATM   21  O5  UNL     1       3.491   0.720  -2.869  1.00  0.00    -0.259 OA
HETATM   22  C17 UNL     1       2.995   1.157   1.673  1.00  0.00     0.170 C 
HETATM   23 CL1  UNL     1       2.437   2.833   1.644  1.00  0.00    -0.117 Cl
HETATM   24  C18 UNL     1       4.507   1.178   1.496  1.00  0.00     0.029 C 
HETATM   25  C19 UNL     1       5.083  -0.220   1.470  1.00  0.00     0.024 C 
HETATM   26  C20 UNL     1       4.339  -1.100   0.456  1.00  0.00     0.155 C 
HETATM   27  N1  UNL     1       2.964  -0.952   0.664  1.00  0.00    -0.235 N 
ENDROOT
BRANCH  27  28
HETATM   28  O6  UNL     1       2.295  -1.817   1.337  1.00  0.00    -0.287 OA
ATOM     29  H6  UNL     1       2.655  -2.687   1.462  1.00  0.00     0.244 HD
ENDBRANCH  27  28
TORSDOF 1
