REMARK  1 active torsions:
REMARK  status: ('A' for Active; 'I' for Inactive)
REMARK    1  A    between atoms: C3_3  and  O1_4 
ROOT
HETATM    1  C1  UNL     1       3.674   0.897   1.501  1.00  0.00     0.015 C 
HETATM    2  C2  UNL     1       2.855   0.378   0.782  1.00  0.00    -0.076 C 
HETATM    3  C3  UNL     1       1.833  -0.244  -0.093  1.00  0.00     0.151 C 
HETATM    4  C4  UNL     1       0.799  -0.835   0.792  1.00  0.00     0.059 C 
HETATM    5  C5  UNL     1      -0.597  -0.761   0.318  1.00  0.00    -0.006 C 
HETATM    6  C6  UNL     1      -1.643  -0.694   1.386  1.00  0.00     0.005 C 
HETATM    7  C7  UNL     1      -2.863  -0.227   0.620  1.00  0.00     0.001 C 
HETATM    8  C8  UNL     1      -2.339   0.443  -0.646  1.00  0.00     0.005 C 
HETATM    9  C9  UNL     1      -0.888   0.565  -0.403  1.00  0.00    -0.008 C 
HETATM   10  C10 UNL     1      -0.014   0.547  -1.609  1.00  0.00     0.046 C 
HETATM   11  C11 UNL     1       1.390   0.766  -1.068  1.00  0.00     0.217 C 
HETATM   12  F1  UNL     1       2.232   0.898  -2.135  1.00  0.00    -0.245 F 
ENDROOT
BRANCH   3  13
HETATM   13  O1  UNL     1       2.527  -1.256  -0.795  1.00  0.00    -0.374 OA
ATOM     14  H1  UNL     1       1.872  -1.655  -1.356  1.00  0.00     0.212 HD
ENDBRANCH   3  13
TORSDOF 1
