REMARK  11 active torsions:
REMARK  status: ('A' for Active; 'I' for Inactive)
REMARK    1  A    between atoms: N1_2  and  C3_4 
REMARK    2  A    between atoms: C3_4  and  C4_5 
REMARK    3  A    between atoms: C7_9  and  N2_10 
REMARK    4  A    between atoms: N2_10  and  C8_12 
REMARK    5  A    between atoms: C9_15  and  C10_16 
REMARK    6  A    between atoms: C10_16  and  C11_17 
REMARK    7  A    between atoms: C11_17  and  O1_18 
REMARK    8  A    between atoms: C13_23  and  O2_24 
REMARK    9  A    between atoms: O2_24  and  C14_25 
REMARK   10  A    between atoms: C20_36  and  O4_37 
REMARK   11  A    between atoms: O4_37  and  C21_38 
ROOT
HETATM    1  N2  UNL     1       1.321  -1.523   0.821  1.00  0.00    -0.338 N 
ATOM      2  H2  UNL     1       1.278  -2.540   0.890  1.00  0.00     0.167 HD
ENDROOT
BRANCH   1   3
HETATM    3  C7  UNL     1       0.171  -0.779   1.163  1.00  0.00     0.075 A 
HETATM    4  C6  UNL     1       0.131  -0.051   2.327  1.00  0.00     0.144 A 
HETATM    5  C5  UNL     1      -0.999   0.697   2.690  1.00  0.00     0.060 A 
HETATM    6  F1  UNL     1       1.224  -0.066   3.138  1.00  0.00    -0.204 F 
HETATM    7  C4  UNL     1      -2.111   0.726   1.886  1.00  0.00     0.015 A 
HETATM    8  C20 UNL     1      -2.078  -0.019   0.689  1.00  0.00     0.083 A 
HETATM    9  C19 UNL     1      -0.961  -0.736   0.368  1.00  0.00     0.070 A 
BRANCH   7  10
HETATM   10  C3  UNL     1      -3.347   1.474   2.230  1.00  0.00     0.099 C 
BRANCH  10  11
HETATM   11  N1  UNL     1      -3.232   2.214   3.416  1.00  0.00    -0.398 N 
HETATM   12  C1  UNL     1      -2.346   3.329   3.426  1.00  0.00     0.148 C 
HETATM   13  C2  UNL     1      -3.402   1.532   4.651  1.00  0.00     0.148 C 
ENDBRANCH  10  11
ENDBRANCH   7  10
BRANCH   8  14
HETATM   14  O4  UNL     1      -3.190   0.028  -0.085  1.00  0.00    -0.345 OA
BRANCH  14  15
HETATM   15  C21 UNL     1      -3.484  -0.572  -1.294  1.00  0.00     0.133 C 
HETATM   16  C22 UNL     1      -3.662   0.496  -2.340  1.00  0.00     0.060 C 
HETATM   17  C23 UNL     1      -5.094   0.886  -2.558  1.00  0.00     0.236 C 
HETATM   18  N7  UNL     1      -5.974   0.510  -1.508  1.00  0.00    -0.067 N 
HETATM   19  C24 UNL     1      -5.989  -0.894  -1.268  1.00  0.00     0.121 C 
ATOM     20  H72 UNL     1      -5.760   1.023  -0.653  1.00  0.00     0.278 HD
ATOM     21  H71 UNL     1      -6.917   0.859  -1.681  1.00  0.00     0.278 HD
HETATM   22  C25 UNL     1      -6.711  -1.116   0.068  1.00  0.00     0.046 C 
HETATM   23  C26 UNL     1      -6.905  -1.544  -2.313  1.00  0.00     0.046 C 
HETATM   24  C27 UNL     1      -4.640  -1.536  -1.249  1.00  0.00     0.070 C 
ENDBRANCH  14  15
ENDBRANCH   8  14
ENDBRANCH   1   3
BRANCH   1  25
HETATM   25  C8  UNL     1       2.426  -0.980   0.425  1.00  0.00     0.137 A 
HETATM   26  N3  UNL     1       2.619   0.332   0.291  1.00  0.00    -0.330 N 
HETATM   27  C9  UNL     1       3.778   0.868  -0.128  1.00  0.00     0.085 A 
ATOM     28  H3  UNL     1       1.848   0.961   0.518  1.00  0.00     0.168 HD
HETATM   29  N4  UNL     1       4.778   0.018  -0.422  1.00  0.00    -0.340 N 
HETATM   30  C12 UNL     1       4.682  -1.327  -0.320  1.00  0.00     0.116 A 
ATOM     31  H4  UNL     1       5.663   0.412  -0.741  1.00  0.00     0.167 HD
HETATM   32  C13 UNL     1       5.765  -2.157  -0.645  1.00  0.00     0.173 A 
HETATM   33  C18 UNL     1       3.491  -1.847   0.110  1.00  0.00     0.109 A 
HETATM   34  N5  UNL     1       5.496  -3.507  -0.487  1.00  0.00    -0.331 N 
HETATM   35  C17 UNL     1       4.321  -3.965  -0.065  1.00  0.00     0.183 A 
ATOM     36  H5  UNL     1       6.232  -4.179  -0.704  1.00  0.00     0.168 HD
HETATM   37  N6  UNL     1       3.290  -3.174   0.245  1.00  0.00    -0.347 N 
ATOM     38  H6  UNL     1       2.399  -3.553   0.566  1.00  0.00     0.167 HD
BRANCH  27  39
HETATM   39  C10 UNL     1       3.960   2.345  -0.266  1.00  0.00     0.102 C 
BRANCH  39  40
HETATM   40  C11 UNL     1       3.551   2.748  -1.685  1.00  0.00     0.171 C 
BRANCH  40  41
HETATM   41  O1  UNL     1       2.228   2.421  -1.918  1.00  0.00    -0.400 OA
ATOM     42  H1  UNL     1       1.974   2.671  -2.799  1.00  0.00     0.209 HD
ENDBRANCH  40  41
ENDBRANCH  39  40
ENDBRANCH  27  39
BRANCH  32  43
HETATM   43  O2  UNL     1       6.896  -1.741  -1.050  1.00  0.00    -0.324 OA
BRANCH  43  44
HETATM   44  C14 UNL     1       7.913  -1.052  -1.428  1.00  0.00     0.178 C 
HETATM   45  C15 UNL     1       8.553  -1.384  -2.796  1.00  0.00     0.202 C 
HETATM   46  O3  UNL     1       9.784  -1.257  -2.156  1.00  0.00    -0.386 OA
HETATM   47  C16 UNL     1       9.288  -1.492  -0.866  1.00  0.00     0.202 C 
ENDBRANCH  43  44
ENDBRANCH  32  43
ENDBRANCH   1  25
TORSDOF 11
