REMARK  13 active torsions:
REMARK  status: ('A' for Active; 'I' for Inactive)
REMARK    1  A    between atoms: O1_2  and  C2_3 
REMARK    2  A    between atoms: C5_7  and  O3_8 
REMARK    3  A    between atoms: O3_8  and  C6_9 
REMARK    4  A    between atoms: C7_11  and  C8_12 
REMARK    5  A    between atoms: C8_12  and  O5_13 
REMARK    6  A    between atoms: C9_15  and  O6_16 
REMARK    7  A    between atoms: C10_18  and  O7_19 
REMARK    8  A    between atoms: C11_21  and  O8_22 
REMARK    9  A    between atoms: O8_22  and  C12_23 
REMARK   10  A    between atoms: C13_24  and  C14_26 
REMARK   11  A    between atoms: C19_31  and  C21_33 
REMARK   12  A    between atoms: C21_33  and  C22_34 
REMARK   13  A    between atoms: C22_34  and  C23_35 
ROOT
HETATM    1  C6  UNL     1       2.198  -1.274   0.373  1.00  0.00     0.292 C 
HETATM    2  O4  UNL     1       2.847  -2.495   0.593  1.00  0.00    -0.348 OA
HETATM    3  C7  UNL     1       3.162  -2.628   1.956  1.00  0.00     0.179 C 
HETATM    4  C9  UNL     1       4.431  -1.840   2.192  1.00  0.00     0.180 C 
HETATM    5  C10 UNL     1       4.304  -0.520   1.500  1.00  0.00     0.183 C 
HETATM    6  C11 UNL     1       2.893  -0.152   1.127  1.00  0.00     0.214 C 
ENDROOT
BRANCH   1   7
HETATM    7  O3  UNL     1       0.926  -1.393   0.888  1.00  0.00    -0.350 OA
BRANCH   7   8
HETATM    8  C5  UNL     1      -0.073  -1.167  -0.087  1.00  0.00     0.159 C 
HETATM    9  C4  UNL     1      -0.933  -2.355  -0.260  1.00  0.00     0.182 C 
HETATM   10  O2  UNL     1      -1.005  -2.811  -1.596  1.00  0.00    -0.378 OA
HETATM   11  C27 UNL     1      -2.336  -2.232   0.175  1.00  0.00     0.185 C 
HETATM   12  C3  UNL     1      -1.865  -3.908  -1.429  1.00  0.00     0.203 C 
HETATM   13  C2  UNL     1      -3.044  -3.245  -0.731  1.00  0.00     0.176 C 
HETATM   14  O9  UNL     1      -2.952  -1.053   0.048  1.00  0.00    -0.370 OA
HETATM   15  C19 UNL     1      -2.246   0.083  -0.067  1.00  0.00     0.060 C 
HETATM   16  C18 UNL     1      -0.827   0.054   0.379  1.00  0.00     0.072 C 
HETATM   17  C20 UNL     1      -2.305   0.544  -1.530  1.00  0.00     0.046 C 
BRANCH  13  18
HETATM   18  O1  UNL     1      -3.769  -2.571  -1.680  1.00  0.00    -0.386 OA
HETATM   19  C1  UNL     1      -5.113  -2.922  -1.714  1.00  0.00     0.202 C 
ENDBRANCH  13  18
BRANCH  15  20
HETATM   20  C21 UNL     1      -2.952   1.174   0.732  1.00  0.00     0.041 C 
BRANCH  20  21
HETATM   21  C22 UNL     1      -4.424   1.264   0.326  1.00  0.00     0.030 C 
BRANCH  21  22
HETATM   22  C23 UNL     1      -5.009   2.356   1.166  1.00  0.00    -0.025 C 
HETATM   23  C24 UNL     1      -5.549   3.430   0.607  1.00  0.00    -0.091 C 
HETATM   24  C25 UNL     1      -6.133   4.521   1.411  1.00  0.00     0.042 C 
HETATM   25  C26 UNL     1      -5.562   3.530  -0.882  1.00  0.00     0.042 C 
ENDBRANCH  21  22
ENDBRANCH  20  21
ENDBRANCH  15  20
ENDBRANCH   7   8
ENDBRANCH   1   7
BRANCH   6  26
HETATM   26  O8  UNL     1       2.963   0.999   0.288  1.00  0.00    -0.349 OA
BRANCH  26  27
HETATM   27  C12 UNL     1       3.552   2.181   0.721  1.00  0.00     0.155 C 
HETATM   28  C13 UNL     1       4.270   2.957  -0.060  1.00  0.00     0.042 C 
HETATM   29 CL1  UNL     1       4.956   4.422   0.622  1.00  0.00    -0.086 Cl
BRANCH  28  30
HETATM   30  C14 UNL     1       4.559   2.698  -1.490  1.00  0.00    -0.004 A 
HETATM   31  C15 UNL     1       6.053   2.471  -1.753  1.00  0.00     0.021 C 
HETATM   32  C16 UNL     1       3.554   2.119  -2.401  1.00  0.00     0.016 A 
HETATM   33  C17 UNL     1       3.922   3.567  -2.530  1.00  0.00     0.016 A 
ENDBRANCH  28  30
ENDBRANCH  26  27
ENDBRANCH   6  26
BRANCH   3  34
HETATM   34  C8  UNL     1       3.503  -4.097   2.178  1.00  0.00     0.198 C 
BRANCH  34  35
HETATM   35  O5  UNL     1       2.451  -4.928   1.860  1.00  0.00    -0.398 OA
ATOM     36  H5  UNL     1       2.664  -5.844   1.998  1.00  0.00     0.209 HD
ENDBRANCH  34  35
ENDBRANCH   3  34
BRANCH   5  37
HETATM   37  O7  UNL     1       5.076  -0.510   0.343  1.00  0.00    -0.390 OA
ATOM     38  H7  UNL     1       4.995   0.328  -0.096  1.00  0.00     0.210 HD
ENDBRANCH   5  37
BRANCH   4  39
HETATM   39  O6  UNL     1       5.487  -2.588   1.650  1.00  0.00    -0.390 OA
ATOM     40  H6  UNL     1       6.284  -2.093   1.798  1.00  0.00     0.210 HD
ENDBRANCH   4  39
TORSDOF 13
