REMARK  11 active torsions:
REMARK  status: ('A' for Active; 'I' for Inactive)
REMARK    1  A    between atoms: C7_8  and  C8_9 
REMARK    2  A    between atoms: C8_9  and  O1_10 
REMARK    3  A    between atoms: C8_9  and  N1_12 
REMARK    4  A    between atoms: N1_12  and  C9_14 
REMARK    5  A    between atoms: C13_18  and  C14_19 
REMARK    6  A    between atoms: C14_19  and  N2_20 
REMARK       I    between atoms: N2_20  and  C15_22 
REMARK       I    between atoms: C15_22  and  N3_24 
REMARK    7  A    between atoms: N3_24  and  C16_26 
REMARK    8  A    between atoms: C21_31  and  C22_32 
REMARK    9  A    between atoms: C22_32  and  C23_33 
REMARK   10  A    between atoms: C23_33  and  O3_36 
REMARK   11  A    between atoms: C28_40  and  O4_41 
ROOT
HETATM    1  N2  UNL     1       0.597   1.340  -1.772  1.00  0.00    -0.341 N 
ATOM      2  H2  UNL     1       0.718   0.840  -2.653  1.00  0.00     0.164 HD
HETATM    3  C15 UNL     1      -0.611   1.154  -1.050  1.00  0.00     0.316 C 
HETATM    4  O2  UNL     1      -0.741   1.747   0.044  1.00  0.00    -0.247 OA
HETATM    5  N3  UNL     1      -1.655   0.337  -1.513  1.00  0.00    -0.335 N 
ATOM      6  H3  UNL     1      -1.522  -0.108  -2.421  1.00  0.00     0.164 HD
ENDROOT
BRANCH   1   7
HETATM    7  C14 UNL     1       1.669   2.207  -1.318  1.00  0.00     0.156 C 
BRANCH   7   8
HETATM    8  C13 UNL     1       2.843   2.159  -2.267  1.00  0.00     0.139 C 
HETATM    9  C12 UNL     1       3.879   3.197  -2.057  1.00  0.00     0.034 C 
HETATM   10  C11 UNL     1       4.286   3.450  -0.657  1.00  0.00     0.005 C 
HETATM   11  C10 UNL     1       4.902   2.315   0.081  1.00  0.00     0.027 C 
HETATM   12  C9  UNL     1       5.153   1.076  -0.712  1.00  0.00     0.107 C 
HETATM   13  C30 UNL     1       3.871   0.410  -1.157  1.00  0.00     0.193 C 
HETATM   14  O5  UNL     1       3.372   0.873  -2.356  1.00  0.00    -0.382 OA
BRANCH  12  15
HETATM   15  N1  UNL     1       5.749   0.105   0.243  1.00  0.00    -0.364 N 
ATOM     16  H1  UNL     1       5.226  -0.163   1.077  1.00  0.00     0.162 HD
BRANCH  15  17
HETATM   17  C8  UNL     1       7.012  -0.447   0.018  1.00  0.00     0.147 C 
BRANCH  17  18
HETATM   18  C7  UNL     1       7.744  -1.405   0.819  1.00  0.00     0.023 A 
HETATM   19  C2  UNL     1       7.195  -2.352   1.633  1.00  0.00    -0.047 A 
HETATM   20  C1  UNL     1       5.715  -2.569   1.658  1.00  0.00     0.049 C 
HETATM   21  C3  UNL     1       8.005  -3.189   2.427  1.00  0.00     0.011 A 
HETATM   22  C4  UNL     1       9.373  -3.100   2.422  1.00  0.00     0.043 A 
HETATM   23  C5  UNL     1       9.928  -2.147   1.600  1.00  0.00     0.117 A 
HETATM   24  F1  UNL     1      11.298  -2.062   1.596  1.00  0.00    -0.206 F 
HETATM   25  C6  UNL     1       9.159  -1.326   0.825  1.00  0.00     0.058 A 
ENDBRANCH  17  18
BRANCH  17  26
HETATM   26  O1  UNL     1       7.592  -0.018  -1.069  1.00  0.00    -0.346 OA
ATOM     27  H1  UNL     1       7.112   0.611  -1.595  1.00  0.00     0.219 HD
ENDBRANCH  17  26
ENDBRANCH  15  17
ENDBRANCH  12  15
ENDBRANCH   7   8
ENDBRANCH   1   7
BRANCH   5  28
HETATM   28  C16 UNL     1      -2.878   0.069  -0.843  1.00  0.00     0.124 C 
HETATM   29  C17 UNL     1      -3.327  -1.344  -0.839  1.00  0.00     0.012 C 
HETATM   30  C18 UNL     1      -3.958  -1.793  -2.137  1.00  0.00     0.011 C 
HETATM   31  C26 UNL     1      -4.418  -1.473   0.210  1.00  0.00     0.016 C 
HETATM   32  C19 UNL     1      -5.064  -0.857  -2.539  1.00  0.00    -0.010 C 
HETATM   33  C20 UNL     1      -6.127  -0.897  -1.494  1.00  0.00     0.014 C 
HETATM   34  C29 UNL     1      -4.590   0.578  -2.629  1.00  0.00     0.044 C 
HETATM   35  C21 UNL     1      -5.570  -0.531  -0.095  1.00  0.00    -0.034 C 
HETATM   36  C27 UNL     1      -5.113   0.880  -0.229  1.00  0.00     0.049 C 
HETATM   37  C28 UNL     1      -4.023   0.947  -1.310  1.00  0.00     0.080 C 
BRANCH  35  38
HETATM   38  C22 UNL     1      -6.681  -0.811   0.827  1.00  0.00     0.046 C 
BRANCH  38  39
HETATM   39  C23 UNL     1      -6.525  -0.607   2.274  1.00  0.00     0.051 C 
HETATM   40  C24 UNL     1      -6.198   0.795   2.724  1.00  0.00     0.045 C 
HETATM   41  C25 UNL     1      -7.908  -0.910   2.893  1.00  0.00     0.045 C 
BRANCH  39  42
HETATM   42  O3  UNL     1      -5.690  -1.550   2.889  1.00  0.00    -0.391 OA
ATOM     43  H3  UNL     1      -5.589  -1.418   3.824  1.00  0.00     0.210 HD
ENDBRANCH  39  42
ENDBRANCH  38  39
ENDBRANCH  35  38
BRANCH  37  44
HETATM   44  O4  UNL     1      -3.566   2.280  -1.303  1.00  0.00    -0.388 OA
ATOM     45  H4  UNL     1      -4.283   2.830  -1.596  1.00  0.00     0.210 HD
ENDBRANCH  37  44
ENDBRANCH   5  28
TORSDOF 11
