REMARK  2 active torsions:
REMARK  status: ('A' for Active; 'I' for Inactive)
REMARK    1  A    between atoms: N1_1  and  C1_4 
REMARK    2  A    between atoms: C3_12  and  N5_13 
ROOT
HETATM    1  C1  UNL     1       2.028  -0.429   0.271  1.00  0.00     0.146 A 
HETATM    2  N2  UNL     1       3.366  -0.171   0.015  1.00  0.00    -0.335 N 
ATOM      3  H2  UNL     1       4.087  -0.535   0.638  1.00  0.00     0.168 HD
HETATM    4  C2  UNL     1       3.703   0.554  -1.048  1.00  0.00     0.199 A 
HETATM    5  N3  UNL     1       2.736   1.025  -1.858  1.00  0.00    -0.294 N 
ATOM      6  H3  UNL     1       2.997   1.581  -2.673  1.00  0.00     0.187 HD
HETATM    7  N4  UNL     1       1.467   0.787  -1.626  1.00  0.00    -0.282 N 
ATOM      8  H4  UNL     1       0.773   1.166  -2.270  1.00  0.00     0.188 HD
HETATM    9  C3  UNL     1       1.034   0.046  -0.548  1.00  0.00     0.162 A 
ENDROOT
BRANCH   9  10
HETATM   10  N5  UNL     1      -0.338  -0.193  -0.392  1.00  0.00    -0.360 N 
HETATM   11  C4  UNL     1      -1.261   0.709  -1.152  1.00  0.00     0.143 C 
HETATM   12  C5  UNL     1      -2.580   0.715  -0.424  1.00  0.00     0.133 C 
HETATM   13  N6  UNL     1      -2.493   0.617   0.983  1.00  0.00    -0.418 N 
HETATM   14  C6  UNL     1      -1.712  -0.466   1.512  1.00  0.00     0.133 C 
ATOM     15  H6  UNL     1      -2.963   1.284   1.595  1.00  0.00     0.153 HD
HETATM   16  C7  UNL     1      -1.046  -1.170   0.344  1.00  0.00     0.143 C 
ENDBRANCH   9  10
BRANCH   1  17
HETATM   17  N1  UNL     1       1.789  -1.089   1.292  1.00  0.00    -0.382 N 
ATOM     18  H12 UNL     1       2.528  -1.442   1.901  1.00  0.00     0.157 HD
ATOM     19  H11 UNL     1       0.805  -1.279   1.480  1.00  0.00     0.157 HD
ENDBRANCH   1  17
TORSDOF 2
