REMARK  8 active torsions:
REMARK  status: ('A' for Active; 'I' for Inactive)
REMARK    1  A    between atoms: C3_5  and  N2_6 
REMARK       I    between atoms: N2_6  and  C4_8 
REMARK    2  A    between atoms: C4_8  and  C5_10 
REMARK    3  A    between atoms: C5_10  and  C6_11 
REMARK    4  A    between atoms: C6_11  and  C7_12 
REMARK    5  A    between atoms: C7_12  and  C8_13 
REMARK       I    between atoms: N5_19  and  C10_21 
REMARK    6  A    between atoms: C10_21  and  C11_23 
REMARK    7  A    between atoms: C11_23  and  C12_24 
REMARK    8  A    between atoms: C15_29  and  O3_30 
ROOT
HETATM    1  C8  UNL     1      -0.370  -0.928  -1.258  1.00  0.00     0.069 A 
HETATM    2  N3  UNL     1       0.766  -1.381  -0.754  1.00  0.00    -0.296 N 
ATOM      3  H3  UNL     1       0.769  -2.237  -0.199  1.00  0.00     0.187 HD
HETATM    4  N4  UNL     1       1.852  -0.758  -0.956  1.00  0.00    -0.279 N 
ATOM      5  H4  UNL     1       2.728  -1.108  -0.567  1.00  0.00     0.189 HD
HETATM    6  C9  UNL     1       1.835   0.358  -1.682  1.00  0.00     0.167 A 
HETATM    7  N5  UNL     1       2.813   1.163  -2.022  1.00  0.00    -0.306 N 
ATOM      8  H5  UNL     1       2.645   1.992  -2.592  1.00  0.00     0.171 HD
HETATM    9  C10 UNL     1       4.105   0.834  -1.567  1.00  0.00     0.228 C 
HETATM   10  O2  UNL     1       4.613  -0.242  -1.952  1.00  0.00    -0.273 OA
HETATM   11  S1  UNL     1       0.155   0.477  -2.071  1.00  0.00    -0.038 SA
ENDROOT
BRANCH   9  12
HETATM   12  C11 UNL     1       4.856   1.712  -0.668  1.00  0.00     0.149 C 
BRANCH  12  13
HETATM   13  C12 UNL     1       6.184   1.252  -0.298  1.00  0.00     0.041 A 
HETATM   14  C13 UNL     1       6.374   0.261   0.633  1.00  0.00     0.021 A 
HETATM   15  C14 UNL     1       5.213  -0.356   1.285  1.00  0.00     0.069 C 
HETATM   16  N6  UNL     1       7.634  -0.158   0.963  1.00  0.00    -0.326 N 
HETATM   17  C15 UNL     1       8.703   0.393   0.383  1.00  0.00     0.224 A 
ATOM     18  H6  UNL     1       7.757  -0.896   1.656  1.00  0.00     0.169 HD
HETATM   19  N7  UNL     1       8.557   1.357  -0.524  1.00  0.00    -0.289 N 
HETATM   20  C16 UNL     1       7.316   1.792  -0.870  1.00  0.00     0.257 A 
ATOM     21  H7  UNL     1       9.380   1.771  -0.961  1.00  0.00     0.172 HD
HETATM   22  O4  UNL     1       7.246   2.696  -1.723  1.00  0.00    -0.267 OA
BRANCH  17  23
HETATM   23  O3  UNL     1       9.997  -0.031   0.716  1.00  0.00    -0.332 OA
ATOM     24  H3  UNL     1      10.758   0.361   0.303  1.00  0.00     0.221 HD
ENDBRANCH  17  23
ENDBRANCH  12  13
ENDBRANCH   9  12
BRANCH   1  25
HETATM   25  C7  UNL     1      -1.756  -1.523  -1.129  1.00  0.00     0.067 C 
BRANCH  25  26
HETATM   26  C6  UNL     1      -2.355  -0.914   0.090  1.00  0.00     0.016 C 
BRANCH  26  27
HETATM   27  C5  UNL     1      -3.735  -1.342   0.438  1.00  0.00     0.104 C 
BRANCH  27  28
HETATM   28  C4  UNL     1      -4.686  -0.989  -0.623  1.00  0.00     0.235 C 
HETATM   29  N2  UNL     1      -6.021  -1.438  -0.544  1.00  0.00    -0.158 N 
ATOM     30  H2  UNL     1      -6.268  -2.387  -0.826  1.00  0.00     0.187 HD
HETATM   31  O1  UNL     1      -4.334  -0.296  -1.593  1.00  0.00    -0.273 OA
BRANCH  29  32
HETATM   32  C3  UNL     1      -6.928  -0.621  -0.106  1.00  0.00     0.700 A 
HETATM   33  N1  UNL     1      -8.251  -0.889   0.034  1.00  0.00    -0.178 N 
HETATM   34  C2  UNL     1      -8.810   0.229   0.514  1.00  0.00     0.108 A 
ATOM     35  H1  UNL     1      -8.724  -1.766  -0.183  1.00  0.00     0.185 HD
HETATM   36  C1  UNL     1     -10.236   0.495   0.853  1.00  0.00     0.091 C 
HETATM   37  N9  UNL     1      -7.840   1.138   0.656  1.00  0.00    -0.275 N 
HETATM   38  N8  UNL     1      -6.688   0.630   0.281  1.00  0.00    -0.130 N 
ATOM     39  H9  UNL     1      -7.975   2.087   1.005  1.00  0.00     0.189 HD
ATOM     40  H8  UNL     1      -5.784   1.103   0.285  1.00  0.00     0.205 HD
ENDBRANCH  29  32
ENDBRANCH  27  28
ENDBRANCH  26  27
ENDBRANCH  25  26
ENDBRANCH   1  25
TORSDOF 8
