REMARK  7 active torsions:
REMARK  status: ('A' for Active; 'I' for Inactive)
REMARK    1  A    between atoms: C2_2  and  N1_3 
REMARK    2  A    between atoms: N1_3  and  C3_5 
REMARK    3  A    between atoms: C4_8  and  C5_9 
REMARK    4  A    between atoms: C8_14  and  N4_15 
REMARK    5  A    between atoms: C11_18  and  C13_20 
REMARK    6  A    between atoms: C13_20  and  N5_21 
REMARK       I    between atoms: N5_21  and  C14_22 
REMARK    7  A    between atoms: C14_22  and  C15_24 
ROOT
HETATM    1  C15 UNL     1       5.696   0.602   0.505  1.00  0.00     0.190 A 
HETATM    2  N6  UNL     1       6.000  -0.239  -0.488  1.00  0.00    -0.322 N 
ATOM      3  H6  UNL     1       5.260  -0.599  -1.091  1.00  0.00     0.169 HD
HETATM    4  C16 UNL     1       7.304  -0.623  -0.702  1.00  0.00     0.123 A 
HETATM    5  N7  UNL     1       7.599  -1.399  -1.672  1.00  0.00    -0.384 N 
ATOM      6  H71 UNL     1       8.566  -1.684  -1.831  1.00  0.00     0.157 HD
ATOM      7  H72 UNL     1       6.836  -1.737  -2.259  1.00  0.00     0.157 HD
HETATM    8  C17 UNL     1       8.345  -0.161   0.099  1.00  0.00     0.103 A 
HETATM    9  C18 UNL     1       9.705  -0.572  -0.081  1.00  0.00     0.104 C 
HETATM   10  N8  UNL     1      10.821  -0.896  -0.261  1.00  0.00    -0.191 NA
HETATM   11  C19 UNL     1       7.973   0.703   1.112  1.00  0.00     0.116 A 
HETATM   12  N9  UNL     1       6.677   1.041   1.260  1.00  0.00    -0.345 N 
ATOM     13  H9  UNL     1       6.440   1.686   2.014  1.00  0.00     0.167 HD
ENDROOT
BRANCH   1  14
HETATM   14  C14 UNL     1       4.269   0.919   0.756  1.00  0.00     0.355 C 
HETATM   15  N5  UNL     1       3.295  -0.013   0.987  1.00  0.00    -0.408 NA
HETATM   16  O1  UNL     1       4.021   2.143   0.700  1.00  0.00    -0.248 OA
BRANCH  15  17
HETATM   17  C13 UNL     1       2.293  -0.941   1.223  1.00  0.00     0.233 C 
BRANCH  17  18
HETATM   18  C11 UNL     1       1.290  -1.010   0.054  1.00  0.00     0.002 C 
HETATM   19  C10 UNL     1       0.815   0.355  -0.312  1.00  0.00     0.034 C 
HETATM   20  C9  UNL     1      -0.185   0.643   0.767  1.00  0.00     0.142 C 
HETATM   21  N4  UNL     1      -0.979  -0.594   0.558  1.00  0.00    -0.216 N 
HETATM   22  C20 UNL     1      -0.011  -1.628   0.589  1.00  0.00     0.153 C 
HETATM   23  C12 UNL     1       1.889  -1.837  -0.997  1.00  0.00     0.020 C 
BRANCH  21  24
HETATM   24  C8  UNL     1      -2.368  -0.464   0.320  1.00  0.00     0.696 A 
HETATM   25  N3  UNL     1      -2.752   0.503  -0.586  1.00  0.00    -0.179 N 
HETATM   26  C4  UNL     1      -4.069   0.774  -0.832  1.00  0.00     0.117 A 
ATOM     27  H3  UNL     1      -2.035   1.029  -1.085  1.00  0.00     0.185 HD
HETATM   28  N2  UNL     1      -5.027   0.126  -0.210  1.00  0.00    -0.179 N 
HETATM   29  C3  UNL     1      -4.650  -0.855   0.704  1.00  0.00     0.694 A 
ATOM     30  H2  UNL     1      -6.010   0.333  -0.389  1.00  0.00     0.185 HD
HETATM   31  N10 UNL     1      -3.354  -1.098   0.915  1.00  0.00    -0.022 N 
ATOM     32  H10 UNL     1      -3.112  -1.827   1.586  1.00  0.00     0.203 HD
BRANCH  26  33
HETATM   33  C5  UNL     1      -4.367   1.848  -1.792  1.00  0.00     0.054 A 
HETATM   34  C6  UNL     1      -5.747   2.079  -2.337  1.00  0.00     0.013 A 
HETATM   35  C7  UNL     1      -5.185   3.006  -1.297  1.00  0.00     0.013 A 
ENDBRANCH  26  33
BRANCH  29  36
HETATM   36  N1  UNL     1      -5.574  -1.468   1.315  1.00  0.00    -0.226 N 
ATOM     37  H1  UNL     1      -5.328  -2.193   1.989  1.00  0.00     0.177 HD
BRANCH  36  38
HETATM   38  C2  UNL     1      -6.979  -1.165   1.081  1.00  0.00     0.133 C 
HETATM   39  C1  UNL     1      -7.738  -0.940   2.386  1.00  0.00     0.027 C 
ENDBRANCH  36  38
ENDBRANCH  29  36
ENDBRANCH  21  24
ENDBRANCH  17  18
ENDBRANCH  15  17
ENDBRANCH   1  14
TORSDOF 7
