REMARK  3 active torsions:
REMARK  status: ('A' for Active; 'I' for Inactive)
REMARK       I    between atoms: C1_4  and  N3_6 
REMARK       I    between atoms: C2_8  and  N5_10 
REMARK    1  A    between atoms: C3_12  and  O1_13 
REMARK    2  A    between atoms: C3_12  and  N6_15 
REMARK    3  A    between atoms: N6_15  and  N7_17 
ROOT
HETATM    1  N1  UNL     1      -3.231   0.412   0.153  1.00  0.00    -0.373 N 
ATOM      2  H11 UNL     1      -3.156   1.429   0.179  1.00  0.00     0.158 HD
ATOM      3  H12 UNL     1      -3.988  -0.123   0.578  1.00  0.00     0.158 HD
HETATM    4  C1  UNL     1      -2.271  -0.215  -0.478  1.00  0.00     0.188 C 
HETATM    5  N2  UNL     1      -2.375  -1.630  -0.514  1.00  0.00    -0.064 NA
HETATM    6  N3  UNL     1      -1.229   0.521  -1.063  1.00  0.00    -0.305 N 
ATOM      7  H3  UNL     1      -1.334   0.836  -2.027  1.00  0.00     0.171 HD
HETATM    8  C2  UNL     1      -0.155   0.812  -0.437  1.00  0.00     0.197 C 
HETATM    9  N4  UNL     1       0.016   0.385   0.905  1.00  0.00    -0.063 NA
HETATM   10  N5  UNL     1       0.901   1.552  -1.018  1.00  0.00    -0.295 N 
ATOM     11  H5  UNL     1       0.679   2.387  -1.560  1.00  0.00     0.172 HD
HETATM   12  C3  UNL     1       2.126   1.206  -0.885  1.00  0.00     0.238 C 
ENDROOT
BRANCH  12  13
HETATM   13  O1  UNL     1       3.166   1.925  -1.450  1.00  0.00    -0.331 OA
ATOM     14  H1  UNL     1       4.075   1.668  -1.351  1.00  0.00     0.221 HD
ENDBRANCH  12  13
BRANCH  12  15
HETATM   15  N6  UNL     1       2.415   0.045  -0.132  1.00  0.00    -0.272 N 
ATOM     16  H6  UNL     1       2.579   0.120   0.872  1.00  0.00     0.190 HD
BRANCH  15  17
HETATM   17  N7  UNL     1       2.478  -1.222  -0.764  1.00  0.00    -0.342 N 
ATOM     18  H72 UNL     1       2.311  -1.279  -1.769  1.00  0.00     0.176 HD
ATOM     19  H71 UNL     1       2.687  -2.060  -0.221  1.00  0.00     0.176 HD
ENDBRANCH  15  17
ENDBRANCH  12  15
TORSDOF 3
