REMARK  6 active torsions:
REMARK  status: ('A' for Active; 'I' for Inactive)
REMARK    1  A    between atoms: O1_2  and  C2_3 
REMARK    2  A    between atoms: C2_3  and  C3_4 
REMARK    3  A    between atoms: C3_4  and  C4_5 
REMARK    4  A    between atoms: C4_5  and  O2_6 
REMARK    5  A    between atoms: C8_12  and  C9_13 
REMARK    6  A    between atoms: C12_17  and  O5_18 
ROOT
HETATM    1  C3  UNL     1       1.158   0.302  -0.447  1.00  0.00     0.016 C 
HETATM    2  C5  UNL     1       0.994  -0.697   0.576  1.00  0.00     0.043 C 
HETATM    3  C6  UNL     1       2.154  -1.627   0.920  1.00  0.00     0.035 C 
HETATM    4  C7  UNL     1       1.393  -2.403   2.024  1.00  0.00     0.170 C 
HETATM    5  O3  UNL     1       0.040  -2.261   1.757  1.00  0.00    -0.372 OA
HETATM    6  C8  UNL     1      -0.027  -1.769   0.445  1.00  0.00     0.122 C 
HETATM    7  C10 UNL     1      -1.395  -1.404   0.036  1.00  0.00     0.038 C 
HETATM    8  C11 UNL     1      -1.544  -1.343  -1.459  1.00  0.00     0.041 C 
HETATM    9  C12 UNL     1      -0.636  -0.258  -2.033  1.00  0.00     0.124 C 
HETATM   10  C13 UNL     1      -0.177   0.723  -0.980  1.00  0.00     0.036 C 
HETATM   11  C14 UNL     1      -1.294   1.006  -0.050  1.00  0.00    -0.033 C 
HETATM   12  C15 UNL     1      -1.067   2.015   1.039  1.00  0.00     0.016 C 
HETATM   13  C16 UNL     1      -2.297   1.861  -0.862  1.00  0.00     0.016 C 
HETATM   14  C17 UNL     1      -2.000  -0.149   0.571  1.00  0.00    -0.033 C 
HETATM   15  C18 UNL     1      -3.484  -0.254   0.212  1.00  0.00     0.016 C 
HETATM   16  C19 UNL     1      -2.054  -0.219   2.060  1.00  0.00     0.016 C 
ENDROOT
BRANCH   1  17
HETATM   17  C2  UNL     1       1.980   1.489   0.069  1.00  0.00     0.179 C 
BRANCH  17  18
HETATM   18  O1  UNL     1       3.264   1.080   0.490  1.00  0.00    -0.395 OA
HETATM   19  C1  UNL     1       3.909   2.217   0.930  1.00  0.00     0.201 C 
ENDBRANCH  17  18
ENDBRANCH   1  17
BRANCH   1  20
HETATM   20  C4  UNL     1       2.071  -0.170  -1.595  1.00  0.00     0.176 C 
BRANCH  20  21
HETATM   21  O2  UNL     1       2.279   0.782  -2.565  1.00  0.00    -0.400 OA
ATOM     22  H2  UNL     1       2.842   0.491  -3.273  1.00  0.00     0.209 HD
ENDBRANCH  20  21
ENDBRANCH   1  20
BRANCH   6  23
HETATM   23  C9  UNL     1       0.352  -2.944  -0.370  1.00  0.00     0.270 C 
HETATM   24  O4  UNL     1       0.553  -4.025   0.159  1.00  0.00    -0.304 OA
ENDBRANCH   6  23
BRANCH   9  25
HETATM   25  O5  UNL     1      -1.216   0.327  -3.160  1.00  0.00    -0.395 OA
ATOM     26  H5  UNL     1      -0.651   1.002  -3.517  1.00  0.00     0.210 HD
ENDBRANCH   9  25
TORSDOF 6
