REMARK  7 active torsions:
REMARK  status: ('A' for Active; 'I' for Inactive)
REMARK    1  A    between atoms: C3_3  and  C4_4 
REMARK    2  A    between atoms: C4_4  and  C5_5 
REMARK    3  A    between atoms: N1_8  and  N2_10 
REMARK       I    between atoms: N2_10  and  C8_12 
REMARK    4  A    between atoms: C8_12  and  C9_14 
REMARK    5  A    between atoms: C9_14  and  O2_15 
REMARK    6  A    between atoms: C9_14  and  N3_17 
REMARK       I    between atoms: N3_17  and  C10_19 
REMARK    7  A    between atoms: C10_19  and  C11_21 
ROOT
HETATM    1  C1  UNL     1      -3.551  -2.525  -1.163  1.00  0.00     0.019 C 
HETATM    2  C2  UNL     1      -4.103  -1.524  -0.762  1.00  0.00    -0.063 C 
HETATM    3  C3  UNL     1      -4.775  -0.355  -0.280  1.00  0.00     0.078 C 
HETATM    4  N1  UNL     1      -4.195   0.396   0.580  1.00  0.00    -0.293 N 
ATOM      5  H1  UNL     1      -4.680   1.228   0.917  1.00  0.00     0.187 HD
ENDROOT
BRANCH   3   6
HETATM    6  C4  UNL     1      -6.147  -0.022  -0.787  1.00  0.00     0.073 C 
BRANCH   6   7
HETATM    7  C5  UNL     1      -6.615   1.254  -0.117  1.00  0.00    -0.008 A 
HETATM    8  C6  UNL     1      -6.691   1.155   1.393  1.00  0.00     0.005 A 
HETATM    9  C7  UNL     1      -7.931   1.342   0.533  1.00  0.00     0.005 A 
ENDBRANCH   6   7
ENDBRANCH   3   6
BRANCH   4  10
HETATM   10  N2  UNL     1      -2.945   0.117   1.060  1.00  0.00    -0.262 N 
HETATM   11  C8  UNL     1      -1.775   0.335   0.236  1.00  0.00     0.310 C 
HETATM   12  O1  UNL     1      -2.028   0.783  -0.902  1.00  0.00    -0.262 OA
ATOM     13  H2  UNL     1      -2.836  -0.248   2.006  1.00  0.00     0.190 HD
BRANCH  11  14
HETATM   14  C9  UNL     1      -0.457   0.049   0.724  1.00  0.00     0.214 C 
BRANCH  14  15
HETATM   15  O2  UNL     1      -0.449  -0.412   1.948  1.00  0.00    -0.342 OA
ATOM     16  H2  UNL     1       0.424  -0.601   2.271  1.00  0.00     0.219 HD
ENDBRANCH  14  15
BRANCH  14  17
HETATM   17  N3  UNL     1       0.768   0.184   0.111  1.00  0.00    -0.303 N 
HETATM   18  C10 UNL     1       1.166   0.629  -1.155  1.00  0.00     0.230 C 
HETATM   19  O3  UNL     1       0.342   1.018  -2.004  1.00  0.00    -0.273 OA
ATOM     20  H3  UNL     1       1.549  -0.099   0.703  1.00  0.00     0.171 HD
BRANCH  18  21
HETATM   21  C11 UNL     1       2.639   0.636  -1.496  1.00  0.00     0.105 C 
HETATM   22  C12 UNL     1       3.115  -0.779  -1.462  1.00  0.00     0.183 C 
HETATM   23  O4  UNL     1       3.683  -0.954  -0.234  1.00  0.00    -0.379 OA
HETATM   24  C13 UNL     1       4.352   0.216   0.027  1.00  0.00     0.061 C 
HETATM   25  C14 UNL     1       4.775   0.352   1.454  1.00  0.00     0.038 C 
HETATM   26  C17 UNL     1       5.684   0.210  -0.702  1.00  0.00     0.038 C 
HETATM   27  C18 UNL     1       3.460   1.336  -0.448  1.00  0.00     0.054 C 
HETATM   28  C15 UNL     1       5.905  -0.654   1.548  1.00  0.00     0.003 C 
HETATM   29  C16 UNL     1       6.465  -0.798   0.149  1.00  0.00     0.003 C 
ENDBRANCH  18  21
ENDBRANCH  14  17
ENDBRANCH  11  14
ENDBRANCH   4  10
TORSDOF 7
