REMARK  5 active torsions:
REMARK  status: ('A' for Active; 'I' for Inactive)
REMARK    1  A    between atoms: C9_10  and  O2_11 
REMARK    2  A    between atoms: O2_11  and  C10_12 
REMARK    3  A    between atoms: C10_12  and  C11_14 
REMARK    4  A    between atoms: C16_19  and  O4_20 
REMARK    5  A    between atoms: C17_22  and  O5_24 
ROOT
HETATM    1  C1  UNL     1      -2.554   2.735  -0.175  1.00  0.00     0.013 C 
HETATM    2  C2  UNL     1      -2.865   1.611   0.749  1.00  0.00     0.024 C 
HETATM    3  C3  UNL     1      -1.747   1.326   1.749  1.00  0.00     0.086 C 
HETATM    4  C4  UNL     1      -1.633  -0.157   1.715  1.00  0.00     0.140 C 
HETATM    5  O1  UNL     1      -1.377  -0.858   2.649  1.00  0.00    -0.297 OA
HETATM    6  C5  UNL     1      -1.907  -0.521   0.303  1.00  0.00     0.066 C 
HETATM    7  C6  UNL     1      -1.894  -1.960  -0.062  1.00  0.00     0.034 C 
HETATM    8  C7  UNL     1      -0.838  -2.780   0.677  1.00  0.00     0.011 C 
HETATM    9  C8  UNL     1       0.516  -2.149   0.623  1.00  0.00     0.034 C 
HETATM   10  C9  UNL     1       0.501  -0.722   0.150  1.00  0.00     0.139 C 
HETATM   11  C15 UNL     1      -0.743  -0.355  -0.623  1.00  0.00     0.064 C 
HETATM   12  C16 UNL     1      -1.248  -1.557  -1.397  1.00  0.00     0.131 C 
HETATM   13  C17 UNL     1      -3.127   0.286   0.040  1.00  0.00     0.073 C 
HETATM   14  C18 UNL     1      -3.577   0.458  -1.352  1.00  0.00     0.047 C 
ENDROOT
BRANCH  13  15
HETATM   15  O5  UNL     1      -4.186  -0.319   0.759  1.00  0.00    -0.389 OA
ATOM     16  H5  UNL     1      -4.349  -1.144   0.317  1.00  0.00     0.210 HD
ENDBRANCH  13  15
BRANCH  12  17
HETATM   17  O4  UNL     1      -0.241  -2.426  -1.830  1.00  0.00    -0.395 OA
ATOM     18  H4  UNL     1       0.158  -2.177  -2.655  1.00  0.00     0.210 HD
ENDBRANCH  12  17
BRANCH  10  19
HETATM   19  O2  UNL     1       1.681  -0.420  -0.571  1.00  0.00    -0.315 OA
BRANCH  19  20
HETATM   20  C10 UNL     1       2.587   0.509  -0.135  1.00  0.00     0.263 C 
HETATM   21  O3  UNL     1       2.324   1.104   0.963  1.00  0.00    -0.265 OA
BRANCH  20  22
HETATM   22  C11 UNL     1       3.841   0.847  -0.877  1.00  0.00     0.085 C 
HETATM   23  C12 UNL     1       4.775  -0.329  -1.067  1.00  0.00     0.014 C 
HETATM   24  C13 UNL     1       5.918   0.601  -0.652  1.00  0.00     0.002 C 
HETATM   25  C14 UNL     1       4.870   1.423   0.094  1.00  0.00     0.014 C 
ENDBRANCH  20  22
ENDBRANCH  19  20
ENDBRANCH  10  19
TORSDOF 5
