REMARK  4 active torsions:
REMARK  status: ('A' for Active; 'I' for Inactive)
REMARK    1  A    between atoms: C8_9  and  O2_10 
REMARK    2  A    between atoms: C13_16  and  C14_17 
REMARK    3  A    between atoms: C14_17  and  O3_18 
REMARK    4  A    between atoms: O3_18  and  C15_19 
ROOT
HETATM    1  C1  UNL     1       0.216  -3.395   0.606  1.00  0.00     0.025 C 
HETATM    2  C2  UNL     1      -0.287  -2.153   0.473  1.00  0.00     0.011 C 
HETATM    3  C3  UNL     1      -1.696  -1.955   0.163  1.00  0.00     0.157 C 
HETATM    4  O1  UNL     1      -2.526  -2.619   0.886  1.00  0.00    -0.293 OA
HETATM    5  C4  UNL     1      -2.280  -1.099  -0.866  1.00  0.00     0.095 C 
HETATM    6  C5  UNL     1      -3.100   0.071  -0.378  1.00  0.00    -0.011 C 
HETATM    7  C6  UNL     1      -4.446  -0.044  -1.138  1.00  0.00     0.018 C 
HETATM    8  C7  UNL     1      -3.548  -0.055   1.064  1.00  0.00     0.018 C 
HETATM    9  C8  UNL     1      -2.430   1.335  -0.735  1.00  0.00     0.148 C 
HETATM   10  C9  UNL     1      -1.983   2.283   0.280  1.00  0.00     0.003 C 
HETATM   11  C10 UNL     1      -0.990   2.030   1.284  1.00  0.00     0.009 C 
HETATM   12  C11 UNL     1       0.183   1.196   1.069  1.00  0.00     0.281 A 
HETATM   13  C12 UNL     1       1.045   1.134  -0.125  1.00  0.00     0.268 A 
HETATM   14  C13 UNL     1       2.347   0.359  -0.063  1.00  0.00     0.048 C 
HETATM   15  C17 UNL     1       1.949  -1.131  -0.070  1.00  0.00     0.050 C 
HETATM   16  C18 UNL     1       0.649  -1.032   0.667  1.00  0.00     0.260 C 
HETATM   17  N1  UNL     1       0.077   0.140   0.126  1.00  0.00     0.115 N 
ENDROOT
BRANCH  14  18
HETATM   18  C14 UNL     1       3.101   0.596  -1.332  1.00  0.00     0.185 C 
BRANCH  18  19
HETATM   19  O3  UNL     1       4.311  -0.097  -1.333  1.00  0.00    -0.321 OA
BRANCH  19  20
HETATM   20  C15 UNL     1       5.292   0.176  -0.414  1.00  0.00     0.254 C 
HETATM   21  C16 UNL     1       6.576  -0.607  -0.456  1.00  0.00     0.126 C 
HETATM   22  O4  UNL     1       5.214   1.043   0.483  1.00  0.00    -0.266 OA
ENDBRANCH  19  20
ENDBRANCH  18  19
ENDBRANCH  14  18
BRANCH   9  23
HETATM   23  O2  UNL     1      -3.350   2.107  -1.512  1.00  0.00    -0.391 OA
ATOM     24  H2  UNL     1      -2.918   2.921  -1.742  1.00  0.00     0.210 HD
ENDBRANCH   9  23
TORSDOF 4
