REMARK  9 active torsions:
REMARK  status: ('A' for Active; 'I' for Inactive)
REMARK    1  A    between atoms: C4_4  and  O1_5 
REMARK    2  A    between atoms: C6_8  and  O2_9 
REMARK    3  A    between atoms: C7_11  and  O3_12 
REMARK    4  A    between atoms: C10_16  and  O4_17 
REMARK    5  A    between atoms: C11_19  and  C12_20 
REMARK    6  A    between atoms: C13_21  and  C14_22 
REMARK    7  A    between atoms: C14_22  and  C15_23 
REMARK    8  A    between atoms: C15_23  and  S1_24 
REMARK    9  A    between atoms: S1_24  and  C16_25 
ROOT
HETATM    1  C1  UNL     1      -4.741   2.480  -0.497  1.00  0.00     0.012 C 
HETATM    2  C2  UNL     1      -3.578   1.906   0.278  1.00  0.00     0.013 C 
HETATM    3  C3  UNL     1      -4.001   0.980   1.368  1.00  0.00     0.039 C 
HETATM    4  C4  UNL     1      -2.717   0.177   1.618  1.00  0.00     0.133 C 
HETATM    5  C5  UNL     1      -2.314  -0.129   0.182  1.00  0.00     0.047 C 
HETATM    6  C6  UNL     1      -2.664   1.081  -0.604  1.00  0.00     0.136 C 
HETATM    7  C7  UNL     1      -3.055  -1.372  -0.220  1.00  0.00     0.138 C 
HETATM    8  C8  UNL     1      -2.085  -2.457   0.264  1.00  0.00     0.041 C 
HETATM    9  C9  UNL     1      -2.465  -3.808  -0.267  1.00  0.00     0.015 C 
HETATM   10  C10 UNL     1      -0.794  -1.935  -0.315  1.00  0.00     0.133 C 
HETATM   11  C11 UNL     1      -0.844  -0.473   0.172  1.00  0.00     0.053 C 
ENDROOT
BRANCH  11  12
HETATM   12  C12 UNL     1      -0.049   0.360  -0.716  1.00  0.00    -0.022 C 
HETATM   13  C13 UNL     1       0.995   1.090  -0.404  1.00  0.00    -0.029 C 
BRANCH  13  14
HETATM   14  C14 UNL     1       1.585   1.218   0.938  1.00  0.00     0.037 C 
BRANCH  14  15
HETATM   15  C15 UNL     1       3.036   0.743   0.906  1.00  0.00     0.086 C 
BRANCH  15  16
HETATM   16  S1  UNL     1       4.014   1.696  -0.224  1.00  0.00    -0.093 SA
BRANCH  16  17
HETATM   17  C16 UNL     1       5.726   1.241  -0.317  1.00  0.00     0.145 A 
HETATM   18  N1  UNL     1       6.601   1.884  -1.151  1.00  0.00    -0.345 N 
HETATM   19  C17 UNL     1       7.799   1.313  -0.986  1.00  0.00     0.107 A 
ATOM     20  H1  UNL     1       6.380   2.655  -1.781  1.00  0.00     0.167 HD
HETATM   21  C18 UNL     1       7.727   0.304  -0.056  1.00  0.00     0.109 A 
HETATM   22  N2  UNL     1       6.413   0.296   0.335  1.00  0.00    -0.341 N 
HETATM   23  C19 UNL     1       5.850  -0.604   1.315  1.00  0.00     0.158 C 
ENDBRANCH  16  17
ENDBRANCH  15  16
ENDBRANCH  14  15
ENDBRANCH  13  14
ENDBRANCH  11  12
BRANCH  10  24
HETATM   24  O4  UNL     1      -0.827  -1.865  -1.704  1.00  0.00    -0.394 OA
ATOM     25  H4  UNL     1      -0.014  -1.536  -2.069  1.00  0.00     0.210 HD
ENDBRANCH  10  24
BRANCH   4  26
HETATM   26  O1  UNL     1      -1.787   0.924   2.296  1.00  0.00    -0.395 OA
ATOM     27  H1  UNL     1      -0.992   0.427   2.451  1.00  0.00     0.210 HD
ENDBRANCH   4  26
BRANCH   6  28
HETATM   28  O2  UNL     1      -3.230   0.832  -1.837  1.00  0.00    -0.394 OA
ATOM     29  H2  UNL     1      -2.657   0.315  -2.390  1.00  0.00     0.210 HD
ENDBRANCH   6  28
BRANCH   7  30
HETATM   30  O3  UNL     1      -3.181  -1.534  -1.585  1.00  0.00    -0.394 OA
ATOM     31  H3  UNL     1      -3.650  -2.320  -1.839  1.00  0.00     0.210 HD
ENDBRANCH   7  30
TORSDOF 9
