REMARK  5 active torsions:
REMARK  status: ('A' for Active; 'I' for Inactive)
REMARK    1  A    between atoms: C1_2  and  C2_4 
REMARK    2  A    between atoms: C2_4  and  N2_5 
REMARK    3  A    between atoms: C4_8  and  C5_9 
REMARK    4  A    between atoms: C6_10  and  C7_11 
REMARK       I    between atoms: C7_11  and  N4_13 
REMARK    5  A    between atoms: N4_13  and  N5_15 
REMARK       I    between atoms: N5_15  and  C8_16 
REMARK       I    between atoms: C8_16  and  N6_17 
REMARK       I    between atoms: C8_16  and  N7_21 
ROOT
HETATM    1  C5  UNL     1      -0.099   0.069  -0.210  1.00  0.00    -0.048 C 
HETATM    2  C6  UNL     1      -1.145   0.171   0.380  1.00  0.00     0.002 C 
ENDROOT
BRANCH   1   3
HETATM    3  C4  UNL     1       1.132  -0.074  -0.920  1.00  0.00     0.127 A 
HETATM    4  C3  UNL     1       2.300   0.282  -0.284  1.00  0.00     0.147 A 
HETATM    5  N2  UNL     1       3.501   0.159  -0.931  1.00  0.00    -0.278 N 
HETATM    6  N3  UNL     1       2.357   0.787   1.043  1.00  0.00    -0.081 NA
HETATM    7  C10 UNL     1       3.529  -0.311  -2.190  1.00  0.00     0.331 A 
HETATM    8  N8  UNL     1       2.398  -0.674  -2.854  1.00  0.00    -0.274 N 
HETATM    9  O4  UNL     1       4.614  -0.446  -2.837  1.00  0.00    -0.246 OA
HETATM   10  C9  UNL     1       1.221  -0.550  -2.212  1.00  0.00     0.271 A 
ATOM     11  H8  UNL     1       2.441  -1.029  -3.809  1.00  0.00     0.173 HD
HETATM   12  O3  UNL     1       0.179  -0.888  -2.834  1.00  0.00    -0.266 OA
BRANCH   5  13
HETATM   13  C2  UNL     1       4.726   0.529  -0.270  1.00  0.00     0.234 C 
BRANCH  13  14
HETATM   14  C1  UNL     1       5.315  -0.617   0.463  1.00  0.00     0.249 C 
HETATM   15  N1  UNL     1       6.528  -0.498   1.189  1.00  0.00    -0.061 NA
HETATM   16  O1  UNL     1       4.737  -1.724   0.448  1.00  0.00    -0.275 OA
ENDBRANCH  13  14
ENDBRANCH   5  13
ENDBRANCH   1   3
BRANCH   2  17
HETATM   17  C7  UNL     1      -2.389   0.269   1.091  1.00  0.00     0.312 C 
HETATM   18  O2  UNL     1      -2.363  -0.055   2.305  1.00  0.00    -0.257 OA
HETATM   19  N4  UNL     1      -3.597   0.695   0.512  1.00  0.00    -0.259 N 
ATOM     20  H4  UNL     1      -3.620   0.957  -0.474  1.00  0.00     0.186 HD
BRANCH  19  21
HETATM   21  N5  UNL     1      -4.754   0.763   1.264  1.00  0.00    -0.077 NA
HETATM   22  C8  UNL     1      -5.784  -0.110   0.734  1.00  0.00     0.490 C 
HETATM   23  N6  UNL     1      -6.071   0.325  -0.622  1.00  0.00    -0.035 N 
HETATM   24  N7  UNL     1      -6.978  -0.089   1.545  1.00  0.00    -0.035 N 
ATOM     25  H63 UNL     1      -6.319   1.313  -0.678  1.00  0.00     0.278 HD
ATOM     26  H62 UNL     1      -5.240   0.363  -1.212  1.00  0.00     0.278 HD
ATOM     27  H61 UNL     1      -6.795  -0.289  -0.995  1.00  0.00     0.278 HD
ATOM     28  H73 UNL     1      -6.769  -0.311   2.518  1.00  0.00     0.278 HD
ATOM     29  H72 UNL     1      -7.326   0.862   1.668  1.00  0.00     0.278 HD
ATOM     30  H71 UNL     1      -7.702  -0.703   1.172  1.00  0.00     0.278 HD
ENDBRANCH  19  21
ENDBRANCH   2  17
TORSDOF 5
