REMARK  6 active torsions:
REMARK  status: ('A' for Active; 'I' for Inactive)
REMARK    1  A    between atoms: C2_2  and  N1_3 
REMARK       I    between atoms: N1_3  and  C3_5 
REMARK       I    between atoms: C3_5  and  N2_7 
REMARK       I    between atoms: N2_7  and  C4_9 
REMARK    2  A    between atoms: C4_9  and  C5_11 
REMARK    3  A    between atoms: C5_11  and  S1_12 
REMARK    4  A    between atoms: S1_12  and  C6_13 
REMARK    5  A    between atoms: C6_13  and  C7_14 
REMARK    6  A    between atoms: C14_31  and  N8_32 
ROOT
HETATM    1  C7  UNL     1      -0.449  -1.143   0.650  1.00  0.00     0.121 A 
HETATM    2  N3  UNL     1      -1.607  -1.599   1.158  1.00  0.00    -0.177 N 
ATOM      3  H3  UNL     1      -1.715  -2.341   1.849  1.00  0.00     0.185 HD
HETATM    4  C8  UNL     1      -2.597  -0.892   0.583  1.00  0.00     0.703 A 
HETATM    5  N4  UNL     1      -2.039  -0.023  -0.259  1.00  0.00    -0.103 N 
HETATM    6  N5  UNL     1      -0.705  -0.174  -0.221  1.00  0.00    -0.270 N 
ATOM      7  H5  UNL     1      -0.019   0.355  -0.759  1.00  0.00     0.189 HD
HETATM    8  C9  UNL     1      -2.557   0.994  -1.161  1.00  0.00     0.145 C 
HETATM    9  C10 UNL     1      -3.259   0.236  -2.293  1.00  0.00     0.051 C 
HETATM   10  C11 UNL     1      -1.439   1.773  -1.802  1.00  0.00     0.051 C 
HETATM   11  C12 UNL     1      -3.511   1.923  -0.509  1.00  0.00     0.253 C 
HETATM   12  O3  UNL     1      -3.096   3.124  -0.427  1.00  0.00    -0.270 OA
HETATM   13  N6  UNL     1      -4.822   1.834   0.075  1.00  0.00    -0.307 N 
ATOM     14  H6  UNL     1      -5.328   2.719   0.102  1.00  0.00     0.170 HD
HETATM   15  C13 UNL     1      -5.547   0.728   0.626  1.00  0.00     0.170 A 
HETATM   16  N7  UNL     1      -6.834   1.100   0.759  1.00  0.00    -0.172 N 
ATOM     17  H7  UNL     1      -7.112   2.040   0.477  1.00  0.00     0.186 HD
HETATM   18  C14 UNL     1      -7.766   0.258   1.257  1.00  0.00     0.692 A 
HETATM   19  N9  UNL     1      -7.384  -0.977   1.625  1.00  0.00    -0.131 N 
ATOM     20  H9  UNL     1      -8.081  -1.619   2.002  1.00  0.00     0.205 HD
HETATM   21  N10 UNL     1      -6.108  -1.391   1.510  1.00  0.00    -0.268 N 
ATOM     22  H10 UNL     1      -5.846  -2.334   1.797  1.00  0.00     0.189 HD
HETATM   23  C15 UNL     1      -5.186  -0.555   1.016  1.00  0.00     0.181 A 
HETATM   24  N11 UNL     1      -3.936  -1.233   1.003  1.00  0.00    -0.170 N 
ATOM     25  H11 UNL     1      -4.000  -2.180   1.377  1.00  0.00     0.186 HD
ENDROOT
BRANCH   1  26
HETATM   26  C6  UNL     1       0.929  -1.607   0.970  1.00  0.00     0.152 C 
BRANCH  26  27
HETATM   27  S1  UNL     1       1.576  -0.657   2.353  1.00  0.00    -0.152 SA
BRANCH  27  28
HETATM   28  C5  UNL     1       3.261  -1.211   2.720  1.00  0.00     0.177 C 
BRANCH  28  29
HETATM   29  C4  UNL     1       4.190  -0.871   1.581  1.00  0.00     0.234 C 
HETATM   30  N2  UNL     1       5.532  -1.209   1.676  1.00  0.00    -0.279 N 
HETATM   31  C3  UNL     1       6.514  -0.964   0.719  1.00  0.00     0.322 C 
ATOM     32  H2  UNL     1       5.828  -1.683   2.529  1.00  0.00     0.173 HD
HETATM   33  N1  UNL     1       6.295  -0.330  -0.510  1.00  0.00    -0.343 N 
HETATM   34  O1  UNL     1       7.705  -1.364   1.021  1.00  0.00    -0.247 OA
ATOM     35  H1  UNL     1       5.361  -0.008  -0.762  1.00  0.00     0.164 HD
HETATM   36  O2  UNL     1       3.677  -0.301   0.618  1.00  0.00    -0.272 OA
BRANCH  33  37
HETATM   37  C2  UNL     1       7.427  -0.131  -1.440  1.00  0.00     0.120 C 
HETATM   38  C1  UNL     1       8.454   0.716  -0.730  1.00  0.00     0.026 C 
ENDBRANCH  33  37
ENDBRANCH  28  29
ENDBRANCH  27  28
ENDBRANCH  26  27
ENDBRANCH   1  26
BRANCH  18  39
HETATM   39  N8  UNL     1      -9.000   0.597   1.391  1.00  0.00    -0.233 N 
ATOM     40  H82 UNL     1      -9.290   1.534   1.112  1.00  0.00     0.174 HD
ATOM     41  H81 UNL     1      -9.704  -0.039   1.767  1.00  0.00     0.174 HD
ENDBRANCH  18  39
TORSDOF 6
