REMARK  6 active torsions:
REMARK  status: ('A' for Active; 'I' for Inactive)
REMARK    1  A    between atoms: N1_1  and  C1_5 
REMARK    2  A    between atoms: C1_5  and  C2_6 
REMARK    3  A    between atoms: C2_6  and  N2_7 
REMARK    4  A    between atoms: C6_11  and  O1_12 
REMARK    5  A    between atoms: C7_14  and  O2_15 
REMARK    6  A    between atoms: C8_17  and  O3_18 
ROOT
HETATM    1  N2  UNL     1       1.876  -0.694  -0.757  1.00  0.00    -0.247 NA
HETATM    2  C3  UNL     1       1.007   0.110   0.056  1.00  0.00     0.109 C 
HETATM    3  C4  UNL     1      -0.446  -0.048  -0.304  1.00  0.00     0.019 C 
HETATM    4  C5  UNL     1      -1.121   1.303  -0.405  1.00  0.00     0.041 C 
HETATM    5  C6  UNL     1      -2.446   1.356   0.301  1.00  0.00     0.149 C 
HETATM    6  C7  UNL     1      -3.299   0.135   0.061  1.00  0.00     0.176 C 
HETATM    7  C8  UNL     1      -2.583  -1.141   0.374  1.00  0.00     0.164 C 
HETATM    8  C9  UNL     1      -1.130  -0.976   0.661  1.00  0.00     0.096 C 
HETATM    9  S1  UNL     1      -0.322  -2.609   0.435  1.00  0.00    -0.073 SA
HETATM   10  S2  UNL     1       1.175  -2.309  -1.055  1.00  0.00    -0.008 SA
ENDROOT
BRANCH   1  11
HETATM   11  C2  UNL     1       3.175  -0.909  -0.207  1.00  0.00     0.130 C 
BRANCH  11  12
HETATM   12  C1  UNL     1       4.024   0.340  -0.152  1.00  0.00     0.245 C 
BRANCH  12  13
HETATM   13  N1  UNL     1       5.318   0.012   0.420  1.00  0.00    -0.078 N 
ATOM     14  H13 UNL     1       5.236  -0.441   1.330  1.00  0.00     0.274 HD
ATOM     15  H12 UNL     1       5.780  -0.749  -0.078  1.00  0.00     0.274 HD
ATOM     16  H11 UNL     1       5.891   0.855   0.457  1.00  0.00     0.274 HD
ENDBRANCH  12  13
ENDBRANCH  11  12
ENDBRANCH   1  11
BRANCH   5  17
HETATM   17  O1  UNL     1      -3.136   2.467  -0.231  1.00  0.00    -0.393 OA
ATOM     18  H1  UNL     1      -3.974   2.501   0.215  1.00  0.00     0.210 HD
ENDBRANCH   5  17
BRANCH   7  19
HETATM   19  O3  UNL     1      -3.161  -1.739   1.518  1.00  0.00    -0.392 OA
ATOM     20  H3  UNL     1      -2.706  -2.549   1.717  1.00  0.00     0.210 HD
ENDBRANCH   7  19
BRANCH   6  21
HETATM   21  O2  UNL     1      -3.758   0.154  -1.275  1.00  0.00    -0.390 OA
ATOM     22  H2  UNL     1      -4.295  -0.615  -1.426  1.00  0.00     0.210 HD
ENDBRANCH   6  21
TORSDOF 6
