REMARK  4 active torsions:
REMARK  status: ('A' for Active; 'I' for Inactive)
REMARK    1  A    between atoms: C3_3  and  C5_5 
REMARK       I    between atoms: C5_5  and  N1_7 
REMARK    2  A    between atoms: N1_7  and  N2_9 
REMARK    3  A    between atoms: C6_11  and  C7_12 
REMARK    4  A    between atoms: C10_16  and  O2_17 
ROOT
HETATM    1  N2  UNL     1       0.263   0.301   0.704  1.00  0.00    -0.308 N 
ATOM      2  H2  UNL     1       0.478   1.205   1.126  1.00  0.00     0.186 HD
HETATM    3  C6  UNL     1       1.217  -0.366   0.175  1.00  0.00     0.118 C 
ENDROOT
BRANCH   3   4
HETATM    4  C7  UNL     1       2.564   0.195   0.199  1.00  0.00    -0.017 A 
HETATM    5  C8  UNL     1       2.821   1.415   0.776  1.00  0.00     0.034 A 
HETATM    6  C9  UNL     1       4.087   1.972   0.814  1.00  0.00     0.046 A 
HETATM    7 BR1  UNL     1       4.400   3.674   1.627  1.00  0.00    -0.048 Br
HETATM    8  C10 UNL     1       5.119   1.256   0.245  1.00  0.00     0.100 A 
HETATM    9  C11 UNL     1       4.876   0.016  -0.344  1.00  0.00     0.046 A 
HETATM   10 BR2  UNL     1       6.339  -0.948  -1.126  1.00  0.00    -0.048 Br
HETATM   11  C12 UNL     1       3.591  -0.523  -0.370  1.00  0.00     0.034 A 
BRANCH   8  12
HETATM   12  O2  UNL     1       6.415   1.744   0.242  1.00  0.00    -0.358 OA
ATOM     13  H2  UNL     1       7.126   1.251  -0.150  1.00  0.00     0.217 HD
ENDBRANCH   8  12
ENDBRANCH   3   4
BRANCH   1  14
HETATM   14  N1  UNL     1      -1.057  -0.148   0.732  1.00  0.00    -0.266 N 
HETATM   15  C5  UNL     1      -1.847  -0.045  -0.408  1.00  0.00     0.265 C 
HETATM   16  O1  UNL     1      -1.379   0.447  -1.457  1.00  0.00    -0.266 OA
ATOM     17  H1  UNL     1      -1.442  -0.551   1.586  1.00  0.00     0.190 HD
BRANCH  15  18
HETATM   18  C3  UNL     1      -3.222  -0.503  -0.407  1.00  0.00     0.003 C 
HETATM   19  C2  UNL     1      -3.796  -1.028   0.632  1.00  0.00    -0.019 C 
HETATM   20  C1  UNL     1      -5.216  -1.473   0.543  1.00  0.00     0.036 C 
HETATM   21  C4  UNL     1      -4.057  -0.377  -1.666  1.00  0.00     0.054 C 
ENDBRANCH  15  18
ENDBRANCH   1  14
TORSDOF 4
