REMARK  5 active torsions:
REMARK  status: ('A' for Active; 'I' for Inactive)
REMARK    1  A    between atoms: O1_1  and  C1_3 
REMARK    2  A    between atoms: C3_8  and  O2_9 
REMARK    3  A    between atoms: O2_9  and  C4_10 
REMARK    4  A    between atoms: C4_10  and  C5_11 
REMARK    5  A    between atoms: C8_20  and  O4_21 
ROOT
HETATM    1  C1  UNL     1      -3.511  -0.011  -0.730  1.00  0.00     0.176 C 
HETATM    2  C2  UNL     1      -3.098  -1.141   0.219  1.00  0.00     0.269 C 
HETATM    3  N1  UNL     1      -1.663  -1.322  -0.058  1.00  0.00    -0.044 N 
ATOM      4  H11 UNL     1      -1.445  -1.928  -0.849  1.00  0.00     0.280 HD
ATOM      5  H12 UNL     1      -1.154  -1.879   0.628  1.00  0.00     0.280 HD
HETATM    6  C3  UNL     1      -1.228   0.029  -0.189  1.00  0.00     0.352 C 
HETATM    7  C8  UNL     1      -2.203   0.635  -1.136  1.00  0.00     0.205 C 
ENDROOT
BRANCH   6   8
HETATM    8  O2  UNL     1       0.093   0.181  -0.543  1.00  0.00    -0.353 OA
BRANCH   8   9
HETATM    9  C4  UNL     1       0.854   0.871   0.377  1.00  0.00     0.232 C 
BRANCH   9  10
HETATM   10  C5  UNL     1       2.271   0.944  -0.169  1.00  0.00     0.347 C 
HETATM   11  N2  UNL     1       2.854  -0.343  -0.378  1.00  0.00    -0.030 N 
HETATM   12  C6  UNL     1       3.633  -0.679   0.776  1.00  0.00     0.300 C 
ATOM     13  H22 UNL     1       2.160  -1.056  -0.604  1.00  0.00     0.281 HD
ATOM     14  H21 UNL     1       3.392  -0.394  -1.243  1.00  0.00     0.281 HD
HETATM   15  S1  UNL     1       5.412  -0.273   0.631  1.00  0.00    -0.058 SA
HETATM   16  C7  UNL     1       3.440   0.532   1.693  1.00  0.00     0.238 C 
HETATM   17  S2  UNL     1       5.085   0.851   2.399  1.00  0.00    -0.060 SA
HETATM   18  O3  UNL     1       3.058   1.532   0.833  1.00  0.00    -0.338 OA
ENDBRANCH   9  10
ENDBRANCH   8   9
ENDBRANCH   6   8
BRANCH   7  19
HETATM   19  O4  UNL     1      -1.968   0.337  -2.465  1.00  0.00    -0.389 OA
ATOM     20  H4  UNL     1      -1.147   0.742  -2.720  1.00  0.00     0.210 HD
ENDBRANCH   7  19
BRANCH   1  21
HETATM   21  O1  UNL     1      -4.170  -0.528  -1.844  1.00  0.00    -0.391 OA
ATOM     22  H1  UNL     1      -4.426   0.173  -2.432  1.00  0.00     0.210 HD
ENDBRANCH   1  21
TORSDOF 5
