REMARK  4 active torsions:
REMARK  status: ('A' for Active; 'I' for Inactive)
REMARK    1  A    between atoms: C2_2  and  N1_3 
REMARK    2  A    between atoms: C5_8  and  N3_9 
REMARK    3  A    between atoms: N3_9  and  C6_11 
REMARK    4  A    between atoms: C6_11  and  C7_12 
ROOT
HETATM    1  N3  UNL     1      -0.600   0.229   0.295  1.00  0.00    -0.226 N 
ATOM      2  H3  UNL     1      -0.556  -0.694   0.726  1.00  0.00     0.177 HD
ENDROOT
BRANCH   1   3
HETATM    3  C5  UNL     1      -1.780   0.625  -0.396  1.00  0.00     0.672 C 
HETATM    4  N1  UNL     1      -3.082   0.089  -0.130  1.00  0.00    -0.217 N 
HETATM    5  C3  UNL     1      -3.762   0.173  -1.435  1.00  0.00     0.161 C 
HETATM    6  C4  UNL     1      -3.257   1.576  -1.844  1.00  0.00     0.158 C 
HETATM    7  N2  UNL     1      -1.867   1.484  -1.385  1.00  0.00    -0.225 N 
ATOM      8  H2  UNL     1      -1.085   2.009  -1.776  1.00  0.00     0.177 HD
BRANCH   4   9
HETATM    9  C2  UNL     1      -3.572  -0.415   1.125  1.00  0.00     0.137 C 
HETATM   10  C1  UNL     1      -3.730  -1.901   1.098  1.00  0.00     0.027 C 
ENDBRANCH   4   9
ENDBRANCH   1   3
BRANCH   1  11
HETATM   11  C6  UNL     1       0.538   1.116   0.395  1.00  0.00     0.142 C 
BRANCH  11  12
HETATM   12  C7  UNL     1       1.768   0.309   0.910  1.00  0.00     0.004 C 
HETATM   13  C8  UNL     1       1.948  -0.766  -0.142  1.00  0.00     0.006 C 
HETATM   14  C9  UNL     1       3.291  -1.388  -0.213  1.00  0.00     0.000 C 
HETATM   15  C10 UNL     1       4.345  -0.745   0.610  1.00  0.00     0.000 C 
HETATM   16  C11 UNL     1       4.252   0.763   0.641  1.00  0.00     0.000 C 
HETATM   17  C12 UNL     1       2.887   1.274   1.016  1.00  0.00     0.006 C 
ENDBRANCH  11  12
ENDBRANCH   1  11
TORSDOF 4
