REMARK  2 active torsions:
REMARK  status: ('A' for Active; 'I' for Inactive)
REMARK    1  A    between atoms: C2_2  and  S1_3 
REMARK    2  A    between atoms: S1_3  and  C3_4 
ROOT
HETATM    1  C3  UNL     1      -0.313  -0.329  -0.766  1.00  0.00     0.279 C 
HETATM    2  C4  UNL     1      -0.786   1.089  -0.882  1.00  0.00     0.113 C 
HETATM    3  C5  UNL     1      -2.107   0.374  -0.872  1.00  0.00     0.132 C 
HETATM    4  C6  UNL     1      -2.515   0.195   0.568  1.00  0.00     0.060 C 
HETATM    5  C7  UNL     1      -1.405  -0.414   1.382  1.00  0.00     0.239 C 
HETATM    6  N1  UNL     1      -0.287  -0.836   0.575  1.00  0.00    -0.033 N 
ATOM      7  H11 UNL     1       0.594  -0.599   1.031  1.00  0.00     0.281 HD
ATOM      8  H12 UNL     1      -0.211  -1.853   0.572  1.00  0.00     0.281 HD
HETATM    9  O1  UNL     1      -1.467  -0.742  -1.396  1.00  0.00    -0.341 OA
ENDROOT
BRANCH   1  10
HETATM   10  S1  UNL     1       1.225  -0.567  -1.661  1.00  0.00    -0.102 SA
BRANCH  10  11
HETATM   11  C2  UNL     1       2.598  -0.791  -0.535  1.00  0.00     0.074 C 
HETATM   12  C1  UNL     1       3.000   0.453   0.203  1.00  0.00     0.016 C 
ENDBRANCH  10  11
ENDBRANCH   1  10
TORSDOF 2
