REMARK  6 active torsions:
REMARK  status: ('A' for Active; 'I' for Inactive)
REMARK    1  A    between atoms: N1_2  and  O1_3 
REMARK       I    between atoms: N1_2  and  C2_5 
REMARK    2  A    between atoms: C2_5  and  C3_7 
REMARK    3  A    between atoms: C3_7  and  C4_8 
REMARK    4  A    between atoms: C4_8  and  N2_9 
REMARK    5  A    between atoms: C5_10  and  O3_11 
REMARK    6  A    between atoms: C8_15  and  O4_16 
ROOT
HETATM    1  N2  UNL     1       0.903  -0.691   0.653  1.00  0.00    -0.307 N 
HETATM    2  C5  UNL     1       0.163   0.115   1.457  1.00  0.00     0.151 A 
HETATM    3  C6  UNL     1      -1.112   0.176   0.935  1.00  0.00     0.004 A 
HETATM    4  C7  UNL     1      -1.113  -0.604  -0.183  1.00  0.00     0.008 A 
HETATM    5  C8  UNL     1       0.121  -1.132  -0.353  1.00  0.00     0.151 A 
HETATM    6  C9  UNL     1      -2.322  -0.817  -1.064  1.00  0.00     0.024 C 
HETATM    7  C10 UNL     1      -3.375  -1.367  -0.104  1.00  0.00     0.014 C 
HETATM    8  C11 UNL     1      -4.144  -0.332   0.610  1.00  0.00    -0.009 C 
HETATM    9  C12 UNL     1      -4.901   0.464  -0.478  1.00  0.00     0.010 C 
HETATM   10  C13 UNL     1      -3.595   1.288  -0.526  1.00  0.00    -0.009 C 
HETATM   11  C14 UNL     1      -2.711   0.602  -1.486  1.00  0.00     0.014 C 
HETATM   12  C15 UNL     1      -3.474   0.957   0.902  1.00  0.00    -0.002 C 
HETATM   13  C16 UNL     1      -2.177   0.963   1.558  1.00  0.00     0.049 C 
ENDROOT
BRANCH   1  14
HETATM   14  C4  UNL     1       2.294  -1.036   0.820  1.00  0.00     0.142 C 
BRANCH  14  15
HETATM   15  C3  UNL     1       3.224  -0.092   0.132  1.00  0.00     0.125 C 
BRANCH  15  16
HETATM   16  C2  UNL     1       4.622  -0.531   0.363  1.00  0.00     0.244 C 
HETATM   17  N1  UNL     1       5.740   0.154  -0.158  1.00  0.00    -0.233 N 
HETATM   18  C1  UNL     1       5.586   1.351  -0.967  1.00  0.00     0.188 C 
HETATM   19  O2  UNL     1       4.814  -1.560   1.055  1.00  0.00    -0.271 OA
BRANCH  17  20
HETATM   20  O1  UNL     1       6.977  -0.283   0.080  1.00  0.00    -0.285 OA
ATOM     21  H1  UNL     1       7.078  -1.066   0.609  1.00  0.00     0.245 HD
ENDBRANCH  17  20
ENDBRANCH  15  16
ENDBRANCH  14  15
ENDBRANCH   1  14
BRANCH   2  22
HETATM   22  O3  UNL     1       0.623   0.758   2.597  1.00  0.00    -0.345 OA
ATOM     23  H3  UNL     1       0.105   1.322   3.160  1.00  0.00     0.219 HD
ENDBRANCH   2  22
BRANCH   5  24
HETATM   24  O4  UNL     1       0.505  -1.975  -1.377  1.00  0.00    -0.345 OA
ATOM     25  H4  UNL     1      -0.046  -2.286  -2.086  1.00  0.00     0.219 HD
ENDBRANCH   5  24
TORSDOF 6
