REMARK  5 active torsions:
REMARK  status: ('A' for Active; 'I' for Inactive)
REMARK    1  A    between atoms: C2_3  and  C3_4 
REMARK    2  A    between atoms: C3_4  and  N2_5 
REMARK    3  A    between atoms: C3_4  and  C4_11 
REMARK    4  A    between atoms: N2_5  and  S1_7 
REMARK       I    between atoms: C4_11  and  N3_13 
REMARK    5  A    between atoms: N3_13  and  C5_15 
ROOT
HETATM    1  N1  UNL     1       1.615   2.745   2.650  1.00  0.00    -0.197 NA
HETATM    2  C1  UNL     1       2.322   1.818   2.457  1.00  0.00     0.061 C 
HETATM    3  C2  UNL     1       3.211   0.707   2.263  1.00  0.00     0.159 C 
ENDROOT
BRANCH   3   4
HETATM    4  C3  UNL     1       3.092   0.075   0.923  1.00  0.00     0.200 C 
BRANCH   4   5
HETATM    5  N2  UNL     1       4.065  -1.036   0.822  1.00  0.00    -0.286 N 
ATOM      6  H2  UNL     1       4.027  -1.859   1.423  1.00  0.00     0.175 HD
BRANCH   5   7
HETATM    7  S1  UNL     1       5.238  -0.830  -0.365  1.00  0.00     0.205 S 
HETATM    8  O1  UNL     1       6.493  -1.582   0.064  1.00  0.00    -0.578 OA
HETATM    9  O2  UNL     1       5.627   0.595  -0.512  1.00  0.00    -0.578 OA
HETATM   10  O3  UNL     1       4.804  -1.460  -1.858  1.00  0.00    -0.578 OA
ENDBRANCH   5   7
ENDBRANCH   4   5
BRANCH   4  11
HETATM   11  C4  UNL     1       1.756  -0.444   0.566  1.00  0.00     0.242 C 
HETATM   12  O4  UNL     1       1.658  -1.720   0.438  1.00  0.00    -0.271 OA
HETATM   13  N3  UNL     1       0.579   0.271   0.342  1.00  0.00    -0.354 N 
ATOM     14  H3  UNL     1       0.590   1.288   0.418  1.00  0.00     0.162 HD
BRANCH  13  15
HETATM   15  C5  UNL     1      -0.657  -0.400   0.004  1.00  0.00     0.092 C 
HETATM   16  C6  UNL     1      -1.713  -0.198   1.073  1.00  0.00     0.009 C 
HETATM   17  C7  UNL     1      -2.293   1.176   1.064  1.00  0.00     0.011 C 
HETATM   18  C11 UNL     1      -2.794  -1.237   0.801  1.00  0.00     0.011 C 
HETATM   19  C8  UNL     1      -2.957   1.411  -0.269  1.00  0.00    -0.013 C 
HETATM   20  C9  UNL     1      -4.016   0.387  -0.533  1.00  0.00     0.009 C 
HETATM   21  C14 UNL     1      -1.864   1.361  -1.328  1.00  0.00     0.011 C 
HETATM   22  C10 UNL     1      -3.360  -0.982  -0.576  1.00  0.00    -0.013 C 
HETATM   23  C12 UNL     1      -2.327  -1.005  -1.656  1.00  0.00     0.011 C 
HETATM   24  C13 UNL     1      -1.214  -0.001  -1.333  1.00  0.00     0.009 C 
ENDBRANCH  13  15
ENDBRANCH   4  11
ENDBRANCH   3   4
TORSDOF 5
