REMARK  7 active torsions:
REMARK  status: ('A' for Active; 'I' for Inactive)
REMARK    1  A    between atoms: N1_1  and  C1_5 
REMARK    2  A    between atoms: C1_5  and  N2_6 
REMARK    3  A    between atoms: C1_5  and  C2_10 
REMARK    4  A    between atoms: C2_10  and  N3_11 
REMARK    5  A    between atoms: C2_10  and  C3_15 
REMARK    6  A    between atoms: C6_18  and  O1_19 
REMARK    7  A    between atoms: N4_21  and  N5_22 
ROOT
HETATM    1  C2  UNL     1      -0.755   0.395   0.261  1.00  0.00     0.292 C 
ENDROOT
BRANCH   1   2
HETATM    2  C1  UNL     1      -1.997  -0.226  -0.269  1.00  0.00     0.413 C 
BRANCH   2   3
HETATM    3  N1  UNL     1      -3.194   0.495   0.128  1.00  0.00    -0.048 N 
ATOM      4  H13 UNL     1      -3.226   1.454  -0.219  1.00  0.00     0.276 HD
ATOM      5  H12 UNL     1      -4.040   0.167  -0.338  1.00  0.00     0.276 HD
ATOM      6  H11 UNL     1      -3.238   0.428   1.145  1.00  0.00     0.276 HD
ENDBRANCH   2   3
BRANCH   2   7
HETATM    7  N2  UNL     1      -1.934  -0.130  -1.735  1.00  0.00    -0.048 N 
ATOM      8  H23 UNL     1      -2.780  -0.458  -2.201  1.00  0.00     0.276 HD
ATOM      9  H22 UNL     1      -1.966   0.829  -2.082  1.00  0.00     0.276 HD
ATOM     10  H21 UNL     1      -1.094  -0.636  -2.014  1.00  0.00     0.276 HD
ENDBRANCH   2   7
ENDBRANCH   1   2
BRANCH   1  11
HETATM   11  N3  UNL     1      -0.724   0.473   1.708  1.00  0.00    -0.066 N 
ATOM     12  H33 UNL     1      -1.550   0.956   2.062  1.00  0.00     0.275 HD
ATOM     13  H32 UNL     1      -0.875  -0.446   2.123  1.00  0.00     0.275 HD
ATOM     14  H31 UNL     1       0.128   0.899   2.072  1.00  0.00     0.275 HD
ENDBRANCH   1  11
BRANCH   1  15
HETATM   15  C3  UNL     1       0.463  -0.335  -0.163  1.00  0.00     0.070 A 
HETATM   16  C4  UNL     1       0.642  -1.395  -1.020  1.00  0.00     0.034 A 
HETATM   17  C5  UNL     1       2.007  -1.691  -1.070  1.00  0.00     0.060 A 
HETATM   18  C6  UNL     1       2.631  -0.794  -0.233  1.00  0.00     0.161 A 
HETATM   19  N4  UNL     1       1.685  -0.001   0.291  1.00  0.00    -0.243 N 
BRANCH  18  20
HETATM   20  O1  UNL     1       4.016  -0.735   0.015  1.00  0.00    -0.345 OA
ATOM     21  H1  UNL     1       4.447  -0.116   0.593  1.00  0.00     0.219 HD
ENDBRANCH  18  20
BRANCH  19  22
HETATM   22  N5  UNL     1       1.980   1.033   1.194  1.00  0.00    -0.336 N 
ATOM     23  H52 UNL     1       1.260   1.636   1.593  1.00  0.00     0.177 HD
ATOM     24  H51 UNL     1       2.906   1.286   1.538  1.00  0.00     0.177 HD
ENDBRANCH  19  22
ENDBRANCH   1  15
TORSDOF 7
