REMARK  4 active torsions:
REMARK  status: ('A' for Active; 'I' for Inactive)
REMARK    1  A    between atoms: C2_2  and  C3_4 
REMARK    2  A    between atoms: C5_6  and  C6_7 
REMARK       I    between atoms: N3_15  and  C9_16 
REMARK    3  A    between atoms: C9_16  and  O3_18 
REMARK    4  A    between atoms: O3_18  and  C10_19 
ROOT
HETATM    1  C3  UNL     1      -1.923  -1.648   0.313  1.00  0.00     0.008 C 
HETATM    2  C4  UNL     1      -1.882  -0.982  -0.808  1.00  0.00     0.017 C 
HETATM    3  C5  UNL     1      -0.511  -0.582  -1.122  1.00  0.00     0.157 C 
HETATM    4  N3  UNL     1       0.225  -0.787   0.096  1.00  0.00    -0.307 N 
HETATM    5  C9  UNL     1       1.433  -0.205   0.508  1.00  0.00     0.364 C 
HETATM    6  O2  UNL     1       1.957  -0.492   1.619  1.00  0.00    -0.238 OA
HETATM    7  C13 UNL     1      -0.541  -1.749   0.859  1.00  0.00     0.123 C 
HETATM    8  C14 UNL     1      -0.079  -3.164   0.641  1.00  0.00     0.038 C 
ENDROOT
BRANCH   3   9
HETATM    9  C6  UNL     1      -0.388   0.806  -1.647  1.00  0.00     0.051 A 
HETATM   10  S1  UNL     1       0.520   1.385  -2.987  1.00  0.00     0.001 SA
HETATM   11  N1  UNL     1       0.113   3.014  -2.886  1.00  0.00    -0.269 N 
HETATM   12  N2  UNL     1      -0.680   3.054  -1.861  1.00  0.00    -0.298 N 
ATOM     13  H1  UNL     1       0.416   3.782  -3.485  1.00  0.00     0.195 HD
HETATM   14  C7  UNL     1      -0.961   1.974  -1.207  1.00  0.00     0.039 A 
ATOM     15  H2  UNL     1      -1.085   3.943  -1.568  1.00  0.00     0.187 HD
HETATM   16  C8  UNL     1      -1.880   1.963  -0.001  1.00  0.00     0.071 C 
ENDBRANCH   3   9
BRANCH   1  17
HETATM   17  C2  UNL     1      -3.105  -2.211   0.956  1.00  0.00     0.153 C 
HETATM   18  C1  UNL     1      -4.464  -2.080   0.370  1.00  0.00     0.096 C 
HETATM   19  O1  UNL     1      -3.024  -2.838   2.044  1.00  0.00    -0.293 OA
ENDBRANCH   1  17
BRANCH   5  20
HETATM   20  O3  UNL     1       2.058   0.708  -0.334  1.00  0.00    -0.299 OA
BRANCH  20  21
HETATM   21  C10 UNL     1       3.277   1.304   0.066  1.00  0.00     0.125 C 
HETATM   22  C11 UNL     1       3.033   2.811   0.092  1.00  0.00     0.040 C 
HETATM   23  C12 UNL     1       4.371   1.032  -0.968  1.00  0.00     0.040 C 
ENDBRANCH  20  21
ENDBRANCH   5  20
TORSDOF 4
