REMARK  16 active torsions:
REMARK  status: ('A' for Active; 'I' for Inactive)
REMARK    1  A    between atoms: C2_2  and  C3_3 
REMARK    2  A    between atoms: C3_3  and  C4_4 
REMARK    3  A    between atoms: C4_4  and  C5_5 
REMARK    4  A    between atoms: C5_5  and  O1_6 
REMARK    5  A    between atoms: O1_6  and  C6_7 
REMARK       I    between atoms: C6_7  and  N1_9 
REMARK    6  A    between atoms: N2_12  and  C9_13 
REMARK    7  A    between atoms: C9_13  and  O3_14 
REMARK    8  A    between atoms: C9_13  and  C10_16 
REMARK    9  A    between atoms: C10_16  and  C11_17 
REMARK   10  A    between atoms: C10_16  and  N3_22 
REMARK   11  A    between atoms: C11_17  and  C12_18 
REMARK   12  A    between atoms: C12_18  and  C13_19 
REMARK       I    between atoms: N3_22  and  C14_24 
REMARK   13  A    between atoms: C14_24  and  C15_26 
REMARK   14  A    between atoms: N5_30  and  C17_31 
REMARK   15  A    between atoms: C23_37  and  C24_38 
REMARK       I    between atoms: C24_38  and  N6_40 
REMARK   16  A    between atoms: N6_40  and  C25_42 
ROOT
HETATM    1  C25 UNL     1      -5.672  -1.748  -0.288  1.00  0.00     0.122 C 
HETATM    2  C26 UNL     1      -5.953  -1.945   1.137  1.00  0.00     0.091 C 
HETATM    3  N7  UNL     1      -6.197  -2.099   2.264  1.00  0.00    -0.195 NA
HETATM    4  C27 UNL     1      -4.769  -2.789  -0.847  1.00  0.00     0.046 C 
HETATM    5  C28 UNL     1      -5.654  -3.968  -1.180  1.00  0.00     0.004 C 
HETATM    6  C29 UNL     1      -7.074  -3.491  -1.147  1.00  0.00     0.004 C 
HETATM    7  C30 UNL     1      -6.970  -1.994  -1.025  1.00  0.00     0.046 C 
ENDROOT
BRANCH   1   8
HETATM    8  N6  UNL     1      -5.249  -0.378  -0.545  1.00  0.00    -0.334 N 
HETATM    9  C24 UNL     1      -4.127   0.203   0.067  1.00  0.00     0.272 C 
HETATM   10  O7  UNL     1      -3.498  -0.604   0.859  1.00  0.00    -0.266 OA
ATOM     11  H6  UNL     1      -5.793   0.185  -1.199  1.00  0.00     0.164 HD
BRANCH   9  12
HETATM   12  C23 UNL     1      -3.590   1.537  -0.060  1.00  0.00     0.136 A 
HETATM   13  C15 UNL     1      -2.231   1.823   0.056  1.00  0.00     0.082 A 
HETATM   14  C16 UNL     1      -2.186   3.241   0.016  1.00  0.00     0.127 A 
HETATM   15  N4  UNL     1      -3.417   3.668  -0.115  1.00  0.00    -0.308 N 
HETATM   16  N5  UNL     1      -4.290   2.668  -0.165  1.00  0.00    -0.281 N 
ATOM     17  H4  UNL     1      -3.675   4.653  -0.172  1.00  0.00     0.186 HD
BRANCH  13  18
HETATM   18  C14 UNL     1      -1.039   0.995   0.099  1.00  0.00     0.256 C 
HETATM   19  N3  UNL     1      -0.868  -0.180  -0.628  1.00  0.00    -0.345 N 
ATOM     20  H3  UNL     1      -1.639  -0.516  -1.205  1.00  0.00     0.163 HD
HETATM   21  O6  UNL     1      -0.126   1.433   0.860  1.00  0.00    -0.268 OA
BRANCH  19  22
HETATM   22  C10 UNL     1       0.385  -0.959  -0.596  1.00  0.00     0.160 C 
BRANCH  22  23
HETATM   23  C9  UNL     1       1.487  -0.009  -0.383  1.00  0.00     0.137 C 
BRANCH  23  24
HETATM   24  N2  UNL     1       2.575  -0.009   0.456  1.00  0.00    -0.361 N 
HETATM   25  C8  UNL     1       2.999  -0.960   1.431  1.00  0.00     0.144 C 
HETATM   26  C7  UNL     1       4.309  -1.587   0.986  1.00  0.00     0.148 C 
HETATM   27  N1  UNL     1       5.177  -0.700   0.293  1.00  0.00    -0.325 N 
HETATM   28  C6  UNL     1       6.424  -1.208  -0.180  1.00  0.00     0.362 C 
HETATM   29  C32 UNL     1       4.881   0.670   0.042  1.00  0.00     0.148 C 
HETATM   30  O2  UNL     1       6.763  -2.417   0.004  1.00  0.00    -0.238 OA
HETATM   31  C31 UNL     1       3.509   1.148   0.351  1.00  0.00     0.144 C 
BRANCH  28  32
HETATM   32  O1  UNL     1       7.324  -0.407  -0.863  1.00  0.00    -0.304 OA
BRANCH  32  33
HETATM   33  C5  UNL     1       8.564  -0.782  -1.367  1.00  0.00     0.180 C 
BRANCH  33  34
HETATM   34  C4  UNL     1       9.534  -1.275  -0.329  1.00  0.00     0.027 C 
BRANCH  34  35
HETATM   35  C3  UNL     1       9.813  -0.225   0.726  1.00  0.00     0.002 C 
BRANCH  35  36
HETATM   36  C2  UNL     1      10.395   1.031   0.134  1.00  0.00    -0.004 C 
HETATM   37  C1  UNL     1      11.688   0.754  -0.570  1.00  0.00     0.005 C 
ENDBRANCH  35  36
ENDBRANCH  34  35
ENDBRANCH  33  34
ENDBRANCH  32  33
ENDBRANCH  28  32
ENDBRANCH  23  24
BRANCH  23  38
HETATM   38  O3  UNL     1       1.386   1.052  -1.173  1.00  0.00    -0.348 OA
ATOM     39  H3  UNL     1       0.634   1.052  -1.753  1.00  0.00     0.219 HD
ENDBRANCH  23  38
ENDBRANCH  22  23
BRANCH  22  40
HETATM   40  C11 UNL     1       0.343  -2.187   0.177  1.00  0.00     0.044 C 
BRANCH  40  41
HETATM   41  C12 UNL     1      -0.833  -3.074  -0.259  1.00  0.00     0.116 C 
BRANCH  41  42
HETATM   42  C13 UNL     1      -0.813  -4.291   0.570  1.00  0.00     0.172 C 
HETATM   43  O4  UNL     1      -1.642  -5.200   0.359  1.00  0.00    -0.648 OA
HETATM   44  O5  UNL     1       0.109  -4.435   1.577  1.00  0.00    -0.648 OA
ENDBRANCH  41  42
ENDBRANCH  40  41
ENDBRANCH  22  40
ENDBRANCH  19  22
ENDBRANCH  13  18
BRANCH  16  45
HETATM   45  C17 UNL     1      -5.705   2.917  -0.278  1.00  0.00     0.108 C 
HETATM   46  C18 UNL     1      -6.382   2.583   1.008  1.00  0.00     0.027 C 
HETATM   47  C19 UNL     1      -6.457   3.661   2.029  1.00  0.00     0.002 C 
HETATM   48  C20 UNL     1      -7.017   4.911   1.420  1.00  0.00     0.000 C 
HETATM   49  C21 UNL     1      -5.978   5.349   0.374  1.00  0.00     0.002 C 
HETATM   50  C22 UNL     1      -5.960   4.361  -0.736  1.00  0.00     0.027 C 
ENDBRANCH  16  45
ENDBRANCH   9  12
ENDBRANCH   1   8
TORSDOF 16
