REMARK  15 active torsions:
REMARK  status: ('A' for Active; 'I' for Inactive)
REMARK    1  A    between atoms: C2_2  and  N1_3 
REMARK    2  A    between atoms: N1_3  and  C3_6 
REMARK    3  A    between atoms: C3_6  and  C4_7 
REMARK    4  A    between atoms: C4_7  and  C5_8 
REMARK    5  A    between atoms: C5_8  and  C6_9 
REMARK    6  A    between atoms: C6_9  and  C7_10 
REMARK    7  A    between atoms: C7_10  and  C8_11 
REMARK    8  A    between atoms: C7_10  and  O6_29 
REMARK    9  A    between atoms: C8_11  and  N2_12 
REMARK   10  A    between atoms: O6_29  and  C20_30 
REMARK   11  A    between atoms: C20_30  and  C21_31 
REMARK   12  A    between atoms: C22_32  and  C23_33 
REMARK   13  A    between atoms: C23_33  and  C24_34 
REMARK   14  A    between atoms: C24_34  and  C25_35 
REMARK       I    between atoms: C25_35  and  N3_37 
REMARK   15  A    between atoms: N3_37  and  C26_39 
ROOT
HETATM    1  C7  UNL     1       0.129   1.024  -0.099  1.00  0.00     0.137 C 
ENDROOT
BRANCH   1   2
HETATM    2  C6  UNL     1       0.707   2.368   0.144  1.00  0.00     0.033 C 
BRANCH   2   3
HETATM    3  C5  UNL     1       0.206   3.234   1.219  1.00  0.00     0.004 C 
BRANCH   3   4
HETATM    4  C4  UNL     1      -1.212   3.686   1.096  1.00  0.00     0.027 C 
BRANCH   4   5
HETATM    5  C3  UNL     1      -1.606   4.602   2.254  1.00  0.00     0.232 C 
BRANCH   5   6
HETATM    6  N1  UNL     1      -0.814   5.785   2.344  1.00  0.00    -0.075 N 
ATOM      7  H12 UNL     1       0.175   5.550   2.429  1.00  0.00     0.277 HD
ATOM      8  H11 UNL     1      -0.958   6.247   3.242  1.00  0.00     0.277 HD
BRANCH   6   9
HETATM    9  C2  UNL     1      -1.026   6.715   1.251  1.00  0.00     0.228 C 
HETATM   10  C1  UNL     1      -0.181   7.948   1.389  1.00  0.00     0.034 C 
ENDBRANCH   6   9
ENDBRANCH   5   6
ENDBRANCH   4   5
ENDBRANCH   3   4
ENDBRANCH   2   3
ENDBRANCH   1   2
BRANCH   1  11
HETATM   11  C8  UNL     1       0.976   0.475  -1.313  1.00  0.00     0.152 C 
BRANCH  11  12
HETATM   12  N2  UNL     1       2.371   0.396  -0.921  1.00  0.00    -0.193 NA
HETATM   13  C9  UNL     1       3.084  -0.100  -2.082  1.00  0.00     0.147 C 
HETATM   14  C10 UNL     1       4.061   0.912  -2.645  1.00  0.00     0.184 C 
HETATM   15  O1  UNL     1       5.245   0.957  -1.916  1.00  0.00    -0.388 OA
HETATM   16  C11 UNL     1       6.337   0.511  -2.695  1.00  0.00     0.193 C 
HETATM   17  C12 UNL     1       7.488   0.070  -1.819  1.00  0.00     0.193 C 
HETATM   18  O2  UNL     1       7.577  -1.329  -1.813  1.00  0.00    -0.387 OA
HETATM   19  C13 UNL     1       8.668  -1.785  -1.117  1.00  0.00     0.193 C 
HETATM   20  C14 UNL     1       8.339  -2.472   0.181  1.00  0.00     0.193 C 
HETATM   21  O3  UNL     1       7.880  -3.757   0.048  1.00  0.00    -0.387 OA
HETATM   22  C15 UNL     1       6.557  -3.894  -0.289  1.00  0.00     0.193 C 
HETATM   23  C16 UNL     1       5.683  -4.400   0.825  1.00  0.00     0.193 C 
HETATM   24  O4  UNL     1       5.201  -3.383   1.646  1.00  0.00    -0.389 OA
HETATM   25  C17 UNL     1       4.206  -2.637   1.051  1.00  0.00     0.169 C 
HETATM   26  C18 UNL     1       4.641  -1.195   1.063  1.00  0.00     0.054 C 
HETATM   27  C19 UNL     1       3.476  -0.245   0.988  1.00  0.00     0.196 C 
HETATM   28  O5  UNL     1       2.536  -0.565   0.041  1.00  0.00    -0.303 OA
ENDBRANCH  11  12
ENDBRANCH   1  11
BRANCH   1  29
HETATM   29  O6  UNL     1      -1.129   1.036  -0.571  1.00  0.00    -0.381 OA
BRANCH  29  30
HETATM   30  C20 UNL     1      -2.022   0.115   0.009  1.00  0.00     0.195 C 
BRANCH  30  31
HETATM   31  C21 UNL     1      -1.644  -1.280  -0.171  1.00  0.00    -0.005 C 
HETATM   32  C22 UNL     1      -2.377  -2.391   0.397  1.00  0.00    -0.028 C 
BRANCH  32  33
HETATM   33  C23 UNL     1      -3.770  -2.718   0.119  1.00  0.00     0.036 C 
BRANCH  33  34
HETATM   34  C24 UNL     1      -4.817  -1.722   0.503  1.00  0.00     0.106 C 
BRANCH  34  35
HETATM   35  C25 UNL     1      -6.183  -2.281   0.159  1.00  0.00     0.218 C 
HETATM   36  O7  UNL     1      -6.215  -3.407  -0.373  1.00  0.00    -0.274 OA
HETATM   37  N3  UNL     1      -7.348  -1.547   0.434  1.00  0.00    -0.356 N 
ATOM     38  H3  UNL     1      -7.270  -0.628   0.870  1.00  0.00     0.162 HD
BRANCH  37  39
HETATM   39  C26 UNL     1      -8.643  -2.065   0.114  1.00  0.00     0.084 C 
HETATM   40  C27 UNL     1      -9.523  -2.146   1.364  1.00  0.00     0.025 C 
HETATM   41  C28 UNL     1     -10.903  -2.301   0.710  1.00  0.00     0.002 C 
HETATM   42  C29 UNL     1     -10.873  -1.282  -0.426  1.00  0.00     0.002 C 
HETATM   43  C30 UNL     1      -9.421  -1.113  -0.759  1.00  0.00     0.025 C 
ENDBRANCH  37  39
ENDBRANCH  34  35
ENDBRANCH  33  34
ENDBRANCH  32  33
ENDBRANCH  30  31
ENDBRANCH  29  30
ENDBRANCH   1  29
TORSDOF 15
