REMARK  19 active torsions:
REMARK  status: ('A' for Active; 'I' for Inactive)
REMARK    1  A    between atoms: S1_2  and  C2_3 
REMARK    2  A    between atoms: C2_3  and  C3_4 
REMARK    3  A    between atoms: C3_4  and  C4_5 
REMARK    4  A    between atoms: C4_5  and  N1_6 
REMARK    5  A    between atoms: C4_5  and  C29_42 
REMARK    6  A    between atoms: N1_6  and  C5_8 
REMARK    7  A    between atoms: C5_8  and  C6_9 
REMARK    8  A    between atoms: C5_8  and  C11_16 
REMARK    9  A    between atoms: C6_9  and  O2_11 
REMARK   10  A    between atoms: O2_11  and  C7_12 
REMARK   11  A    between atoms: C11_16  and  C12_17 
REMARK   12  A    between atoms: C11_16  and  N2_21 
REMARK   13  A    between atoms: C12_17  and  C13_18 
REMARK       I    between atoms: N2_21  and  C16_23 
REMARK   14  A    between atoms: C16_23  and  C17_25 
REMARK   15  A    between atoms: C17_25  and  N3_26 
REMARK   16  A    between atoms: C17_25  and  C23_36 
REMARK   17  A    between atoms: C18_28  and  O4_29 
REMARK   18  A    between atoms: C18_28  and  O5_31 
REMARK   19  A    between atoms: O5_31  and  C19_32 
ROOT
HETATM    1  C11 UNL     1      -1.429  -1.635  -0.036  1.00  0.00     0.117 C 
ENDROOT
BRANCH   1   2
HETATM    2  C5  UNL     1      -2.309  -0.388   0.095  1.00  0.00     0.201 C 
BRANCH   2   3
HETATM    3  N1  UNL     1      -2.685   0.249  -1.060  1.00  0.00    -0.395 N 
ATOM      4  H1  UNL     1      -2.720  -0.311  -1.912  1.00  0.00     0.155 HD
BRANCH   3   5
HETATM    5  C4  UNL     1      -3.026   1.610  -1.169  1.00  0.00     0.168 C 
BRANCH   5   6
HETATM    6  C3  UNL     1      -4.171   2.160  -0.429  1.00  0.00     0.044 C 
BRANCH   6   7
HETATM    7  C2  UNL     1      -4.447   3.645  -0.641  1.00  0.00     0.076 C 
BRANCH   7   8
HETATM    8  S1  UNL     1      -5.865   4.076   0.474  1.00  0.00    -0.173 SA
HETATM    9  C1  UNL     1      -5.295   3.900   2.208  1.00  0.00     0.089 C 
ENDBRANCH   7   8
ENDBRANCH   6   7
ENDBRANCH   5   6
BRANCH   5  10
HETATM   10  C29 UNL     1      -3.020   1.925  -2.647  1.00  0.00     0.253 C 
HETATM   11  N4  UNL     1      -3.126   3.216  -3.194  1.00  0.00    -0.060 NA
HETATM   12  O6  UNL     1      -2.908   0.980  -3.480  1.00  0.00    -0.275 OA
ENDBRANCH   5  10
ENDBRANCH   3   5
ENDBRANCH   2   3
BRANCH   2  13
HETATM   13  C6  UNL     1      -3.317  -0.693   1.100  1.00  0.00     0.283 C 
HETATM   14  O1  UNL     1      -4.523  -0.526   0.972  1.00  0.00    -0.263 OA
BRANCH  13  15
HETATM   15  O2  UNL     1      -2.917  -1.233   2.356  1.00  0.00    -0.314 OA
BRANCH  15  16
HETATM   16  C7  UNL     1      -3.879  -1.533   3.344  1.00  0.00     0.132 C 
HETATM   17  C8  UNL     1      -3.536  -1.121   4.745  1.00  0.00     0.032 C 
HETATM   18  C9  UNL     1      -3.077  -2.546   5.093  1.00  0.00     0.005 C 
HETATM   19  C10 UNL     1      -3.718  -2.980   3.805  1.00  0.00     0.032 C 
ENDBRANCH  15  16
ENDBRANCH  13  15
ENDBRANCH   2  13
ENDBRANCH   1   2
BRANCH   1  20
HETATM   20  C12 UNL     1      -1.967  -2.763  -0.761  1.00  0.00     0.031 C 
BRANCH  20  21
HETATM   21  C13 UNL     1      -2.360  -2.724  -2.172  1.00  0.00    -0.021 C 
HETATM   22  C14 UNL     1      -2.904  -4.157  -2.459  1.00  0.00     0.009 C 
HETATM   23  C15 UNL     1      -1.222  -2.619  -3.174  1.00  0.00     0.009 C 
ENDBRANCH  20  21
ENDBRANCH   1  20
BRANCH   1  24
HETATM   24  N2  UNL     1      -0.066  -1.208  -0.399  1.00  0.00    -0.349 N 
HETATM   25  C16 UNL     1       0.891  -0.886   0.565  1.00  0.00     0.264 C 
HETATM   26  O3  UNL     1       0.564  -0.979   1.774  1.00  0.00    -0.266 OA
ATOM     27  H2  UNL     1       0.186  -1.146  -1.385  1.00  0.00     0.163 HD
BRANCH  25  28
HETATM   28  C17 UNL     1       2.285  -0.432   0.251  1.00  0.00     0.085 C 
BRANCH  28  29
HETATM   29  N3  UNL     1       3.013  -0.193   1.208  1.00  0.00    -0.315 N 
HETATM   30  C18 UNL     1       4.222   0.202   1.667  1.00  0.00     0.263 C 
ATOM     31  H3  UNL     1       2.448  -0.376   2.038  1.00  0.00     0.170 HD
BRANCH  30  32
HETATM   32  O4  UNL     1       4.686  -0.361   2.744  1.00  0.00    -0.327 OA
ATOM     33  H4  UNL     1       5.535  -0.083   3.066  1.00  0.00     0.221 HD
ENDBRANCH  30  32
BRANCH  30  34
HETATM   34  O5  UNL     1       5.098   1.155   1.161  1.00  0.00    -0.306 OA
BRANCH  34  35
HETATM   35  C19 UNL     1       6.342   1.468   1.755  1.00  0.00     0.060 C 
HETATM   36  C20 UNL     1       7.259   0.274   1.826  1.00  0.00     0.046 C 
HETATM   37  C21 UNL     1       6.176   2.039   3.138  1.00  0.00     0.046 C 
HETATM   38  C22 UNL     1       7.032   2.512   0.903  1.00  0.00     0.046 C 
ENDBRANCH  34  35
ENDBRANCH  30  34
ENDBRANCH  28  29
BRANCH  28  39
HETATM   39  C23 UNL     1       2.640  -0.287  -1.156  1.00  0.00     0.041 C 
HETATM   40  C24 UNL     1       1.959   0.827  -1.907  1.00  0.00     0.011 C 
HETATM   41  C25 UNL     1       1.960   0.388  -3.367  1.00  0.00     0.001 C 
HETATM   42  C26 UNL     1       3.345   0.108  -3.857  1.00  0.00     0.000 C 
HETATM   43  C27 UNL     1       4.147  -0.795  -2.968  1.00  0.00     0.001 C 
HETATM   44  C28 UNL     1       4.107  -0.307  -1.497  1.00  0.00     0.011 C 
ENDBRANCH  28  39
ENDBRANCH  25  28
ENDBRANCH   1  24
TORSDOF 19
