REMARK  4 active torsions:
REMARK  status: ('A' for Active; 'I' for Inactive)
REMARK       I    between atoms: C1_2  and  N1_3 
REMARK    1  A    between atoms: C1_2  and  C8_16 
REMARK    2  A    between atoms: N1_3  and  C2_5 
REMARK    3  A    between atoms: C11_19  and  N2_20 
REMARK    4  A    between atoms: C15_25  and  C16_26 
ROOT
HETATM    1  O1  UNL     1       2.584   0.528  -1.454  1.00  0.00    -0.273 OA
HETATM    2  C1  UNL     1       2.295   0.512  -0.237  1.00  0.00     0.226 C 
HETATM    3  N1  UNL     1       3.325   0.148   0.693  1.00  0.00    -0.322 N 
ATOM      4  H1  UNL     1       3.110   0.128   1.690  1.00  0.00     0.169 HD
ENDROOT
BRANCH   2   5
HETATM    5  C8  UNL     1       0.931   0.860   0.222  1.00  0.00     0.078 C 
HETATM    6  C9  UNL     1       0.086   1.195  -0.957  1.00  0.00     0.016 C 
HETATM    7  C10 UNL     1      -1.329   1.546  -0.634  1.00  0.00     0.026 C 
HETATM    8  C11 UNL     1      -1.941   0.833   0.520  1.00  0.00     0.084 C 
HETATM    9  C17 UNL     1      -1.017   0.215   1.507  1.00  0.00     0.026 C 
HETATM   10  C18 UNL     1       0.290  -0.265   1.000  1.00  0.00     0.016 C 
BRANCH   8  11
HETATM   11  N2  UNL     1      -2.976  -0.083   0.189  1.00  0.00    -0.378 N 
HETATM   12  C12 UNL     1      -2.681  -1.191  -0.623  1.00  0.00     0.085 C 
HETATM   13  C13 UNL     1      -3.513  -1.236  -1.894  1.00  0.00     0.212 C 
HETATM   14  O2  UNL     1      -4.841  -0.969  -1.697  1.00  0.00    -0.384 OA
HETATM   15  C14 UNL     1      -5.202  -0.675  -0.411  1.00  0.00     0.195 C 
HETATM   16  C15 UNL     1      -4.310   0.383   0.228  1.00  0.00     0.136 C 
BRANCH  16  17
HETATM   17  C16 UNL     1      -4.847   0.601   1.625  1.00  0.00     0.249 C 
HETATM   18  F6  UNL     1      -6.146   1.051   1.498  1.00  0.00    -0.253 F 
ENDBRANCH  16  17
ENDBRANCH   8  11
ENDBRANCH   2   5
BRANCH   3  19
HETATM   19  C2  UNL     1       4.622  -0.182   0.265  1.00  0.00     0.119 A 
HETATM   20  C3  UNL     1       5.570   0.809   0.151  1.00  0.00     0.188 A 
HETATM   21  F1  UNL     1       5.279   2.100   0.441  1.00  0.00    -0.200 F 
HETATM   22  C4  UNL     1       6.869   0.498  -0.273  1.00  0.00     0.199 A 
HETATM   23  F2  UNL     1       7.797   1.492  -0.382  1.00  0.00    -0.199 F 
HETATM   24  C5  UNL     1       7.194  -0.793  -0.574  1.00  0.00     0.199 A 
HETATM   25  F3  UNL     1       8.446  -1.110  -0.985  1.00  0.00    -0.199 F 
HETATM   26  C6  UNL     1       6.258  -1.802  -0.466  1.00  0.00     0.199 A 
HETATM   27  F4  UNL     1       6.580  -3.085  -0.765  1.00  0.00    -0.199 F 
HETATM   28  C7  UNL     1       4.966  -1.477  -0.042  1.00  0.00     0.188 A 
HETATM   29  F5  UNL     1       4.058  -2.480   0.058  1.00  0.00    -0.200 F 
ENDBRANCH   3  19
TORSDOF 4
