REMARK  3 active torsions:
REMARK  status: ('A' for Active; 'I' for Inactive)
REMARK    1  A    between atoms: C3_5  and  N2_6 
REMARK    2  A    between atoms: N2_6  and  N3_8 
REMARK    3  A    between atoms: C4_10  and  C5_11 
ROOT
HETATM    1  N2  UNL     1       0.841   1.647  -0.802  1.00  0.00    -0.132 N 
ATOM      2  H2  UNL     1       1.045   2.609  -1.075  1.00  0.00     0.205 HD
ENDROOT
BRANCH   1   3
HETATM    3  C3  UNL     1       1.844   0.873  -0.533  1.00  0.00     0.697 A 
HETATM    4  N1  UNL     1       3.114   1.294  -0.602  1.00  0.00    -0.189 N 
HETATM    5  C2  UNL     1       3.925   0.290  -0.274  1.00  0.00     0.066 A 
ATOM      6  H1  UNL     1       3.412   2.234  -0.864  1.00  0.00     0.184 HD
HETATM    7  C1  UNL     1       5.271   0.311  -0.223  1.00  0.00     0.046 C 
HETATM    8  C11 UNL     1       3.121  -0.793   0.009  1.00  0.00     0.066 A 
HETATM    9  N4  UNL     1       1.846  -0.415  -0.156  1.00  0.00    -0.189 N 
HETATM   10  C12 UNL     1       3.544  -1.991   0.378  1.00  0.00     0.046 C 
ATOM     11  H4  UNL     1       1.023  -1.002  -0.019  1.00  0.00     0.184 HD
ENDBRANCH   1   3
BRANCH   1  12
HETATM   12  N3  UNL     1      -0.483   1.264  -0.746  1.00  0.00    -0.297 N 
HETATM   13  C4  UNL     1      -1.051   0.723   0.275  1.00  0.00     0.119 C 
ATOM     14  H3  UNL     1      -1.055   1.421  -1.576  1.00  0.00     0.186 HD
BRANCH  13  15
HETATM   15  C5  UNL     1      -2.448   0.363   0.217  1.00  0.00    -0.017 A 
HETATM   16  C6  UNL     1      -3.066  -0.212   1.293  1.00  0.00     0.032 A 
HETATM   17  C7  UNL     1      -4.421  -0.567   1.252  1.00  0.00     0.013 A 
HETATM   18 BR1  UNL     1      -5.162  -1.358   2.814  1.00  0.00    -0.051 Br
HETATM   19  C8  UNL     1      -5.146  -0.335   0.112  1.00  0.00     0.038 A 
HETATM   20  C9  UNL     1      -4.540   0.236  -0.964  1.00  0.00     0.013 A 
HETATM   21 BR2  UNL     1      -5.562   0.548  -2.533  1.00  0.00    -0.051 Br
HETATM   22  C10 UNL     1      -3.187   0.589  -0.918  1.00  0.00     0.032 A 
ENDBRANCH  13  15
ENDBRANCH   1  12
TORSDOF 3
