REMARK  2 active torsions:
REMARK  status: ('A' for Active; 'I' for Inactive)
REMARK       I    between atoms: C1_4  and  N3_6 
REMARK    1  A    between atoms: C3_8  and  C4_9 
REMARK    2  A    between atoms: C6_13  and  C7_14 
ROOT
HETATM    1  N1  UNL     1      -2.386  -2.423  -0.836  1.00  0.00    -0.374 N 
ATOM      2  H11 UNL     1      -1.625  -2.570  -1.499  1.00  0.00     0.158 HD
ATOM      3  H12 UNL     1      -3.172  -3.068  -0.756  1.00  0.00     0.158 HD
HETATM    4  C1  UNL     1      -2.350  -1.374  -0.065  1.00  0.00     0.184 C 
HETATM    5  N2  UNL     1      -3.413  -1.169   0.862  1.00  0.00    -0.064 NA
HETATM    6  N3  UNL     1      -1.253  -0.473  -0.177  1.00  0.00    -0.350 N 
HETATM    7  C2  UNL     1      -1.328   0.885  -0.607  1.00  0.00     0.141 C 
HETATM    8  C3  UNL     1      -0.037   1.549  -0.201  1.00  0.00     0.111 C 
HETATM    9  C5  UNL     1       0.795   0.526   0.513  1.00  0.00     0.032 C 
HETATM   10  C6  UNL     1       1.983   0.111  -0.354  1.00  0.00     0.019 C 
HETATM   11  C9  UNL     1       1.034  -0.723  -1.126  1.00  0.00     0.035 C 
HETATM   12  C10 UNL     1       0.138  -0.761   0.123  1.00  0.00     0.093 C 
ENDROOT
BRANCH   8  13
HETATM   13  C4  UNL     1      -0.329   2.737   0.639  1.00  0.00     0.179 C 
HETATM   14  O1  UNL     1       0.067   2.884   1.808  1.00  0.00    -0.648 OA
HETATM   15  O2  UNL     1      -1.095   3.750   0.083  1.00  0.00    -0.648 OA
ENDBRANCH   8  13
BRANCH  10  16
HETATM   16  C7  UNL     1       3.125  -0.404   0.368  1.00  0.00     0.005 C 
HETATM   17  C8  UNL     1       3.651  -1.563   0.568  1.00  0.00     0.054 C 
HETATM   18 BR1  UNL     1       5.249  -1.725   1.660  1.00  0.00    -0.043 Br
HETATM   19 BR2  UNL     1       2.954  -3.159  -0.155  1.00  0.00    -0.043 Br
ENDBRANCH  10  16
TORSDOF 2
