REMARK  7 active torsions:
REMARK  status: ('A' for Active; 'I' for Inactive)
REMARK    1  A    between atoms: N2_4  and  C1_6 
REMARK    2  A    between atoms: C3_8  and  C4_9 
REMARK    3  A    between atoms: C6_13  and  N3_14 
REMARK    4  A    between atoms: C7_18  and  C8_19 
REMARK    5  A    between atoms: C8_19  and  O1_20 
REMARK    6  A    between atoms: C8_19  and  C9_22 
REMARK    7  A    between atoms: C9_22  and  O2_23 
ROOT
HETATM    1  C1  UNL     1      -1.660  -1.098  -0.549  1.00  0.00     0.108 C 
HETATM    2  C2  UNL     1      -2.326   0.257  -0.600  1.00  0.00     0.034 C 
HETATM    3  C3  UNL     1      -2.089   0.897   0.727  1.00  0.00     0.020 C 
HETATM    4  C5  UNL     1      -0.801   0.308   1.180  1.00  0.00     0.063 C 
HETATM    5 BR2  UNL     1      -0.475   0.524   3.054  1.00  0.00    -0.082 Br
HETATM    6  C6  UNL     1       0.380   0.740   0.335  1.00  0.00     0.235 C 
HETATM    7  C7  UNL     1       1.204  -0.492   0.242  1.00  0.00    -0.021 C 
HETATM    8  C10 UNL     1       0.458  -1.549   0.493  1.00  0.00    -0.011 C 
HETATM    9  C11 UNL     1      -0.921  -1.130   0.772  1.00  0.00     0.055 C 
ENDROOT
BRANCH   7  10
HETATM   10  C8  UNL     1       2.658  -0.601  -0.079  1.00  0.00     0.172 C 
BRANCH  10  11
HETATM   11  O1  UNL     1       3.122  -1.907   0.022  1.00  0.00    -0.389 OA
ATOM     12  H1  UNL     1       4.047  -1.976  -0.182  1.00  0.00     0.210 HD
ENDBRANCH  10  11
BRANCH  10  13
HETATM   13  C9  UNL     1       2.992  -0.050  -1.423  1.00  0.00     0.200 C 
BRANCH  13  14
HETATM   14  O2  UNL     1       4.373  -0.069  -1.584  1.00  0.00    -0.398 OA
ATOM     15  H2  UNL     1       4.586   0.282  -2.441  1.00  0.00     0.209 HD
ENDBRANCH  13  14
ENDBRANCH  10  13
ENDBRANCH   7  10
BRANCH   6  16
HETATM   16  N3  UNL     1       1.124   1.728   1.081  1.00  0.00    -0.070 N 
ATOM     17  H33 UNL     1       0.546   2.513   1.382  1.00  0.00     0.275 HD
ATOM     18  H32 UNL     1       1.400   1.399   2.006  1.00  0.00     0.275 HD
ATOM     19  H31 UNL     1       1.919   2.019   0.512  1.00  0.00     0.275 HD
ENDBRANCH   6  16
BRANCH   3  20
HETATM   20  C4  UNL     1      -2.047   2.396   0.555  1.00  0.00     0.091 C 
HETATM   21 BR1  UNL     1      -3.786   2.905  -0.177  1.00  0.00    -0.096 Br
ENDBRANCH   3  20
BRANCH   1  22
HETATM   22  N2  UNL     1      -2.618  -2.148  -0.559  1.00  0.00    -0.337 N 
HETATM   23  N1  UNL     1      -3.767  -1.913  -0.183  1.00  0.00    -0.349 N 
ATOM     24  H12 UNL     1      -4.011  -0.973   0.128  1.00  0.00     0.176 HD
ATOM     25  H11 UNL     1      -4.454  -2.666  -0.190  1.00  0.00     0.176 HD
ATOM     26  H2  UNL     1      -2.358  -3.083  -0.873  1.00  0.00     0.180 HD
ENDBRANCH   1  22
TORSDOF 7
