REMARK  10 active torsions:
REMARK  status: ('A' for Active; 'I' for Inactive)
REMARK    1  A    between atoms: C4_7  and  N4_8 
REMARK    2  A    between atoms: C5_14  and  N7_15 
REMARK    3  A    between atoms: N7_15  and  C6_16 
REMARK    4  A    between atoms: N7_15  and  N12_33 
REMARK    5  A    between atoms: C6_16  and  C7_17 
REMARK       I    between atoms: C7_17  and  N8_19 
REMARK    6  A    between atoms: N8_19  and  C8_21 
REMARK    7  A    between atoms: C8_21  and  C9_22 
REMARK    8  A    between atoms: C9_22  and  N9_23 
REMARK    9  A    between atoms: N9_23  and  C10_25 
REMARK   10  A    between atoms: N12_33  and  N13_34 
ROOT
HETATM    1  N7  UNL     1      -0.879   3.173   1.736  1.00  0.00    -0.097 N 
ENDROOT
BRANCH   1   2
HETATM    2  C5  UNL     1      -1.712   2.040   1.555  1.00  0.00     0.728 A 
HETATM    3  N6  UNL     1      -3.041   2.006   1.319  1.00  0.00    -0.107 N 
HETATM    4  N5  UNL     1      -3.495   0.773   1.216  1.00  0.00    -0.053 N 
ATOM      5  H6  UNL     1      -3.625   2.837   1.231  1.00  0.00     0.207 HD
HETATM    6  C4  UNL     1      -4.715   0.227   0.991  1.00  0.00     0.167 A 
HETATM    7  C14 UNL     1      -2.416  -0.012   1.392  1.00  0.00     0.723 A 
HETATM    8  C3  UNL     1      -4.901  -1.137   0.934  1.00  0.00     0.134 A 
HETATM    9  C2  UNL     1      -3.787  -1.928   1.116  1.00  0.00     0.162 A 
HETATM   10  N3  UNL     1      -6.195  -1.712   0.696  1.00  0.00    -0.095 NA
HETATM   11  N1  UNL     1      -2.589  -1.362   1.337  1.00  0.00    -0.170 N 
HETATM   12  N2  UNL     1      -3.963  -3.338   1.060  1.00  0.00    -0.080 NA
HETATM   13  C1  UNL     1      -1.418  -2.196   1.529  1.00  0.00     0.177 C 
HETATM   14  N14 UNL     1      -1.326   0.747   1.599  1.00  0.00    -0.018 N 
ATOM     15  H14 UNL     1      -0.378   0.407   1.760  1.00  0.00     0.203 HD
BRANCH   6  16
HETATM   16  N4  UNL     1      -5.743   1.002   0.825  1.00  0.00    -0.382 N 
ATOM     17  H42 UNL     1      -6.661   0.591   0.656  1.00  0.00     0.157 HD
ATOM     18  H41 UNL     1      -5.605   2.012   0.867  1.00  0.00     0.157 HD
ENDBRANCH   6  16
ENDBRANCH   1   2
BRANCH   1  19
HETATM   19  C6  UNL     1       0.525   3.015   1.948  1.00  0.00     0.268 C 
BRANCH  19  20
HETATM   20  C7  UNL     1       1.308   2.570   0.783  1.00  0.00     0.237 C 
HETATM   21  O1  UNL     1       2.571   2.387   0.955  1.00  0.00    -0.272 OA
HETATM   22  N8  UNL     1       0.739   2.343  -0.489  1.00  0.00    -0.358 N 
ATOM     23  H8  UNL     1      -0.262   2.498  -0.605  1.00  0.00     0.162 HD
BRANCH  22  24
HETATM   24  C8  UNL     1       1.502   1.901  -1.639  1.00  0.00     0.143 C 
BRANCH  24  25
HETATM   25  C9  UNL     1       2.168   0.564  -1.444  1.00  0.00     0.157 C 
BRANCH  25  26
HETATM   26  N9  UNL     1       2.896   0.214  -2.650  1.00  0.00    -0.225 N 
ATOM     27  H9  UNL     1       2.883   0.850  -3.447  1.00  0.00     0.177 HD
BRANCH  26  28
HETATM   28  C10 UNL     1       3.631  -1.009  -2.738  1.00  0.00     0.669 C 
HETATM   29  N10 UNL     1       3.449  -1.759  -3.744  1.00  0.00    -0.227 N 
HETATM   30  C11 UNL     1       4.127  -3.002  -3.938  1.00  0.00     0.139 C 
ATOM     31  H10 UNL     1       2.782  -1.458  -4.454  1.00  0.00     0.177 HD
HETATM   32  C12 UNL     1       5.327  -3.203  -3.039  1.00  0.00     0.040 C 
HETATM   33  C13 UNL     1       4.946  -2.783  -1.630  1.00  0.00     0.139 C 
HETATM   34  N11 UNL     1       4.551  -1.390  -1.727  1.00  0.00    -0.227 N 
ATOM     35  H11 UNL     1       4.928  -0.697  -1.080  1.00  0.00     0.177 HD
ENDBRANCH  26  28
ENDBRANCH  25  26
ENDBRANCH  24  25
ENDBRANCH  22  24
ENDBRANCH  19  20
ENDBRANCH   1  19
BRANCH   1  36
HETATM   36  N12 UNL     1      -1.446   4.440   1.705  1.00  0.00    -0.012 NA
BRANCH  36  37
HETATM   37  N13 UNL     1      -1.893   4.886   2.942  1.00  0.00    -0.328 N 
ATOM     38 2H13 UNL     1      -1.805   4.322   3.787  1.00  0.00     0.174 HD
ATOM     39 1H13 UNL     1      -2.310   5.817   2.919  1.00  0.00     0.174 HD
ENDBRANCH  36  37
ENDBRANCH   1  36
TORSDOF 10
