REMARK  2 active torsions:
REMARK  status: ('A' for Active; 'I' for Inactive)
REMARK    1  A    between atoms: N1_1  and  C1_5 
REMARK    2  A    between atoms: C1_5  and  C2_6 
ROOT
HETATM    1  C2  UNL     1      -1.473   0.114   0.066  1.00  0.00     0.147 C 
HETATM    2  C3  UNL     1      -1.078  -1.246  -0.346  1.00  0.00     0.034 C 
HETATM    3  C4  UNL     1       0.387  -1.502  -0.495  1.00  0.00     0.010 C 
HETATM    4  C5  UNL     1       1.248  -0.304  -0.520  1.00  0.00     0.015 C 
HETATM    5  C6  UNL     1       2.600  -0.451   0.075  1.00  0.00     0.007 C 
HETATM    6  C7  UNL     1       2.949   0.944   0.552  1.00  0.00     0.003 C 
HETATM    7  C8  UNL     1       1.674   1.751   0.511  1.00  0.00     0.032 C 
HETATM    8  C9  UNL     1       0.613   0.734   0.418  1.00  0.00     0.126 C 
HETATM    9  O1  UNL     1      -0.540   1.108  -0.227  1.00  0.00    -0.379 OA
ENDROOT
BRANCH   1  10
HETATM   10  C1  UNL     1      -2.855   0.500  -0.471  1.00  0.00     0.261 C 
BRANCH  10  11
HETATM   11  N1  UNL     1      -3.788  -0.559  -0.143  1.00  0.00    -0.077 N 
ATOM     12  H13 UNL     1      -3.478  -1.471  -0.478  1.00  0.00     0.274 HD
ATOM     13  H12 UNL     1      -3.801  -0.774   0.854  1.00  0.00     0.274 HD
ATOM     14  H11 UNL     1      -4.708  -0.302  -0.501  1.00  0.00     0.274 HD
ENDBRANCH  10  11
ENDBRANCH   1  10
TORSDOF 2
