REMARK  3 active torsions:
REMARK  status: ('A' for Active; 'I' for Inactive)
REMARK    1  A    between atoms: N1_1  and  C1_5 
REMARK    2  A    between atoms: N2_10  and  C6_11 
REMARK    3  A    between atoms: C6_11  and  C7_12 
ROOT
HETATM    1  C1  UNL     1      -1.191   0.879   0.531  1.00  0.00     0.417 C 
HETATM    2  C2  UNL     1      -2.518   0.569  -0.094  1.00  0.00     0.065 C 
HETATM    3  C3  UNL     1      -2.888  -0.875  -0.085  1.00  0.00     0.005 C 
HETATM    4  C4  UNL     1      -1.741  -1.823  -0.177  1.00  0.00     0.030 C 
HETATM    5  C5  UNL     1      -0.488  -1.305   0.496  1.00  0.00     0.275 C 
HETATM    6  N2  UNL     1      -0.211  -0.009  -0.061  1.00  0.00     0.119 N 
ENDROOT
BRANCH   1   7
HETATM    7  N1  UNL     1      -0.880   2.257   0.462  1.00  0.00    -0.048 N 
ATOM      8  H13 UNL     1      -0.925   2.599  -0.498  1.00  0.00     0.276 HD
ATOM      9  H12 UNL     1      -1.623   2.825   0.870  1.00  0.00     0.276 HD
ATOM     10  H11 UNL     1       0.023   2.468   0.887  1.00  0.00     0.276 HD
ENDBRANCH   1   7
BRANCH   6  11
HETATM   11  C6  UNL     1       1.105   0.484   0.227  1.00  0.00     0.279 C 
BRANCH  11  12
HETATM   12  C7  UNL     1       2.214  -0.367  -0.272  1.00  0.00     0.014 A 
HETATM   13  C8  UNL     1       3.600   0.193   0.065  1.00  0.00     0.007 A 
HETATM   14  C9  UNL     1       3.133   0.166  -1.381  1.00  0.00     0.007 A 
ENDBRANCH  11  12
ENDBRANCH   6  11
TORSDOF 3
