REMARK  2 active torsions:
REMARK  status: ('A' for Active; 'I' for Inactive)
REMARK    1  A    between atoms: C5_10  and  N3_11 
REMARK    2  A    between atoms: N3_11  and  N4_13 
ROOT
HETATM    1  C1  UNL     1      -3.701   1.320   0.588  1.00  0.00     0.047 C 
HETATM    2  C2  UNL     1      -2.957   0.278   0.257  1.00  0.00     0.079 A 
HETATM    3  N1  UNL     1      -3.550  -0.934   0.182  1.00  0.00    -0.306 N 
ATOM      4  H1  UNL     1      -4.546  -1.035   0.376  1.00  0.00     0.171 HD
HETATM    5  C3  UNL     1      -2.811  -2.000  -0.151  1.00  0.00     0.325 A 
HETATM    6  O1  UNL     1      -3.318  -3.144  -0.233  1.00  0.00    -0.247 OA
HETATM    7  N2  UNL     1      -1.501  -1.872  -0.409  1.00  0.00    -0.304 N 
ATOM      8  H2  UNL     1      -0.971  -2.707  -0.660  1.00  0.00     0.171 HD
HETATM    9  C4  UNL     1      -0.855  -0.697  -0.352  1.00  0.00     0.106 A 
HETATM   10  C5  UNL     1       0.440  -0.624  -0.615  1.00  0.00     0.141 C 
HETATM   11  C7  UNL     1      -1.608   0.406  -0.009  1.00  0.00     0.225 A 
HETATM   12  O2  UNL     1      -1.048   1.529   0.058  1.00  0.00    -0.283 OA
ENDROOT
BRANCH  10  13
HETATM   13  N3  UNL     1       1.176   0.576  -0.573  1.00  0.00    -0.307 N 
ATOM     14  H3  UNL     1       1.006   1.285  -1.286  1.00  0.00     0.186 HD
BRANCH  13  15
HETATM   15  N4  UNL     1       2.123   0.824   0.406  1.00  0.00    -0.276 N 
HETATM   16  C6  UNL     1       3.392   0.734   0.223  1.00  0.00     0.215 C 
HETATM   17  N5  UNL     1       3.972   0.361  -1.037  1.00  0.00    -0.065 NA
HETATM   18  N6  UNL     1       4.261   1.015   1.311  1.00  0.00    -0.065 NA
ATOM     19  H4  UNL     1       1.792   1.096   1.332  1.00  0.00     0.189 HD
ENDBRANCH  13  15
ENDBRANCH  10  13
TORSDOF 2
