REMARK  4 active torsions:
REMARK  status: ('A' for Active; 'I' for Inactive)
REMARK    1  A    between atoms: C1_2  and  C2_3 
REMARK    2  A    between atoms: C2_3  and  N1_4 
REMARK    3  A    between atoms: N1_4  and  C3_7 
REMARK    4  A    between atoms: C3_7  and  C4_8 
ROOT
HETATM    1  C4  UNL     1      -0.438   0.149   0.255  1.00  0.00    -0.012 C 
HETATM    2  C5  UNL     1      -1.041   0.151  -1.135  1.00  0.00     0.016 C 
HETATM    3  C6  UNL     1      -2.501  -0.086  -0.828  1.00  0.00    -0.013 C 
HETATM    4  C7  UNL     1      -2.973   1.052   0.036  1.00  0.00     0.010 C 
HETATM    5  C8  UNL     1      -2.070   0.957   1.260  1.00  0.00    -0.009 C 
HETATM    6  C9  UNL     1      -0.657   1.476   0.949  1.00  0.00     0.016 C 
HETATM    7  C10 UNL     1      -1.481  -0.428   1.184  1.00  0.00     0.000 C 
HETATM    8  C11 UNL     1      -2.367  -1.196   0.228  1.00  0.00     0.010 C 
ENDROOT
BRANCH   1   9
HETATM    9  C3  UNL     1       0.887  -0.484   0.413  1.00  0.00     0.242 C 
BRANCH   9  10
HETATM   10  N1  UNL     1       1.944   0.086  -0.361  1.00  0.00    -0.072 N 
ATOM     11  H12 UNL     1       2.055   1.088  -0.208  1.00  0.00     0.277 HD
ATOM     12  H11 UNL     1       1.731   0.127  -1.358  1.00  0.00     0.277 HD
BRANCH  10  13
HETATM   13  C2  UNL     1       3.150  -0.670  -0.068  1.00  0.00     0.263 C 
BRANCH  13  14
HETATM   14  C1  UNL     1       4.342  -0.153  -0.836  1.00  0.00     0.249 C 
HETATM   15  F1  UNL     1       5.423  -0.942  -0.480  1.00  0.00    -0.254 F 
ENDBRANCH  13  14
ENDBRANCH  10  13
ENDBRANCH   9  10
ENDBRANCH   1   9
TORSDOF 4
