REMARK  9 active torsions:
REMARK  status: ('A' for Active; 'I' for Inactive)
REMARK    1  A    between atoms: C2_2  and  C3_4 
REMARK    2  A    between atoms: C4_5  and  O2_6 
REMARK    3  A    between atoms: C5_8  and  C6_9 
REMARK    4  A    between atoms: C6_9  and  C7_10 
REMARK    5  A    between atoms: C11_14  and  O3_15 
REMARK    6  A    between atoms: C12_17  and  N1_18 
REMARK    7  A    between atoms: N1_18  and  O4_19 
REMARK    8  A    between atoms: N1_18  and  C13_21 
REMARK    9  A    between atoms: C21_30  and  O6_31 
ROOT
HETATM    1  C3  UNL     1      -1.209   1.461   0.158  1.00  0.00     0.079 A 
HETATM    2  C4  UNL     1      -2.270   0.582   0.405  1.00  0.00     0.091 A 
HETATM    3  C5  UNL     1      -2.016  -0.794   0.308  1.00  0.00     0.015 A 
HETATM    4  C11 UNL     1      -0.759  -1.217  -0.019  1.00  0.00     0.107 A 
HETATM    5  C12 UNL     1       0.281  -0.347  -0.261  1.00  0.00     0.130 A 
HETATM    6  C21 UNL     1       0.078   1.032  -0.177  1.00  0.00     0.114 A 
ENDROOT
BRANCH   5   7
HETATM    7  N1  UNL     1       1.543  -0.848  -0.592  1.00  0.00    -0.223 N 
BRANCH   7   8
HETATM    8  O4  UNL     1       1.668  -2.124  -0.652  1.00  0.00    -0.282 OA
ATOM      9  H4  UNL     1       2.526  -2.465  -0.877  1.00  0.00     0.245 HD
ENDBRANCH   7   8
BRANCH   7  10
HETATM   10  C13 UNL     1       2.736  -0.167  -0.880  1.00  0.00     0.047 C 
HETATM   11  C14 UNL     1       3.058   0.196  -2.269  1.00  0.00     0.071 C 
HETATM   12  C15 UNL     1       3.587   0.117   0.080  1.00  0.00     0.012 C 
HETATM   13  C16 UNL     1       3.265  -0.295   1.470  1.00  0.00     0.044 C 
HETATM   14  C20 UNL     1       4.846   0.815  -0.145  1.00  0.00     0.157 C 
HETATM   15  C17 UNL     1       4.400   0.097   2.370  1.00  0.00     0.005 C 
HETATM   16  C18 UNL     1       5.760  -0.323   1.851  1.00  0.00     0.008 C 
HETATM   17  C19 UNL     1       6.106   0.439   0.584  1.00  0.00     0.084 C 
HETATM   18  O5  UNL     1       4.871   1.750  -0.969  1.00  0.00    -0.293 OA
ENDBRANCH   7  10
ENDBRANCH   5   7
BRANCH   4  19
HETATM   19  O3  UNL     1      -0.491  -2.570  -0.120  1.00  0.00    -0.358 OA
ATOM     20  H3  UNL     1       0.383  -2.864  -0.347  1.00  0.00     0.217 HD
ENDBRANCH   4  19
BRANCH   6  21
HETATM   21  O6  UNL     1       1.074   1.875  -0.408  1.00  0.00    -0.357 OA
ATOM     22  H6  UNL     1       1.949   1.583  -0.636  1.00  0.00     0.217 HD
ENDBRANCH   6  21
BRANCH   3  23
HETATM   23  C6  UNL     1      -3.122  -1.733   0.556  1.00  0.00     0.072 C 
BRANCH  23  24
HETATM   24  C7  UNL     1      -4.076  -1.889  -0.550  1.00  0.00    -0.020 C 
HETATM   25  C8  UNL     1      -5.374  -1.711  -0.531  1.00  0.00    -0.091 C 
HETATM   26  C9  UNL     1      -6.170  -1.920  -1.769  1.00  0.00     0.042 C 
HETATM   27  C10 UNL     1      -6.138  -1.314   0.679  1.00  0.00     0.042 C 
ENDBRANCH  23  24
ENDBRANCH   3  23
BRANCH   1  28
HETATM   28  C2  UNL     1      -1.472   2.887   0.260  1.00  0.00     0.161 C 
HETATM   29  C1  UNL     1      -0.495   3.948   0.037  1.00  0.00     0.097 C 
HETATM   30  O1  UNL     1      -2.666   3.237   0.572  1.00  0.00    -0.293 OA
ENDBRANCH   1  28
BRANCH   2  31
HETATM   31  O2  UNL     1      -3.453   1.073   0.716  1.00  0.00    -0.359 OA
ATOM     32  H2  UNL     1      -4.173   0.476   0.884  1.00  0.00     0.217 HD
ENDBRANCH   2  31
TORSDOF 9
