REMARK  8 active torsions:
REMARK  status: ('A' for Active; 'I' for Inactive)
REMARK    1  A    between atoms: C2_2  and  C3_3 
REMARK    2  A    between atoms: C3_3  and  C5_5 
REMARK    3  A    between atoms: C6_7  and  O2_8 
REMARK    4  A    between atoms: C7_10  and  C8_11 
REMARK    5  A    between atoms: C8_11  and  C9_12 
REMARK    6  A    between atoms: C13_16  and  O3_17 
REMARK    7  A    between atoms: C18_23  and  O4_24 
REMARK    8  A    between atoms: O4_24  and  O5_25 
ROOT
HETATM    1  C5  UNL     1       3.323   0.121  -0.088  1.00  0.00     0.081 A 
HETATM    2  O1  UNL     1       3.230  -0.083   1.173  1.00  0.00    -0.290 OA
HETATM    3  C6  UNL     1       2.083  -0.599   1.547  1.00  0.00     0.191 A 
HETATM    4  C7  UNL     1       1.324  -0.756   0.415  1.00  0.00     0.024 A 
HETATM    5  C21 UNL     1       2.123  -0.294  -0.633  1.00  0.00     0.085 A 
HETATM    6  C22 UNL     1       1.804  -0.231  -2.051  1.00  0.00     0.102 C 
HETATM    7  N1  UNL     1       1.572  -0.173  -3.184  1.00  0.00    -0.191 NA
ENDROOT
BRANCH   1   8
HETATM    8  C3  UNL     1       4.520   0.699  -0.802  1.00  0.00     0.040 C 
HETATM    9  C4  UNL     1       5.082  -0.382  -1.672  1.00  0.00     0.017 C 
BRANCH   8  10
HETATM   10  C2  UNL     1       5.561   0.993   0.258  1.00  0.00     0.006 C 
HETATM   11  C1  UNL     1       6.871   1.449  -0.312  1.00  0.00     0.006 C 
ENDBRANCH   8  10
ENDBRANCH   1   8
BRANCH   4  12
HETATM   12  C8  UNL     1      -0.047  -1.268   0.272  1.00  0.00     0.051 C 
BRANCH  12  13
HETATM   13  C9  UNL     1      -1.176  -0.271   0.432  1.00  0.00     0.005 C 
HETATM   14  C10 UNL     1      -1.222   0.404   1.745  1.00  0.00    -0.011 C 
HETATM   15  C11 UNL     1      -0.413   1.702   1.735  1.00  0.00     0.010 C 
HETATM   16  C12 UNL     1      -2.570   0.804   2.280  1.00  0.00     0.037 C 
HETATM   17  C13 UNL     1      -3.605  -0.256   2.093  1.00  0.00     0.123 C 
HETATM   18  C14 UNL     1      -3.719  -0.408   0.593  1.00  0.00     0.025 C 
HETATM   19  C15 UNL     1      -4.339   0.842   0.047  1.00  0.00     0.008 C 
HETATM   20  C19 UNL     1      -2.460  -0.858  -0.075  1.00  0.00    -0.005 C 
HETATM   21  C16 UNL     1      -3.505   1.663  -0.865  1.00  0.00     0.003 C 
HETATM   22  C17 UNL     1      -2.705   0.884  -1.873  1.00  0.00     0.036 C 
HETATM   23  C18 UNL     1      -2.664  -0.589  -1.547  1.00  0.00     0.169 C 
HETATM   24  C20 UNL     1      -2.446  -2.393   0.037  1.00  0.00     0.019 C 
BRANCH  17  25
HETATM   25  O3  UNL     1      -3.254  -1.405   2.744  1.00  0.00    -0.395 OA
ATOM     26  H3  UNL     1      -3.912  -2.079   2.625  1.00  0.00     0.210 HD
ENDBRANCH  17  25
BRANCH  23  27
HETATM   27  O4  UNL     1      -1.680  -1.188  -2.296  1.00  0.00    -0.237 OA
BRANCH  27  28
HETATM   28  O5  UNL     1      -2.125  -2.100  -3.118  1.00  0.00    -0.250 OA
ATOM     29  H5  UNL     1      -1.445  -2.514  -3.636  1.00  0.00     0.253 HD
ENDBRANCH  27  28
ENDBRANCH  23  27
ENDBRANCH  12  13
ENDBRANCH   4  12
BRANCH   3  30
HETATM   30  O2  UNL     1       1.812  -0.892   2.887  1.00  0.00    -0.340 OA
ATOM     31  H2  UNL     1       0.982  -1.266   3.158  1.00  0.00     0.220 HD
ENDBRANCH   3  30
TORSDOF 8
