REMARK  3 active torsions:
REMARK  status: ('A' for Active; 'I' for Inactive)
REMARK    1  A    between atoms: C6_6  and  C7_7 
REMARK    2  A    between atoms: C10_13  and  O1_14 
REMARK    3  A    between atoms: O1_14  and  C11_15 
REMARK       I    between atoms: C11_15  and  N2_17 
ROOT
HETATM    1  C7  UNL     1      -1.208  -0.921  -1.414  1.00  0.00     0.328 C 
HETATM    2  N1  UNL     1      -1.248  -0.594  -2.828  1.00  0.00    -0.048 N 
ATOM      3  H11 UNL     1      -0.811   0.302  -3.044  1.00  0.00     0.280 HD
ATOM      4  H12 UNL     1      -2.185  -0.365  -3.160  1.00  0.00     0.280 HD
HETATM    5  C8  UNL     1      -0.648  -1.707  -3.539  1.00  0.00     0.240 C 
HETATM    6  C9  UNL     1       0.849  -1.586  -3.225  1.00  0.00     0.089 C 
HETATM    7  C10 UNL     1       0.957  -1.768  -1.726  1.00  0.00     0.275 C 
HETATM    8  O4  UNL     1      -0.245  -1.863  -1.091  1.00  0.00    -0.328 OA
ENDROOT
BRANCH   1   9
HETATM    9  C6  UNL     1      -1.146   0.283  -0.538  1.00  0.00     0.052 A 
HETATM   10  C5  UNL     1      -2.129   1.341  -0.467  1.00  0.00    -0.000 A 
HETATM   11  C4  UNL     1      -3.550   1.285  -0.833  1.00  0.00     0.010 C 
HETATM   12  C16 UNL     1      -1.921   0.374   0.736  1.00  0.00     0.006 A 
HETATM   13  C3  UNL     1      -4.375   1.732   0.378  1.00  0.00     0.034 C 
HETATM   14  C2  UNL     1      -4.226   0.614   1.369  1.00  0.00    -0.085 C 
HETATM   15  C1  UNL     1      -4.959   0.530   2.450  1.00  0.00     0.014 C 
HETATM   16  C17 UNL     1      -3.164  -0.397   1.005  1.00  0.00     0.014 C 
HETATM   17  C18 UNL     1      -2.924  -1.232   2.243  1.00  0.00     0.015 C 
ENDBRANCH   1   9
BRANCH   7  18
HETATM   18  O1  UNL     1       1.805  -0.765  -1.205  1.00  0.00    -0.272 OA
BRANCH  18  19
HETATM   19  C11 UNL     1       3.027  -1.091  -0.648  1.00  0.00     0.365 C 
HETATM   20  O2  UNL     1       3.411  -2.287  -0.592  1.00  0.00    -0.238 OA
HETATM   21  N2  UNL     1       3.909  -0.118  -0.114  1.00  0.00    -0.324 N 
HETATM   22  C12 UNL     1       5.188  -0.437   0.472  1.00  0.00     0.154 C 
HETATM   23  C15 UNL     1       3.509   1.269  -0.158  1.00  0.00     0.154 C 
HETATM   24  C13 UNL     1       5.990   0.868   0.473  1.00  0.00     0.187 C 
HETATM   25  O3  UNL     1       5.391   1.843   1.236  1.00  0.00    -0.388 OA
HETATM   26  C14 UNL     1       4.017   1.891   1.147  1.00  0.00     0.187 C 
ENDBRANCH  18  19
ENDBRANCH   7  18
TORSDOF 3
