REMARK  6 active torsions:
REMARK  status: ('A' for Active; 'I' for Inactive)
REMARK    1  A    between atoms: C2_2  and  C3_3 
REMARK    2  A    between atoms: C3_3  and  C4_4 
REMARK    3  A    between atoms: C4_4  and  C5_5 
REMARK    4  A    between atoms: C5_5  and  N1_6 
REMARK    5  A    between atoms: C10_11  and  C11_12 
REMARK    6  A    between atoms: C12_15  and  C13_16 
ROOT
HETATM    1  N1  UNL     1       0.857  -1.068   0.293  1.00  0.00     0.101 N 
HETATM    2  C6  UNL     1       1.832  -2.124   0.245  1.00  0.00     0.273 C 
HETATM    3  C7  UNL     1       1.193  -3.469   0.523  1.00  0.00     0.030 C 
HETATM    4  C8  UNL     1       0.266  -3.719  -0.673  1.00  0.00     0.004 C 
HETATM    5  C9  UNL     1      -0.789  -2.684  -0.605  1.00  0.00     0.045 C 
HETATM    6  C10 UNL     1      -0.302  -1.274  -0.497  1.00  0.00     0.299 C 
ENDROOT
BRANCH   6   7
HETATM    7  C11 UNL     1      -1.463  -0.467  -0.016  1.00  0.00     0.182 A 
HETATM    8  N2  UNL     1      -2.353   0.243  -0.737  1.00  0.00    -0.325 N 
HETATM    9  C12 UNL     1      -3.258   0.834   0.085  1.00  0.00     0.107 A 
ATOM     10  H2  UNL     1      -2.348   0.325  -1.754  1.00  0.00     0.169 HD
HETATM   11  N3  UNL     1      -2.877   0.453   1.317  1.00  0.00    -0.247 N 
HETATM   12  O1  UNL     1      -1.818  -0.314   1.248  1.00  0.00    -0.221 OA
ATOM     13  H3  UNL     1      -3.346   0.723   2.182  1.00  0.00     0.196 HD
BRANCH   9  14
HETATM   14  C13 UNL     1      -4.414   1.703  -0.302  1.00  0.00     0.047 C 
HETATM   15  C14 UNL     1      -5.725   1.195   0.189  1.00  0.00     0.017 C 
HETATM   16  C15 UNL     1      -4.104   3.116   0.147  1.00  0.00     0.017 C 
ENDBRANCH   9  14
ENDBRANCH   6   7
BRANCH   1  17
HETATM   17  C5  UNL     1       1.460   0.180  -0.067  1.00  0.00     0.273 C 
BRANCH  17  18
HETATM   18  C4  UNL     1       2.455   0.687   0.938  1.00  0.00     0.030 C 
BRANCH  18  19
HETATM   19  C3  UNL     1       3.067   2.004   0.515  1.00  0.00     0.001 C 
BRANCH  19  20
HETATM   20  C2  UNL     1       3.801   1.915  -0.805  1.00  0.00    -0.005 C 
HETATM   21  C1  UNL     1       4.918   0.900  -0.691  1.00  0.00     0.005 C 
ENDBRANCH  19  20
ENDBRANCH  18  19
ENDBRANCH  17  18
ENDBRANCH   1  17
TORSDOF 6
