REMARK  14 active torsions:
REMARK  status: ('A' for Active; 'I' for Inactive)
REMARK    1  A    between atoms: N1_1  and  N2_4 
REMARK       I    between atoms: N2_4  and  C1_6 
REMARK    2  A    between atoms: C1_6  and  C2_8 
REMARK    3  A    between atoms: C2_8  and  O2_9 
REMARK    4  A    between atoms: C3_11  and  C4_12 
REMARK    5  A    between atoms: C4_12  and  O3_13 
REMARK    6  A    between atoms: C5_16  and  N3_17 
REMARK    7  A    between atoms: C6_18  and  O5_19 
REMARK    8  A    between atoms: C7_21  and  O6_22 
REMARK    9  A    between atoms: O6_22  and  C8_23 
REMARK   10  A    between atoms: C8_23  and  C9_24 
REMARK   11  A    between atoms: N4_26  and  C11_27 
REMARK   12  A    between atoms: C14_30  and  O7_31 
REMARK   13  A    between atoms: C21_48  and  O9_49 
REMARK   14  A    between atoms: C21_48  and  C22_51 
ROOT
HETATM    1  N3  UNL     1      -1.768  -0.906  -0.282  1.00  0.00    -0.279 N 
HETATM    2  C6  UNL     1      -0.814   0.023  -0.467  1.00  0.00     0.181 A 
HETATM    3  C7  UNL     1       0.400  -0.541  -0.149  1.00  0.00     0.140 A 
HETATM    4  C17 UNL     1       0.176  -1.831   0.235  1.00  0.00     0.114 A 
HETATM    5  C18 UNL     1       1.045  -2.845   0.656  1.00  0.00     0.263 A 
HETATM    6  O8  UNL     1       2.283  -2.631   0.730  1.00  0.00    -0.267 OA
HETATM    7  N7  UNL     1       0.500  -4.019   0.965  1.00  0.00    -0.319 N 
ATOM      8  H7  UNL     1       1.103  -4.781   1.276  1.00  0.00     0.169 HD
HETATM    9  C19 UNL     1      -0.817  -4.226   0.879  1.00  0.00     0.184 A 
HETATM   10  N8  UNL     1      -1.657  -3.263   0.477  1.00  0.00    -0.337 N 
ATOM     11  H8  UNL     1      -2.658  -3.450   0.421  1.00  0.00     0.168 HD
HETATM   12  C20 UNL     1      -1.181  -2.054   0.149  1.00  0.00     0.131 A 
ENDROOT
BRANCH   1  13
HETATM   13  C5  UNL     1      -3.172  -0.766  -0.489  1.00  0.00     0.279 C 
HETATM   14  O4  UNL     1      -3.431  -0.004  -1.632  1.00  0.00    -0.351 OA
HETATM   15  C3  UNL     1      -4.754   0.359  -1.576  1.00  0.00     0.195 C 
HETATM   16  C2  UNL     1      -5.163   0.419  -0.143  1.00  0.00     0.212 C 
HETATM   17  C21 UNL     1      -3.881   0.017   0.584  1.00  0.00     0.223 C 
BRANCH  15  18
HETATM   18  C4  UNL     1      -5.660  -0.484  -2.436  1.00  0.00     0.199 C 
BRANCH  18  19
HETATM   19  O3  UNL     1      -5.656  -1.820  -2.115  1.00  0.00    -0.398 OA
ATOM     20  H3  UNL     1      -6.227  -2.351  -2.657  1.00  0.00     0.209 HD
ENDBRANCH  18  19
ENDBRANCH  15  18
BRANCH  16  21
HETATM   21  C1  UNL     1      -5.670   1.741   0.279  1.00  0.00     0.276 C 
HETATM   22  N2  UNL     1      -4.988   2.948   0.125  1.00  0.00    -0.274 N 
ATOM     23  H2  UNL     1      -4.066   2.955  -0.310  1.00  0.00     0.189 HD
HETATM   24  O1  UNL     1      -6.828   1.754   0.826  1.00  0.00    -0.268 OA
BRANCH  22  25
HETATM   25  N1  UNL     1      -5.554   4.140   0.559  1.00  0.00    -0.343 N 
ATOM     26  H12 UNL     1      -6.477   4.115   0.992  1.00  0.00     0.176 HD
ATOM     27  H11 UNL     1      -5.055   5.023   0.446  1.00  0.00     0.176 HD
ENDBRANCH  22  25
ENDBRANCH  16  21
BRANCH  16  28
HETATM   28  O2  UNL     1      -6.121  -0.592   0.080  1.00  0.00    -0.375 OA
ATOM     29  H2  UNL     1      -5.795  -1.442  -0.191  1.00  0.00     0.211 HD
ENDBRANCH  16  28
BRANCH  17  30
HETATM   30  O9  UNL     1      -3.181   1.121   1.002  1.00  0.00    -0.374 OA
ATOM     31  H9  UNL     1      -2.384   0.871   1.454  1.00  0.00     0.211 HD
ENDBRANCH  17  30
BRANCH  17  32
HETATM   32  C22 UNL     1      -4.203  -0.829   1.765  1.00  0.00     0.274 C 
HETATM   33  N9  UNL     1      -4.925  -2.039   1.698  1.00  0.00    -0.059 NA
HETATM   34  O10 UNL     1      -3.821  -0.468   2.917  1.00  0.00    -0.273 OA
ENDBRANCH  17  32
ENDBRANCH   1  13
BRANCH   2  35
HETATM   35  O5  UNL     1      -1.033   1.343  -0.911  1.00  0.00    -0.344 OA
ATOM     36  H5  UNL     1      -0.359   1.999  -1.042  1.00  0.00     0.219 HD
ENDBRANCH   2  35
BRANCH   3  37
HETATM   37  O6  UNL     1       1.604   0.097  -0.212  1.00  0.00    -0.340 OA
BRANCH  37  38
HETATM   38  C8  UNL     1       2.204   0.821   0.822  1.00  0.00     0.236 C 
BRANCH  38  39
HETATM   39  C9  UNL     1       3.506   1.347   0.325  1.00  0.00     0.069 A 
HETATM   40  C10 UNL     1       4.737   0.732   0.395  1.00  0.00     0.146 A 
HETATM   41  N4  UNL     1       5.667   1.526  -0.163  1.00  0.00    -0.251 N 
HETATM   42  N5  UNL     1       5.041   2.611  -0.572  1.00  0.00    -0.236 N 
HETATM   43  N6  UNL     1       3.757   2.517  -0.288  1.00  0.00    -0.286 N 
ATOM     44  H5  UNL     1       5.483   3.404  -1.038  1.00  0.00     0.209 HD
ATOM     45  H6  UNL     1       3.057   3.227  -0.502  1.00  0.00     0.188 HD
BRANCH  41  46
HETATM   46  C11 UNL     1       7.070   1.234  -0.282  1.00  0.00     0.057 A 
HETATM   47  C12 UNL     1       7.763   1.653  -1.387  1.00  0.00     0.034 A 
HETATM   48  C13 UNL     1       9.113   1.364  -1.489  1.00  0.00     0.039 A 
HETATM   49  C14 UNL     1       9.781   0.664  -0.504  1.00  0.00     0.065 A 
HETATM   50  C15 UNL     1       9.040   0.264   0.590  1.00  0.00     0.039 A 
HETATM   51  C16 UNL     1       7.691   0.544   0.707  1.00  0.00     0.034 A 
BRANCH  49  52
HETATM   52  O7  UNL     1      11.140   0.364  -0.587  1.00  0.00    -0.361 OA
ATOM     53  H7  UNL     1      11.600  -0.118   0.091  1.00  0.00     0.217 HD
ENDBRANCH  49  52
ENDBRANCH  41  46
ENDBRANCH  38  39
ENDBRANCH  37  38
ENDBRANCH   3  37
TORSDOF 14
