REMARK  3 active torsions:
REMARK  status: ('A' for Active; 'I' for Inactive)
REMARK    1  A    between atoms: C4_5  and  C5_6 
REMARK    2  A    between atoms: C5_6  and  N2_7 
REMARK    3  A    between atoms: N2_7  and  C6_10 
ROOT
HETATM    1  C5  UNL     1      -0.139   0.230   0.478  1.00  0.00     0.239 C 
ENDROOT
BRANCH   1   2
HETATM    2  C4  UNL     1      -0.867  -0.853  -0.237  1.00  0.00     0.038 C 
HETATM    3  C3  UNL     1      -1.770  -1.524   0.812  1.00  0.00     0.025 C 
HETATM    4  C2  UNL     1      -3.164  -0.980   0.774  1.00  0.00     0.120 C 
HETATM    5  N1  UNL     1      -3.256   0.380   0.372  1.00  0.00    -0.201 NA
HETATM    6  C1  UNL     1      -4.577   0.884   0.515  1.00  0.00     0.143 C 
HETATM    7  O1  UNL     1      -2.644   0.694  -0.760  1.00  0.00    -0.303 OA
HETATM    8  C11 UNL     1      -1.846  -0.325  -1.270  1.00  0.00     0.200 C 
ENDBRANCH   1   2
BRANCH   1   9
HETATM    9  N2  UNL     1       0.794   0.995  -0.280  1.00  0.00    -0.070 N 
ATOM     10  H22 UNL     1       0.350   1.390  -1.109  1.00  0.00     0.277 HD
ATOM     11  H21 UNL     1       1.037   1.857   0.207  1.00  0.00     0.277 HD
BRANCH   9  12
HETATM   12  C6  UNL     1       1.991   0.249  -0.639  1.00  0.00     0.185 C 
HETATM   13  C7  UNL     1       3.009   1.263  -1.114  1.00  0.00     0.033 C 
HETATM   14  C8  UNL     1       4.327   0.896  -0.456  1.00  0.00     0.002 C 
HETATM   15  C9  UNL     1       4.082  -0.385   0.264  1.00  0.00     0.002 C 
HETATM   16  C10 UNL     1       2.622  -0.279   0.627  1.00  0.00     0.033 C 
ENDBRANCH   9  12
ENDBRANCH   1   9
TORSDOF 3
