REMARK  11 active torsions:
REMARK  status: ('A' for Active; 'I' for Inactive)
REMARK       I    between atoms: C2_2  and  N1_4 
REMARK    1  A    between atoms: N1_4  and  C3_6 
REMARK    2  A    between atoms: C3_6  and  C4_7 
REMARK    3  A    between atoms: C3_6  and  C12_16 
REMARK    4  A    between atoms: C4_7  and  C5_9 
REMARK    5  A    between atoms: C12_16  and  C14_18 
REMARK    6  A    between atoms: C12_16  and  C20_28 
REMARK    7  A    between atoms: C14_18  and  C15_19 
REMARK    8  A    between atoms: C15_19  and  O3_20 
REMARK    9  A    between atoms: C15_19  and  C16_22 
REMARK   10  A    between atoms: C16_22  and  O4_23 
REMARK   11  A    between atoms: C16_22  and  C17_25 
ROOT
HETATM    1  C12 UNL     1       0.546  -0.428  -0.080  1.00  0.00     0.008 C 
HETATM    2  C13 UNL     1       1.168  -1.837   0.290  1.00  0.00     0.022 C 
ENDROOT
BRANCH   1   3
HETATM    3  C3  UNL     1      -0.766  -0.387   0.600  1.00  0.00     0.067 C 
BRANCH   3   4
HETATM    4  N1  UNL     1      -0.723  -0.610   2.044  1.00  0.00    -0.327 N 
HETATM    5  C2  UNL     1      -1.336   0.228   3.011  1.00  0.00     0.218 C 
HETATM    6  C1  UNL     1      -1.211  -0.131   4.440  1.00  0.00     0.117 C 
HETATM    7  O1  UNL     1      -1.980   1.258   2.713  1.00  0.00    -0.274 OA
ATOM      8  H1  UNL     1      -0.215  -1.428   2.381  1.00  0.00     0.168 HD
ENDBRANCH   3   4
BRANCH   3   9
HETATM    9  C4  UNL     1      -1.960  -1.016   0.026  1.00  0.00     0.177 C 
HETATM   10  O2  UNL     1      -2.220  -2.187   0.378  1.00  0.00    -0.291 OA
BRANCH   9  11
HETATM   11  C5  UNL     1      -2.911  -0.416  -0.923  1.00  0.00     0.070 C 
HETATM   12  C6  UNL     1      -4.003  -1.383  -1.337  1.00  0.00    -0.003 C 
HETATM   13  C7  UNL     1      -4.809  -1.539  -0.096  1.00  0.00     0.006 C 
HETATM   14  C11 UNL     1      -4.794  -0.453  -2.253  1.00  0.00     0.006 C 
HETATM   15  C8  UNL     1      -4.592  -0.242   0.678  1.00  0.00     0.006 C 
HETATM   16  C9  UNL     1      -3.847   0.620  -0.309  1.00  0.00    -0.003 C 
HETATM   17  C10 UNL     1      -4.775   0.875  -1.479  1.00  0.00     0.006 C 
ENDBRANCH   9  11
ENDBRANCH   3   9
ENDBRANCH   1   3
BRANCH   1  18
HETATM   18  C14 UNL     1       1.581   0.558   0.301  1.00  0.00     0.050 C 
BRANCH  18  19
HETATM   19  C15 UNL     1       2.158   0.673   1.646  1.00  0.00     0.148 C 
BRANCH  19  20
HETATM   20  O3  UNL     1       2.848  -0.391   2.160  1.00  0.00    -0.393 OA
ATOM     21  H3  UNL     1       3.221  -0.317   3.030  1.00  0.00     0.210 HD
ENDBRANCH  19  20
BRANCH  19  22
HETATM   22  C16 UNL     1       3.063   1.911   1.629  1.00  0.00     0.150 C 
BRANCH  22  23
HETATM   23  O4  UNL     1       2.331   3.004   1.117  1.00  0.00    -0.393 OA
ATOM     24  H4  UNL     1       2.892   3.771   1.106  1.00  0.00     0.210 HD
ENDBRANCH  22  23
BRANCH  22  25
HETATM   25  C17 UNL     1       4.338   1.762   0.892  1.00  0.00     0.009 C 
HETATM   26  C18 UNL     1       5.287   0.730   1.412  1.00  0.00     0.012 C 
HETATM   27  C19 UNL     1       5.048   3.109   0.743  1.00  0.00     0.012 C 
ENDBRANCH  22  25
ENDBRANCH  19  22
ENDBRANCH  18  19
ENDBRANCH   1  18
BRANCH   1  28
HETATM   28  C20 UNL     1       0.529  -0.559  -1.598  1.00  0.00    -0.000 C 
HETATM   29  C21 UNL     1       0.046  -1.795  -2.221  1.00  0.00     0.006 C 
HETATM   30  C22 UNL     1       0.208  -1.385  -3.733  1.00  0.00     0.000 C 
HETATM   31  C23 UNL     1       1.498  -0.600  -3.733  1.00  0.00     0.000 C 
HETATM   32  C24 UNL     1       1.842  -0.324  -2.264  1.00  0.00     0.006 C 
ENDBRANCH   1  28
TORSDOF 11
