REMARK  10 active torsions:
REMARK  status: ('A' for Active; 'I' for Inactive)
REMARK    1  A    between atoms: S1_2  and  C2_3 
REMARK    2  A    between atoms: C4_5  and  C5_7 
REMARK    3  A    between atoms: C5_7  and  C6_8 
REMARK    4  A    between atoms: C6_8  and  N4_31 
REMARK    5  A    between atoms: N1_9  and  O1_11 
REMARK    6  A    between atoms: O1_11  and  C7_12 
REMARK    7  A    between atoms: C7_12  and  C8_13 
REMARK       I    between atoms: C8_13  and  N2_15 
REMARK    8  A    between atoms: N2_15  and  N3_17 
REMARK       I    between atoms: N3_17  and  C9_19 
REMARK    9  A    between atoms: C9_19  and  C10_21 
REMARK   10  A    between atoms: C11_22  and  O4_23 
ROOT
HETATM    1  C8  UNL     1       1.898   1.320  -1.191  1.00  0.00     0.262 C 
HETATM    2  O2  UNL     1       2.275   2.447  -1.662  1.00  0.00    -0.269 OA
HETATM    3  N2  UNL     1       2.846   0.369  -0.758  1.00  0.00    -0.265 N 
ATOM      4  H2  UNL     1       2.549  -0.526  -0.368  1.00  0.00     0.190 HD
ENDROOT
BRANCH   1   5
HETATM    5  C7  UNL     1       0.450   1.054  -1.124  1.00  0.00     0.305 C 
BRANCH   5   6
HETATM    6  O1  UNL     1       0.163  -0.168  -0.569  1.00  0.00    -0.270 OA
BRANCH   6   7
HETATM    7  N1  UNL     1      -0.887  -0.884  -0.328  1.00  0.00    -0.254 N 
HETATM    8  C6  UNL     1      -2.069  -0.799   0.094  1.00  0.00     0.104 C 
ATOM      9  H1  UNL     1      -0.687  -1.856  -0.562  1.00  0.00     0.195 HD
BRANCH   8  10
HETATM   10  C5  UNL     1      -2.585   0.527   0.496  1.00  0.00     0.130 C 
BRANCH  10  11
HETATM   11  C4  UNL     1      -3.584   1.127  -0.373  1.00  0.00     0.031 C 
HETATM   12  C2  UNL     1      -4.729   1.556   0.111  1.00  0.00    -0.008 C 
HETATM   13  C3  UNL     1      -5.030   1.491   1.561  1.00  0.00     0.057 C 
HETATM   14 CL1  UNL     1      -3.318   1.287  -2.109  1.00  0.00    -0.087 Cl
BRANCH  12  15
HETATM   15  S1  UNL     1      -5.943   2.268  -0.979  1.00  0.00    -0.138 SA
HETATM   16  C1  UNL     1      -7.360   2.963  -0.115  1.00  0.00     0.095 C 
ENDBRANCH  12  15
ENDBRANCH  10  11
ENDBRANCH   8  10
BRANCH   8  17
HETATM   17  N4  UNL     1      -2.918  -1.975   0.160  1.00  0.00    -0.369 N 
HETATM   18  C16 UNL     1      -2.356  -3.297   0.346  1.00  0.00     0.124 C 
HETATM   19  C17 UNL     1      -3.495  -4.260   0.366  1.00  0.00     0.021 C 
HETATM   20  C18 UNL     1      -4.539  -3.520  -0.448  1.00  0.00     0.021 C 
HETATM   21  C19 UNL     1      -4.335  -2.093   0.074  1.00  0.00     0.124 C 
ENDBRANCH   8  17
ENDBRANCH   6   7
ENDBRANCH   5   6
ENDBRANCH   1   5
BRANCH   3  22
HETATM   22  N3  UNL     1       4.241   0.694  -0.881  1.00  0.00    -0.263 N 
HETATM   23  C9  UNL     1       5.109   0.351   0.144  1.00  0.00     0.276 C 
HETATM   24  O3  UNL     1       4.597  -0.238   1.157  1.00  0.00    -0.266 OA
ATOM     25  H3  UNL     1       4.588   1.171  -1.713  1.00  0.00     0.190 HD
BRANCH  23  26
HETATM   26  C10 UNL     1       6.541   0.588   0.203  1.00  0.00     0.105 A 
HETATM   27  C11 UNL     1       7.275   0.174   1.326  1.00  0.00     0.085 A 
HETATM   28  C12 UNL     1       8.634   0.349   1.450  1.00  0.00     0.056 A 
HETATM   29  C13 UNL     1       9.327   0.953   0.445  1.00  0.00     0.016 A 
HETATM   30 BR1  UNL     1      11.208   1.193   0.624  1.00  0.00    -0.051 Br
HETATM   31  C14 UNL     1       8.650   1.375  -0.672  1.00  0.00     0.062 A 
HETATM   32  C15 UNL     1       7.272   1.192  -0.788  1.00  0.00     0.136 A 
HETATM   33  F1  UNL     1       6.689   1.638  -1.919  1.00  0.00    -0.205 F 
BRANCH  27  34
HETATM   34  O4  UNL     1       6.546  -0.447   2.354  1.00  0.00    -0.360 OA
ATOM     35  H4  UNL     1       7.043  -0.727   3.114  1.00  0.00     0.217 HD
ENDBRANCH  27  34
ENDBRANCH  23  26
ENDBRANCH   3  22
TORSDOF 10
