REMARK  6 active torsions:
REMARK  status: ('A' for Active; 'I' for Inactive)
REMARK    1  A    between atoms: O1_2  and  C2_3 
REMARK    2  A    between atoms: C3_5  and  C4_6 
REMARK    3  A    between atoms: C4_6  and  O3_7 
REMARK    4  A    between atoms: C5_9  and  O4_10 
REMARK    5  A    between atoms: C6_12  and  C7_13 
REMARK    6  A    between atoms: C7_13  and  O5_14 
ROOT
HETATM    1  C2  UNL     1       1.027   0.766   0.364  1.00  0.00     0.413 C 
HETATM    2  O2  UNL     1       0.047   1.631  -0.114  1.00  0.00    -0.329 OA
HETATM    3  C3  UNL     1      -1.015   0.979  -0.694  1.00  0.00     0.181 C 
HETATM    4  C5  UNL     1      -0.843  -0.512  -0.598  1.00  0.00     0.180 C 
HETATM    5  C6  UNL     1      -0.372  -0.960   0.759  1.00  0.00     0.181 C 
HETATM    6  O6  UNL     1       0.521  -0.057   1.331  1.00  0.00    -0.329 OA
ENDROOT
BRANCH   3   7
HETATM    7  C4  UNL     1      -2.307   1.439  -0.055  1.00  0.00     0.199 C 
BRANCH   7   8
HETATM    8  O3  UNL     1      -2.332   1.181   1.291  1.00  0.00    -0.398 OA
ATOM      9  H3  UNL     1      -3.143   1.470   1.692  1.00  0.00     0.209 HD
ENDBRANCH   7   8
ENDBRANCH   3   7
BRANCH   4  10
HETATM   10  O4  UNL     1      -2.073  -1.141  -0.879  1.00  0.00    -0.390 OA
ATOM     11  H4  UNL     1      -1.964  -2.083  -0.818  1.00  0.00     0.210 HD
ENDBRANCH   4  10
BRANCH   1  12
HETATM   12  O1  UNL     1       2.092   1.547   0.786  1.00  0.00    -0.344 OA
HETATM   13  C1  UNL     1       3.248   1.330   0.051  1.00  0.00     0.207 C 
ENDBRANCH   1  12
BRANCH   5  14
HETATM   14  C7  UNL     1       0.323  -2.306   0.696  1.00  0.00     0.199 C 
BRANCH  14  15
HETATM   15  O5  UNL     1       1.482  -2.276  -0.064  1.00  0.00    -0.398 OA
ATOM     16  H5  UNL     1       1.917  -3.119  -0.103  1.00  0.00     0.209 HD
ENDBRANCH  14  15
ENDBRANCH   5  14
TORSDOF 6
