REMARK  6 active torsions:
REMARK  status: ('A' for Active; 'I' for Inactive)
REMARK    1  A    between atoms: C2_2  and  N1_4 
REMARK    2  A    between atoms: N1_4  and  C4_6 
REMARK    3  A    between atoms: C5_11  and  N4_12 
REMARK    4  A    between atoms: N4_12  and  C6_14 
REMARK    5  A    between atoms: C6_14  and  C7_15 
REMARK    6  A    between atoms: C7_15  and  N5_16 
ROOT
HETATM    1  C4  UNL     1      -2.249   0.016   0.334  1.00  0.00     0.708 A 
HETATM    2  N2  UNL     1      -1.625  -0.856  -0.467  1.00  0.00    -0.117 N 
ATOM      3  H2  UNL     1      -2.095  -1.589  -0.998  1.00  0.00     0.206 HD
HETATM    4  N3  UNL     1      -0.301  -0.640  -0.481  1.00  0.00    -0.117 N 
ATOM      5  H3  UNL     1       0.393  -1.168  -1.010  1.00  0.00     0.206 HD
HETATM    6  C5  UNL     1      -0.062   0.398   0.330  1.00  0.00     0.707 A 
HETATM    7  N6  UNL     1      -1.229   0.799   0.826  1.00  0.00    -0.020 N 
ATOM      8  H6  UNL     1      -1.351   1.575   1.477  1.00  0.00     0.203 HD
ENDROOT
BRANCH   6   9
HETATM    9  N4  UNL     1       1.073   0.950   0.609  1.00  0.00    -0.223 N 
ATOM     10  H4  UNL     1       1.132   1.743   1.248  1.00  0.00     0.177 HD
BRANCH   9  11
HETATM   11  C6  UNL     1       2.260   0.402  -0.018  1.00  0.00     0.168 C 
BRANCH  11  12
HETATM   12  C7  UNL     1       3.499   1.109   0.494  1.00  0.00     0.291 C 
BRANCH  12  13
HETATM   13  N5  UNL     1       4.724   0.654  -0.062  1.00  0.00     0.081 N 
HETATM   14  C8  UNL     1       4.899   0.965  -1.462  1.00  0.00     0.309 C 
HETATM   15  C9  UNL     1       5.073  -0.705   0.247  1.00  0.00     0.309 C 
ENDBRANCH  12  13
ENDBRANCH  11  12
ENDBRANCH   9  11
ENDBRANCH   6   9
BRANCH   1  16
HETATM   16  N1  UNL     1      -3.458   0.164   0.615  1.00  0.00    -0.220 N 
ATOM     17  H1  UNL     1      -3.594   0.934   1.270  1.00  0.00     0.178 HD
BRANCH  16  18
HETATM   18  C2  UNL     1      -4.665  -0.430   0.282  1.00  0.00     0.091 C 
HETATM   19  C1  UNL     1      -4.653  -1.614  -0.644  1.00  0.00     0.032 C 
HETATM   20  C3  UNL     1      -5.604   0.664  -0.267  1.00  0.00     0.032 C 
ENDBRANCH  16  18
ENDBRANCH   1  16
TORSDOF 6
