REMARK  9 active torsions:
REMARK  status: ('A' for Active; 'I' for Inactive)
REMARK    1  A    between atoms: C1_4  and  O1_5 
REMARK    2  A    between atoms: C1_4  and  C2_7 
REMARK    3  A    between atoms: N2_9  and  C4_10 
REMARK    4  A    between atoms: C4_10  and  O2_11 
REMARK    5  A    between atoms: C4_10  and  C5_13 
REMARK    6  A    between atoms: N3_21  and  C13_22 
REMARK    7  A    between atoms: C13_22  and  C14_23 
REMARK    8  A    between atoms: C14_23  and  N4_24 
REMARK       I    between atoms: N4_24  and  C15_26 
REMARK    9  A    between atoms: C15_26  and  C16_28 
ROOT
HETATM    1  C2  UNL     1      -0.667   1.151   0.109  1.00  0.00     0.171 C 
HETATM    2  C3  UNL     1      -1.998   1.269   0.843  1.00  0.00     0.158 C 
HETATM    3  N2  UNL     1      -2.336   0.014   1.407  1.00  0.00    -0.361 N 
HETATM    4  C11 UNL     1      -1.360  -0.541   2.360  1.00  0.00     0.144 C 
HETATM    5  C12 UNL     1       0.029  -0.337   1.860  1.00  0.00     0.137 C 
HETATM    6  N3  UNL     1       0.104   0.034   0.488  1.00  0.00    -0.397 N 
ENDROOT
BRANCH   6   7
HETATM    7  C13 UNL     1       0.015  -1.015  -0.467  1.00  0.00     0.137 C 
BRANCH   7   8
HETATM    8  C14 UNL     1       0.815  -2.246  -0.105  1.00  0.00     0.142 C 
BRANCH   8   9
HETATM    9  N4  UNL     1       2.222  -2.005   0.042  1.00  0.00    -0.359 N 
HETATM   10  C15 UNL     1       3.082  -1.523  -0.957  1.00  0.00     0.222 C 
HETATM   11  O3  UNL     1       2.670  -1.251  -2.118  1.00  0.00    -0.273 OA
ATOM     12  H4  UNL     1       2.634  -2.202   0.954  1.00  0.00     0.162 HD
BRANCH  10  13
HETATM   13  C16 UNL     1       4.513  -1.327  -0.641  1.00  0.00     0.082 C 
HETATM   14  C17 UNL     1       5.305  -0.817  -1.828  1.00  0.00     0.019 C 
HETATM   15  C18 UNL     1       6.173   0.242  -1.155  1.00  0.00    -0.013 C 
HETATM   16  C19 UNL     1       6.990  -0.424  -0.106  1.00  0.00     0.005 C 
HETATM   17  C22 UNL     1       5.084   0.920  -0.302  1.00  0.00     0.010 C 
HETATM   18  C20 UNL     1       6.069  -0.659   1.101  1.00  0.00     0.006 C 
HETATM   19  C21 UNL     1       4.725  -0.351   0.488  1.00  0.00    -0.001 C 
ENDBRANCH  10  13
ENDBRANCH   8   9
ENDBRANCH   7   8
ENDBRANCH   6   7
BRANCH   1  20
HETATM   20  C1  UNL     1       0.079   2.438   0.156  1.00  0.00     0.133 C 
HETATM   21  N1  UNL     1       0.418   3.091  -0.899  1.00  0.00    -0.382 N 
ATOM     22  H12 UNL     1       0.929   3.973  -0.867  1.00  0.00     0.158 HD
ATOM     23  H11 UNL     1       0.174   2.730  -1.821  1.00  0.00     0.158 HD
BRANCH  20  24
HETATM   24  O1  UNL     1       0.410   2.929   1.409  1.00  0.00    -0.348 OA
ATOM     25  H1  UNL     1       0.160   2.447   2.188  1.00  0.00     0.219 HD
ENDBRANCH  20  24
ENDBRANCH   1  20
BRANCH   3  26
HETATM   26  C4  UNL     1      -3.501  -0.698   1.151  1.00  0.00     0.117 C 
BRANCH  26  27
HETATM   27  O2  UNL     1      -3.590  -1.846   1.775  1.00  0.00    -0.349 OA
ATOM     28  H2  UNL     1      -4.387  -2.333   1.600  1.00  0.00     0.219 HD
ENDBRANCH  26  27
BRANCH  26  29
HETATM   29  C5  UNL     1      -4.653  -0.399   0.308  1.00  0.00     0.060 C 
HETATM   30  C6  UNL     1      -4.242  -0.287  -1.135  1.00  0.00     0.013 C 
HETATM   31  C7  UNL     1      -4.984   0.863  -1.794  1.00  0.00     0.001 C 
HETATM   32  C8  UNL     1      -6.468   0.635  -1.554  1.00  0.00     0.000 C 
HETATM   33  C9  UNL     1      -6.767   0.868  -0.081  1.00  0.00     0.001 C 
HETATM   34  C10 UNL     1      -5.464   0.799   0.723  1.00  0.00     0.013 C 
ENDBRANCH  26  29
ENDBRANCH   3  26
TORSDOF 9
