REMARK  6 active torsions:
REMARK  status: ('A' for Active; 'I' for Inactive)
REMARK    1  A    between atoms: C2_2  and  O1_4 
REMARK    2  A    between atoms: O1_4  and  C4_5 
REMARK       I    between atoms: C4_5  and  N1_7 
REMARK    3  A    between atoms: C5_9  and  O3_10 
REMARK    4  A    between atoms: O3_10  and  C6_11 
REMARK    5  A    between atoms: C6_11  and  C7_13 
REMARK    6  A    between atoms: C7_13  and  C8_14 
ROOT
HETATM    1  C7  UNL     1      -0.852   0.483  -1.314  1.00  0.00     0.121 C 
ENDROOT
BRANCH   1   2
HETATM    2  C6  UNL     1       0.580   0.369  -0.964  1.00  0.00     0.265 C 
HETATM    3  O4  UNL     1       1.323  -0.105  -1.892  1.00  0.00    -0.265 OA
BRANCH   2   4
HETATM    4  O3  UNL     1       1.186   0.702   0.205  1.00  0.00    -0.274 OA
BRANCH   4   5
HETATM    5  C5  UNL     1       2.572   0.536   0.390  1.00  0.00     0.241 C 
HETATM    6  N1  UNL     1       3.228   0.053  -0.598  1.00  0.00    -0.293 N 
HETATM    7  C4  UNL     1       4.595  -0.206  -0.670  1.00  0.00     0.366 C 
ATOM      8  H1  UNL     1       2.685  -0.169  -1.432  1.00  0.00     0.172 HD
HETATM    9  O2  UNL     1       5.207  -0.238  -1.760  1.00  0.00    -0.238 OA
BRANCH   7  10
HETATM   10  O1  UNL     1       5.321  -0.439   0.490  1.00  0.00    -0.299 OA
BRANCH  10  11
HETATM   11  C2  UNL     1       6.709  -0.707   0.478  1.00  0.00     0.125 C 
HETATM   12  C1  UNL     1       7.508   0.340   1.189  1.00  0.00     0.040 C 
HETATM   13  C3  UNL     1       7.055  -2.057   1.020  1.00  0.00     0.040 C 
ENDBRANCH  10  11
ENDBRANCH   7  10
ENDBRANCH   4   5
ENDBRANCH   2   4
ENDBRANCH   1   2
BRANCH   1  14
HETATM   14  C8  UNL     1      -1.732   0.952  -0.194  1.00  0.00    -0.028 C 
HETATM   15  C9  UNL     1      -1.213   2.307   0.235  1.00  0.00     0.016 C 
HETATM   16  C10 UNL     1      -1.749  -0.077   0.878  1.00  0.00    -0.005 C 
HETATM   17  C11 UNL     1      -2.350   0.516   2.128  1.00  0.00     0.006 C 
HETATM   18  C17 UNL     1      -2.494  -1.301   0.411  1.00  0.00     0.014 C 
HETATM   19  C12 UNL     1      -3.489   1.440   1.843  1.00  0.00     0.005 C 
HETATM   20  C13 UNL     1      -4.134   1.175   0.506  1.00  0.00    -0.009 C 
HETATM   21  C14 UNL     1      -4.728  -0.226   0.584  1.00  0.00     0.014 C 
HETATM   22  C19 UNL     1      -3.158   1.190  -0.639  1.00  0.00    -0.001 C 
HETATM   23  C15 UNL     1      -3.763  -1.016  -0.311  1.00  0.00    -0.043 C 
HETATM   24  C16 UNL     1      -4.357  -2.305  -0.786  1.00  0.00     0.015 C 
HETATM   25  C18 UNL     1      -3.617  -0.001  -1.439  1.00  0.00     0.015 C 
ENDBRANCH   1  14
TORSDOF 6
