REMARK  4 active torsions:
REMARK  status: ('A' for Active; 'I' for Inactive)
REMARK    1  A    between atoms: N1_2  and  C2_4 
REMARK    2  A    between atoms: C2_4  and  O1_5 
REMARK    3  A    between atoms: C2_4  and  C3_7 
REMARK    4  A    between atoms: C4_8  and  N2_9 
REMARK       I    between atoms: N2_9  and  C5_11 
ROOT
HETATM    1  C3  UNL     1       0.214  -0.002  -0.070  1.00  0.00     0.057 A 
HETATM    2  C4  UNL     1       1.414  -0.316  -0.691  1.00  0.00     0.092 A 
HETATM    3  S1  UNL     1       0.992  -1.546  -1.800  1.00  0.00    -0.074 SA
HETATM    4  C7  UNL     1      -0.673  -1.646  -1.469  1.00  0.00     0.003 A 
HETATM    5  C8  UNL     1      -0.900  -0.745  -0.523  1.00  0.00    -0.009 A 
HETATM    6  C9  UNL     1      -2.371  -0.618  -0.147  1.00  0.00     0.030 C 
HETATM    7  C10 UNL     1      -2.726  -1.371   1.081  1.00  0.00     0.032 C 
HETATM    8  C11 UNL     1      -2.925   0.754  -0.269  1.00  0.00     0.032 C 
HETATM    9  S2  UNL     1      -3.207  -1.545  -1.511  1.00  0.00    -0.150 SA
HETATM   10  C12 UNL     1      -1.791  -2.489  -1.973  1.00  0.00     0.121 C 
ENDROOT
BRANCH   1  11
HETATM   11  C2  UNL     1       0.245   1.090   0.929  1.00  0.00     0.149 C 
BRANCH  11  12
HETATM   12  N1  UNL     1      -0.681   1.466   1.899  1.00  0.00    -0.375 N 
HETATM   13  C1  UNL     1      -0.339   2.639   2.743  1.00  0.00     0.148 C 
ATOM     14  H1  UNL     1      -1.556   0.958   2.024  1.00  0.00     0.161 HD
ENDBRANCH  11  12
BRANCH  11  15
HETATM   15  O1  UNL     1       1.330   1.828   0.913  1.00  0.00    -0.346 OA
ATOM     16  H1  UNL     1       1.962   1.572   0.251  1.00  0.00     0.219 HD
ENDBRANCH  11  15
ENDBRANCH   1  11
BRANCH   2  17
HETATM   17  N2  UNL     1       2.758   0.177  -0.485  1.00  0.00    -0.321 N 
HETATM   18  C5  UNL     1       3.773  -0.348  -1.358  1.00  0.00     0.218 C 
HETATM   19  C6  UNL     1       5.178   0.063  -1.262  1.00  0.00     0.117 C 
HETATM   20  O2  UNL     1       3.466  -1.182  -2.233  1.00  0.00    -0.274 OA
ATOM     21  H2  UNL     1       2.974   0.860   0.241  1.00  0.00     0.169 HD
ENDBRANCH   2  17
TORSDOF 4
