REMARK  4 active torsions:
REMARK  status: ('A' for Active; 'I' for Inactive)
REMARK    1  A    between atoms: O1_2  and  C2_3 
REMARK    2  A    between atoms: N1_12  and  N2_13 
REMARK    3  A    between atoms: N2_13  and  C8_15 
REMARK    4  A    between atoms: C18_26  and  O4_27 
ROOT
HETATM    1  C2  UNL     1       4.308  -0.349   0.860  1.00  0.00     0.121 A 
HETATM    2  C3  UNL     1       3.393   0.298   1.666  1.00  0.00     0.049 A 
HETATM    3 BR1  UNL     1       3.787   0.431   3.531  1.00  0.00    -0.048 Br
HETATM    4  C4  UNL     1       2.231   0.836   1.158  1.00  0.00     0.056 A 
HETATM    5  C5  UNL     1       1.977   0.722  -0.200  1.00  0.00     0.098 A 
HETATM    6  C6  UNL     1       2.868   0.082  -1.033  1.00  0.00     0.143 A 
HETATM    7  O2  UNL     1       2.375   0.124  -2.252  1.00  0.00    -0.278 OA
HETATM    8  C7  UNL     1       1.225   0.745  -2.272  1.00  0.00     0.242 A 
HETATM    9  S1  UNL     1       0.262   1.024  -3.590  1.00  0.00    -0.031 SA
HETATM   10  N1  UNL     1       0.975   1.117  -1.007  1.00  0.00    -0.221 N 
HETATM   11  C18 UNL     1       4.025  -0.444  -0.482  1.00  0.00     0.139 A 
ENDROOT
BRANCH  10  12
HETATM   12  N2  UNL     1      -0.151   1.807  -0.588  1.00  0.00    -0.296 N 
ATOM     13  H2  UNL     1      -0.082   2.819  -0.483  1.00  0.00     0.187 HD
BRANCH  12  14
HETATM   14  C8  UNL     1      -1.278   1.248  -0.324  1.00  0.00     0.041 C 
HETATM   15  C9  UNL     1      -1.536  -0.210  -0.429  1.00  0.00     0.095 C 
HETATM   16  C10 UNL     1      -2.940  -0.371   0.135  1.00  0.00     0.067 C 
HETATM   17  C11 UNL     1      -2.910  -1.505   1.153  1.00  0.00     0.038 C 
HETATM   18  C14 UNL     1      -3.924  -0.839  -0.898  1.00  0.00     0.038 C 
HETATM   19  O3  UNL     1      -3.277   0.823   0.732  1.00  0.00    -0.364 OA
HETATM   20  C12 UNL     1      -4.096  -2.372   0.870  1.00  0.00     0.003 C 
HETATM   21  C13 UNL     1      -4.979  -1.532  -0.049  1.00  0.00     0.003 C 
HETATM   22  C15 UNL     1      -2.558   1.841   0.129  1.00  0.00     0.094 C 
HETATM   23  C16 UNL     1      -2.326   2.993   1.096  1.00  0.00     0.052 C 
HETATM   24  C17 UNL     1      -3.373   2.388  -1.015  1.00  0.00     0.052 C 
ENDBRANCH  12  14
ENDBRANCH  10  12
BRANCH  11  25
HETATM   25  O4  UNL     1       4.917  -1.087  -1.326  1.00  0.00    -0.351 OA
HETATM   26  C19 UNL     1       4.711  -2.496  -1.498  1.00  0.00     0.210 C 
ENDBRANCH  11  25
BRANCH   1  27
HETATM   27  O1  UNL     1       5.488  -0.893   1.386  1.00  0.00    -0.352 OA
HETATM   28  C1  UNL     1       6.656  -0.088   1.446  1.00  0.00     0.210 C 
ENDBRANCH   1  27
TORSDOF 4
