REMARK  6 active torsions:
REMARK  status: ('A' for Active; 'I' for Inactive)
REMARK    1  A    between atoms: C2_2  and  C3_3 
REMARK    2  A    between atoms: C3_3  and  C4_4 
REMARK    3  A    between atoms: C4_4  and  O1_5 
REMARK    4  A    between atoms: N1_11  and  C9_12 
REMARK    5  A    between atoms: C9_12  and  O2_13 
REMARK    6  A    between atoms: C9_12  and  C10_15 
ROOT
HETATM    1  C3  UNL     1      -4.015   0.502   0.145  1.00  0.00     0.029 C 
HETATM    2  C5  UNL     1      -2.910  -0.300  -0.395  1.00  0.00     0.033 C 
HETATM    3  C6  UNL     1      -1.569   0.145   0.054  1.00  0.00    -0.027 C 
HETATM    4  C7  UNL     1      -1.079  -0.769   1.159  1.00  0.00     0.030 C 
HETATM    5  C8  UNL     1       0.147  -1.533   0.747  1.00  0.00     0.125 C 
HETATM    6  N1  UNL     1       1.160  -0.642   0.180  1.00  0.00    -0.364 N 
HETATM    7  C15 UNL     1       0.745   0.360  -0.758  1.00  0.00     0.125 C 
HETATM    8  C16 UNL     1      -0.681   0.024  -1.173  1.00  0.00     0.030 C 
HETATM    9  C17 UNL     1      -1.527   1.542   0.502  1.00  0.00     0.084 C 
HETATM   10  S1  UNL     1      -3.266   2.114   0.575  1.00  0.00    -0.156 SA
ENDROOT
BRANCH   6  11
HETATM   11  C9  UNL     1       2.498  -0.817   0.556  1.00  0.00     0.144 C 
BRANCH  11  12
HETATM   12  O2  UNL     1       2.666  -1.858   1.341  1.00  0.00    -0.348 OA
ATOM     13  H2  UNL     1       3.573  -1.977   1.596  1.00  0.00     0.219 HD
ENDBRANCH  11  12
BRANCH  11  14
HETATM   14  C10 UNL     1       3.705  -0.068   0.238  1.00  0.00     0.259 C 
HETATM   15  C11 UNL     1       3.793   0.686  -1.025  1.00  0.00     0.041 C 
HETATM   16  C12 UNL     1       5.158   1.373  -1.106  1.00  0.00     0.004 C 
HETATM   17  C13 UNL     1       6.208   0.288  -1.092  1.00  0.00     0.027 C 
HETATM   18  C14 UNL     1       6.100  -0.389   0.275  1.00  0.00     0.233 C 
HETATM   19  N2  UNL     1       4.821  -1.005   0.347  1.00  0.00    -0.064 N 
ATOM     20  H22 UNL     1       4.739  -1.563   1.197  1.00  0.00     0.278 HD
ATOM     21  H21 UNL     1       4.739  -1.743  -0.352  1.00  0.00     0.278 HD
ENDBRANCH  11  14
ENDBRANCH   6  11
BRANCH   1  22
HETATM   22  C2  UNL     1      -4.689  -0.079   1.354  1.00  0.00     0.018 C 
HETATM   23  C1  UNL     1      -5.355  -1.387   1.086  1.00  0.00     0.006 C 
ENDBRANCH   1  22
BRANCH   1  24
HETATM   24  C4  UNL     1      -5.059   0.723  -0.927  1.00  0.00     0.184 C 
BRANCH  24  25
HETATM   25  O1  UNL     1      -6.075   1.587  -0.539  1.00  0.00    -0.399 OA
ATOM     26  H1  UNL     1      -6.731   1.726  -1.212  1.00  0.00     0.209 HD
ENDBRANCH  24  25
ENDBRANCH   1  24
TORSDOF 6
