REMARK  11 active torsions:
REMARK  status: ('A' for Active; 'I' for Inactive)
REMARK    1  A    between atoms: C2_2  and  C3_3 
REMARK    2  A    between atoms: C2_2  and  C10_15 
REMARK    3  A    between atoms: C3_3  and  O1_4 
REMARK    4  A    between atoms: C3_3  and  N1_6 
REMARK    5  A    between atoms: C4_7  and  C5_8 
REMARK    6  A    between atoms: C10_15  and  O4_16 
REMARK    7  A    between atoms: C10_15  and  C11_18 
REMARK    8  A    between atoms: C11_18  and  O5_20 
REMARK    9  A    between atoms: C11_18  and  C13_22 
REMARK   10  A    between atoms: C16_25  and  C17_26 
REMARK       I    between atoms: C17_26  and  N2_28 
REMARK   11  A    between atoms: N2_28  and  C18_30 
ROOT
HETATM    1  C11 UNL     1      -0.766  -0.791   1.351  1.00  0.00     0.088 C 
HETATM    2  C12 UNL     1      -1.486   0.485   1.671  1.00  0.00     0.049 C 
ENDROOT
BRANCH   1   3
HETATM    3  C10 UNL     1      -1.670  -1.745   0.639  1.00  0.00     0.189 C 
BRANCH   3   4
HETATM    4  C2  UNL     1      -3.024  -1.912   1.149  1.00  0.00     0.015 C 
HETATM    5  C1  UNL     1      -3.123  -2.798   2.197  1.00  0.00     0.026 C 
BRANCH   4   6
HETATM    6  C3  UNL     1      -4.246  -1.261   0.803  1.00  0.00     0.147 C 
BRANCH   6   7
HETATM    7  O1  UNL     1      -5.247  -1.567   1.584  1.00  0.00    -0.346 OA
ATOM      8  H1  UNL     1      -6.060  -1.134   1.354  1.00  0.00     0.219 HD
ENDBRANCH   6   7
BRANCH   6   9
HETATM    9  N1  UNL     1      -4.599  -0.365  -0.205  1.00  0.00    -0.342 N 
HETATM   10  C4  UNL     1      -5.961   0.185  -0.320  1.00  0.00     0.188 C 
HETATM   11  C6  UNL     1      -5.915   1.259  -1.358  1.00  0.00     0.043 C 
HETATM   12  C7  UNL     1      -4.629   1.099  -2.097  1.00  0.00     0.013 A 
HETATM   13  C8  UNL     1      -4.170  -0.154  -2.697  1.00  0.00     0.032 A 
HETATM   14  C9  UNL     1      -3.801   0.148  -1.289  1.00  0.00     0.092 A 
BRANCH  10  15
HETATM   15  C5  UNL     1      -6.926  -0.886  -0.658  1.00  0.00     0.196 C 
HETATM   16  O2  UNL     1      -6.571  -2.092  -0.891  1.00  0.00    -0.646 OA
HETATM   17  O3  UNL     1      -8.287  -0.629  -0.738  1.00  0.00    -0.646 OA
ENDBRANCH  10  15
ENDBRANCH   6   9
ENDBRANCH   4   6
ENDBRANCH   3   4
BRANCH   3  18
HETATM   18  O4  UNL     1      -1.029  -2.988   0.459  1.00  0.00    -0.388 OA
ATOM     19  H4  UNL     1      -0.146  -2.879   0.126  1.00  0.00     0.210 HD
ENDBRANCH   3  18
ENDBRANCH   1   3
BRANCH   1  20
HETATM   20  O5  UNL     1      -0.351  -1.361   2.592  1.00  0.00    -0.387 OA
ATOM     21  H5  UNL     1       0.224  -0.755   3.045  1.00  0.00     0.210 HD
ENDBRANCH   1  20
BRANCH   1  22
HETATM   22  C13 UNL     1       0.468  -0.455   0.563  1.00  0.00     0.022 C 
HETATM   23  C14 UNL     1       1.354  -1.606   0.236  1.00  0.00     0.008 C 
HETATM   24  C15 UNL     1       2.794  -1.212   0.264  1.00  0.00     0.014 C 
HETATM   25  C16 UNL     1       3.155   0.096  -0.325  1.00  0.00     0.078 C 
HETATM   26  C23 UNL     1       2.104   1.174  -0.065  1.00  0.00     0.014 C 
HETATM   27  C24 UNL     1       1.313   0.629   1.138  1.00  0.00     0.008 C 
BRANCH  25  28
HETATM   28  C17 UNL     1       4.381   0.619   0.386  1.00  0.00     0.227 C 
HETATM   29  O6  UNL     1       4.828  -0.099   1.327  1.00  0.00    -0.273 OA
HETATM   30  N2  UNL     1       4.982   1.832   0.017  1.00  0.00    -0.313 N 
ATOM     31  H2  UNL     1       4.452   2.695   0.138  1.00  0.00     0.170 HD
BRANCH  30  32
HETATM   32  C18 UNL     1       6.155   1.903  -0.460  1.00  0.00     0.107 A 
HETATM   33  C19 UNL     1       6.918   0.781  -0.647  1.00  0.00     0.050 A 
HETATM   34  C20 UNL     1       8.213   0.844  -1.160  1.00  0.00     0.029 A 
HETATM   35  C21 UNL     1       8.733   2.072  -1.486  1.00  0.00     0.049 A 
HETATM   36 CL1  UNL     1      10.371   2.217  -2.139  1.00  0.00    -0.083 Cl
HETATM   37  C22 UNL     1       7.945   3.192  -1.290  1.00  0.00     0.113 A 
HETATM   38  N3  UNL     1       6.700   3.091  -0.792  1.00  0.00    -0.351 N 
ATOM     39  H3  UNL     1       6.150   3.940  -0.661  1.00  0.00     0.166 HD
ENDBRANCH  30  32
ENDBRANCH  25  28
ENDBRANCH   1  22
TORSDOF 11
