REMARK  6 active torsions:
REMARK  status: ('A' for Active; 'I' for Inactive)
REMARK    1  A    between atoms: N1_1  and  C1_5 
REMARK    2  A    between atoms: C1_5  and  C2_6 
REMARK    3  A    between atoms: C2_6  and  N2_7 
REMARK    4  A    between atoms: C2_6  and  C3_11 
REMARK    5  A    between atoms: C3_11  and  N3_12 
REMARK    6  A    between atoms: N3_12  and  C4_14 
ROOT
HETATM    1  C2  UNL     1      -2.080  -0.151  -0.486  1.00  0.00     0.226 C 
ENDROOT
BRANCH   1   2
HETATM    2  C1  UNL     1      -2.437  -0.287   0.973  1.00  0.00     0.264 C 
BRANCH   2   3
HETATM    3  N1  UNL     1      -3.868  -0.089   1.191  1.00  0.00    -0.077 N 
ATOM      4  H13 UNL     1      -4.185   0.803   0.810  1.00  0.00     0.274 HD
ATOM      5  H12 UNL     1      -4.425  -0.715   0.610  1.00  0.00     0.274 HD
ATOM      6  H11 UNL     1      -4.109  -0.181   2.178  1.00  0.00     0.274 HD
ENDBRANCH   2   3
ENDBRANCH   1   2
BRANCH   1   7
HETATM    7  N2  UNL     1      -2.397   1.131  -1.034  1.00  0.00    -0.072 N 
ATOM      8  H23 UNL     1      -3.380   1.356  -0.880  1.00  0.00     0.274 HD
ATOM      9  H22 UNL     1      -1.965   1.875  -0.486  1.00  0.00     0.274 HD
ATOM     10  H21 UNL     1      -2.156   1.223  -2.021  1.00  0.00     0.274 HD
ENDBRANCH   1   7
BRANCH   1  11
HETATM   11  C3  UNL     1      -0.611  -0.475  -0.634  1.00  0.00     0.155 C 
BRANCH  11  12
HETATM   12  N3  UNL     1       0.149   0.445   0.159  1.00  0.00    -0.374 N 
ATOM     13  H3  UNL     1      -0.319   1.253   0.568  1.00  0.00     0.161 HD
BRANCH  12  14
HETATM   14  C4  UNL     1       1.422   0.275   0.370  1.00  0.00     0.100 A 
HETATM   15  C5  UNL     1       2.160   1.146   1.125  1.00  0.00     0.048 A 
HETATM   16  C6  UNL     1       3.498   0.926   1.320  1.00  0.00     0.005 A 
HETATM   17  C7  UNL     1       4.134  -0.170   0.767  1.00  0.00     0.017 A 
HETATM   18  C8  UNL     1       3.366  -1.028   0.014  1.00  0.00     0.089 A 
HETATM   19  N4  UNL     1       2.054  -0.788  -0.163  1.00  0.00    -0.353 N 
ATOM     20  H4  UNL     1       1.512  -1.442  -0.728  1.00  0.00     0.166 HD
ENDBRANCH  12  14
ENDBRANCH  11  12
ENDBRANCH   1  11
TORSDOF 6
