REMARK  5 active torsions:
REMARK  status: ('A' for Active; 'I' for Inactive)
REMARK    1  A    between atoms: N1_2  and  C3_4 
REMARK    2  A    between atoms: C3_4  and  C4_5 
REMARK    3  A    between atoms: C4_5  and  C5_6 
REMARK    4  A    between atoms: C6_9  and  N3_10 
REMARK    5  A    between atoms: C7_15  and  N5_16 
ROOT
HETATM    1  C5  UNL     1       1.012   0.375  -0.552  1.00  0.00     0.115 A 
HETATM    2  N2  UNL     1       1.807   1.395  -0.179  1.00  0.00    -0.180 N 
ATOM      3  H2  UNL     1       1.590   2.343  -0.486  1.00  0.00     0.185 HD
HETATM    4  C6  UNL     1       2.890   1.175   0.598  1.00  0.00     0.691 A 
HETATM    5  N4  UNL     1       3.213  -0.066   1.026  1.00  0.00    -0.023 N 
ATOM      6  H4  UNL     1       4.031  -0.228   1.613  1.00  0.00     0.203 HD
HETATM    7  C7  UNL     1       2.420  -1.070   0.650  1.00  0.00     0.691 A 
HETATM    8  N6  UNL     1       1.330  -0.846  -0.132  1.00  0.00    -0.180 N 
ATOM      9  H6  UNL     1       0.742  -1.634  -0.403  1.00  0.00     0.185 HD
ENDROOT
BRANCH   1  10
HETATM   10  C4  UNL     1      -0.186   0.559  -1.409  1.00  0.00     0.108 C 
BRANCH  10  11
HETATM   11  C3  UNL     1      -1.411   0.838  -0.621  1.00  0.00     0.279 C 
BRANCH  11  12
HETATM   12  N1  UNL     1      -1.836  -0.125   0.314  1.00  0.00     0.080 N 
HETATM   13  C1  UNL     1      -2.326  -1.364  -0.195  1.00  0.00     0.309 C 
HETATM   14  C2  UNL     1      -2.891   0.435   1.177  1.00  0.00     0.309 C 
ENDBRANCH  11  12
ENDBRANCH  10  11
ENDBRANCH   1  10
BRANCH   4  15
HETATM   15  N3  UNL     1       3.669   2.132   0.970  1.00  0.00    -0.234 N 
ATOM     16  H32 UNL     1       3.425   3.068   0.647  1.00  0.00     0.174 HD
ATOM     17  H31 UNL     1       4.487   1.966   1.557  1.00  0.00     0.174 HD
ENDBRANCH   4  15
BRANCH   7  18
HETATM   18  N5  UNL     1       2.721  -2.262   1.053  1.00  0.00    -0.234 N 
ATOM     19  H52 UNL     1       3.538  -2.430   1.639  1.00  0.00     0.174 HD
ATOM     20  H51 UNL     1       2.114  -3.030   0.765  1.00  0.00     0.174 HD
ENDBRANCH   7  18
TORSDOF 5
