REMARK  1 active torsions:
REMARK  status: ('A' for Active; 'I' for Inactive)
REMARK    1  A    between atoms: C1_2  and  C2_3 
ROOT
HETATM    1  C2  UNL     1      -0.901  -0.035   0.146  1.00  0.00     0.001 A 
HETATM    2  C3  UNL     1      -1.830  -0.321   1.114  1.00  0.00     0.029 A 
HETATM    3  C4  UNL     1      -3.118   0.136   0.943  1.00  0.00     0.088 A 
HETATM    4  N1  UNL     1      -3.529   0.851  -0.118  1.00  0.00    -0.375 N 
ATOM      5  H1  UNL     1      -4.495   1.168  -0.198  1.00  0.00     0.164 HD
HETATM    6  C5  UNL     1      -2.626   1.134  -1.068  1.00  0.00     0.088 A 
HETATM    7  C6  UNL     1      -1.327   0.696  -0.938  1.00  0.00     0.029 A 
ENDROOT
BRANCH   1   8
HETATM    8  C1  UNL     1       0.486  -0.471   0.228  1.00  0.00     0.196 C 
HETATM    9  S1  UNL     1       0.677  -2.239   0.510  1.00  0.00    -0.038 SA
HETATM   10  O1  UNL     1       1.182  -0.033  -0.893  1.00  0.00    -0.354 OA
HETATM   11  C7  UNL     1       2.532  -0.231  -0.678  1.00  0.00     0.181 C 
HETATM   12  C8  UNL     1       2.926   0.674   0.501  1.00  0.00     0.104 C 
HETATM   13  S2  UNL     1       1.409   0.454   1.524  1.00  0.00    -0.112 SA
ENDBRANCH   1   8
TORSDOF 1
