REMARK  8 active torsions:
REMARK  status: ('A' for Active; 'I' for Inactive)
REMARK       I    between atoms: C1_4  and  N3_6 
REMARK       I    between atoms: C2_8  and  N5_10 
REMARK    1  A    between atoms: C4_13  and  C5_14 
REMARK    2  A    between atoms: C5_14  and  O1_15 
REMARK    3  A    between atoms: O1_15  and  S1_16 
REMARK    4  A    between atoms: C6_21  and  O6_22 
REMARK    5  A    between atoms: C6_21  and  C7_24 
REMARK    6  A    between atoms: C7_24  and  O8_26 
REMARK    7  A    between atoms: O8_26  and  N6_27 
REMARK    8  A    between atoms: C8_30  and  O9_31 
ROOT
HETATM    1  N1  UNL     1       4.910  -1.067   0.449  1.00  0.00    -0.373 N 
ATOM      2  H11 UNL     1       4.293  -1.603   1.059  1.00  0.00     0.158 HD
ATOM      3  H12 UNL     1       5.855  -1.418   0.291  1.00  0.00     0.158 HD
HETATM    4  C1  UNL     1       4.465   0.014  -0.082  1.00  0.00     0.188 C 
HETATM    5  N2  UNL     1       5.322   0.759  -0.929  1.00  0.00    -0.064 NA
HETATM    6  N3  UNL     1       3.152   0.502   0.138  1.00  0.00    -0.305 N 
ATOM      7  H3  UNL     1       2.994   1.507   0.062  1.00  0.00     0.171 HD
HETATM    8  C2  UNL     1       2.144  -0.251   0.429  1.00  0.00     0.194 C 
HETATM    9  N4  UNL     1       2.387  -1.649   0.530  1.00  0.00    -0.063 NA
HETATM   10  N5  UNL     1       0.896   0.358   0.622  1.00  0.00    -0.333 N 
ATOM     11  H5  UNL     1       0.862   1.257   1.104  1.00  0.00     0.168 HD
HETATM   12  C3  UNL     1      -0.191  -0.156   0.226  1.00  0.00     0.055 C 
HETATM   13  C4  UNL     1      -1.570   0.377   0.364  1.00  0.00     0.199 C 
HETATM   14  O5  UNL     1      -2.100   0.089  -0.891  1.00  0.00    -0.331 OA
HETATM   15  C6  UNL     1      -1.692  -1.196  -1.189  1.00  0.00     0.288 C 
HETATM   16  C8  UNL     1      -0.375  -1.445  -0.491  1.00  0.00     0.239 C 
ENDROOT
BRANCH  13  17
HETATM   17  C5  UNL     1      -1.590   1.849   0.667  1.00  0.00     0.231 C 
BRANCH  17  18
HETATM   18  O1  UNL     1      -0.871   2.604  -0.223  1.00  0.00    -0.254 OA
BRANCH  18  19
HETATM   19  S1  UNL     1      -0.987   4.215   0.243  1.00  0.00     0.251 S 
HETATM   20  O2  UNL     1      -2.190   4.818  -0.414  1.00  0.00    -0.572 OA
HETATM   21  O3  UNL     1      -1.159   4.336   1.738  1.00  0.00    -0.572 OA
HETATM   22  O4  UNL     1       0.417   5.049  -0.149  1.00  0.00    -0.572 OA
ENDBRANCH  18  19
ENDBRANCH  17  18
ENDBRANCH  13  17
BRANCH  16  23
HETATM   23  O9  UNL     1      -0.567  -2.432   0.453  1.00  0.00    -0.384 OA
ATOM     24  H9  UNL     1      -0.685  -3.256  -0.005  1.00  0.00     0.210 HD
ENDBRANCH  16  23
BRANCH  15  25
HETATM   25  O6  UNL     1      -1.466  -1.368  -2.557  1.00  0.00    -0.355 OA
ATOM     26  H6  UNL     1      -1.185  -2.252  -2.762  1.00  0.00     0.213 HD
ENDBRANCH  15  25
BRANCH  15  27
HETATM   27  C7  UNL     1      -2.750  -2.152  -0.763  1.00  0.00     0.346 C 
HETATM   28  O7  UNL     1      -3.284  -2.944  -1.609  1.00  0.00    -0.257 OA
BRANCH  27  29
HETATM   29  O8  UNL     1      -3.213  -2.247   0.530  1.00  0.00    -0.202 OA
BRANCH  29  30
HETATM   30  N6  UNL     1      -4.189  -3.143   0.868  1.00  0.00    -0.302 N 
ATOM     31  H62 UNL     1      -4.570  -3.744   0.137  1.00  0.00     0.184 HD
ATOM     32  H61 UNL     1      -4.532  -3.213   1.826  1.00  0.00     0.184 HD
ENDBRANCH  29  30
ENDBRANCH  27  29
ENDBRANCH  15  27
TORSDOF 8
