REMARK  11 active torsions:
REMARK  status: ('A' for Active; 'I' for Inactive)
REMARK    1  A    between atoms: C2_2  and  O1_3 
REMARK    2  A    between atoms: C2_2  and  C3_5 
REMARK    3  A    between atoms: C2_2  and  C4_8 
REMARK    4  A    between atoms: C3_5  and  O2_6 
REMARK       I    between atoms: C4_8  and  N1_10 
REMARK    5  A    between atoms: N1_10  and  C5_12 
REMARK    6  A    between atoms: C8_20  and  C9_21 
REMARK    7  A    between atoms: C10_22  and  O5_23 
REMARK    8  A    between atoms: C10_22  and  N4_25 
REMARK    9  A    between atoms: N4_25  and  N5_27 
REMARK       I    between atoms: N5_27  and  C11_29 
REMARK   10  A    between atoms: C11_29  and  C12_31 
REMARK   11  A    between atoms: C13_35  and  O7_36 
ROOT
HETATM    1  C5  UNL     1      -2.720   0.344  -0.283  1.00  0.00     0.243 C 
HETATM    2  N2  UNL     1      -1.498   0.138   0.058  1.00  0.00    -0.262 N 
ATOM      3  H2  UNL     1      -1.204  -0.532   0.769  1.00  0.00     0.190 HD
HETATM    4  N3  UNL     1      -0.643   0.932  -0.654  1.00  0.00    -0.253 N 
HETATM    5  C6  UNL     1      -1.475   1.934  -1.327  1.00  0.00     0.316 C 
HETATM    6  O4  UNL     1      -2.727   1.311  -1.265  1.00  0.00    -0.284 OA
HETATM    7  S1  UNL     1      -0.832   1.997  -3.063  1.00  0.00    -0.110 SA
HETATM    8  C7  UNL     1       0.063   0.396  -3.197  1.00  0.00     0.117 C 
HETATM    9  C8  UNL     1       1.207   0.506  -2.168  1.00  0.00    -0.017 C 
HETATM   10  C13 UNL     1       0.812   0.947  -0.842  1.00  0.00     0.270 C 
ENDROOT
BRANCH   9  11
HETATM   11  C9  UNL     1       2.395   0.201  -2.567  1.00  0.00     0.065 C 
HETATM   12  C10 UNL     1       3.652   0.187  -1.911  1.00  0.00     0.155 C 
BRANCH  12  13
HETATM   13  O5  UNL     1       4.701  -0.192  -2.652  1.00  0.00    -0.345 OA
ATOM     14  H5  UNL     1       5.543  -0.201  -2.212  1.00  0.00     0.219 HD
ENDBRANCH  12  13
BRANCH  12  15
HETATM   15  N4  UNL     1       3.951   0.510  -0.603  1.00  0.00    -0.278 N 
ATOM     16  H4  UNL     1       3.224   0.810   0.046  1.00  0.00     0.189 HD
BRANCH  15  17
HETATM   17  N5  UNL     1       5.326   0.409  -0.187  1.00  0.00    -0.265 N 
HETATM   18  C11 UNL     1       5.660  -0.315   0.981  1.00  0.00     0.274 C 
HETATM   19  O6  UNL     1       4.801  -0.898   1.707  1.00  0.00    -0.268 OA
ATOM     20  H5  UNL     1       6.059   0.860  -0.735  1.00  0.00     0.190 HD
BRANCH  18  21
HETATM   21  C12 UNL     1       7.077  -0.414   1.401  1.00  0.00     0.300 C 
HETATM   22  N6  UNL     1       7.292  -1.169   2.612  1.00  0.00    -0.097 NA
HETATM   23  N7  UNL     1       8.088  -0.124   3.087  1.00  0.00    -0.036 NA
HETATM   24  N8  UNL     1       7.508   0.730   2.145  1.00  0.00    -0.097 NA
ENDBRANCH  18  21
ENDBRANCH  15  17
ENDBRANCH  12  15
ENDBRANCH   9  11
BRANCH  10  25
HETATM   25  O7  UNL     1       1.167   2.291  -0.607  1.00  0.00    -0.371 OA
ATOM     26  H7  UNL     1       2.109   2.301  -0.729  1.00  0.00     0.212 HD
ENDBRANCH  10  25
BRANCH   1  27
HETATM   27  N1  UNL     1      -3.859  -0.336   0.282  1.00  0.00    -0.289 N 
HETATM   28  C4  UNL     1      -5.164  -0.011  -0.192  1.00  0.00     0.261 C 
HETATM   29  O3  UNL     1      -5.354   0.850  -1.087  1.00  0.00    -0.270 OA
ATOM     30  H1  UNL     1      -3.733  -1.039   1.010  1.00  0.00     0.172 HD
BRANCH  28  31
HETATM   31  C2  UNL     1      -6.308  -0.734   0.417  1.00  0.00     0.156 C 
HETATM   32  C1  UNL     1      -6.362  -0.409   1.908  1.00  0.00     0.059 C 
BRANCH  31  33
HETATM   33  O1  UNL     1      -7.480  -0.305  -0.209  1.00  0.00    -0.378 OA
ATOM     34  H1  UNL     1      -7.446  -0.507  -1.137  1.00  0.00     0.211 HD
ENDBRANCH  31  33
BRANCH  31  35
HETATM   35  C3  UNL     1      -6.094  -2.204   0.180  1.00  0.00     0.211 C 
BRANCH  35  36
HETATM   36  O2  UNL     1      -5.993  -2.408  -1.195  1.00  0.00    -0.397 OA
ATOM     37  H2  UNL     1      -5.858  -3.336  -1.345  1.00  0.00     0.209 HD
ENDBRANCH  35  36
ENDBRANCH  31  35
ENDBRANCH  28  31
ENDBRANCH   1  27
TORSDOF 11
