REMARK  4 active torsions:
REMARK  status: ('A' for Active; 'I' for Inactive)
REMARK    1  A    between atoms: C3_5  and  N2_6 
REMARK    2  A    between atoms: N4_11  and  C4_12 
REMARK    3  A    between atoms: C4_12  and  C5_13 
REMARK    4  A    between atoms: C5_13  and  N5_14 
ROOT
HETATM    1  C1  UNL     1      -1.789  -2.067  -0.266  1.00  0.00     0.091 C 
HETATM    2  C2  UNL     1      -2.057  -0.616  -0.157  1.00  0.00     0.111 A 
HETATM    3  N1  UNL     1      -3.245  -0.006   0.092  1.00  0.00    -0.178 N 
ATOM      4  H1  UNL     1      -4.132  -0.486   0.242  1.00  0.00     0.185 HD
HETATM    5  C3  UNL     1      -3.073   1.326   0.111  1.00  0.00     0.692 A 
HETATM    6  N3  UNL     1      -1.765   1.548  -0.129  1.00  0.00    -0.129 N 
ATOM      7  H3  UNL     1      -1.313   2.461  -0.179  1.00  0.00     0.206 HD
HETATM    8  N4  UNL     1      -1.168   0.376  -0.288  1.00  0.00    -0.264 N 
ENDROOT
BRANCH   8   9
HETATM    9  C4  UNL     1       0.219   0.210  -0.559  1.00  0.00     0.170 C 
BRANCH   9  10
HETATM   10  C5  UNL     1       1.042   0.086   0.731  1.00  0.00     0.137 C 
BRANCH  10  11
HETATM   11  N5  UNL     1       2.382  -0.064   0.343  1.00  0.00    -0.419 N 
HETATM   12  C6  UNL     1       3.037   1.020  -0.260  1.00  0.00     0.142 C 
HETATM   13  C7  UNL     1       3.004  -1.315   0.403  1.00  0.00     0.142 C 
ENDBRANCH  10  11
ENDBRANCH   9  10
ENDBRANCH   8   9
BRANCH   5  14
HETATM   14  N2  UNL     1      -3.954   2.257   0.314  1.00  0.00    -0.233 N 
ATOM     15  H22 UNL     1      -4.944   2.089   0.496  1.00  0.00     0.174 HD
ATOM     16  H21 UNL     1      -3.823   3.268   0.328  1.00  0.00     0.174 HD
ENDBRANCH   5  14
TORSDOF 4
