REMARK  6 active torsions:
REMARK  status: ('A' for Active; 'I' for Inactive)
REMARK    1  A    between atoms: C4_5  and  C5_6 
REMARK    2  A    between atoms: C5_6  and  N2_7 
REMARK    3  A    between atoms: C6_13  and  N4_14 
REMARK    4  A    between atoms: N4_14  and  C7_16 
REMARK    5  A    between atoms: C7_16  and  C8_17 
REMARK    6  A    between atoms: C8_17  and  N5_18 
ROOT
HETATM    1  C1  UNL     1       1.322   2.025   0.575  1.00  0.00     0.174 C 
HETATM    2  N1  UNL     1       0.781   1.162  -0.476  1.00  0.00    -0.198 N 
HETATM    3  C2  UNL     1       0.789   1.628  -1.763  1.00  0.00     0.110 A 
HETATM    4  C3  UNL     1       0.294   0.856  -2.785  1.00  0.00     0.045 A 
HETATM    5  C4  UNL     1      -0.210  -0.394  -2.497  1.00  0.00     0.053 A 
HETATM    6  N3  UNL     1      -0.192  -0.790  -1.237  1.00  0.00    -0.194 N 
ATOM      7  H3  UNL     1      -0.568  -1.716  -1.031  1.00  0.00     0.184 HD
HETATM    8  C6  UNL     1       0.297  -0.048  -0.170  1.00  0.00     0.680 A 
ENDROOT
BRANCH   8   9
HETATM    9  N4  UNL     1       0.218  -0.603   0.923  1.00  0.00    -0.224 N 
ATOM     10  H4  UNL     1      -0.205  -1.519   0.772  1.00  0.00     0.177 HD
BRANCH   9  11
HETATM   11  C7  UNL     1       0.467  -0.484   2.238  1.00  0.00     0.165 C 
BRANCH  11  12
HETATM   12  C8  UNL     1      -0.763  -0.055   3.090  1.00  0.00     0.249 C 
BRANCH  12  13
HETATM   13  N5  UNL     1      -0.283   0.014   4.452  1.00  0.00    -0.078 N 
ATOM     14  H53 UNL     1       0.160  -0.846   4.775  1.00  0.00     0.274 HD
ATOM     15  H52 UNL     1       0.529   0.619   4.571  1.00  0.00     0.274 HD
ATOM     16  H51 UNL     1      -1.089   0.295   5.010  1.00  0.00     0.274 HD
ENDBRANCH  12  13
ENDBRANCH  11  12
ENDBRANCH   9  11
ENDBRANCH   8   9
BRANCH   5  17
HETATM   17  C5  UNL     1      -0.757  -1.252  -3.607  1.00  0.00     0.287 C 
BRANCH  17  18
HETATM   18  N2  UNL     1      -1.242  -2.503  -3.054  1.00  0.00    -0.074 N 
ATOM     19  H23 UNL     1      -0.529  -2.986  -2.508  1.00  0.00     0.274 HD
ATOM     20  H22 UNL     1      -1.922  -2.357  -2.308  1.00  0.00     0.274 HD
ATOM     21  H21 UNL     1      -1.613  -3.084  -3.806  1.00  0.00     0.274 HD
ENDBRANCH  17  18
ENDBRANCH   5  17
TORSDOF 6
