REMARK  9 active torsions:
REMARK  status: ('A' for Active; 'I' for Inactive)
REMARK    1  A    between atoms: S1_2  and  C2_5 
REMARK    2  A    between atoms: C3_7  and  C4_8 
REMARK    3  A    between atoms: C4_8  and  C5_9 
REMARK    4  A    between atoms: C5_9  and  O3_10 
REMARK    5  A    between atoms: C5_9  and  O4_12 
REMARK    6  A    between atoms: C7_15  and  C8_16 
REMARK    7  A    between atoms: C8_16  and  N1_17 
REMARK    8  A    between atoms: C8_16  and  N3_22 
REMARK    9  A    between atoms: N1_17  and  N2_19 
REMARK       I    between atoms: N3_22  and  C9_24 
ROOT
HETATM    1  C2  UNL     1       0.497   1.042   0.985  1.00  0.00     0.113 A 
HETATM    2  S2  UNL     1      -1.164   1.344   1.242  1.00  0.00    -0.082 SA
HETATM    3  C3  UNL     1      -1.783  -0.210   0.929  1.00  0.00    -0.011 A 
HETATM    4  C6  UNL     1      -0.674  -0.930   0.631  1.00  0.00     0.032 A 
HETATM    5  C7  UNL     1       0.528  -0.285   0.657  1.00  0.00     0.039 A 
ENDROOT
BRANCH   5   6
HETATM    6  C8  UNL     1       1.830  -0.941   0.373  1.00  0.00     0.135 C 
BRANCH   6   7
HETATM    7  N1  UNL     1       2.510  -1.494   1.298  1.00  0.00    -0.291 N 
ATOM      8  H1  UNL     1       3.403  -1.938   1.083  1.00  0.00     0.188 HD
BRANCH   7   9
HETATM    9  N2  UNL     1       2.029  -1.488   2.598  1.00  0.00    -0.344 N 
ATOM     10  H22 UNL     1       1.135  -1.039   2.796  1.00  0.00     0.176 HD
ATOM     11  H21 UNL     1       2.573  -1.931   3.338  1.00  0.00     0.176 HD
ENDBRANCH   7   9
ENDBRANCH   6   7
BRANCH   6  12
HETATM   12  N3  UNL     1       2.307  -0.952  -0.955  1.00  0.00    -0.295 N 
HETATM   13  C9  UNL     1       1.663  -0.405  -2.082  1.00  0.00     0.334 C 
HETATM   14  N4  UNL     1       2.259  -0.483  -3.353  1.00  0.00    -0.040 NA
HETATM   15  O5  UNL     1       0.559   0.153  -1.969  1.00  0.00    -0.251 OA
ATOM     16  H3  UNL     1       3.209  -1.401  -1.115  1.00  0.00     0.171 HD
ENDBRANCH   6  12
ENDBRANCH   5   6
BRANCH   1  17
HETATM   17  S1  UNL     1       1.778   2.233   1.148  1.00  0.00     0.179 S 
HETATM   18  C1  UNL     1       1.931   3.093  -0.412  1.00  0.00     0.167 C 
HETATM   19  O1  UNL     1       1.311   3.255   2.148  1.00  0.00    -0.222 OA
HETATM   20  O2  UNL     1       3.070   1.667   1.583  1.00  0.00    -0.222 OA
ENDBRANCH   1  17
BRANCH   3  21
HETATM   21  C4  UNL     1      -3.221  -0.680   0.973  1.00  0.00     0.106 C 
BRANCH  21  22
HETATM   22  C5  UNL     1      -3.873  -0.509  -0.375  1.00  0.00     0.258 C 
BRANCH  22  23
HETATM   23  O3  UNL     1      -5.186  -0.962  -0.250  1.00  0.00    -0.371 OA
ATOM     24  H3  UNL     1      -5.597  -0.854  -1.100  1.00  0.00     0.212 HD
ENDBRANCH  22  23
BRANCH  22  25
HETATM   25  O4  UNL     1      -3.245  -1.202  -1.379  1.00  0.00    -0.371 OA
ATOM     26  H4  UNL     1      -3.656  -1.094  -2.229  1.00  0.00     0.212 HD
ENDBRANCH  22  25
ENDBRANCH  21  22
ENDBRANCH   3  21
TORSDOF 9
