REMARK  6 active torsions:
REMARK  status: ('A' for Active; 'I' for Inactive)
REMARK    1  A    between atoms: C4_4  and  O1_5 
REMARK    2  A    between atoms: O1_5  and  C5_6 
REMARK    3  A    between atoms: C6_9  and  O2_10 
REMARK    4  A    between atoms: C10_15  and  O3_16 
REMARK    5  A    between atoms: N1_18  and  C11_19 
REMARK    6  A    between atoms: C16_25  and  O5_26 
ROOT
HETATM    1  C1  UNL     1       2.287   1.971  -0.113  1.00  0.00     0.069 C 
HETATM    2  C2  UNL     1       1.498   0.722  -0.148  1.00  0.00     0.024 A 
HETATM    3  C3  UNL     1       0.159   0.637   0.159  1.00  0.00     0.038 A 
HETATM    4  C4  UNL     1      -0.830   1.507   0.552  1.00  0.00     0.121 A 
HETATM    5  C6  UNL     1      -2.126   1.048   0.794  1.00  0.00     0.110 A 
HETATM    6  C7  UNL     1      -2.449  -0.269   0.648  1.00  0.00     0.022 A 
HETATM    7  C8  UNL     1      -1.453  -1.144   0.251  1.00  0.00     0.037 A 
HETATM    8  C9  UNL     1      -0.163  -0.719   0.005  1.00  0.00     0.044 A 
HETATM    9  C10 UNL     1       0.984  -1.374  -0.383  1.00  0.00     0.155 A 
HETATM   10  N1  UNL     1       1.995  -0.490  -0.476  1.00  0.00    -0.326 N 
HETATM   11  C14 UNL     1      -2.004  -2.494   0.154  1.00  0.00     0.164 C 
HETATM   12  O4  UNL     1      -1.457  -3.615   0.158  1.00  0.00    -0.292 OA
HETATM   13  C15 UNL     1      -3.475  -2.302   0.038  1.00  0.00     0.120 C 
HETATM   14  C16 UNL     1      -3.683  -1.016   0.826  1.00  0.00     0.162 C 
ENDROOT
BRANCH   4  15
HETATM   15  O1  UNL     1      -0.588   2.841   0.718  1.00  0.00    -0.286 OA
BRANCH  15  16
HETATM   16  C5  UNL     1      -0.756   3.846  -0.256  1.00  0.00     0.505 C 
HETATM   17  F1  UNL     1       0.169   4.831  -0.262  1.00  0.00    -0.184 F 
HETATM   18  F2  UNL     1      -1.973   4.485   0.117  1.00  0.00    -0.184 F 
ENDBRANCH  15  16
ENDBRANCH   4  15
BRANCH   5  19
HETATM   19  O2  UNL     1      -3.077   1.951   1.184  1.00  0.00    -0.357 OA
ATOM     20  H2  UNL     1      -3.959   1.639   1.349  1.00  0.00     0.217 HD
ENDBRANCH   5  19
BRANCH  10  21
HETATM   21  C11 UNL     1       3.370  -0.733  -0.849  1.00  0.00     0.092 A 
HETATM   22  C12 UNL     1       4.075  -1.972  -0.502  1.00  0.00     0.028 A 
HETATM   23  C13 UNL     1       4.343  -0.756   0.330  1.00  0.00     0.028 A 
ENDBRANCH  10  21
BRANCH   9  24
HETATM   24  O3  UNL     1       1.158  -2.737  -0.659  1.00  0.00    -0.345 OA
ATOM     25  H3  UNL     1       1.950  -3.189  -0.927  1.00  0.00     0.219 HD
ENDBRANCH   9  24
BRANCH  14  26
HETATM   26  O5  UNL     1      -4.802  -0.398   0.277  1.00  0.00    -0.390 OA
ATOM     27  H5  UNL     1      -5.609  -0.886   0.393  1.00  0.00     0.210 HD
ENDBRANCH  14  26
TORSDOF 6
