REMARK  8 active torsions:
REMARK  status: ('A' for Active; 'I' for Inactive)
REMARK    1  A    between atoms: C2_2  and  O1_3 
REMARK    2  A    between atoms: O1_3  and  C3_4 
REMARK    3  A    between atoms: C3_4  and  C4_6 
REMARK    4  A    between atoms: N3_12  and  C6_14 
REMARK    5  A    between atoms: C6_14  and  C7_15 
REMARK    6  A    between atoms: C9_18  and  N4_19 
REMARK       I    between atoms: N4_19  and  C10_21 
REMARK    7  A    between atoms: C10_21  and  C11_23 
REMARK    8  A    between atoms: C13_25  and  O4_26 
ROOT
HETATM    1  C7  UNL     1       0.017   0.994  -1.591  1.00  0.00     0.056 A 
HETATM    2  C8  UNL     1      -0.119   2.248  -1.031  1.00  0.00     0.084 A 
HETATM    3  S1  UNL     1       1.221   2.312   0.023  1.00  0.00    -0.063 SA
HETATM    4  C9  UNL     1       1.869   0.766  -0.301  1.00  0.00     0.151 A 
HETATM    5  N5  UNL     1       1.026   0.276  -1.203  1.00  0.00    -0.335 N 
ATOM      6  H5  UNL     1       1.171  -0.658  -1.588  1.00  0.00     0.168 HD
ENDROOT
BRANCH   1   7
HETATM    7  C6  UNL     1      -1.007   0.527  -2.624  1.00  0.00     0.120 C 
BRANCH   7   8
HETATM    8  N3  UNL     1      -1.908  -0.433  -2.143  1.00  0.00    -0.343 N 
HETATM    9  C5  UNL     1      -3.120  -0.276  -1.743  1.00  0.00     0.165 A 
HETATM   10  N2  UNL     1      -3.887   0.815  -1.658  1.00  0.00    -0.279 N 
HETATM   11  S2  UNL     1      -4.180  -1.490  -1.174  1.00  0.00    -0.027 SA
HETATM   12  N1  UNL     1      -5.077   0.694  -1.226  1.00  0.00    -0.287 N 
ATOM     13  H2  UNL     1      -3.525   1.728  -1.934  1.00  0.00     0.189 HD
HETATM   14  C4  UNL     1      -5.541  -0.496  -0.868  1.00  0.00     0.168 A 
ATOM     15  H1  UNL     1      -5.677   1.516  -1.154  1.00  0.00     0.188 HD
ATOM     16  H3  UNL     1      -1.553  -1.389  -2.105  1.00  0.00     0.167 HD
BRANCH  14  17
HETATM   17  C3  UNL     1      -6.870  -0.856  -0.344  1.00  0.00     0.318 C 
HETATM   18  O2  UNL     1      -7.080  -2.058  -0.081  1.00  0.00    -0.257 OA
BRANCH  17  19
HETATM   19  O1  UNL     1      -7.830   0.088  -0.154  1.00  0.00    -0.316 OA
BRANCH  19  20
HETATM   20  C2  UNL     1      -9.116  -0.132   0.335  1.00  0.00     0.175 C 
HETATM   21  C1  UNL     1      -9.134  -0.721   1.732  1.00  0.00     0.034 C 
ENDBRANCH  19  20
ENDBRANCH  17  19
ENDBRANCH  14  17
ENDBRANCH   7   8
ENDBRANCH   1   7
BRANCH   4  22
HETATM   22  N4  UNL     1       2.922   0.177   0.190  1.00  0.00    -0.303 N 
HETATM   23  C10 UNL     1       3.748   0.785   1.141  1.00  0.00     0.259 C 
HETATM   24  O3  UNL     1       3.450   1.890   1.626  1.00  0.00    -0.267 OA
ATOM     25  H4  UNL     1       3.153  -0.763  -0.131  1.00  0.00     0.171 HD
BRANCH  23  26
HETATM   26  C11 UNL     1       4.962   0.051   1.519  1.00  0.00     0.059 A 
HETATM   27  C12 UNL     1       6.039   0.091   0.659  1.00  0.00     0.057 A 
HETATM   28  C13 UNL     1       7.188  -0.574   0.956  1.00  0.00     0.094 A 
HETATM   29  C15 UNL     1       7.235  -1.293   2.155  1.00  0.00     0.107 A 
HETATM   30 CL1  UNL     1       8.715  -2.161   2.548  1.00  0.00    -0.078 Cl
HETATM   31  C16 UNL     1       6.161  -1.331   3.011  1.00  0.00     0.163 A 
HETATM   32  F1  UNL     1       6.195  -2.027   4.172  1.00  0.00    -0.202 F 
HETATM   33  C17 UNL     1       4.994  -0.650   2.700  1.00  0.00     0.090 A 
HETATM   34 CL2  UNL     1       3.634  -0.683   3.772  1.00  0.00    -0.080 Cl
BRANCH  28  35
HETATM   35  O4  UNL     1       8.313  -0.583   0.144  1.00  0.00    -0.354 OA
HETATM   36  C14 UNL     1       8.309   0.130  -1.080  1.00  0.00     0.210 C 
ENDBRANCH  28  35
ENDBRANCH  23  26
ENDBRANCH   4  22
TORSDOF 8
