REMARK  5 active torsions:
REMARK  status: ('A' for Active; 'I' for Inactive)
REMARK    1  A    between atoms: C2_2  and  C3_3 
REMARK    2  A    between atoms: N1_4  and  C4_6 
REMARK    3  A    between atoms: C8_13  and  N4_14 
REMARK    4  A    between atoms: N5_17  and  C9_18 
REMARK    5  A    between atoms: C9_18  and  C10_19 
ROOT
HETATM    1  C4  UNL     1       2.571  -0.669   0.271  1.00  0.00     0.145 A 
HETATM    2  C5  UNL     1       3.563  -1.531   0.660  1.00  0.00     0.105 A 
HETATM    3  C6  UNL     1       4.689  -1.142   1.495  1.00  0.00     0.104 C 
HETATM    4  N2  UNL     1       5.593  -0.856   2.150  1.00  0.00    -0.191 NA
HETATM    5  C7  UNL     1       3.482  -2.844   0.231  1.00  0.00     0.132 A 
HETATM    6  N3  UNL     1       2.489  -3.288  -0.536  1.00  0.00    -0.200 N 
ATOM      7  H3  UNL     1       2.470  -4.264  -0.830  1.00  0.00     0.183 HD
HETATM    8  C8  UNL     1       1.487  -2.429  -0.933  1.00  0.00     0.679 A 
HETATM    9  N5  UNL     1       1.556  -1.179  -0.527  1.00  0.00    -0.163 N 
ENDROOT
BRANCH   1  10
HETATM   10  N1  UNL     1       2.589   0.534   0.580  1.00  0.00    -0.354 N 
HETATM   11  C3  UNL     1       3.226   1.546   1.218  1.00  0.00     0.062 C 
ATOM     12  H1  UNL     1       1.749   0.943   0.171  1.00  0.00     0.166 HD
BRANCH  11  13
HETATM   13  C2  UNL     1       4.320   2.265   0.444  1.00  0.00     0.040 C 
HETATM   14  C1  UNL     1       3.784   2.894  -0.817  1.00  0.00     0.010 C 
ENDBRANCH  11  13
ENDBRANCH   1  10
BRANCH   9  15
HETATM   15  C9  UNL     1       0.518  -0.218  -0.857  1.00  0.00     0.183 C 
BRANCH  15  16
HETATM   16  C10 UNL     1      -0.658  -0.236   0.019  1.00  0.00    -0.063 C 
HETATM   17  C11 UNL     1      -0.408  -0.151   1.510  1.00  0.00     0.045 C 
HETATM   18  C12 UNL     1      -1.924  -0.340  -0.334  1.00  0.00    -0.075 C 
HETATM   19  C13 UNL     1      -2.377  -0.458  -1.733  1.00  0.00     0.040 C 
HETATM   20  C18 UNL     1      -3.027  -0.341   0.692  1.00  0.00     0.044 C 
HETATM   21  C14 UNL     1      -3.232   0.765  -2.062  1.00  0.00     0.084 C 
HETATM   22  C15 UNL     1      -4.284   0.939  -1.020  1.00  0.00     0.247 C 
HETATM   23  F1  UNL     1      -5.541   1.043  -1.620  1.00  0.00    -0.206 F 
HETATM   24  F2  UNL     1      -4.086   2.144  -0.365  1.00  0.00    -0.206 F 
HETATM   25  C16 UNL     1      -4.343  -0.205  -0.040  1.00  0.00     0.058 C 
HETATM   26  C17 UNL     1      -5.474   0.072   0.951  1.00  0.00     0.016 C 
ENDBRANCH  15  16
ENDBRANCH   9  15
BRANCH   8  27
HETATM   27  N4  UNL     1       0.567  -2.922  -1.693  1.00  0.00    -0.234 N 
ATOM     28  H42 UNL     1       0.514  -3.891  -2.008  1.00  0.00     0.174 HD
ATOM     29  H41 UNL     1      -0.175  -2.286  -1.987  1.00  0.00     0.174 HD
ENDBRANCH   8  27
TORSDOF 5
