REMARK  1 active torsions:
REMARK  status: ('A' for Active; 'I' for Inactive)
REMARK    1  A    between atoms: N1_9  and  O2_11 
ROOT
HETATM    1  C1  UNL     1      -2.897  -3.221   0.922  1.00  0.00     0.022 C 
HETATM    2  C2  UNL     1      -2.429  -2.766  -0.215  1.00  0.00    -0.002 C 
HETATM    3  C3  UNL     1      -2.274  -3.118  -1.639  1.00  0.00     0.211 C 
HETATM    4  O1  UNL     1      -1.262  -2.169  -1.767  1.00  0.00    -0.345 OA
HETATM    5  C4  UNL     1      -1.749  -1.517  -0.644  1.00  0.00     0.223 C 
HETATM    6  C5  UNL     1      -2.737  -0.426  -0.897  1.00  0.00     0.083 C 
HETATM    7  C6  UNL     1      -2.038   0.794  -1.394  1.00  0.00     0.065 C 
HETATM    8  C7  UNL     1      -2.181   1.980  -0.476  1.00  0.00     0.032 C 
HETATM    9  N1  UNL     1      -3.403   2.289  -0.207  1.00  0.00    -0.273 N 
ATOM     10  H1  UNL     1      -4.115   1.701  -0.641  1.00  0.00     0.193 HD
HETATM   11  C8  UNL     1      -1.075   2.750   0.058  1.00  0.00     0.029 C 
HETATM   12  C9  UNL     1      -0.119   2.318   0.847  1.00  0.00    -0.079 C 
HETATM   13  C10 UNL     1       0.926   3.323   1.265  1.00  0.00     0.043 C 
HETATM   14  C11 UNL     1       0.035   0.957   1.399  1.00  0.00     0.075 C 
HETATM   15  C12 UNL     1       0.995   0.073   0.673  1.00  0.00     0.100 C 
HETATM   16  C13 UNL     1       1.598  -0.879   1.684  1.00  0.00     0.041 C 
HETATM   17  C14 UNL     1       3.046  -1.146   1.461  1.00  0.00     0.004 C 
HETATM   18  C15 UNL     1       3.445  -1.227   0.009  1.00  0.00     0.004 C 
HETATM   19  C16 UNL     1       3.008  -0.062  -0.810  1.00  0.00    -0.016 C 
HETATM   20  C17 UNL     1       2.405  -0.508  -2.122  1.00  0.00     0.010 C 
HETATM   21  C18 UNL     1       2.071   0.859  -0.051  1.00  0.00     0.045 C 
HETATM   22  O3  UNL     1       0.305  -0.712  -0.232  1.00  0.00    -0.226 OA
HETATM   23  O4  UNL     1      -0.793  -1.139   0.284  1.00  0.00    -0.195 OA
ENDROOT
BRANCH   9  24
HETATM   24  O2  UNL     1      -3.862   3.284   0.570  1.00  0.00    -0.290 OA
ATOM     25  H2  UNL     1      -4.763   3.512   0.768  1.00  0.00     0.244 HD
ENDBRANCH   9  24
TORSDOF 1
