REMARK  3 active torsions:
REMARK  status: ('A' for Active; 'I' for Inactive)
REMARK    1  A    between atoms: C2_2  and  C3_4 
REMARK    2  A    between atoms: C7_10  and  N2_11 
REMARK    3  A    between atoms: C14_19  and  O2_20 
ROOT
HETATM    1  C3  UNL     1      -2.855   1.454  -0.012  1.00  0.00     0.051 A 
HETATM    2  C4  UNL     1      -2.910   0.086  -0.133  1.00  0.00    -0.033 A 
HETATM    3  C5  UNL     1      -1.786  -0.732  -0.218  1.00  0.00    -0.022 A 
HETATM    4  C6  UNL     1      -0.515  -0.188  -0.183  1.00  0.00     0.061 A 
HETATM    5  N1  UNL     1       0.613  -0.844  -0.253  1.00  0.00    -0.335 N 
ATOM      6  H1  UNL     1       0.599  -1.860  -0.343  1.00  0.00     0.168 HD
HETATM    7  C7  UNL     1       1.754  -0.220  -0.210  1.00  0.00     0.148 A 
HETATM    8  S1  UNL     1       1.266   1.424  -0.059  1.00  0.00    -0.049 SA
HETATM    9  C13 UNL     1      -0.441   1.174  -0.063  1.00  0.00     0.069 A 
HETATM   10  C14 UNL     1      -1.572   1.987   0.021  1.00  0.00     0.099 A 
HETATM   11  C15 UNL     1      -2.040  -2.187  -0.334  1.00  0.00     0.041 C 
HETATM   12  C16 UNL     1      -2.888  -2.536   0.897  1.00  0.00     0.005 C 
HETATM   13  C17 UNL     1      -4.176  -1.781   0.880  1.00  0.00     0.005 C 
HETATM   14  C18 UNL     1      -4.190  -0.668  -0.195  1.00  0.00     0.040 C 
ENDROOT
BRANCH   7  15
HETATM   15  N2  UNL     1       3.072  -0.742  -0.270  1.00  0.00    -0.361 N 
HETATM   16  C8  UNL     1       3.743  -1.140   0.943  1.00  0.00     0.125 C 
HETATM   17  C9  UNL     1       5.252  -0.927   0.792  1.00  0.00     0.020 C 
HETATM   18  C10 UNL     1       5.408   0.328  -0.055  1.00  0.00     0.003 C 
HETATM   19  C11 UNL     1       4.954   0.073  -1.467  1.00  0.00     0.020 C 
HETATM   20  C12 UNL     1       3.772  -0.887  -1.523  1.00  0.00     0.125 C 
ENDBRANCH   7  15
BRANCH  10  21
HETATM   21  O2  UNL     1      -1.297   3.334   0.138  1.00  0.00    -0.358 OA
ATOM     22  H2  UNL     1      -0.420   3.698   0.161  1.00  0.00     0.217 HD
ENDBRANCH  10  21
BRANCH   1  23
HETATM   23  C2  UNL     1      -3.968   2.356   0.087  1.00  0.00     0.159 C 
HETATM   24  C1  UNL     1      -3.786   3.819   0.222  1.00  0.00     0.097 C 
HETATM   25  O1  UNL     1      -5.147   1.955   0.065  1.00  0.00    -0.293 OA
ENDBRANCH   1  23
TORSDOF 3
