REMARK  4 active torsions:
REMARK  status: ('A' for Active; 'I' for Inactive)
REMARK    1  A    between atoms: C2_2  and  C3_3 
REMARK    2  A    between atoms: C3_3  and  C4_4 
REMARK    3  A    between atoms: C4_4  and  C5_5 
REMARK    4  A    between atoms: C4_4  and  C7_7 
ROOT
HETATM    1  C7  UNL     1      -0.548  -0.587  -0.029  1.00  0.00    -0.074 C 
HETATM    2  C8  UNL     1       0.362  -0.104  -0.854  1.00  0.00     0.018 C 
HETATM    3  C9  UNL     1       1.783   0.000  -0.558  1.00  0.00     0.013 A 
HETATM    4  C10 UNL     1       2.187  -0.450   0.653  1.00  0.00     0.023 A 
HETATM    5  N1  UNL     1       3.491  -0.272   1.005  1.00  0.00    -0.344 N 
ATOM      6  H1  UNL     1       3.802  -0.606   1.917  1.00  0.00     0.167 HD
HETATM    7  C11 UNL     1       4.369   0.317   0.210  1.00  0.00     0.122 A 
HETATM    8  N2  UNL     1       5.608   0.497   0.520  1.00  0.00    -0.384 N 
ATOM      9  H21 UNL     1       6.285   0.951  -0.093  1.00  0.00     0.157 HD
ATOM     10  H22 UNL     1       5.905   0.157   1.435  1.00  0.00     0.157 HD
HETATM   11  C12 UNL     1       3.969   0.775  -1.024  1.00  0.00     0.113 A 
HETATM   12  C13 UNL     1       4.857   1.422  -1.946  1.00  0.00     0.105 C 
HETATM   13  N3  UNL     1       5.575   1.941  -2.698  1.00  0.00    -0.191 NA
HETATM   14  C14 UNL     1       2.653   0.613  -1.413  1.00  0.00     0.083 A 
HETATM   15  N4  UNL     1       2.227   1.091  -2.706  1.00  0.00    -0.100 NA
HETATM   16  C15 UNL     1       1.275  -1.207   1.528  1.00  0.00     0.062 C 
HETATM   17  C16 UNL     1      -0.138  -0.938   1.321  1.00  0.00     0.040 C 
ENDROOT
BRANCH   1  18
HETATM   18  C4  UNL     1      -1.943  -0.618  -0.532  1.00  0.00     0.014 C 
BRANCH  18  19
HETATM   19  C3  UNL     1      -2.867   0.377   0.103  1.00  0.00     0.009 C 
BRANCH  19  20
HETATM   20  C2  UNL     1      -2.267   1.763   0.183  1.00  0.00    -0.004 C 
HETATM   21  C1  UNL     1      -3.235   2.727   0.831  1.00  0.00     0.005 C 
ENDBRANCH  19  20
ENDBRANCH  18  19
BRANCH  18  22
HETATM   22  C5  UNL     1      -2.574  -1.979  -0.608  1.00  0.00     0.005 C 
HETATM   23  C6  UNL     1      -3.000  -2.598   0.668  1.00  0.00     0.006 C 
ENDBRANCH  18  22
ENDBRANCH   1  18
TORSDOF 4
