REMARK  3 active torsions:
REMARK  status: ('A' for Active; 'I' for Inactive)
REMARK    1  A    between atoms: C2_2  and  C3_3 
REMARK    2  A    between atoms: C3_3  and  N1_4 
REMARK       I    between atoms: N1_4  and  C4_6 
REMARK       I    between atoms: C4_6  and  N2_8 
REMARK    3  A    between atoms: C5_10  and  N3_11 
ROOT
HETATM    1  N1  UNL     1      -1.457   0.450  -0.228  1.00  0.00    -0.339 N 
ATOM      2  H1  UNL     1      -1.151   1.098  -0.954  1.00  0.00     0.164 HD
HETATM    3  C4  UNL     1      -0.519  -0.382   0.434  1.00  0.00     0.321 C 
HETATM    4  O1  UNL     1      -0.782  -1.200   1.327  1.00  0.00    -0.247 OA
HETATM    5  N2  UNL     1       0.855  -0.272   0.039  1.00  0.00    -0.305 N 
ATOM      6  H2  UNL     1       1.166  -0.756  -0.803  1.00  0.00     0.171 HD
HETATM    7  C5  UNL     1       1.702   0.411   0.706  1.00  0.00     0.182 C 
ENDROOT
BRANCH   1   8
HETATM    8  C3  UNL     1      -2.846   0.369   0.137  1.00  0.00     0.150 C 
BRANCH   8   9
HETATM    9  C2  UNL     1      -3.371  -0.995  -0.112  1.00  0.00    -0.018 C 
HETATM   10  C1  UNL     1      -4.369  -1.207  -0.943  1.00  0.00     0.008 C 
ENDBRANCH   8   9
ENDBRANCH   1   8
BRANCH   7  11
HETATM   11  N3  UNL     1       3.042   0.502   0.296  1.00  0.00    -0.374 N 
HETATM   12  C6  UNL     1       4.355  -0.221   0.066  1.00  0.00     0.143 A 
HETATM   13  C7  UNL     1       4.248   1.197  -0.202  1.00  0.00     0.143 A 
ENDBRANCH   7  11
TORSDOF 3
