REMARK  2 active torsions:
REMARK  status: ('A' for Active; 'I' for Inactive)
REMARK    1  A    between atoms: C3_8  and  C4_9 
REMARK    2  A    between atoms: C7_12  and  O1_13 
ROOT
HETATM    1  N1  UNL     1      -1.159  -2.700  -1.739  1.00  0.00    -0.080 NA
HETATM    2  C1  UNL     1      -0.299  -1.749  -1.063  1.00  0.00     0.143 A 
HETATM    3  N2  UNL     1       0.993  -1.996  -1.003  1.00  0.00    -0.326 N 
ATOM      4  H2  UNL     1       1.472  -2.809  -1.391  1.00  0.00     0.165 HD
HETATM    5  C2  UNL     1       1.592  -0.928  -0.302  1.00  0.00     0.289 A 
HETATM    6  N3  UNL     1       0.562  -0.041   0.043  1.00  0.00    -0.336 N 
ATOM      7  H3  UNL     1       0.680   0.831   0.558  1.00  0.00     0.164 HD
HETATM    8  C3  UNL     1      -0.598  -0.523  -0.412  1.00  0.00     0.085 A 
HETATM    9  N5  UNL     1       2.608  -0.349  -1.165  1.00  0.00    -0.027 N 
ATOM     10  H51 UNL     1       2.240  -0.184  -2.102  1.00  0.00     0.282 HD
ATOM     11  H52 UNL     1       3.330  -1.034  -1.389  1.00  0.00     0.282 HD
HETATM   12  C10 UNL     1       3.183   0.843  -0.624  1.00  0.00     0.253 C 
HETATM   13  C11 UNL     1       3.599   0.746   0.804  1.00  0.00     0.085 C 
HETATM   14  S1  UNL     1       3.724   2.446   1.470  1.00  0.00    -0.091 SA
HETATM   15  C12 UNL     1       2.675  -0.043   1.669  1.00  0.00     0.040 C 
HETATM   16  C13 UNL     1       2.296  -1.355   0.974  1.00  0.00     0.138 C 
HETATM   17  S2  UNL     1       3.799  -2.281   0.647  1.00  0.00    -0.086 SA
ENDROOT
BRANCH   8  18
HETATM   18  C4  UNL     1      -1.845   0.214  -0.187  1.00  0.00     0.018 A 
HETATM   19  C5  UNL     1      -1.681   1.424   0.528  1.00  0.00     0.018 A 
HETATM   20  C6  UNL     1      -2.737   2.247   0.831  1.00  0.00     0.037 A 
HETATM   21  C7  UNL     1      -4.016   1.933   0.454  1.00  0.00     0.067 A 
HETATM   22  C8  UNL     1      -4.199   0.785  -0.228  1.00  0.00     0.064 A 
HETATM   23  C9  UNL     1      -3.111  -0.054  -0.537  1.00  0.00     0.061 A 
HETATM   24  N4  UNL     1      -3.499  -1.193  -1.245  1.00  0.00    -0.101 NA
BRANCH  21  25
HETATM   25  O1  UNL     1      -5.083   2.788   0.774  1.00  0.00    -0.361 OA
ATOM     26  H1  UNL     1      -5.970   2.570   0.513  1.00  0.00     0.217 HD
ENDBRANCH  21  25
ENDBRANCH   8  18
TORSDOF 2
