REMARK  14 active torsions:
REMARK  status: ('A' for Active; 'I' for Inactive)
REMARK    1  A    between atoms: C2_2  and  C3_3 
REMARK    2  A    between atoms: C3_3  and  N1_4 
REMARK    3  A    between atoms: C6_7  and  N2_8 
REMARK    4  A    between atoms: N2_8  and  C7_10 
REMARK    5  A    between atoms: C8_13  and  N4_14 
REMARK    6  A    between atoms: N4_14  and  C9_16 
REMARK    7  A    between atoms: C9_16  and  C10_17 
REMARK    8  A    between atoms: C10_17  and  C11_18 
REMARK    9  A    between atoms: C11_18  and  N5_19 
REMARK       I    between atoms: N5_19  and  C12_21 
REMARK   10  A    between atoms: C12_21  and  C13_23 
REMARK   11  A    between atoms: C13_23  and  C14_24 
REMARK   12  A    between atoms: C14_24  and  C15_25 
REMARK   13  A    between atoms: C15_25  and  N6_26 
REMARK   14  A    between atoms: C25_43  and  O3_44 
ROOT
HETATM    1  C7  UNL     1      -1.099  -0.857  -0.265  1.00  0.00     0.153 A 
HETATM    2  N3  UNL     1       0.158  -0.901  -0.698  1.00  0.00    -0.174 N 
ATOM      3  H3  UNL     1       0.691  -0.032  -0.746  1.00  0.00     0.186 HD
HETATM    4  C8  UNL     1       0.757  -2.052  -1.077  1.00  0.00     0.680 A 
HETATM    5  N7  UNL     1       0.050  -3.162  -1.004  1.00  0.00    -0.188 N 
ATOM      6  H7  UNL     1       0.511  -4.025  -1.291  1.00  0.00     0.184 HD
HETATM    7  C16 UNL     1      -1.255  -3.263  -0.575  1.00  0.00     0.097 A 
HETATM    8  C17 UNL     1      -1.902  -4.534  -0.639  1.00  0.00     0.003 A 
HETATM    9  C18 UNL     1      -1.495  -5.359  -1.709  1.00  0.00     0.016 A 
HETATM   10  C19 UNL     1      -1.935  -6.649  -1.870  1.00  0.00     0.023 A 
HETATM   11  C20 UNL     1      -2.813  -7.190  -0.962  1.00  0.00     0.044 A 
HETATM   12 BR1  UNL     1      -3.444  -8.987  -1.174  1.00  0.00    -0.048 Br
HETATM   13  C21 UNL     1      -3.208  -6.391   0.079  1.00  0.00     0.093 A 
HETATM   14  C22 UNL     1      -2.770  -5.067   0.263  1.00  0.00    -0.009 A 
HETATM   15  C23 UNL     1      -3.386  -4.594   1.525  1.00  0.00     0.069 C 
HETATM   16  C24 UNL     1      -3.710  -5.937   2.220  1.00  0.00     0.180 C 
HETATM   17  O2  UNL     1      -4.089  -6.746   1.109  1.00  0.00    -0.349 OA
HETATM   18  C25 UNL     1      -1.817  -2.074  -0.207  1.00  0.00     0.138 A 
ENDROOT
BRANCH   4  19
HETATM   19  N4  UNL     1       1.989  -2.075  -1.499  1.00  0.00    -0.226 N 
ATOM     20  H4  UNL     1       2.434  -2.948  -1.782  1.00  0.00     0.177 HD
BRANCH  19  21
HETATM   21  C9  UNL     1       2.703  -0.822  -1.552  1.00  0.00     0.139 C 
BRANCH  21  22
HETATM   22  C10 UNL     1       4.043  -0.969  -2.248  1.00  0.00     0.040 C 
BRANCH  22  23
HETATM   23  C11 UNL     1       4.772   0.365  -2.277  1.00  0.00     0.124 C 
BRANCH  23  24
HETATM   24  N5  UNL     1       5.001   0.824  -0.939  1.00  0.00    -0.361 N 
HETATM   25  C12 UNL     1       5.652   2.045  -0.695  1.00  0.00     0.217 C 
HETATM   26  O1  UNL     1       6.043   2.753  -1.658  1.00  0.00    -0.274 OA
ATOM     27  H5  UNL     1       4.687   0.256  -0.152  1.00  0.00     0.162 HD
BRANCH  25  28
HETATM   28  C13 UNL     1       5.869   2.480   0.705  1.00  0.00     0.104 C 
BRANCH  28  29
HETATM   29  C14 UNL     1       6.526   3.829   0.747  1.00  0.00     0.036 C 
BRANCH  29  30
HETATM   30  C15 UNL     1       6.701   4.162   2.233  1.00  0.00     0.230 C 
BRANCH  30  31
HETATM   31  N6  UNL     1       7.322   5.461   2.306  1.00  0.00    -0.079 N 
ATOM     32  H63 UNL     1       8.193   5.518   1.778  1.00  0.00     0.274 HD
ATOM     33  H62 UNL     1       6.810   6.179   1.793  1.00  0.00     0.274 HD
ATOM     34  H61 UNL     1       7.438   5.683   3.295  1.00  0.00     0.274 HD
ENDBRANCH  30  31
ENDBRANCH  29  30
ENDBRANCH  28  29
ENDBRANCH  25  28
ENDBRANCH  23  24
ENDBRANCH  22  23
ENDBRANCH  21  22
ENDBRANCH  19  21
ENDBRANCH   4  19
BRANCH   1  35
HETATM   35  N2  UNL     1      -1.720   0.193   0.112  1.00  0.00    -0.369 N 
ATOM     36  H2  UNL     1      -2.683   0.048   0.414  1.00  0.00     0.161 HD
BRANCH  35  37
HETATM   37  C6  UNL     1      -1.257   1.533   0.169  1.00  0.00     0.086 C 
HETATM   38  C5  UNL     1      -1.430   2.176   1.518  1.00  0.00     0.055 C 
HETATM   39  C4  UNL     1      -2.471   3.252   1.411  1.00  0.00     0.275 C 
HETATM   40  N1  UNL     1      -3.696   2.793   0.835  1.00  0.00     0.091 N 
HETATM   41  C27 UNL     1      -3.507   2.248  -0.466  1.00  0.00     0.275 C 
HETATM   42  C26 UNL     1      -2.059   2.331  -0.869  1.00  0.00     0.055 C 
BRANCH  40  43
HETATM   43  C3  UNL     1      -4.748   3.789   0.907  1.00  0.00     0.299 C 
BRANCH  43  44
HETATM   44  C2  UNL     1      -6.017   3.321   0.312  1.00  0.00    -0.007 C 
HETATM   45  C1  UNL     1      -7.131   3.245   1.044  1.00  0.00     0.008 C 
ENDBRANCH  43  44
ENDBRANCH  40  43
ENDBRANCH  35  37
ENDBRANCH   1  35
BRANCH  18  46
HETATM   46  O3  UNL     1      -3.123  -2.003   0.233  1.00  0.00    -0.355 OA
ATOM     47  H3  UNL     1      -3.605  -2.821   0.272  1.00  0.00     0.218 HD
ENDBRANCH  18  46
TORSDOF 14
