REMARK  6 active torsions:
REMARK  status: ('A' for Active; 'I' for Inactive)
REMARK    1  A    between atoms: O1_2  and  C2_3 
REMARK    2  A    between atoms: C4_5  and  C5_6 
REMARK    3  A    between atoms: N1_8  and  N2_10 
REMARK       I    between atoms: N2_10  and  C7_11 
REMARK       I    between atoms: C7_11  and  N3_13 
REMARK    4  A    between atoms: N3_13  and  N4_15 
REMARK    5  A    between atoms: C20_28  and  O3_29 
REMARK    6  A    between atoms: C22_31  and  O4_32 
ROOT
HETATM    1  N2  UNL     1       0.637   0.486  -0.219  1.00  0.00    -0.264 NA
HETATM    2  C7  UNL     1      -0.715   0.578  -0.293  1.00  0.00     0.430 C 
HETATM    3  O2  UNL     1      -1.323   1.509  -0.949  1.00  0.00    -0.227 OA
HETATM    4  N3  UNL     1      -1.510  -0.393   0.391  1.00  0.00    -0.240 N 
ATOM      5  H3  UNL     1      -0.989  -1.115   0.889  1.00  0.00     0.192 HD
ENDROOT
BRANCH   1   6
HETATM    6  N1  UNL     1       1.919   0.401  -0.150  1.00  0.00    -0.234 N 
HETATM    7  C5  UNL     1       2.850   0.811   0.587  1.00  0.00     0.045 C 
HETATM    8  C6  UNL     1       2.581   1.648   1.758  1.00  0.00     0.071 C 
ATOM      9  H1  UNL     1       2.286  -0.163  -0.916  1.00  0.00     0.201 HD
BRANCH   7  10
HETATM   10  C4  UNL     1       4.222   0.442   0.252  1.00  0.00    -0.006 A 
HETATM   11  C3  UNL     1       4.517  -0.330  -0.851  1.00  0.00     0.053 A 
HETATM   12  C2  UNL     1       5.803  -0.692  -1.210  1.00  0.00     0.105 A 
HETATM   13  C22 UNL     1       6.834  -0.252  -0.414  1.00  0.00     0.135 A 
HETATM   14  C20 UNL     1       6.577   0.535   0.716  1.00  0.00     0.105 A 
HETATM   15  C19 UNL     1       5.278   0.871   1.035  1.00  0.00     0.053 A 
BRANCH  12  16
HETATM   16  O1  UNL     1       6.118  -1.466  -2.312  1.00  0.00    -0.353 OA
HETATM   17  C1  UNL     1       5.054  -1.921  -3.128  1.00  0.00     0.210 C 
ENDBRANCH  12  16
BRANCH  13  18
HETATM   18  O4  UNL     1       8.133  -0.594  -0.739  1.00  0.00    -0.351 OA
HETATM   19  C23 UNL     1       8.907   0.259  -1.582  1.00  0.00     0.210 C 
ENDBRANCH  13  18
BRANCH  14  20
HETATM   20  O3  UNL     1       7.671   0.932   1.456  1.00  0.00    -0.353 OA
HETATM   21  C21 UNL     1       7.463   1.724   2.605  1.00  0.00     0.210 C 
ENDBRANCH  14  20
ENDBRANCH   7  10
ENDBRANCH   1   6
BRANCH   4  22
HETATM   22  N4  UNL     1      -2.827  -0.485   0.468  1.00  0.00    -0.318 N 
HETATM   23  C8  UNL     1      -3.341  -1.264   1.571  1.00  0.00     0.144 C 
HETATM   24  C9  UNL     1      -4.252  -2.306   1.017  1.00  0.00     0.030 C 
HETATM   25  C10 UNL     1      -5.400  -1.629   0.303  1.00  0.00    -0.041 C 
HETATM   26  C11 UNL     1      -6.374  -1.186   1.346  1.00  0.00     0.015 C 
HETATM   27  C12 UNL     1      -6.097  -2.757  -0.480  1.00  0.00     0.015 C 
HETATM   28  C13 UNL     1      -4.975  -0.621  -0.691  1.00  0.00     0.018 C 
HETATM   29  C14 UNL     1      -6.035   0.303  -1.158  1.00  0.00     0.007 C 
HETATM   30  C18 UNL     1      -3.752   0.208  -0.288  1.00  0.00     0.107 C 
HETATM   31  C15 UNL     1      -5.385   1.523  -1.802  1.00  0.00     0.001 C 
HETATM   32  C16 UNL     1      -4.772   2.390  -0.734  1.00  0.00     0.002 C 
HETATM   33  C17 UNL     1      -4.239   1.512   0.377  1.00  0.00     0.027 C 
ENDBRANCH   4  22
TORSDOF 6
