REMARK  4 active torsions:
REMARK  status: ('A' for Active; 'I' for Inactive)
REMARK    1  A    between atoms: C2_2  and  C3_3 
REMARK       I    between atoms: C3_3  and  N1_5 
REMARK    2  A    between atoms: N2_7  and  C4_9 
REMARK    3  A    between atoms: C5_11  and  N3_12 
REMARK    4  A    between atoms: C7_17  and  O2_18 
ROOT
HETATM    1  C4  UNL     1       0.369   0.640   1.321  1.00  0.00     0.143 A 
HETATM    2  S1  UNL     1       0.813  -0.954   1.706  1.00  0.00    -0.031 SA
HETATM    3  C5  UNL     1       2.226  -1.063   0.758  1.00  0.00     0.148 A 
HETATM    4  N4  UNL     1       2.294   0.140   0.182  1.00  0.00    -0.315 N 
ATOM      5  H4  UNL     1       3.056   0.369  -0.456  1.00  0.00     0.170 HD
HETATM    6  C7  UNL     1       1.364   1.018   0.453  1.00  0.00     0.178 A 
ENDROOT
BRANCH   1   7
HETATM    7  N2  UNL     1      -0.748   1.454   1.753  1.00  0.00    -0.288 N 
HETATM    8  N1  UNL     1      -1.849   1.454   1.167  1.00  0.00    -0.269 N 
HETATM    9  C3  UNL     1      -2.208   0.700   0.032  1.00  0.00     0.235 C 
ATOM     10  H1  UNL     1      -2.568   2.067   1.551  1.00  0.00     0.190 HD
HETATM   11  O1  UNL     1      -1.390  -0.112  -0.442  1.00  0.00    -0.272 OA
ATOM     12  H2  UNL     1      -0.629   2.052   2.571  1.00  0.00     0.188 HD
BRANCH   9  13
HETATM   13  C2  UNL     1      -3.529   0.861  -0.592  1.00  0.00     0.100 C 
HETATM   14  C1  UNL     1      -4.159  -0.548  -0.645  1.00  0.00     0.014 C 
ENDBRANCH   9  13
ENDBRANCH   1   7
BRANCH   6  15
HETATM   15  O2  UNL     1       1.343   2.334  -0.115  1.00  0.00    -0.344 OA
ATOM     16  H2  UNL     1       2.031   2.595  -0.715  1.00  0.00     0.219 HD
ENDBRANCH   6  15
BRANCH   3  17
HETATM   17  N3  UNL     1       3.060  -2.073   0.608  1.00  0.00    -0.375 N 
HETATM   18  C6  UNL     1       4.180  -1.852  -0.274  1.00  0.00     0.148 C 
ATOM     19  H3  UNL     1       2.921  -2.962   1.089  1.00  0.00     0.161 HD
ENDBRANCH   3  17
TORSDOF 4
