REMARK  11 active torsions:
REMARK  status: ('A' for Active; 'I' for Inactive)
REMARK    1  A    between atoms: N1_2  and  C3_4 
REMARK    2  A    between atoms: C3_4  and  C4_5 
REMARK    3  A    between atoms: C4_5  and  C5_6 
REMARK    4  A    between atoms: C5_6  and  C6_7 
REMARK    5  A    between atoms: C6_7  and  N2_8 
REMARK    6  A    between atoms: C7_9  and  N3_10 
REMARK    7  A    between atoms: N3_10  and  N4_12 
REMARK    8  A    between atoms: N4_12  and  S1_14 
REMARK    9  A    between atoms: S1_14  and  C8_17 
REMARK   10  A    between atoms: N7_26  and  O4_27 
REMARK   11  A    between atoms: C12_31  and  N9_32 
ROOT
HETATM    1  N2  UNL     1      -0.306  -1.179   1.289  1.00  0.00    -0.164 N 
HETATM    2  C7  UNL     1       1.007  -1.103   1.523  1.00  0.00     0.703 A 
HETATM    3  N8  UNL     1       1.674  -2.119   2.214  1.00  0.00    -0.173 N 
ATOM      4  H8  UNL     1       2.677  -2.029   2.375  1.00  0.00     0.186 HD
HETATM    5  C12 UNL     1       1.051  -3.189   2.664  1.00  0.00     0.146 A 
HETATM    6  C13 UNL     1      -0.304  -3.293   2.436  1.00  0.00     0.138 A 
HETATM    7  N10 UNL     1      -1.249  -4.213   2.736  1.00  0.00    -0.184 N 
ATOM      8  H10 UNL     1      -1.087  -5.084   3.242  1.00  0.00     0.184 HD
HETATM    9  C14 UNL     1      -2.436  -3.797   2.261  1.00  0.00     0.678 A 
HETATM   10  N11 UNL     1      -3.541  -4.464   2.391  1.00  0.00    -0.234 N 
ATOM     11 1H11 UNL     1      -4.442  -4.148   2.031  1.00  0.00     0.174 HD
ATOM     12 2H11 UNL     1      -3.666  -5.365   2.853  1.00  0.00     0.174 HD
HETATM   13  N12 UNL     1      -2.272  -2.611   1.652  1.00  0.00    -0.174 N 
ATOM     14  H12 UNL     1      -2.997  -2.056   1.198  1.00  0.00     0.186 HD
HETATM   15  C15 UNL     1      -0.961  -2.293   1.756  1.00  0.00     0.170 A 
ENDROOT
BRANCH   2  16
HETATM   16  N3  UNL     1       1.732  -0.173   1.171  1.00  0.00    -0.122 N 
ATOM     17  H3  UNL     1       2.687  -0.366   1.474  1.00  0.00     0.206 HD
BRANCH  16  18
HETATM   18  N4  UNL     1       1.711   0.979   0.544  1.00  0.00    -0.208 N 
ATOM     19  H4  UNL     1       1.232   1.745   1.017  1.00  0.00     0.201 HD
BRANCH  18  20
HETATM   20  S1  UNL     1       2.411   1.344  -1.006  1.00  0.00     0.280 S 
HETATM   21  O1  UNL     1       2.601   0.114  -1.843  1.00  0.00    -0.199 OA
HETATM   22  O2  UNL     1       1.521   2.307  -1.723  1.00  0.00    -0.199 OA
BRANCH  20  23
HETATM   23  C8  UNL     1       3.999   2.029  -0.755  1.00  0.00     0.129 A 
HETATM   24  C9  UNL     1       4.464   3.273  -1.135  1.00  0.00     0.117 A 
HETATM   25  N5  UNL     1       5.767   3.408  -0.743  1.00  0.00    -0.345 N 
HETATM   26  C10 UNL     1       6.145   2.286  -0.124  1.00  0.00     0.191 A 
ATOM     27  H5  UNL     1       6.353   4.229  -0.897  1.00  0.00     0.167 HD
HETATM   28  C11 UNL     1       5.071   1.422  -0.119  1.00  0.00     0.130 A 
HETATM   29  N7  UNL     1       7.160   1.680   0.492  1.00  0.00    -0.082 N 
HETATM   30  N6  UNL     1       5.512   0.305   0.520  1.00  0.00    -0.234 N 
HETATM   31  O3  UNL     1       6.757   0.502   0.865  1.00  0.00    -0.126 OA
ATOM     32  H6  UNL     1       4.967  -0.538   0.699  1.00  0.00     0.197 HD
BRANCH  29  33
HETATM   33  O4  UNL     1       8.435   2.144   0.731  1.00  0.00    -0.260 OA
ATOM     34  H4  UNL     1       9.158   1.712   1.170  1.00  0.00     0.247 HD
ENDBRANCH  29  33
ENDBRANCH  20  23
ENDBRANCH  18  20
ENDBRANCH  16  18
ENDBRANCH   2  16
BRANCH   1  35
HETATM   35  C6  UNL     1      -1.065  -0.186   0.585  1.00  0.00     0.149 C 
BRANCH  35  36
HETATM   36  C5  UNL     1      -1.147  -0.415  -0.907  1.00  0.00     0.023 C 
BRANCH  36  37
HETATM   37  C4  UNL     1      -1.957   0.712  -1.508  1.00  0.00     0.032 C 
BRANCH  37  38
HETATM   38  C3  UNL     1      -3.360   0.797  -0.966  1.00  0.00     0.271 C 
BRANCH  38  39
HETATM   39  N1  UNL     1      -4.007   1.915  -1.641  1.00  0.00     0.080 N 
HETATM   40  C1  UNL     1      -5.377   2.080  -1.183  1.00  0.00     0.309 C 
HETATM   41  C2  UNL     1      -3.947   1.761  -3.083  1.00  0.00     0.309 C 
ENDBRANCH  38  39
ENDBRANCH  37  38
ENDBRANCH  36  37
ENDBRANCH  35  36
ENDBRANCH   1  35
BRANCH   5  42
HETATM   42  N9  UNL     1       1.650  -4.139   3.304  1.00  0.00    -0.383 N 
ATOM     43  H92 UNL     1       2.653  -4.062   3.473  1.00  0.00     0.157 HD
ATOM     44  H91 UNL     1       1.168  -4.967   3.652  1.00  0.00     0.157 HD
ENDBRANCH   5  42
TORSDOF 11
