REMARK  8 active torsions:
REMARK  status: ('A' for Active; 'I' for Inactive)
REMARK    1  A    between atoms: C2_2  and  C4_4 
REMARK    2  A    between atoms: C6_6  and  C7_7 
REMARK    3  A    between atoms: C6_6  and  C9_11 
REMARK    4  A    between atoms: C7_7  and  O2_9 
REMARK    5  A    between atoms: C11_14  and  C12_15 
REMARK    6  A    between atoms: C11_14  and  C19_24 
REMARK    7  A    between atoms: C20_25  and  O6_26 
REMARK    8  A    between atoms: C25_33  and  O8_34 
ROOT
HETATM    1  C4  UNL     1       1.000  -1.036  -0.900  1.00  0.00    -0.058 C 
HETATM    2  C5  UNL     1       1.953   0.151  -0.933  1.00  0.00     0.063 C 
HETATM    3  C6  UNL     1       1.901   1.003   0.308  1.00  0.00     0.127 C 
HETATM    4  C19 UNL     1      -0.193  -0.759  -0.087  1.00  0.00     0.058 C 
HETATM    5  C20 UNL     1      -1.033  -1.995   0.193  1.00  0.00     0.166 C 
HETATM    6  C21 UNL     1      -0.261  -2.850   1.182  1.00  0.00     0.187 A 
HETATM    7  O7  UNL     1      -0.515  -2.710   2.517  1.00  0.00    -0.366 OA
HETATM    8  C22 UNL     1       0.645  -2.069   1.791  1.00  0.00     0.094 A 
HETATM    9  C23 UNL     1       1.863  -2.340   2.600  1.00  0.00     0.049 C 
HETATM   10  C24 UNL     1       0.319  -0.620   1.361  1.00  0.00     0.071 C 
HETATM   11  C25 UNL     1       1.609   0.113   1.469  1.00  0.00     0.150 C 
ENDROOT
BRANCH   3  12
HETATM   12  C7  UNL     1       3.250   1.598   0.534  1.00  0.00     0.275 C 
HETATM   13  O1  UNL     1       3.410   2.848   0.555  1.00  0.00    -0.264 OA
BRANCH  12  14
HETATM   14  O2  UNL     1       4.311   0.759   0.718  1.00  0.00    -0.326 OA
HETATM   15  C8  UNL     1       5.614   1.310   0.936  1.00  0.00     0.213 C 
ENDBRANCH  12  14
ENDBRANCH   3  12
BRANCH   3  16
HETATM   16  C9  UNL     1       0.830   2.098   0.191  1.00  0.00     0.284 C 
HETATM   17  O3  UNL     1       0.397   2.084  -1.069  1.00  0.00    -0.356 OA
HETATM   18  C10 UNL     1      -0.637   1.349  -1.470  1.00  0.00     0.214 C 
HETATM   19  C11 UNL     1      -1.157   0.296  -0.511  1.00  0.00     0.118 C 
HETATM   20  O4  UNL     1      -1.832   0.981   0.447  1.00  0.00    -0.337 OA
HETATM   21  C16 UNL     1      -1.352   2.103   1.011  1.00  0.00     0.161 C 
HETATM   22  C17 UNL     1      -2.029   2.216   2.406  1.00  0.00     0.078 C 
HETATM   23  C18 UNL     1      -1.723   3.449   0.453  1.00  0.00     0.078 C 
HETATM   24  O5  UNL     1      -0.013   1.956   1.245  1.00  0.00    -0.325 OA
BRANCH  19  25
HETATM   25  C12 UNL     1      -2.136  -0.371  -1.393  1.00  0.00     0.016 C 
HETATM   26  C13 UNL     1      -3.412  -0.185  -1.517  1.00  0.00    -0.088 C 
HETATM   27  C14 UNL     1      -4.223  -1.017  -2.518  1.00  0.00     0.042 C 
HETATM   28  C15 UNL     1      -4.247   0.796  -0.778  1.00  0.00     0.042 C 
ENDBRANCH  19  25
ENDBRANCH   3  16
BRANCH  11  29
HETATM   29  O8  UNL     1       1.558   0.871   2.662  1.00  0.00    -0.394 OA
ATOM     30  H8  UNL     1       1.372   0.304   3.401  1.00  0.00     0.210 HD
ENDBRANCH  11  29
BRANCH   1  31
HETATM   31  C2  UNL     1       0.987  -1.821  -2.118  1.00  0.00    -0.068 C 
HETATM   32  C1  UNL     1       1.349  -1.329  -3.291  1.00  0.00     0.018 C 
HETATM   33  C3  UNL     1       0.625  -3.253  -2.296  1.00  0.00     0.047 C 
ENDBRANCH   1  31
BRANCH   5  34
HETATM   34  O6  UNL     1      -2.198  -1.618   0.916  1.00  0.00    -0.392 OA
ATOM     35  H6  UNL     1      -2.723  -2.390   1.091  1.00  0.00     0.210 HD
ENDBRANCH   5  34
TORSDOF 8
