REMARK  7 active torsions:
REMARK  status: ('A' for Active; 'I' for Inactive)
REMARK    1  A    between atoms: C2_2  and  O1_3 
REMARK    2  A    between atoms: O1_3  and  C3_4 
REMARK    3  A    between atoms: C3_4  and  C4_5 
REMARK    4  A    between atoms: C17_19  and  O3_20 
REMARK    5  A    between atoms: C20_25  and  C21_26 
REMARK    6  A    between atoms: C23_30  and  O7_31 
REMARK    7  A    between atoms: O7_31  and  C24_32 
ROOT
HETATM    1  C3  UNL     1       1.054  -1.172   0.095  1.00  0.00     0.172 C 
HETATM    2  C6  UNL     1      -0.254  -1.859  -0.225  1.00  0.00     0.094 C 
HETATM    3  C7  UNL     1      -1.474  -1.586   0.418  1.00  0.00     0.095 A 
HETATM    4  C8  UNL     1      -2.639  -2.216  -0.388  1.00  0.00     0.074 C 
HETATM    5  C9  UNL     1      -2.650  -1.436  -1.658  1.00  0.00    -0.085 C 
HETATM    6  C10 UNL     1      -2.750  -2.307  -2.900  1.00  0.00     0.043 C 
HETATM    7  C11 UNL     1      -2.584  -0.124  -1.780  1.00  0.00    -0.023 C 
HETATM    8  C12 UNL     1      -2.486   0.920  -0.771  1.00  0.00     0.042 C 
HETATM    9  C13 UNL     1      -1.058   1.225  -0.271  1.00  0.00     0.004 A 
HETATM   10  C14 UNL     1      -1.026   2.550   0.390  1.00  0.00     0.027 A 
HETATM   11  C15 UNL     1      -0.783   1.163   1.079  1.00  0.00    -0.007 A 
HETATM   12  C16 UNL     1      -1.010   1.293   2.457  1.00  0.00     0.040 A 
HETATM   13  C17 UNL     1      -2.479   1.160   2.929  1.00  0.00     0.136 A 
HETATM   14  C18 UNL     1      -1.878   0.463   1.767  1.00  0.00     0.031 A 
HETATM   15  C19 UNL     1      -2.021  -0.953   1.473  1.00  0.00     0.170 A 
HETATM   16  O4  UNL     1      -1.357  -2.049   1.829  1.00  0.00    -0.368 OA
HETATM   17  C20 UNL     1       0.065   0.820  -1.162  1.00  0.00     0.030 C 
HETATM   18  C23 UNL     1       1.257   0.158  -0.531  1.00  0.00     0.107 C 
ENDROOT
BRANCH   1  19
HETATM   19  O1  UNL     1       1.197  -1.275   1.409  1.00  0.00    -0.366 OA
BRANCH  19  20
HETATM   20  C2  UNL     1       2.209  -1.053   2.207  1.00  0.00     0.165 C 
HETATM   21  C1  UNL     1       1.887  -1.437   3.691  1.00  0.00     0.033 C 
ENDBRANCH  19  20
ENDBRANCH   1  19
BRANCH   1  22
HETATM   22  C4  UNL     1       2.036  -2.090  -0.651  1.00  0.00     0.164 C 
HETATM   23  C5  UNL     1       2.096  -2.159  -2.120  1.00  0.00     0.094 C 
HETATM   24  O2  UNL     1       2.777  -2.774   0.003  1.00  0.00    -0.295 OA
ENDBRANCH   1  22
BRANCH  18  25
HETATM   25  O7  UNL     1       2.105   0.992   0.210  1.00  0.00    -0.279 OA
BRANCH  25  26
HETATM   26  C24 UNL     1       3.365   1.433  -0.183  1.00  0.00     0.259 C 
HETATM   27  C25 UNL     1       4.217   2.317   0.649  1.00  0.00     0.126 C 
HETATM   28  O8  UNL     1       3.789   1.065  -1.283  1.00  0.00    -0.265 OA
ENDBRANCH  25  26
ENDBRANCH  18  25
BRANCH  17  29
HETATM   29  C21 UNL     1       0.360   1.818  -2.226  1.00  0.00     0.253 A 
HETATM   30  C22 UNL     1       0.695   3.251  -1.978  1.00  0.00     0.090 C 
HETATM   31  O5  UNL     1      -0.220   1.583  -3.475  1.00  0.00    -0.190 OA
HETATM   32  O6  UNL     1       1.044   1.334  -3.384  1.00  0.00    -0.190 OA
ENDBRANCH  17  29
BRANCH  13  33
HETATM   33  O3  UNL     1      -2.706   0.499   4.121  1.00  0.00    -0.394 OA
ATOM     34  H3  UNL     1      -3.607   0.417   4.411  1.00  0.00     0.210 HD
ENDBRANCH  13  33
TORSDOF 7
