REMARK  5 active torsions:
REMARK  status: ('A' for Active; 'I' for Inactive)
REMARK    1  A    between atoms: C2_2  and  O2_4 
REMARK    2  A    between atoms: O2_4  and  C3_5 
REMARK    3  A    between atoms: C3_5  and  C4_6 
REMARK    4  A    between atoms: C15_17  and  O3_18 
REMARK    5  A    between atoms: C20_27  and  C22_29 
ROOT
HETATM    1  C4  UNL     1       2.428   0.402  -0.596  1.00  0.00     0.009 C 
HETATM    2  C5  UNL     1       2.938  -0.528  -1.692  1.00  0.00     0.020 C 
HETATM    3  C6  UNL     1       1.385  -0.392   0.185  1.00  0.00     0.052 C 
HETATM    4  C7  UNL     1       0.185  -0.236  -0.699  1.00  0.00     0.067 C 
HETATM    5  C8  UNL     1      -0.148  -1.647  -1.216  1.00  0.00     0.039 C 
HETATM    6  C9  UNL     1      -1.181  -2.054  -0.184  1.00  0.00     0.010 C 
HETATM    7  C10 UNL     1      -2.068  -0.796  -0.227  1.00  0.00     0.018 C 
HETATM    8  C11 UNL     1      -1.038   0.282  -0.039  1.00  0.00     0.042 C 
HETATM    9  C12 UNL     1      -1.586   1.558  -0.602  1.00  0.00     0.030 C 
HETATM   10  C13 UNL     1      -2.570   1.321  -1.753  1.00  0.00     0.024 C 
HETATM   11  C14 UNL     1      -0.588   2.549  -1.090  1.00  0.00     0.052 C 
HETATM   12  C15 UNL     1       0.792   2.367  -0.480  1.00  0.00     0.149 C 
HETATM   13  C16 UNL     1       1.530   1.389  -1.290  1.00  0.00     0.161 C 
HETATM   14  O4  UNL     1       0.561   0.494  -1.826  1.00  0.00    -0.371 OA
HETATM   15  C17 UNL     1      -2.397   2.188   0.485  1.00  0.00     0.159 C 
HETATM   16  O5  UNL     1      -2.255   3.423   0.679  1.00  0.00    -0.292 OA
HETATM   17  C18 UNL     1      -3.346   1.542   1.361  1.00  0.00     0.071 C 
HETATM   18  C19 UNL     1      -3.582   0.265   1.472  1.00  0.00     0.034 C 
HETATM   19 CL1  UNL     1      -4.837  -0.083   2.679  1.00  0.00    -0.087 Cl
HETATM   20  C20 UNL     1      -3.065  -0.949   0.844  1.00  0.00     0.087 C 
HETATM   21  C21 UNL     1      -2.523  -1.834   1.964  1.00  0.00     0.033 C 
ENDROOT
BRANCH   1  22
HETATM   22  C3  UNL     1       3.491   0.959   0.243  1.00  0.00     0.190 C 
BRANCH  22  23
HETATM   23  O2  UNL     1       4.292   0.149   0.981  1.00  0.00    -0.321 OA
BRANCH  23  24
HETATM   24  C2  UNL     1       5.258  -0.743   0.774  1.00  0.00     0.254 C 
HETATM   25  C1  UNL     1       5.953  -1.514   1.877  1.00  0.00     0.126 C 
HETATM   26  O1  UNL     1       5.655  -1.000  -0.371  1.00  0.00    -0.266 OA
ENDBRANCH  23  24
ENDBRANCH  22  23
ENDBRANCH   1  22
BRANCH  12  27
HETATM   27  O3  UNL     1       0.731   2.210   0.873  1.00  0.00    -0.393 OA
ATOM     28  H3  UNL     1       1.594   2.096   1.254  1.00  0.00     0.210 HD
ENDBRANCH  12  27
BRANCH  20  29
HETATM   29  C22 UNL     1      -4.236  -1.689   0.289  1.00  0.00     0.187 C 
HETATM   30  O6  UNL     1      -4.259  -2.069  -0.910  1.00  0.00    -0.647 OA
HETATM   31  O7  UNL     1      -5.358  -2.000   1.053  1.00  0.00    -0.647 OA
ENDBRANCH  20  29
TORSDOF 5
