REMARK  9 active torsions:
REMARK  status: ('A' for Active; 'I' for Inactive)
REMARK    1  A    between atoms: C2_2  and  C4_4 
REMARK    2  A    between atoms: C4_4  and  C5_6 
REMARK    3  A    between atoms: C5_6  and  C6_7 
REMARK    4  A    between atoms: C6_7  and  O1_8 
REMARK    5  A    between atoms: C6_7  and  C7_10 
REMARK    6  A    between atoms: C17_20  and  N1_21 
REMARK    7  A    between atoms: N1_21  and  S1_23 
REMARK    8  A    between atoms: S1_23  and  C18_26 
REMARK    9  A    between atoms: C18_26  and  C19_27 
ROOT
HETATM    1  C7  UNL     1       1.139  -0.144   1.000  1.00  0.00     0.046 C 
HETATM    2  C8  UNL     1       2.200   0.603   0.258  1.00  0.00     0.018 C 
HETATM    3  C9  UNL     1       2.162   2.065   0.758  1.00  0.00     0.015 C 
HETATM    4  C10 UNL     1       2.853   2.852  -0.357  1.00  0.00     0.009 C 
HETATM    5  C11 UNL     1       2.620   4.320  -0.208  1.00  0.00     0.001 C 
HETATM    6  C12 UNL     1       1.938   4.588   1.110  1.00  0.00     0.004 C 
HETATM    7  C13 UNL     1       0.554   3.985   1.047  1.00  0.00     0.035 C 
HETATM    8  C14 UNL     1       0.750   2.479   0.794  1.00  0.00    -0.072 C 
HETATM    9  C15 UNL     1      -0.315   1.727   0.652  1.00  0.00    -0.057 C 
HETATM   10  C16 UNL     1      -1.659   2.407   0.730  1.00  0.00     0.046 C 
HETATM   11  C17 UNL     1      -0.237   0.224   0.436  1.00  0.00     0.128 C 
ENDROOT
BRANCH  11  12
HETATM   12  N1  UNL     1      -1.252  -0.395   1.195  1.00  0.00    -0.310 N 
ATOM     13  H1  UNL     1      -1.248  -0.306   2.211  1.00  0.00     0.172 HD
BRANCH  12  14
HETATM   14  S1  UNL     1      -2.467  -1.277   0.443  1.00  0.00     0.227 S 
HETATM   15  O2  UNL     1      -3.484  -1.751   1.507  1.00  0.00    -0.206 OA
HETATM   16  O3  UNL     1      -1.998  -2.518  -0.204  1.00  0.00    -0.206 OA
BRANCH  14  17
HETATM   17  C18 UNL     1      -3.414  -0.254  -0.645  1.00  0.00     0.171 C 
BRANCH  17  18
HETATM   18  C19 UNL     1      -4.507  -1.006  -1.356  1.00  0.00    -0.037 C 
HETATM   19  C20 UNL     1      -4.027  -2.128  -2.205  1.00  0.00     0.015 C 
HETATM   20  C21 UNL     1      -5.248  -0.025  -2.245  1.00  0.00     0.015 C 
HETATM   21  C22 UNL     1      -5.523  -1.553  -0.374  1.00  0.00     0.015 C 
ENDBRANCH  17  18
ENDBRANCH  14  17
ENDBRANCH  12  14
ENDBRANCH  11  12
BRANCH   1  22
HETATM   22  C6  UNL     1       1.423  -1.530   1.308  1.00  0.00     0.149 C 
BRANCH  22  23
HETATM   23  C5  UNL     1       1.672  -2.617   0.391  1.00  0.00     0.029 C 
BRANCH  23  24
HETATM   24  C4  UNL     1       2.690  -2.718  -0.648  1.00  0.00     0.037 C 
HETATM   25 CL1  UNL     1       2.323  -1.924  -2.197  1.00  0.00    -0.084 Cl
BRANCH  24  26
HETATM   26  C2  UNL     1       4.108  -2.636  -0.264  1.00  0.00    -0.050 C 
HETATM   27  C1  UNL     1       4.934  -1.817  -0.886  1.00  0.00     0.020 C 
HETATM   28  C3  UNL     1       4.641  -3.521   0.807  1.00  0.00     0.049 C 
ENDBRANCH  24  26
ENDBRANCH  23  24
ENDBRANCH  22  23
BRANCH  22  29
HETATM   29  O1  UNL     1       0.314  -1.946   2.189  1.00  0.00    -0.391 OA
ATOM     30  H1  UNL     1       0.150  -1.231   2.792  1.00  0.00     0.210 HD
ENDBRANCH  22  29
ENDBRANCH   1  22
TORSDOF 9
