REMARK  10 active torsions:
REMARK  status: ('A' for Active; 'I' for Inactive)
REMARK    1  A    between atoms: C5_7  and  C6_8 
REMARK    2  A    between atoms: C6_8  and  C7_9 
REMARK    3  A    between atoms: C7_9  and  C8_10 
REMARK       I    between atoms: N2_13  and  C11_15 
REMARK    4  A    between atoms: N4_17  and  C12_19 
REMARK    5  A    between atoms: C12_19  and  C13_20 
REMARK    6  A    between atoms: C13_20  and  C14_21 
REMARK    7  A    between atoms: C14_21  and  C15_22 
REMARK    8  A    between atoms: C17_26  and  C18_27 
REMARK    9  A    between atoms: C19_32  and  C20_33 
REMARK   10  A    between atoms: N8_34  and  N9_36 
ROOT
HETATM    1  C8  UNL     1      -0.956   0.068  -0.665  1.00  0.00     0.015 A 
HETATM    2  C9  UNL     1       0.317  -0.197  -0.408  1.00  0.00     0.055 A 
HETATM    3  C10 UNL     1       1.316   0.789  -0.151  1.00  0.00     0.052 A 
HETATM    4  N2  UNL     1       2.555   0.517   0.103  1.00  0.00    -0.330 N 
ATOM      5  H2  UNL     1       3.214   1.276   0.278  1.00  0.00     0.168 HD
HETATM    6  C11 UNL     1       3.011  -0.848   0.140  1.00  0.00     0.188 C 
HETATM    7  N3  UNL     1       3.488  -1.399  -1.069  1.00  0.00    -0.064 NA
HETATM    8  N4  UNL     1       2.968  -1.497   1.219  1.00  0.00    -0.364 N 
ATOM      9  H4  UNL     1       2.599  -0.995   2.027  1.00  0.00     0.162 HD
HETATM   10  C16 UNL     1       0.944   2.230  -0.163  1.00  0.00     0.062 A 
HETATM   11  C17 UNL     1       1.856   3.122   0.048  1.00  0.00     0.069 C 
HETATM   12  C21 UNL     1      -0.454   2.527  -0.446  1.00  0.00     0.258 A 
HETATM   13  O2  UNL     1      -0.894   3.705  -0.487  1.00  0.00    -0.267 OA
HETATM   14  N12 UNL     1      -1.343   1.432  -0.684  1.00  0.00    -0.326 N 
ATOM     15  H12 UNL     1      -2.321   1.647  -0.881  1.00  0.00     0.169 HD
ENDROOT
BRANCH  11  16
HETATM   16  C18 UNL     1       1.767   4.565   0.095  1.00  0.00     0.122 A 
HETATM   17  N6  UNL     1       0.929   5.405   0.723  1.00  0.00    -0.284 N 
HETATM   18  N7  UNL     1       1.214   6.669   0.479  1.00  0.00    -0.283 N 
ATOM     19  H6  UNL     1       0.160   5.100   1.320  1.00  0.00     0.188 HD
HETATM   20  C19 UNL     1       2.284   6.699  -0.343  1.00  0.00     0.138 A 
ATOM     21  H7  UNL     1       0.715   7.479   0.846  1.00  0.00     0.188 HD
HETATM   22  N11 UNL     1       2.613   5.426  -0.571  1.00  0.00    -0.325 N 
ATOM     23  H11 UNL     1       3.390   5.129  -1.161  1.00  0.00     0.169 HD
BRANCH  20  24
HETATM   24  C20 UNL     1       2.957   7.883  -0.882  1.00  0.00     0.158 C 
HETATM   25  N8  UNL     1       2.503   9.036  -0.558  1.00  0.00    -0.294 N 
ATOM     26  H8  UNL     1       2.984   9.848  -0.945  1.00  0.00     0.187 HD
BRANCH  25  27
HETATM   27  N9  UNL     1       1.423   9.281   0.266  1.00  0.00    -0.250 N 
HETATM   28  N10 UNL     1       1.600   9.656   1.468  1.00  0.00    -0.331 N 
ATOM     29 2H10 UNL     1       2.554   9.772   1.810  1.00  0.00     0.178 HD
ATOM     30 1H10 UNL     1       0.802   9.837   2.077  1.00  0.00     0.178 HD
ATOM     31  H9  UNL     1       0.476   9.160  -0.092  1.00  0.00     0.207 HD
ENDBRANCH  25  27
ENDBRANCH  20  24
ENDBRANCH  11  16
BRANCH   1  32
HETATM   32  C7  UNL     1      -1.938  -1.029  -0.924  1.00  0.00     0.062 C 
BRANCH  32  33
HETATM   33  C6  UNL     1      -3.023  -0.963   0.129  1.00  0.00     0.047 C 
BRANCH  33  34
HETATM   34  C5  UNL     1      -4.047  -1.996  -0.038  1.00  0.00    -0.027 A 
HETATM   35  C2  UNL     1      -3.918  -3.329   0.283  1.00  0.00     0.012 A 
HETATM   36  C1  UNL     1      -2.725  -4.038   0.870  1.00  0.00     0.068 C 
HETATM   37  N1  UNL     1      -5.084  -3.938  -0.025  1.00  0.00    -0.362 N 
HETATM   38  C3  UNL     1      -5.970  -3.075  -0.530  1.00  0.00     0.020 A 
ATOM     39  H1  UNL     1      -5.265  -4.933   0.111  1.00  0.00     0.165 HD
HETATM   40  C4  UNL     1      -5.324  -1.854  -0.540  1.00  0.00    -0.024 A 
HETATM   41  C25 UNL     1      -7.360  -3.224  -1.020  1.00  0.00     0.084 C 
HETATM   42  C22 UNL     1      -6.108  -0.677  -1.066  1.00  0.00     0.068 C 
HETATM   43  C23 UNL     1      -7.544  -0.832  -0.693  1.00  0.00    -0.026 C 
HETATM   44  C24 UNL     1      -8.127  -2.018  -0.671  1.00  0.00    -0.024 C 
ENDBRANCH  33  34
ENDBRANCH  32  33
ENDBRANCH   1  32
BRANCH   8  45
HETATM   45  C12 UNL     1       3.369  -2.840   1.451  1.00  0.00     0.122 C 
BRANCH  45  46
HETATM   46  C13 UNL     1       4.769  -3.193   1.072  1.00  0.00     0.028 C 
BRANCH  46  47
HETATM   47  C14 UNL     1       5.805  -2.357   1.806  1.00  0.00     0.101 C 
BRANCH  47  48
HETATM   48  C15 UNL     1       7.157  -2.772   1.372  1.00  0.00     0.231 C 
HETATM   49  N5  UNL     1       8.307  -2.158   1.934  1.00  0.00    -0.062 NA
HETATM   50  O1  UNL     1       7.276  -3.665   0.509  1.00  0.00    -0.277 OA
ENDBRANCH  47  48
ENDBRANCH  46  47
ENDBRANCH  45  46
ENDBRANCH   8  45
TORSDOF 10
