REMARK  11 active torsions:
REMARK  status: ('A' for Active; 'I' for Inactive)
REMARK    1  A    between atoms: C2_2  and  C3_3 
REMARK    2  A    between atoms: C3_3  and  N1_4 
REMARK    3  A    between atoms: C6_10  and  C7_11 
REMARK    4  A    between atoms: C7_11  and  S1_12 
REMARK    5  A    between atoms: S1_12  and  C8_13 
REMARK    6  A    between atoms: C8_13  and  C9_14 
REMARK       I    between atoms: C9_14  and  N3_16 
REMARK    7  A    between atoms: N3_16  and  C10_18 
REMARK    8  A    between atoms: C16_24  and  C17_25 
REMARK       I    between atoms: C17_25  and  N4_27 
REMARK       I    between atoms: C18_29  and  N6_31 
REMARK    9  A    between atoms: N6_31  and  C20_33 
REMARK   10  A    between atoms: N8_38  and  C23_39 
REMARK   11  A    between atoms: C23_39  and  C24_40 
ROOT
HETATM    1  C8  UNL     1       0.180   0.331  -0.642  1.00  0.00     0.177 C 
ENDROOT
BRANCH   1   2
HETATM    2  S1  UNL     1      -0.410   1.128  -2.143  1.00  0.00    -0.152 SA
BRANCH   2   3
HETATM    3  C7  UNL     1      -1.623   0.032  -2.965  1.00  0.00     0.150 C 
BRANCH   3   4
HETATM    4  C6  UNL     1      -2.834  -0.126  -2.117  1.00  0.00     0.092 A 
HETATM    5  N2  UNL     1      -3.012  -1.102  -1.206  1.00  0.00    -0.338 N 
HETATM    6  C5  UNL     1      -4.219  -0.908  -0.635  1.00  0.00     0.147 A 
ATOM      7  H2  UNL     1      -2.355  -1.851  -0.988  1.00  0.00     0.167 HD
HETATM    8  C4  UNL     1      -4.881  -1.598   0.336  1.00  0.00     0.282 A 
HETATM    9  C22 UNL     1      -4.782   0.213  -1.218  1.00  0.00     0.145 A 
HETATM   10  N1  UNL     1      -6.104  -1.170   0.727  1.00  0.00    -0.264 N 
HETATM   11  O1  UNL     1      -4.369  -2.614   0.863  1.00  0.00    -0.265 OA
HETATM   12  C26 UNL     1      -6.609  -0.080   0.135  1.00  0.00     0.333 A 
HETATM   13  N8  UNL     1      -6.003   0.630  -0.819  1.00  0.00    -0.283 N 
HETATM   14  O4  UNL     1      -7.762   0.314   0.514  1.00  0.00    -0.246 OA
HETATM   15  N7  UNL     1      -3.896   0.678  -2.138  1.00  0.00    -0.329 N 
ATOM     16  H7  UNL     1      -4.022   1.495  -2.736  1.00  0.00     0.168 HD
BRANCH  10  17
HETATM   17  C3  UNL     1      -6.824  -1.898   1.763  1.00  0.00     0.137 C 
BRANCH  17  18
HETATM   18  C2  UNL     1      -7.660  -2.954   1.030  1.00  0.00     0.016 C 
HETATM   19  C1  UNL     1      -8.458  -3.781   1.997  1.00  0.00     0.006 C 
ENDBRANCH  17  18
ENDBRANCH  10  17
BRANCH  13  20
HETATM   20  C23 UNL     1      -6.548   1.812  -1.451  1.00  0.00     0.135 C 
BRANCH  20  21
HETATM   21  C24 UNL     1      -7.326   1.521  -2.694  1.00  0.00     0.016 C 
HETATM   22  C25 UNL     1      -8.509   0.632  -2.511  1.00  0.00     0.006 C 
ENDBRANCH  20  21
ENDBRANCH  13  20
ENDBRANCH   3   4
ENDBRANCH   2   3
ENDBRANCH   1   2
BRANCH   1  23
HETATM   23  C9  UNL     1       1.162   1.217   0.083  1.00  0.00     0.231 C 
HETATM   24  O2  UNL     1       0.669   2.048   0.843  1.00  0.00    -0.272 OA
HETATM   25  N3  UNL     1       2.531   1.043  -0.148  1.00  0.00    -0.326 N 
ATOM     26  H3  UNL     1       2.800   0.307  -0.801  1.00  0.00     0.169 HD
BRANCH  25  27
HETATM   27  C10 UNL     1       3.572   1.791   0.438  1.00  0.00     0.051 A 
HETATM   28  C11 UNL     1       3.332   3.039   1.030  1.00  0.00     0.037 A 
HETATM   29  C12 UNL     1       4.339   3.824   1.546  1.00  0.00    -0.060 A 
HETATM   30  C13 UNL     1       4.003   5.144   2.163  1.00  0.00     0.048 C 
HETATM   31  C14 UNL     1       5.616   3.347   1.466  1.00  0.00     0.008 A 
HETATM   32  C15 UNL     1       5.878   2.129   0.891  1.00  0.00     0.020 A 
HETATM   33  C16 UNL     1       4.877   1.305   0.358  1.00  0.00     0.059 A 
BRANCH  33  34
HETATM   34  C17 UNL     1       5.233   0.013  -0.185  1.00  0.00     0.260 C 
HETATM   35  O3  UNL     1       4.533  -0.881  -0.644  1.00  0.00    -0.267 OA
HETATM   36  N4  UNL     1       6.660  -0.311  -0.204  1.00  0.00    -0.297 N 
HETATM   37  C18 UNL     1       7.154  -0.949   0.800  1.00  0.00     0.192 C 
ATOM     38  H4  UNL     1       7.248  -0.039  -0.992  1.00  0.00     0.171 HD
HETATM   39  N5  UNL     1       6.310  -1.318   1.889  1.00  0.00    -0.063 NA
HETATM   40  N6  UNL     1       8.511  -1.315   0.901  1.00  0.00    -0.360 N 
HETATM   41  C19 UNL     1       9.284  -1.031   2.097  1.00  0.00     0.152 C 
BRANCH  40  42
HETATM   42  C20 UNL     1       9.189  -1.988  -0.183  1.00  0.00     0.120 C 
HETATM   43  C21 UNL     1       8.329  -2.250  -1.374  1.00  0.00     0.026 C 
ENDBRANCH  40  42
ENDBRANCH  33  34
ENDBRANCH  25  27
ENDBRANCH   1  23
TORSDOF 11
