REMARK  7 active torsions:
REMARK  status: ('A' for Active; 'I' for Inactive)
REMARK    1  A    between atoms: C1_2  and  C2_3 
REMARK    2  A    between atoms: C1_2  and  O3_6 
REMARK    3  A    between atoms: C2_3  and  O2_4 
REMARK    4  A    between atoms: O3_6  and  C3_7 
REMARK    5  A    between atoms: C3_7  and  C4_9 
REMARK    6  A    between atoms: C4_9  and  O5_10 
REMARK    7  A    between atoms: O5_10  and  C5_11 
ROOT
HETATM    1  O5  UNL     1      -1.167  -0.067  -1.346  1.00  0.00    -0.314 OA
ENDROOT
BRANCH   1   2
HETATM    2  C4  UNL     1       0.119  -0.446  -1.368  1.00  0.00     0.225 C 
BRANCH   2   3
HETATM    3  C3  UNL     1       1.134   0.079  -0.465  1.00  0.00     0.313 C 
HETATM    4  O4  UNL     1       1.024   0.849   0.494  1.00  0.00    -0.258 OA
BRANCH   3   5
HETATM    5  O3  UNL     1       2.475  -0.350  -0.707  1.00  0.00    -0.238 OA
BRANCH   5   6
HETATM    6  C1  UNL     1       3.512   0.087   0.088  1.00  0.00     0.290 C 
HETATM    7  O1  UNL     1       3.276   0.869   1.034  1.00  0.00    -0.262 OA
BRANCH   6   8
HETATM    8  C2  UNL     1       4.920  -0.348  -0.148  1.00  0.00     0.275 C 
BRANCH   8   9
HETATM    9  O2  UNL     1       5.765   0.230   0.783  1.00  0.00    -0.391 OA
ATOM     10  H2  UNL     1       6.661  -0.047   0.633  1.00  0.00     0.210 HD
ENDBRANCH   8   9
ENDBRANCH   6   8
ENDBRANCH   5   6
ENDBRANCH   3   5
ENDBRANCH   2   3
ENDBRANCH   1   2
BRANCH   1  11
HETATM   11  C5  UNL     1      -2.211   0.004  -0.516  1.00  0.00     0.116 A 
HETATM   12  C6  UNL     1      -2.934  -1.171  -0.239  1.00  0.00     0.069 A 
HETATM   13 CL1  UNL     1      -2.443  -2.698  -0.988  1.00  0.00    -0.081 Cl
HETATM   14  C7  UNL     1      -4.007  -1.111   0.606  1.00  0.00     0.028 A 
HETATM   15  C8  UNL     1      -4.388   0.081   1.188  1.00  0.00     0.027 A 
HETATM   16  C9  UNL     1      -3.701   1.248   0.935  1.00  0.00     0.054 A 
HETATM   17 CL2  UNL     1      -4.191   2.750   1.677  1.00  0.00    -0.083 Cl
HETATM   18  C10 UNL     1      -2.610   1.172   0.070  1.00  0.00     0.068 A 
HETATM   19 BR1  UNL     1      -1.793   2.871  -0.312  1.00  0.00    -0.046 Br
ENDBRANCH   1  11
TORSDOF 7
