REMARK  6 active torsions:
REMARK  status: ('A' for Active; 'I' for Inactive)
REMARK    1  A    between atoms: N1_1  and  N2_4 
REMARK    2  A    between atoms: N2_4  and  C1_5 
REMARK    3  A    between atoms: C1_5  and  C2_6 
REMARK    4  A    between atoms: C2_6  and  C3_8 
REMARK    5  A    between atoms: C3_8  and  O1_9 
REMARK    6  A    between atoms: C6_15  and  C7_16 
ROOT
HETATM    1  C3  UNL     1       0.814   0.430  -0.595  1.00  0.00     0.163 C 
HETATM    2  C4  UNL     1       0.331   1.788  -0.286  1.00  0.00     0.073 C 
HETATM    3 CL1  UNL     1       1.289   3.243  -0.506  1.00  0.00    -0.084 Cl
HETATM    4  C5  UNL     1      -0.903   1.739   0.170  1.00  0.00     0.080 C 
HETATM    5 CL2  UNL     1      -1.853   3.170   0.661  1.00  0.00    -0.083 Cl
HETATM    6  C6  UNL     1      -1.410   0.369   0.226  1.00  0.00     0.219 C 
HETATM    7  O4  UNL     1      -1.407  -0.181   1.508  1.00  0.00    -0.336 OA
HETATM    8  C8  UNL     1      -1.195  -1.528   1.224  1.00  0.00     0.341 C 
HETATM    9  O5  UNL     1      -0.168  -1.592   0.290  1.00  0.00    -0.354 OA
HETATM   10  C9  UNL     1      -0.346  -0.442  -0.450  1.00  0.00     0.218 C 
ENDROOT
BRANCH   1  11
HETATM   11  C2  UNL     1       1.968   0.161   0.333  1.00  0.00     0.266 C 
HETATM   12  F1  UNL     1       1.580   0.329   1.648  1.00  0.00    -0.239 F 
BRANCH  11  13
HETATM   13  C1  UNL     1       2.616  -1.130   0.135  1.00  0.00     0.221 C 
BRANCH  13  14
HETATM   14  N2  UNL     1       3.615  -1.296  -0.603  1.00  0.00    -0.347 NA
BRANCH  14  15
HETATM   15  N1  UNL     1       4.758  -1.421  -1.093  1.00  0.00    -0.281 N 
ATOM     16  H12 UNL     1       5.198  -1.268  -0.186  1.00  0.00     0.191 HD
ATOM     17  H11 UNL     1       5.571  -1.556  -1.694  1.00  0.00     0.191 HD
ENDBRANCH  14  15
ENDBRANCH  13  14
ENDBRANCH  11  13
ENDBRANCH   1  11
BRANCH   1  18
HETATM   18  O1  UNL     1       1.229   0.409  -1.942  1.00  0.00    -0.378 OA
ATOM     19  H1  UNL     1       0.501   0.579  -2.528  1.00  0.00     0.211 HD
ENDBRANCH   1  18
BRANCH   6  20
HETATM   20  C7  UNL     1      -2.736   0.229  -0.432  1.00  0.00     0.218 C 
HETATM   21  O2  UNL     1      -2.840   0.688  -1.597  1.00  0.00    -0.645 OA
HETATM   22  O3  UNL     1      -3.804  -0.366   0.182  1.00  0.00    -0.645 OA
ENDBRANCH   6  20
TORSDOF 6
