REMARK  12 active torsions:
REMARK  status: ('A' for Active; 'I' for Inactive)
REMARK    1  A    between atoms: C3_5  and  C4_6 
REMARK    2  A    between atoms: C4_6  and  O2_7 
REMARK    3  A    between atoms: C4_6  and  C5_9 
REMARK    4  A    between atoms: C6_14  and  S1_15 
REMARK    5  A    between atoms: S1_15  and  C7_16 
REMARK    6  A    between atoms: C8_19  and  N5_20 
REMARK    7  A    between atoms: C10_27  and  O4_28 
REMARK    8  A    between atoms: N7_30  and  N8_31 
REMARK    9  A    between atoms: N10_36  and  C11_37 
REMARK   10  A    between atoms: C11_37  and  O5_38 
REMARK   11  A    between atoms: C11_37  and  C12_40 
REMARK   12  A    between atoms: C12_40  and  N11_41 
ROOT
HETATM    1  C5  UNL     1      -0.376  -0.621   0.436  1.00  0.00     0.155 A 
HETATM    2  N2  UNL     1       0.020  -0.812   1.705  1.00  0.00    -0.283 N 
ATOM      3  H2  UNL     1       0.954  -1.105   1.992  1.00  0.00     0.188 HD
HETATM    4  N3  UNL     1      -0.992  -0.561   2.530  1.00  0.00    -0.277 N 
ATOM      5  H3  UNL     1      -0.961  -0.630   3.547  1.00  0.00     0.189 HD
HETATM    6  C6  UNL     1      -2.052  -0.205   1.809  1.00  0.00     0.188 A 
HETATM    7  N7  UNL     1      -1.678  -0.241   0.523  1.00  0.00    -0.222 N 
ENDROOT
BRANCH   1   8
HETATM    8  C4  UNL     1       0.403  -0.778  -0.826  1.00  0.00     0.245 C 
BRANCH   8   9
HETATM    9  C3  UNL     1       1.837  -0.884  -0.550  1.00  0.00     0.133 A 
HETATM   10  C2  UNL     1       2.665  -1.884  -1.004  1.00  0.00     0.290 A 
HETATM   11  N1  UNL     1       3.895  -1.622  -0.536  1.00  0.00    -0.241 N 
HETATM   12  O1  UNL     1       2.310  -2.871  -1.735  1.00  0.00    -0.264 OA
HETATM   13  C1  UNL     1       5.053  -2.474  -0.815  1.00  0.00     0.183 C 
HETATM   14  N10 UNL     1       3.883  -0.530   0.176  1.00  0.00    -0.197 N 
HETATM   15  N9  UNL     1       2.624  -0.065   0.175  1.00  0.00    -0.277 N 
ATOM     16  H9  UNL     1       2.310   0.781   0.651  1.00  0.00     0.189 HD
BRANCH  14  17
HETATM   17  C11 UNL     1       4.997   0.104   0.861  1.00  0.00     0.285 C 
BRANCH  17  18
HETATM   18  O5  UNL     1       5.740  -0.788   1.623  1.00  0.00    -0.372 OA
ATOM     19  H5  UNL     1       6.468  -0.374   2.071  1.00  0.00     0.212 HD
ENDBRANCH  17  18
BRANCH  17  20
HETATM   20  C12 UNL     1       5.894   0.857  -0.099  1.00  0.00     0.286 C 
BRANCH  20  21
HETATM   21  N11 UNL     1       5.094   1.777  -0.877  1.00  0.00    -0.075 N 
ATOM     22 3H11 UNL     1       4.322   1.311  -1.354  1.00  0.00     0.274 HD
ATOM     23 2H11 UNL     1       4.544   2.403  -0.290  1.00  0.00     0.274 HD
ATOM     24 1H11 UNL     1       5.698   2.284  -1.524  1.00  0.00     0.274 HD
ENDBRANCH  20  21
ENDBRANCH  17  20
ENDBRANCH  14  17
ENDBRANCH   8   9
BRANCH   8  25
HETATM   25  O2  UNL     1       0.156   0.329  -1.673  1.00  0.00    -0.381 OA
ATOM     26  H2  UNL     1      -0.774   0.398  -1.852  1.00  0.00     0.211 HD
ENDBRANCH   8  25
ENDBRANCH   1   8
BRANCH   7  27
HETATM   27  N8  UNL     1      -2.520   0.070  -0.534  1.00  0.00    -0.335 N 
ATOM     28  H82 UNL     1      -2.235   0.043  -1.513  1.00  0.00     0.177 HD
ATOM     29  H81 UNL     1      -3.497   0.355  -0.469  1.00  0.00     0.177 HD
ENDBRANCH   7  27
BRANCH   6  30
HETATM   30  S1  UNL     1      -3.626   0.218   2.546  1.00  0.00    -0.029 SA
BRANCH  30  31
HETATM   31  C7  UNL     1      -4.850   0.650   1.347  1.00  0.00     0.132 A 
HETATM   32  N4  UNL     1      -5.045   1.906   0.912  1.00  0.00    -0.182 N 
HETATM   33  C8  UNL     1      -5.995   2.194  -0.009  1.00  0.00     0.679 A 
ATOM     34  H4  UNL     1      -4.465   2.659   1.283  1.00  0.00     0.185 HD
HETATM   35  N6  UNL     1      -6.784   1.258  -0.532  1.00  0.00    -0.154 N 
HETATM   36  C9  UNL     1      -6.635  -0.011  -0.135  1.00  0.00     0.295 A 
ATOM     37  H6  UNL     1      -7.491   1.504  -1.225  1.00  0.00     0.187 HD
HETATM   38  O3  UNL     1      -7.386  -0.900  -0.632  1.00  0.00    -0.264 OA
HETATM   39  C10 UNL     1      -5.657  -0.333   0.818  1.00  0.00     0.169 A 
BRANCH  33  40
HETATM   40  N5  UNL     1      -6.157   3.418  -0.409  1.00  0.00    -0.234 N 
ATOM     41  H52 UNL     1      -5.552   4.135  -0.008  1.00  0.00     0.174 HD
ATOM     42  H51 UNL     1      -6.873   3.635  -1.103  1.00  0.00     0.174 HD
ENDBRANCH  33  40
BRANCH  39  43
HETATM   43  O4  UNL     1      -5.575  -1.673   1.169  1.00  0.00    -0.354 OA
ATOM     44  H4  UNL     1      -6.132  -2.351   0.804  1.00  0.00     0.218 HD
ENDBRANCH  39  43
ENDBRANCH  30  31
ENDBRANCH   6  30
TORSDOF 12
