REMARK  7 active torsions:
REMARK  status: ('A' for Active; 'I' for Inactive)
REMARK    1  A    between atoms: C3_5  and  C4_6 
REMARK    2  A    between atoms: C4_6  and  O1_7 
REMARK    3  A    between atoms: C5_9  and  C6_10 
REMARK    4  A    between atoms: C6_10  and  C7_11 
REMARK    5  A    between atoms: C7_11  and  O2_12 
REMARK    6  A    between atoms: C8_14  and  C9_15 
REMARK    7  A    between atoms: C9_15  and  C10_16 
ROOT
HETATM    1  C1  UNL     1       0.317  -2.266  -1.157  1.00  0.00     0.044 C 
HETATM    2  C2  UNL     1      -0.482  -1.399  -0.605  1.00  0.00     0.034 A 
HETATM    3  N1  UNL     1      -1.835  -1.618  -0.474  1.00  0.00    -0.357 N 
ATOM      4  H1  UNL     1      -2.324  -2.456  -0.788  1.00  0.00     0.166 HD
HETATM    5  C3  UNL     1      -2.413  -0.574   0.124  1.00  0.00     0.040 A 
HETATM    6  C5  UNL     1      -1.417   0.330   0.383  1.00  0.00    -0.019 A 
HETATM    7  C8  UNL     1      -0.174  -0.161  -0.067  1.00  0.00     0.002 A 
ENDROOT
BRANCH   7   8
HETATM    8  C9  UNL     1       0.961   0.486   0.044  1.00  0.00     0.063 C 
BRANCH   8   9
HETATM    9  C10 UNL     1       2.286   0.099  -0.371  1.00  0.00     0.109 A 
HETATM   10  N2  UNL     1       2.815   0.385  -1.570  1.00  0.00    -0.334 N 
HETATM   11  C11 UNL     1       4.057  -0.078  -1.641  1.00  0.00     0.116 A 
ATOM     12  H2  UNL     1       2.334   0.885  -2.317  1.00  0.00     0.168 HD
HETATM   13 BR1  UNL     1       5.290   0.038  -3.103  1.00  0.00    -0.028 Br
HETATM   14  C12 UNL     1       4.304  -0.674  -0.438  1.00  0.00     0.117 A 
HETATM   15 BR2  UNL     1       5.921  -1.540   0.104  1.00  0.00    -0.028 Br
HETATM   16  N3  UNL     1       3.215  -0.563   0.336  1.00  0.00    -0.329 N 
HETATM   17  C13 UNL     1       3.091  -1.079   1.701  1.00  0.00     0.158 C 
ENDBRANCH   8   9
ENDBRANCH   7   8
BRANCH   6  18
HETATM   18  C6  UNL     1      -1.607   1.629   1.027  1.00  0.00     0.067 C 
BRANCH  18  19
HETATM   19  C7  UNL     1      -2.164   2.701   0.111  1.00  0.00     0.168 C 
BRANCH  19  20
HETATM   20  O2  UNL     1      -2.308   3.899   0.811  1.00  0.00    -0.401 OA
ATOM     21  H2  UNL     1      -2.657   4.571   0.237  1.00  0.00     0.209 HD
ENDBRANCH  19  20
ENDBRANCH  18  19
ENDBRANCH   6  18
BRANCH   5  22
HETATM   22  C4  UNL     1      -3.867  -0.496   0.419  1.00  0.00     0.221 C 
BRANCH  22  23
HETATM   23  O1  UNL     1      -4.536  -1.645  -0.010  1.00  0.00    -0.395 OA
ATOM     24  H1  UNL     1      -5.466  -1.595   0.179  1.00  0.00     0.209 HD
ENDBRANCH  22  23
ENDBRANCH   5  22
TORSDOF 7
