REMARK  7 active torsions:
REMARK  status: ('A' for Active; 'I' for Inactive)
REMARK    1  A    between atoms: C3_5  and  C4_6 
REMARK    2  A    between atoms: C4_6  and  C5_7 
REMARK    3  A    between atoms: C6_9  and  C7_10 
REMARK    4  A    between atoms: C7_10  and  O1_11 
REMARK    5  A    between atoms: C8_13  and  C9_14 
REMARK    6  A    between atoms: C9_14  and  C10_15 
REMARK    7  A    between atoms: C11_18  and  C12_19 
ROOT
HETATM    1  C10 UNL     1      -1.299   0.252  -0.918  1.00  0.00     0.061 A 
HETATM    2  N2  UNL     1      -1.847  -0.781  -1.597  1.00  0.00    -0.355 N 
ATOM      3  H2  UNL     1      -1.397  -1.281  -2.364  1.00  0.00     0.166 HD
HETATM    4  C11 UNL     1      -3.070  -1.051  -1.114  1.00  0.00     0.056 A 
HETATM    5  C13 UNL     1      -3.362  -0.181  -0.081  1.00  0.00     0.086 A 
HETATM    6  C14 UNL     1      -4.417   0.028   0.768  1.00  0.00     0.264 A 
HETATM    7  O2  UNL     1      -5.416  -0.732   0.633  1.00  0.00    -0.267 OA
HETATM    8  N3  UNL     1      -4.392   1.004   1.708  1.00  0.00    -0.275 N 
ATOM      9  H3  UNL     1      -5.190   1.139   2.328  1.00  0.00     0.173 HD
HETATM   10  C15 UNL     1      -3.311   1.791   1.818  1.00  0.00     0.327 A 
HETATM   11  O3  UNL     1      -3.299   2.703   2.703  1.00  0.00    -0.247 OA
HETATM   12  N4  UNL     1      -2.278   1.587   0.989  1.00  0.00    -0.305 N 
ATOM     13  H4  UNL     1      -1.459   2.189   1.079  1.00  0.00     0.171 HD
HETATM   14  C16 UNL     1      -2.264   0.621   0.035  1.00  0.00     0.081 A 
ENDROOT
BRANCH   1  15
HETATM   15  C9  UNL     1      -0.054   0.950  -1.101  1.00  0.00     0.046 C 
BRANCH  15  16
HETATM   16  C8  UNL     1       1.164   0.795  -0.685  1.00  0.00     0.006 A 
HETATM   17  C2  UNL     1       2.195   1.705  -1.072  1.00  0.00     0.034 A 
HETATM   18  C1  UNL     1       2.046   2.759  -1.849  1.00  0.00     0.044 C 
HETATM   19  N1  UNL     1       3.351   1.324  -0.519  1.00  0.00    -0.359 N 
HETATM   20  C3  UNL     1       3.177   0.243   0.198  1.00  0.00     0.023 A 
ATOM     21  H1  UNL     1       4.241   1.807  -0.639  1.00  0.00     0.166 HD
HETATM   22  C6  UNL     1       1.793  -0.121   0.116  1.00  0.00     0.021 A 
BRANCH  20  23
HETATM   23  C4  UNL     1       4.255  -0.504   0.934  1.00  0.00     0.069 C 
BRANCH  23  24
HETATM   24  C5  UNL     1       4.851  -1.623   0.146  1.00  0.00     0.091 C 
HETATM   25 BR1  UNL     1       5.671  -0.964  -1.496  1.00  0.00    -0.096 Br
ENDBRANCH  23  24
ENDBRANCH  20  23
BRANCH  22  26
HETATM   26  C7  UNL     1       1.349  -1.284   0.872  1.00  0.00     0.145 C 
BRANCH  26  27
HETATM   27  O1  UNL     1       0.095  -1.691   0.863  1.00  0.00    -0.372 OA
ATOM     28  H1  UNL     1      -0.195  -2.450   1.356  1.00  0.00     0.216 HD
ENDBRANCH  26  27
ENDBRANCH  22  26
ENDBRANCH  15  16
ENDBRANCH   1  15
BRANCH   4  29
HETATM   29  C12 UNL     1      -4.024  -2.110  -1.567  1.00  0.00     0.280 C 
HETATM   30  F1  UNL     1      -5.057  -1.603  -2.318  1.00  0.00    -0.249 F 
ENDBRANCH   4  29
TORSDOF 7
