REMARK  15 active torsions:
REMARK  status: ('A' for Active; 'I' for Inactive)
REMARK    1  A    between atoms: O1_2  and  C2_3 
REMARK    2  A    between atoms: C2_3  and  C4_5 
REMARK    3  A    between atoms: C2_3  and  C5_7 
REMARK       I    between atoms: C5_7  and  N1_9 
REMARK    4  A    between atoms: N1_9  and  C6_11 
REMARK    5  A    between atoms: C6_11  and  C7_12 
REMARK    6  A    between atoms: C10_15  and  C11_16 
REMARK    7  A    between atoms: C11_16  and  N2_18 
REMARK    8  A    between atoms: N2_18  and  C12_20 
REMARK    9  A    between atoms: C12_20  and  C13_21 
REMARK   10  A    between atoms: C13_21  and  C14_22 
REMARK   11  A    between atoms: C14_22  and  O3_23 
REMARK   12  A    between atoms: O3_23  and  C15_24 
REMARK       I    between atoms: N3_26  and  C17_27 
REMARK       I    between atoms: C17_27  and  N4_29 
REMARK   13  A    between atoms: N4_29  and  C18_31 
REMARK   14  A    between atoms: C18_31  and  C19_32 
REMARK   15  A    between atoms: C19_32  and  N5_33 
ROOT
HETATM    1  N2  UNL     1      -1.210   0.164  -2.408  1.00  0.00    -0.384 N 
ATOM      2  H2  UNL     1      -1.149   0.079  -3.423  1.00  0.00     0.160 HD
ENDROOT
BRANCH   1   3
HETATM    3  C11 UNL     1      -2.436   0.446  -1.831  1.00  0.00     0.077 C 
HETATM    4  S2  UNL     1      -3.718   0.684  -2.848  1.00  0.00    -0.065 SA
BRANCH   3   5
HETATM    5  C10 UNL     1      -2.630   0.544  -0.365  1.00  0.00     0.047 C 
HETATM    6  C9  UNL     1      -3.493  -0.625   0.113  1.00  0.00     0.012 C 
HETATM    7  C8  UNL     1      -4.952  -0.314   0.115  1.00  0.00     0.007 C 
HETATM    8  C7  UNL     1      -5.291   0.910   0.931  1.00  0.00     0.003 C 
HETATM    9  C26 UNL     1      -4.075   1.764   1.190  1.00  0.00     0.007 C 
HETATM   10  C25 UNL     1      -3.266   1.880  -0.069  1.00  0.00     0.012 C 
BRANCH   8  11
HETATM   11  C6  UNL     1      -6.297   1.727   0.166  1.00  0.00     0.127 C 
BRANCH  11  12
HETATM   12  N1  UNL     1      -7.510   0.992  -0.084  1.00  0.00    -0.358 N 
HETATM   13  C5  UNL     1      -8.349   0.494   0.939  1.00  0.00     0.253 C 
HETATM   14  O2  UNL     1      -8.106   0.653   2.137  1.00  0.00    -0.270 OA
ATOM     15  H1  UNL     1      -7.779   0.821  -1.053  1.00  0.00     0.162 HD
BRANCH  13  16
HETATM   16  C2  UNL     1      -9.583  -0.256   0.537  1.00  0.00     0.146 C 
HETATM   17  C3  UNL     1     -10.423   0.836  -0.198  1.00  0.00     0.057 C 
BRANCH  16  18
HETATM   18  O1  UNL     1     -10.332  -0.677   1.546  1.00  0.00    -0.375 OA
HETATM   19  C1  UNL     1     -10.030  -1.606   2.445  1.00  0.00     0.203 C 
ENDBRANCH  16  18
BRANCH  16  20
HETATM   20  C4  UNL     1      -9.277  -1.272  -0.506  1.00  0.00     0.133 C 
HETATM   21  S1  UNL     1      -8.353  -2.704   0.054  1.00  0.00    -0.094 SA
ENDBRANCH  16  20
ENDBRANCH  13  16
ENDBRANCH  11  12
ENDBRANCH   8  11
ENDBRANCH   3   5
ENDBRANCH   1   3
BRANCH   1  22
HETATM   22  C12 UNL     1       0.001  -0.016  -1.609  1.00  0.00     0.122 C 
BRANCH  22  23
HETATM   23  C13 UNL     1       0.534   1.256  -1.083  1.00  0.00     0.046 C 
BRANCH  23  24
HETATM   24  C14 UNL     1       1.709   1.100  -0.182  1.00  0.00     0.170 C 
BRANCH  24  25
HETATM   25  O3  UNL     1       2.789   0.530  -0.669  1.00  0.00    -0.383 OA
BRANCH  25  26
HETATM   26  C15 UNL     1       2.944  -0.751  -1.012  1.00  0.00     0.157 C 
HETATM   27  C16 UNL     1       4.275  -1.263  -0.385  1.00  0.00     0.161 C 
HETATM   28  N3  UNL     1       4.913  -0.595  -1.490  1.00  0.00    -0.329 N 
HETATM   29  C17 UNL     1       6.102   0.124  -1.710  1.00  0.00     0.318 C 
HETATM   30  C24 UNL     1       3.778  -0.993  -2.287  1.00  0.00     0.161 C 
HETATM   31  O4  UNL     1       6.401   0.609  -2.828  1.00  0.00    -0.247 OA
HETATM   32  N4  UNL     1       7.011   0.319  -0.633  1.00  0.00    -0.341 N 
ATOM     33  H4  UNL     1       6.804  -0.061   0.291  1.00  0.00     0.164 HD
BRANCH  32  34
HETATM   34  C18 UNL     1       8.232   1.061  -0.859  1.00  0.00     0.143 C 
BRANCH  34  35
HETATM   35  C19 UNL     1       9.003   1.117   0.436  1.00  0.00     0.136 C 
BRANCH  35  36
HETATM   36  N5  UNL     1       9.316  -0.202   0.868  1.00  0.00    -0.407 N 
HETATM   37  C20 UNL     1      10.260  -0.925   0.084  1.00  0.00     0.143 C 
HETATM   38  C21 UNL     1      11.643  -0.960   0.703  1.00  0.00     0.187 C 
HETATM   39  O5  UNL     1      11.637  -1.217   2.052  1.00  0.00    -0.388 OA
HETATM   40  C22 UNL     1      10.364  -1.579   2.506  1.00  0.00     0.187 C 
HETATM   41  C23 UNL     1       9.470  -0.375   2.284  1.00  0.00     0.143 C 
ENDBRANCH  35  36
ENDBRANCH  34  35
ENDBRANCH  32  34
ENDBRANCH  25  26
ENDBRANCH  24  25
ENDBRANCH  23  24
ENDBRANCH  22  23
ENDBRANCH   1  22
TORSDOF 15
