REMARK  8 active torsions:
REMARK  status: ('A' for Active; 'I' for Inactive)
REMARK    1  A    between atoms: C2_2  and  C3_3 
REMARK    2  A    between atoms: C3_3  and  O1_4 
REMARK    3  A    between atoms: O1_4  and  C4_5 
REMARK    4  A    between atoms: C6_9  and  N2_10 
REMARK    5  A    between atoms: N2_10  and  C7_12 
REMARK    6  A    between atoms: C13_22  and  N4_23 
REMARK    7  A    between atoms: N4_23  and  C14_25 
REMARK    8  A    between atoms: C15_26  and  C16_27 
ROOT
HETATM    1  C4  UNL     1       1.058   1.215  -0.730  1.00  0.00     0.129 A 
HETATM    2  C5  UNL     1       2.303   0.878  -1.192  1.00  0.00     0.146 A 
HETATM    3  N1  UNL     1       2.850  -0.342  -0.988  1.00  0.00    -0.199 N 
ATOM      4  H1  UNL     1       3.781  -0.547  -1.352  1.00  0.00     0.183 HD
HETATM    5  C6  UNL     1       2.177  -1.283  -0.311  1.00  0.00     0.684 A 
HETATM    6  N3  UNL     1       0.957  -0.962   0.145  1.00  0.00    -0.174 N 
ATOM      7  H3  UNL     1       0.444  -1.678   0.660  1.00  0.00     0.186 HD
HETATM    8  C13 UNL     1       0.364   0.218  -0.022  1.00  0.00     0.156 A 
ENDROOT
BRANCH   8   9
HETATM    9  N4  UNL     1      -0.813   0.461   0.441  1.00  0.00    -0.346 N 
ATOM     10  H4  UNL     1      -1.177   1.396   0.256  1.00  0.00     0.167 HD
BRANCH   9  11
HETATM   11  C14 UNL     1      -1.670  -0.401   1.175  1.00  0.00     0.001 C 
HETATM   12  C15 UNL     1      -2.491  -1.362   0.459  1.00  0.00     0.039 C 
HETATM   13  C20 UNL     1      -3.619  -1.858   1.372  1.00  0.00     0.011 C 
HETATM   14  C21 UNL     1      -2.999  -2.002   2.759  1.00  0.00     0.002 C 
HETATM   15  C22 UNL     1      -2.979  -0.586   3.313  1.00  0.00     0.015 C 
HETATM   16  C23 UNL     1      -2.359   0.349   2.334  1.00  0.00    -0.009 C 
HETATM   17  C24 UNL     1      -3.231   1.466   1.939  1.00  0.00     0.021 C 
HETATM   18  C25 UNL     1      -1.182   1.011   3.090  1.00  0.00     0.021 C 
BRANCH  12  19
HETATM   19  C16 UNL     1      -3.076  -1.151  -0.861  1.00  0.00    -0.043 C 
HETATM   20  C17 UNL     1      -2.154  -0.888  -2.013  1.00  0.00     0.015 C 
HETATM   21  C18 UNL     1      -3.818  -2.447  -1.272  1.00  0.00     0.015 C 
HETATM   22  C19 UNL     1      -4.178  -0.120  -0.965  1.00  0.00     0.015 C 
ENDBRANCH  12  19
ENDBRANCH   9  11
ENDBRANCH   8   9
BRANCH   1  23
HETATM   23  O1  UNL     1       0.456   2.377  -0.888  1.00  0.00    -0.341 OA
BRANCH  23  24
HETATM   24  C3  UNL     1       0.627   3.576  -1.413  1.00  0.00     0.244 C 
BRANCH  24  25
HETATM   25  C2  UNL     1       1.718   4.494  -0.924  1.00  0.00     0.187 C 
HETATM   26  C1  UNL     1       1.887   4.609   0.548  1.00  0.00     0.081 C 
HETATM   27  O2  UNL     1       1.682   5.751  -1.579  1.00  0.00    -0.329 OA
HETATM   28  C26 UNL     1       2.569   5.246  -2.531  1.00  0.00     0.345 C 
HETATM   29  O3  UNL     1       2.929   4.300  -1.573  1.00  0.00    -0.329 OA
ENDBRANCH  24  25
ENDBRANCH  23  24
ENDBRANCH   1  23
BRANCH   5  30
HETATM   30  N2  UNL     1       2.652  -2.448  -0.094  1.00  0.00    -0.190 N 
ATOM     31  H2  UNL     1       2.076  -3.107   0.429  1.00  0.00     0.184 HD
BRANCH  30  32
HETATM   32  C7  UNL     1       3.916  -2.882  -0.528  1.00  0.00     0.071 A 
HETATM   33  C8  UNL     1       4.163  -3.162  -1.856  1.00  0.00     0.033 A 
HETATM   34  C9  UNL     1       5.423  -3.586  -2.232  1.00  0.00     0.026 A 
HETATM   35  C10 UNL     1       6.442  -3.734  -1.295  1.00  0.00     0.035 A 
HETATM   36 CL1  UNL     1       8.050  -4.272  -1.756  1.00  0.00    -0.084 Cl
HETATM   37  C11 UNL     1       6.192  -3.453   0.032  1.00  0.00     0.050 A 
HETATM   38  C12 UNL     1       4.923  -3.027   0.407  1.00  0.00     0.062 A 
HETATM   39 CL2  UNL     1       4.591  -2.669   2.078  1.00  0.00    -0.082 Cl
ENDBRANCH  30  32
ENDBRANCH   5  30
TORSDOF 8
