REMARK  6 active torsions:
REMARK  status: ('A' for Active; 'I' for Inactive)
REMARK    1  A    between atoms: C2_2  and  N1_3 
REMARK    2  A    between atoms: C6_7  and  C7_8 
REMARK    3  A    between atoms: C8_11  and  C9_12 
REMARK    4  A    between atoms: C12_15  and  C13_16 
REMARK    5  A    between atoms: C13_16  and  N3_17 
REMARK    6  A    between atoms: C24_30  and  N4_31 
ROOT
HETATM    1  C7  UNL     1       2.161   0.110  -0.825  1.00  0.00     0.118 A 
HETATM    2  N2  UNL     1       1.105   0.137   0.063  1.00  0.00    -0.339 N 
ATOM      3  H2  UNL     1       1.204   0.245   1.072  1.00  0.00     0.167 HD
HETATM    4  C8  UNL     1      -0.047   0.005  -0.562  1.00  0.00     0.075 A 
HETATM    5  C23 UNL     1       0.291  -0.120  -1.929  1.00  0.00     0.112 A 
HETATM    6  C24 UNL     1      -0.451  -0.296  -3.062  1.00  0.00     0.129 A 
HETATM    7  N5  UNL     1       0.131  -0.401  -4.294  1.00  0.00    -0.349 N 
ATOM      8  H5  UNL     1      -0.438  -0.532  -5.130  1.00  0.00     0.167 HD
HETATM    9  C25 UNL     1       1.460  -0.328  -4.377  1.00  0.00     0.107 A 
HETATM   10  C26 UNL     1       2.244  -0.151  -3.243  1.00  0.00     0.116 A 
HETATM   11  N6  UNL     1       1.651  -0.052  -2.052  1.00  0.00    -0.301 N 
ENDROOT
BRANCH   4  12
HETATM   12  C9  UNL     1      -1.446  -0.001  -0.128  1.00  0.00    -0.007 A 
HETATM   13  C10 UNL     1      -2.045  -1.010   0.567  1.00  0.00     0.014 A 
HETATM   14  C11 UNL     1      -3.375  -0.964   0.963  1.00  0.00     0.011 A 
HETATM   15  C12 UNL     1      -4.139   0.130   0.655  1.00  0.00    -0.020 A 
HETATM   16  C21 UNL     1      -3.525   1.159  -0.051  1.00  0.00     0.011 A 
HETATM   17  C22 UNL     1      -2.238   1.115  -0.435  1.00  0.00     0.014 A 
BRANCH  15  18
HETATM   18  C13 UNL     1      -5.595   0.228   0.996  1.00  0.00     0.186 C 
HETATM   19  C16 UNL     1      -6.106   1.657   0.796  1.00  0.00     0.052 C 
HETATM   20  C17 UNL     1      -7.644   1.556   0.907  1.00  0.00     0.082 C 
HETATM   21  C18 UNL     1      -8.053   1.018   2.233  1.00  0.00     0.243 C 
HETATM   22  F1  UNL     1      -8.727   2.068   2.884  1.00  0.00    -0.206 F 
HETATM   23  F2  UNL     1      -9.049   0.032   2.128  1.00  0.00    -0.206 F 
HETATM   24  C19 UNL     1      -6.921   0.626   3.109  1.00  0.00     0.082 C 
HETATM   25  C20 UNL     1      -5.794  -0.108   2.424  1.00  0.00     0.052 C 
BRANCH  18  26
HETATM   26  N3  UNL     1      -6.304  -0.561   0.042  1.00  0.00     0.094 N 
HETATM   27  C14 UNL     1      -6.515  -1.930   0.332  1.00  0.00     0.310 C 
HETATM   28  C15 UNL     1      -5.731  -0.453  -1.272  1.00  0.00     0.310 C 
ENDBRANCH  18  26
ENDBRANCH  15  18
ENDBRANCH   4  12
BRANCH   1  29
HETATM   29  C6  UNL     1       3.508   0.312  -0.323  1.00  0.00    -0.017 C 
HETATM   30  C5  UNL     1       4.618   0.372  -1.012  1.00  0.00    -0.009 C 
HETATM   31  C4  UNL     1       5.854   0.594  -0.245  1.00  0.00     0.043 C 
HETATM   32  C3  UNL     1       7.137   0.385  -0.979  1.00  0.00     0.281 C 
HETATM   33  C29 UNL     1       5.962  -0.553   0.745  1.00  0.00     0.023 C 
HETATM   34  N1  UNL     1       8.056   0.451   0.178  1.00  0.00     0.089 N 
HETATM   35  C30 UNL     1       7.364  -0.300   1.237  1.00  0.00     0.277 C 
HETATM   36  C28 UNL     1       4.863  -0.338   1.711  1.00  0.00     0.011 C 
HETATM   37  C27 UNL     1       3.723   0.480   1.169  1.00  0.00     0.042 C 
BRANCH  34  38
HETATM   38  C2  UNL     1       9.353  -0.052  -0.137  1.00  0.00     0.268 C 
HETATM   39  C1  UNL     1      10.307   0.078   1.003  1.00  0.00     0.037 C 
ENDBRANCH  34  38
ENDBRANCH   1  29
BRANCH   6  40
HETATM   40  N4  UNL     1      -1.729  -0.399  -3.001  1.00  0.00    -0.384 N 
ATOM     41  H42 UNL     1      -2.163  -0.321  -2.081  1.00  0.00     0.157 HD
ATOM     42  H41 UNL     1      -2.283  -0.530  -3.847  1.00  0.00     0.157 HD
ENDBRANCH   6  40
TORSDOF 6
