REMARK  6 active torsions:
REMARK  status: ('A' for Active; 'I' for Inactive)
REMARK    1  A    between atoms: C2_2  and  C3_3 
REMARK    2  A    between atoms: C5_9  and  C6_10 
REMARK       I    between atoms: C6_10  and  N2_12 
REMARK    3  A    between atoms: N2_12  and  C7_14 
REMARK    4  A    between atoms: C8_16  and  C9_17 
REMARK    5  A    between atoms: C15_23  and  C17_25 
REMARK       I    between atoms: C17_25  and  N3_27 
REMARK    6  A    between atoms: C22_32  and  C23_33 
ROOT
HETATM    1  C7  UNL     1      -2.494   0.474  -0.015  1.00  0.00     0.084 A 
HETATM    2  S1  UNL     1      -2.945   2.091   0.236  1.00  0.00    -0.075 SA
HETATM    3  C8  UNL     1      -1.445   2.833  -0.063  1.00  0.00    -0.005 A 
HETATM    4  C12 UNL     1      -0.627   1.776  -0.354  1.00  0.00    -0.035 A 
HETATM    5  C13 UNL     1      -1.158   0.539  -0.334  1.00  0.00    -0.016 A 
HETATM    6  C14 UNL     1      -0.346  -0.704  -0.638  1.00  0.00     0.061 C 
HETATM    7  C15 UNL     1       1.073  -0.455  -1.010  1.00  0.00     0.042 C 
HETATM    8  C16 UNL     1       1.495  -1.531  -1.991  1.00  0.00     0.026 C 
HETATM    9  C24 UNL     1       1.082   0.859  -1.773  1.00  0.00     0.024 C 
HETATM   10  C25 UNL     1       0.847   1.910  -0.704  1.00  0.00     0.041 C 
ENDROOT
BRANCH   1  11
HETATM   11  N2  UNL     1      -3.374  -0.672   0.096  1.00  0.00    -0.316 N 
HETATM   12  C6  UNL     1      -4.723  -0.504   0.435  1.00  0.00     0.263 C 
HETATM   13  O2  UNL     1      -5.075   0.726   0.631  1.00  0.00    -0.267 OA
ATOM     14  H2  UNL     1      -3.008  -1.609  -0.074  1.00  0.00     0.169 HD
BRANCH  12  15
HETATM   15  C5  UNL     1      -5.769  -1.471   0.599  1.00  0.00     0.121 A 
HETATM   16  C3  UNL     1      -5.751  -2.822   0.346  1.00  0.00     0.053 A 
HETATM   17  N1  UNL     1      -7.013  -3.249   0.701  1.00  0.00    -0.261 N 
HETATM   18  O1  UNL     1      -7.714  -2.264   1.122  1.00  0.00    -0.206 OA
ATOM     19  H1  UNL     1      -7.341  -4.213   0.637  1.00  0.00     0.194 HD
HETATM   20  C4  UNL     1      -7.052  -1.147   1.098  1.00  0.00     0.267 A 
HETATM   21  F1  UNL     1      -7.520   0.072   1.481  1.00  0.00    -0.175 F 
BRANCH  16  22
HETATM   22  C2  UNL     1      -4.706  -3.723  -0.192  1.00  0.00     0.056 C 
HETATM   23  C1  UNL     1      -4.589  -3.541  -1.704  1.00  0.00     0.011 C 
ENDBRANCH  16  22
ENDBRANCH  12  15
ENDBRANCH   1  11
BRANCH   3  24
HETATM   24  C9  UNL     1      -1.088   4.304  -0.020  1.00  0.00     0.018 C 
HETATM   25  C10 UNL     1      -2.378   5.020   0.323  1.00  0.00     0.015 C 
HETATM   26  C11 UNL     1      -0.104   4.594   1.083  1.00  0.00     0.015 C 
ENDBRANCH   3  24
BRANCH   7  27
HETATM   27  C17 UNL     1       1.969  -0.407   0.175  1.00  0.00     0.229 C 
HETATM   28  O3  UNL     1       1.339  -0.463   1.295  1.00  0.00    -0.272 OA
HETATM   29  N3  UNL     1       3.369  -0.310   0.177  1.00  0.00    -0.337 N 
HETATM   30  C18 UNL     1       4.248  -0.236  -0.955  1.00  0.00     0.127 C 
HETATM   31  C22 UNL     1       4.056  -0.269   1.475  1.00  0.00     0.188 C 
HETATM   32  C19 UNL     1       5.326  -1.305  -0.781  1.00  0.00     0.020 C 
HETATM   33  C20 UNL     1       6.199  -0.914   0.358  1.00  0.00     0.004 C 
HETATM   34  C21 UNL     1       5.523   0.104   1.254  1.00  0.00     0.036 C 
BRANCH  31  35
HETATM   35  C23 UNL     1       3.934  -1.483   2.260  1.00  0.00     0.196 C 
HETATM   36  O4  UNL     1       3.287  -2.472   1.856  1.00  0.00    -0.646 OA
HETATM   37  O5  UNL     1       4.547  -1.564   3.497  1.00  0.00    -0.646 OA
ENDBRANCH  31  35
ENDBRANCH   7  27
TORSDOF 6
