REMARK  2 active torsions:
REMARK  status: ('A' for Active; 'I' for Inactive)
REMARK    1  A    between atoms: C2_2  and  C3_3 
REMARK    2  A    between atoms: C5_7  and  C6_8 
ROOT
HETATM    1  C3  UNL     1       1.304  -0.569   0.007  1.00  0.00     0.160 C 
HETATM    2  C4  UNL     1       0.770   0.790   0.343  1.00  0.00     0.150 C 
HETATM    3  N1  UNL     1      -0.639   0.826   0.514  1.00  0.00    -0.412 N 
ATOM      4  H1  UNL     1      -1.087   1.491   1.145  1.00  0.00     0.153 HD
HETATM    5  C5  UNL     1      -1.394  -0.115  -0.241  1.00  0.00     0.110 C 
HETATM    6  C7  UNL     1      -0.753  -1.478  -0.314  1.00  0.00     0.194 C 
HETATM    7  O1  UNL     1       0.499  -1.302  -0.860  1.00  0.00    -0.378 OA
ENDROOT
BRANCH   1   8
HETATM    8  C2  UNL     1       2.665  -0.437  -0.538  1.00  0.00    -0.004 C 
HETATM    9  C1  UNL     1       3.367   0.650  -0.254  1.00  0.00     0.009 C 
ENDBRANCH   1   8
BRANCH   5  10
HETATM   10  C6  UNL     1      -2.790  -0.185   0.367  1.00  0.00     0.113 C 
HETATM   11  S1  UNL     1      -3.495   1.478   0.254  1.00  0.00    -0.096 SA
ENDBRANCH   5  10
TORSDOF 2
