REMARK  4 active torsions:
REMARK  status: ('A' for Active; 'I' for Inactive)
REMARK    1  A    between atoms: C2_2  and  C3_3 
REMARK    2  A    between atoms: C3_3  and  N1_5 
REMARK    3  A    between atoms: C7_8  and  O1_9 
REMARK    4  A    between atoms: N2_11  and  N3_12 
ROOT
HETATM    1  N1  UNL     1      -0.846   0.148   0.482  1.00  0.00    -0.177 N 
HETATM    2  C5  UNL     1      -0.171   1.304   0.474  1.00  0.00     0.079 A 
HETATM    3  C6  UNL     1      -0.804   2.606   0.245  1.00  0.00     0.074 C 
HETATM    4  C7  UNL     1       1.187   1.068   0.713  1.00  0.00     0.203 A 
HETATM    5  N2  UNL     1       1.290  -0.265   0.861  1.00  0.00    -0.062 N 
HETATM    6  C11 UNL     1       0.067  -0.811   0.722  1.00  0.00     0.702 A 
HETATM    7  N4  UNL     1      -0.132  -2.094   0.818  1.00  0.00    -0.233 N 
ATOM      8  H41 UNL     1       0.560  -2.821   1.000  1.00  0.00     0.174 HD
ATOM      9  H42 UNL     1      -1.058  -2.508   0.713  1.00  0.00     0.174 HD
ENDROOT
BRANCH   5  10
HETATM   10  N3  UNL     1       2.487  -0.925   1.116  1.00  0.00    -0.286 N 
HETATM   11  C8  UNL     1       3.458  -1.012   0.298  1.00  0.00    -0.003 C 
HETATM   12  C9  UNL     1       4.682  -1.735   0.671  1.00  0.00     0.064 C 
HETATM   13  C10 UNL     1       3.349  -0.382  -1.026  1.00  0.00     0.064 C 
ATOM     14  H3  UNL     1       2.595  -1.373   2.026  1.00  0.00     0.187 HD
ENDBRANCH   5  10
BRANCH   4  15
HETATM   15  O1  UNL     1       2.176   2.043   0.772  1.00  0.00    -0.343 OA
ATOM     16  H1  UNL     1       3.098   1.883   0.934  1.00  0.00     0.219 HD
ENDBRANCH   4  15
BRANCH   1  17
HETATM   17  C3  UNL     1      -2.231  -0.148   0.293  1.00  0.00     0.103 C 
HETATM   18  C4  UNL     1      -3.188   0.879   0.763  1.00  0.00     0.033 C 
BRANCH  17  19
HETATM   19  C2  UNL     1      -2.504  -0.407  -1.177  1.00  0.00     0.021 C 
HETATM   20  C1  UNL     1      -3.920  -0.904  -1.394  1.00  0.00     0.007 C 
ENDBRANCH  17  19
ENDBRANCH   1  17
TORSDOF 4
