REMARK  7 active torsions:
REMARK  status: ('A' for Active; 'I' for Inactive)
REMARK    1  A    between atoms: C2_2  and  O1_4 
REMARK    2  A    between atoms: C2_2  and  C4_6 
REMARK    3  A    between atoms: C4_6  and  O2_9 
REMARK    4  A    between atoms: O2_9  and  C6_10 
REMARK    5  A    between atoms: C6_10  and  C7_12 
REMARK    6  A    between atoms: C10_15  and  N2_16 
REMARK    7  A    between atoms: N2_16  and  S1_18 
ROOT
HETATM    1  C4  UNL     1      -3.144  -0.470   1.066  1.00  0.00     0.271 C 
HETATM    2  C5  UNL     1      -3.572   0.000   2.381  1.00  0.00     0.095 C 
HETATM    3  N1  UNL     1      -3.919   0.389   3.412  1.00  0.00    -0.194 NA
ENDROOT
BRANCH   1   4
HETATM    4  C2  UNL     1      -4.242  -0.176   0.047  1.00  0.00     0.090 C 
HETATM    5  C1  UNL     1      -5.477  -0.917   0.514  1.00  0.00     0.049 C 
HETATM    6  C3  UNL     1      -4.513   1.303  -0.056  1.00  0.00     0.049 C 
BRANCH   4   7
HETATM    7  O1  UNL     1      -3.849  -0.631  -1.203  1.00  0.00    -0.387 OA
ATOM      8  H1  UNL     1      -3.074  -0.166  -1.496  1.00  0.00     0.210 HD
ENDBRANCH   4   7
ENDBRANCH   1   4
BRANCH   1   9
HETATM    9  O2  UNL     1      -1.909   0.032   0.673  1.00  0.00    -0.294 OA
BRANCH   9  10
HETATM   10  C6  UNL     1      -0.842  -0.816   0.426  1.00  0.00     0.294 C 
HETATM   11  O3  UNL     1      -1.052  -2.048   0.577  1.00  0.00    -0.259 OA
BRANCH  10  12
HETATM   12  C7  UNL     1       0.474  -0.290   0.007  1.00  0.00     0.041 A 
HETATM   13  C8  UNL     1       1.512  -1.128  -0.232  1.00  0.00     0.020 A 
HETATM   14  C9  UNL     1       2.743  -0.590  -0.627  1.00  0.00     0.033 A 
HETATM   15  C10 UNL     1       2.901   0.757  -0.771  1.00  0.00     0.064 A 
HETATM   16  C12 UNL     1       1.813   1.601  -0.518  1.00  0.00     0.062 A 
HETATM   17 CL1  UNL     1       2.062   3.309  -0.715  1.00  0.00    -0.082 Cl
HETATM   18  C13 UNL     1       0.611   1.057  -0.131  1.00  0.00     0.044 A 
BRANCH  15  19
HETATM   19  N2  UNL     1       4.154   1.312  -1.176  1.00  0.00    -0.283 N 
ATOM     20  H2  UNL     1       4.244   2.314  -1.345  1.00  0.00     0.178 HD
BRANCH  19  21
HETATM   21  S1  UNL     1       5.507   0.272  -1.375  1.00  0.00     0.227 S 
HETATM   22  C11 UNL     1       5.952  -0.543   0.127  1.00  0.00     0.186 C 
HETATM   23  O4  UNL     1       5.284  -0.717  -2.492  1.00  0.00    -0.206 OA
HETATM   24  O5  UNL     1       6.691   1.128  -1.785  1.00  0.00    -0.206 OA
ENDBRANCH  19  21
ENDBRANCH  15  19
ENDBRANCH  10  12
ENDBRANCH   9  10
ENDBRANCH   1   9
TORSDOF 7
