REMARK  6 active torsions:
REMARK  status: ('A' for Active; 'I' for Inactive)
REMARK    1  A    between atoms: N1_2  and  C3_4 
REMARK    2  A    between atoms: C7_8  and  N2_9 
REMARK    3  A    between atoms: N3_12  and  C10_13 
REMARK    4  A    between atoms: C10_13  and  C11_14 
REMARK    5  A    between atoms: C11_14  and  O1_15 
REMARK    6  A    between atoms: C12_17  and  C13_18 
ROOT
HETATM    1  N2  UNL     1       0.711  -0.509   0.003  1.00  0.00    -0.359 N 
HETATM    2  C8  UNL     1       0.265  -1.614   0.770  1.00  0.00     0.143 C 
HETATM    3  C9  UNL     1      -1.172  -1.596   1.200  1.00  0.00     0.116 C 
HETATM    4  N3  UNL     1      -2.123  -1.019   0.232  1.00  0.00    -0.278 NA
HETATM    5  C12 UNL     1      -1.599   0.219  -0.168  1.00  0.00     0.038 C 
HETATM    6  C19 UNL     1      -0.226   0.248  -0.717  1.00  0.00     0.115 C 
ENDROOT
BRANCH   5   7
HETATM    7  C13 UNL     1      -2.455   1.290  -0.711  1.00  0.00     0.010 A 
HETATM    8  C14 UNL     1      -2.163   2.591  -0.271  1.00  0.00     0.017 A 
HETATM    9  C15 UNL     1      -2.985   3.682  -0.561  1.00  0.00     0.026 A 
HETATM   10  C16 UNL     1      -4.118   3.502  -1.306  1.00  0.00     0.057 A 
HETATM   11 CL1  UNL     1      -5.123   4.865  -1.686  1.00  0.00    -0.082 Cl
HETATM   12  C17 UNL     1      -4.388   2.229  -1.728  1.00  0.00     0.078 A 
HETATM   13 CL2  UNL     1      -5.779   1.984  -2.755  1.00  0.00    -0.081 Cl
HETATM   14  C18 UNL     1      -3.595   1.136  -1.452  1.00  0.00     0.069 A 
HETATM   15 CL3  UNL     1      -3.937  -0.454  -2.157  1.00  0.00    -0.082 Cl
ENDBRANCH   5   7
BRANCH   4  16
HETATM   16  C10 UNL     1      -3.344  -0.825   1.035  1.00  0.00     0.121 C 
BRANCH  16  17
HETATM   17  C11 UNL     1      -4.043  -2.073   1.399  1.00  0.00     0.179 C 
BRANCH  17  18
HETATM   18  O1  UNL     1      -3.370  -2.953   2.252  1.00  0.00    -0.400 OA
ATOM     19  H1  UNL     1      -3.820  -3.756   2.486  1.00  0.00     0.209 HD
ENDBRANCH  17  18
ENDBRANCH  16  17
ENDBRANCH   4  16
BRANCH   1  20
HETATM   20  C7  UNL     1       1.934  -0.782  -0.653  1.00  0.00     0.011 C 
HETATM   21  C3  UNL     1       3.175  -0.910   0.139  1.00  0.00     0.124 C 
HETATM   22  C4  UNL     1       4.133  -1.331  -0.955  1.00  0.00     0.031 C 
HETATM   23  C5  UNL     1       3.628  -0.655  -2.235  1.00  0.00     0.008 C 
HETATM   24  C6  UNL     1       2.310  -0.009  -1.859  1.00  0.00     0.055 C 
BRANCH  21  25
HETATM   25  N1  UNL     1       3.625   0.157   0.893  1.00  0.00    -0.412 N 
HETATM   26  C1  UNL     1       3.880   1.416   0.377  1.00  0.00     0.143 C 
HETATM   27  C2  UNL     1       3.866  -0.025   2.287  1.00  0.00     0.143 C 
ENDBRANCH  21  25
ENDBRANCH   1  20
TORSDOF 6
