REMARK  3 active torsions:
REMARK  status: ('A' for Active; 'I' for Inactive)
REMARK    1  A    between atoms: C3_3  and  O1_4 
REMARK    2  A    between atoms: O1_4  and  C4_5 
REMARK    3  A    between atoms: C4_5  and  C5_6 
ROOT
HETATM    1  C1  UNL     1       4.259   0.585  -0.059  1.00  0.00     0.014 C 
HETATM    2  C2  UNL     1       3.176   0.056  -0.099  1.00  0.00    -0.091 C 
HETATM    3  C3  UNL     1       1.835  -0.596  -0.124  1.00  0.00     0.260 C 
ENDROOT
BRANCH   3   4
HETATM    4  O1  UNL     1       1.275  -0.375   1.093  1.00  0.00    -0.373 OA
BRANCH   4   5
HETATM    5  C4  UNL     1       0.036  -0.823   1.355  1.00  0.00     0.228 C 
BRANCH   5   6
HETATM    6  C5  UNL     1      -1.023  -0.114   0.621  1.00  0.00     0.064 C 
HETATM    7  C6  UNL     1      -0.903   0.877  -0.215  1.00  0.00     0.133 C 
HETATM    8  N1  UNL     1      -2.208   1.263  -0.706  1.00  0.00    -0.293 N 
HETATM    9  N2  UNL     1      -3.152   0.674   0.147  1.00  0.00    -0.023 NA
ATOM     10  H1  UNL     1      -2.404   1.850  -1.517  1.00  0.00     0.183 HD
HETATM   11  N3  UNL     1      -2.438  -0.395   0.696  1.00  0.00    -0.285 N 
ATOM     12  H3  UNL     1      -2.851  -1.241   1.088  1.00  0.00     0.184 HD
ENDBRANCH   5   6
ENDBRANCH   4   5
ENDBRANCH   3   4
TORSDOF 3
