REMARK  10 active torsions:
REMARK  status: ('A' for Active; 'I' for Inactive)
REMARK    1  A    between atoms: N1_2  and  C3_4 
REMARK    2  A    between atoms: N2_5  and  C4_7 
REMARK    3  A    between atoms: C4_7  and  C5_8 
REMARK    4  A    between atoms: C5_8  and  N3_9 
REMARK    5  A    between atoms: N3_9  and  C6_11 
REMARK    6  A    between atoms: C7_14  and  N5_15 
REMARK    7  A    between atoms: C8_17  and  C9_18 
REMARK    8  A    between atoms: C9_18  and  C10_19 
REMARK    9  A    between atoms: C13_22  and  N6_23 
REMARK   10  A    between atoms: C15_31  and  N9_32 
ROOT
HETATM    1  C6  UNL     1       1.494  -1.921  -0.238  1.00  0.00     0.138 A 
HETATM    2  N4  UNL     1       0.897  -0.724  -0.178  1.00  0.00    -0.175 N 
ATOM      3  H4  UNL     1       1.480   0.112  -0.136  1.00  0.00     0.186 HD
HETATM    4  C7  UNL     1      -0.471  -0.574  -0.170  1.00  0.00     0.685 A 
HETATM    5  N8  UNL     1      -1.244  -1.662  -0.224  1.00  0.00    -0.174 N 
ATOM      6  H8  UNL     1      -2.259  -1.566  -0.218  1.00  0.00     0.186 HD
HETATM    7  C15 UNL     1      -0.676  -2.906  -0.287  1.00  0.00     0.148 A 
HETATM    8  C20 UNL     1       0.696  -3.047  -0.294  1.00  0.00     0.100 A 
HETATM    9 BR1  UNL     1       1.528  -4.756  -0.380  1.00  0.00    -0.043 Br
ENDROOT
BRANCH   4  10
HETATM   10  N5  UNL     1      -0.907   0.563  -0.114  1.00  0.00    -0.205 N 
HETATM   11  C8  UNL     1      -1.919   1.460  -0.069  1.00  0.00     0.083 C 
ATOM     12  H5  UNL     1      -0.068   1.143  -0.087  1.00  0.00     0.183 HD
BRANCH  11  13
HETATM   13  C9  UNL     1      -3.287   0.780  -0.075  1.00  0.00     0.085 C 
BRANCH  13  14
HETATM   14  C10 UNL     1      -4.377   1.797  -0.023  1.00  0.00    -0.038 A 
HETATM   15  C11 UNL     1      -4.914   2.271   1.151  1.00  0.00     0.012 A 
HETATM   16  C12 UNL     1      -5.936   3.227   1.104  1.00  0.00     0.048 A 
HETATM   17  C13 UNL     1      -6.423   3.710  -0.092  1.00  0.00     0.098 A 
HETATM   18  N7  UNL     1      -5.879   3.227  -1.222  1.00  0.00    -0.352 N 
HETATM   19  C14 UNL     1      -4.882   2.296  -1.200  1.00  0.00     0.097 A 
ATOM     20  H7  UNL     1      -6.221   3.566  -2.121  1.00  0.00     0.166 HD
BRANCH  17  21
HETATM   21  N6  UNL     1      -7.365   4.590  -0.151  1.00  0.00    -0.385 N 
ATOM     22  H62 UNL     1      -7.778   4.957   0.707  1.00  0.00     0.157 HD
ATOM     23  H61 UNL     1      -7.725   4.947  -1.036  1.00  0.00     0.157 HD
ENDBRANCH  17  21
ENDBRANCH  13  14
ENDBRANCH  11  13
ENDBRANCH   4  10
BRANCH   1  24
HETATM   24  N3  UNL     1       2.775  -2.077  -0.245  1.00  0.00    -0.373 N 
ATOM     25  H3  UNL     1       3.201  -3.003  -0.291  1.00  0.00     0.161 HD
BRANCH  24  26
HETATM   26  C5  UNL     1       3.582  -0.870  -0.184  1.00  0.00     0.141 C 
BRANCH  26  27
HETATM   27  C4  UNL     1       5.060  -1.177  -0.209  1.00  0.00     0.140 C 
BRANCH  27  28
HETATM   28  N2  UNL     1       5.776   0.075  -0.144  1.00  0.00    -0.385 N 
HETATM   29  C3  UNL     1       5.512   1.008   0.701  1.00  0.00     0.172 C 
ATOM     30  H2  UNL     1       6.536   0.229  -0.807  1.00  0.00     0.160 HD
BRANCH  29  31
HETATM   31  N1  UNL     1       6.291   2.193   0.661  1.00  0.00    -0.386 N 
HETATM   32  C1  UNL     1       7.080   2.503  -0.514  1.00  0.00     0.149 C 
HETATM   33  C2  UNL     1       6.300   3.086   1.782  1.00  0.00     0.149 C 
ENDBRANCH  29  31
ENDBRANCH  27  28
ENDBRANCH  26  27
ENDBRANCH  24  26
ENDBRANCH   1  24
BRANCH   7  34
HETATM   34  N9  UNL     1      -1.497  -4.083  -0.346  1.00  0.00    -0.317 N 
HETATM   35  C16 UNL     1      -1.777  -4.757  -1.468  1.00  0.00     0.098 A 
HETATM   36  C17 UNL     1      -2.585  -5.811  -1.114  1.00  0.00     0.019 A 
HETATM   37  C18 UNL     1      -2.777  -5.745   0.247  1.00  0.00     0.019 A 
HETATM   38  C19 UNL     1      -2.087  -4.659   0.695  1.00  0.00     0.098 A 
ENDBRANCH   7  34
TORSDOF 10
