REMARK  19 active torsions:
REMARK  status: ('A' for Active; 'I' for Inactive)
REMARK    1  A    between atoms: C2_2  and  O1_3 
REMARK    2  A    between atoms: O1_3  and  C3_4 
REMARK       I    between atoms: C3_4  and  N1_6 
REMARK    3  A    between atoms: N1_6  and  C4_8 
REMARK    4  A    between atoms: C9_14  and  N2_15 
REMARK       I    between atoms: N2_15  and  C10_17 
REMARK    5  A    between atoms: C10_17  and  C11_19 
REMARK    6  A    between atoms: C11_19  and  N3_20 
REMARK    7  A    between atoms: C11_19  and  C12_24 
REMARK    8  A    between atoms: C12_24  and  C13_25 
REMARK       I    between atoms: C13_25  and  N4_27 
REMARK    9  A    between atoms: N4_27  and  C14_29 
REMARK   10  A    between atoms: C14_29  and  C15_30 
REMARK   11  A    between atoms: C21_36  and  C22_37 
REMARK   12  A    between atoms: C22_37  and  O6_38 
REMARK   13  A    between atoms: C22_37  and  N5_40 
REMARK   14  A    between atoms: N5_40  and  C23_42 
REMARK   15  A    between atoms: C23_42  and  C24_43 
REMARK   16  A    between atoms: C23_42  and  C30_53 
REMARK       I    between atoms: C24_43  and  N6_45 
REMARK   17  A    between atoms: N6_45  and  C25_47 
REMARK   18  A    between atoms: C25_47  and  C26_48 
REMARK   19  A    between atoms: C30_53  and  C32_55 
ROOT
HETATM    1  C4  UNL     1       0.465   4.148  -0.464  1.00  0.00     0.118 C 
HETATM    2  C5  UNL     1      -0.666   3.956   0.506  1.00  0.00     0.035 C 
HETATM    3  C6  UNL     1      -1.845   3.386  -0.288  1.00  0.00     0.016 C 
HETATM    4  C7  UNL     1      -1.848   3.934  -1.653  1.00  0.00     0.173 C 
HETATM    5  O3  UNL     1      -0.726   3.711  -2.423  1.00  0.00    -0.381 OA
HETATM    6  C8  UNL     1       0.391   3.341  -1.683  1.00  0.00     0.167 C 
HETATM    7  C9  UNL     1       0.392   1.802  -1.513  1.00  0.00     0.120 C 
HETATM    8  C18 UNL     1      -0.947   1.412  -1.351  1.00  0.00     0.024 C 
HETATM    9  C19 UNL     1      -1.715   1.899  -0.147  1.00  0.00    -0.001 C 
HETATM   10  C20 UNL     1      -2.783   1.070  -0.821  1.00  0.00     0.015 C 
HETATM   11  C21 UNL     1      -1.639   0.120  -1.147  1.00  0.00     0.041 C 
ENDROOT
BRANCH  11  12
HETATM   12  C22 UNL     1      -1.364  -0.798  -0.076  1.00  0.00     0.222 C 
BRANCH  12  13
HETATM   13  O6  UNL     1       0.048  -1.207  -0.117  1.00  0.00    -0.376 OA
ATOM     14  H6  UNL     1       0.230  -1.814   0.591  1.00  0.00     0.212 HD
ENDBRANCH  12  13
BRANCH  12  15
HETATM   15  N5  UNL     1      -1.983  -2.003   0.076  1.00  0.00    -0.359 N 
ATOM     16  H5  UNL     1      -1.346  -2.789  -0.049  1.00  0.00     0.162 HD
BRANCH  15  17
HETATM   17  C23 UNL     1      -3.299  -2.414   0.366  1.00  0.00     0.100 C 
BRANCH  17  18
HETATM   18  C24 UNL     1      -4.320  -2.217  -0.619  1.00  0.00     0.268 C 
HETATM   19  O7  UNL     1      -3.947  -1.973  -1.822  1.00  0.00    -0.266 OA
HETATM   20  N6  UNL     1      -5.718  -2.249  -0.473  1.00  0.00    -0.350 N 
ATOM     21  H6  UNL     1      -6.131  -2.433   0.442  1.00  0.00     0.163 HD
BRANCH  20  22
HETATM   22  C25 UNL     1      -6.598  -2.015  -1.653  1.00  0.00     0.187 C 
BRANCH  22  23
HETATM   23  C26 UNL     1      -8.008  -2.127  -1.216  1.00  0.00     0.070 A 
HETATM   24  C27 UNL     1      -8.748  -3.293  -1.201  1.00  0.00     0.036 A 
HETATM   25  C28 UNL     1     -10.019  -2.984  -0.730  1.00  0.00     0.027 A 
HETATM   26  C29 UNL     1      -9.994  -1.645  -0.478  1.00  0.00     0.142 A 
HETATM   27  O8  UNL     1      -8.817  -1.183  -0.771  1.00  0.00    -0.325 OA
ENDBRANCH  22  23
ENDBRANCH  20  22
ENDBRANCH  17  18
BRANCH  17  28
HETATM   28  C30 UNL     1      -3.596  -2.413   1.829  1.00  0.00    -0.052 C 
HETATM   29  C31 UNL     1      -3.482  -1.067   2.501  1.00  0.00     0.046 C 
BRANCH  28  30
HETATM   30  C32 UNL     1      -4.713  -3.156   2.417  1.00  0.00     0.031 C 
HETATM   31  C33 UNL     1      -4.733  -4.645   2.184  1.00  0.00     0.010 C 
ENDBRANCH  28  30
ENDBRANCH  17  28
ENDBRANCH  15  17
ENDBRANCH  12  15
ENDBRANCH  11  12
BRANCH   7  32
HETATM   32  N2  UNL     1       1.490   1.394  -0.712  1.00  0.00    -0.352 N 
HETATM   33  C10 UNL     1       2.808   1.192  -1.203  1.00  0.00     0.249 C 
HETATM   34  O4  UNL     1       2.949   1.418  -2.443  1.00  0.00    -0.271 OA
ATOM     35  H2  UNL     1       1.322   1.235   0.281  1.00  0.00     0.163 HD
BRANCH  33  36
HETATM   36  C11 UNL     1       3.987   0.774  -0.492  1.00  0.00     0.283 C 
BRANCH  36  37
HETATM   37  N3  UNL     1       5.229   1.002  -1.196  1.00  0.00    -0.066 N 
ATOM     38  H33 UNL     1       5.199   0.567  -2.118  1.00  0.00     0.275 HD
ATOM     39  H32 UNL     1       5.308   1.982  -1.467  1.00  0.00     0.275 HD
ATOM     40  H31 UNL     1       6.065   0.706  -0.692  1.00  0.00     0.275 HD
ENDBRANCH  36  37
BRANCH  36  41
HETATM   41  C12 UNL     1       3.988  -0.733  -0.174  1.00  0.00     0.145 C 
BRANCH  41  42
HETATM   42  C13 UNL     1       5.249  -1.061   0.577  1.00  0.00     0.220 C 
HETATM   43  O5  UNL     1       6.004  -0.107   0.939  1.00  0.00    -0.274 OA
HETATM   44  N4  UNL     1       5.624  -2.378   0.889  1.00  0.00    -0.361 N 
ATOM     45  H4  UNL     1       5.032  -3.160   0.609  1.00  0.00     0.162 HD
BRANCH  44  46
HETATM   46  C14 UNL     1       6.852  -2.620   1.608  1.00  0.00     0.126 C 
BRANCH  46  47
HETATM   47  C15 UNL     1       7.078  -4.104   1.828  1.00  0.00    -0.005 C 
HETATM   48  C16 UNL     1       7.158  -4.815   0.473  1.00  0.00     0.011 C 
HETATM   49  C17 UNL     1       8.459  -4.242   2.459  1.00  0.00     0.011 C 
ENDBRANCH  46  47
ENDBRANCH  44  46
ENDBRANCH  41  42
ENDBRANCH  36  41
ENDBRANCH  33  36
ENDBRANCH   7  32
BRANCH   1  50
HETATM   50  N1  UNL     1       1.674   4.219   0.260  1.00  0.00    -0.330 N 
HETATM   51  C3  UNL     1       2.486   5.387   0.240  1.00  0.00     0.360 C 
HETATM   52  O2  UNL     1       2.109   6.360  -0.436  1.00  0.00    -0.239 OA
ATOM     53  H1  UNL     1       1.973   3.414   0.811  1.00  0.00     0.165 HD
BRANCH  51  54
HETATM   54  O1  UNL     1       3.672   5.479   0.942  1.00  0.00    -0.304 OA
BRANCH  54  55
HETATM   55  C2  UNL     1       4.498   6.659   0.927  1.00  0.00     0.176 C 
HETATM   56  C1  UNL     1       4.933   6.936  -0.473  1.00  0.00     0.034 C 
ENDBRANCH  54  55
ENDBRANCH  51  54
ENDBRANCH   1  50
TORSDOF 19
