REMARK  1 active torsions:
REMARK  status: ('A' for Active; 'I' for Inactive)
REMARK    1  A    between atoms: N1_1  and  C1_4 
ROOT
HETATM    1  C1  UNL     1      -1.695   0.692   0.072  1.00  0.00     0.131 A 
HETATM    2  N2  UNL     1      -2.560  -0.369   0.000  1.00  0.00    -0.337 N 
ATOM      3  H2  UNL     1      -3.565  -0.197   0.024  1.00  0.00     0.168 HD
HETATM    4  C2  UNL     1      -2.114  -1.623  -0.101  1.00  0.00     0.183 A 
HETATM    5  N3  UNL     1      -0.788  -1.822  -0.131  1.00  0.00    -0.337 N 
ATOM      6  H3  UNL     1      -0.445  -2.780  -0.208  1.00  0.00     0.168 HD
HETATM    7  C3  UNL     1       0.106  -0.835  -0.065  1.00  0.00     0.140 A 
HETATM    8  N4  UNL     1       1.431  -1.039  -0.095  1.00  0.00    -0.303 N 
ATOM      9  H4  UNL     1       1.773  -1.997  -0.172  1.00  0.00     0.171 HD
HETATM   10  C4  UNL     1       2.328  -0.045  -0.029  1.00  0.00     0.315 A 
HETATM   11  O1  UNL     1       3.567  -0.233  -0.057  1.00  0.00    -0.262 OA
HETATM   12  C5  UNL     1       1.871   1.247   0.075  1.00  0.00     0.314 A 
HETATM   13  O2  UNL     1       2.698   2.219   0.140  1.00  0.00    -0.262 OA
HETATM   14  N5  UNL     1       0.549   1.494   0.108  1.00  0.00    -0.313 N 
ATOM     15  H5  UNL     1       0.216   2.455   0.185  1.00  0.00     0.169 HD
HETATM   16  C6  UNL     1      -0.331   0.491   0.041  1.00  0.00     0.124 A 
ENDROOT
BRANCH   1  17
HETATM   17  N1  UNL     1      -2.164   1.883   0.168  1.00  0.00    -0.383 N 
ATOM     18  H12 UNL     1      -3.173   2.032   0.191  1.00  0.00     0.157 HD
ATOM     19  H11 UNL     1      -1.520   2.672   0.222  1.00  0.00     0.157 HD
ENDBRANCH   1  17
TORSDOF 1
