REMARK  5 active torsions:
REMARK  status: ('A' for Active; 'I' for Inactive)
REMARK    1  A    between atoms: O1_2  and  C2_3 
REMARK    2  A    between atoms: C2_3  and  C3_5 
REMARK    3  A    between atoms: C4_6  and  O3_7 
REMARK    4  A    between atoms: C5_9  and  C6_10 
REMARK    5  A    between atoms: C10_15  and  O5_16 
ROOT
HETATM    1  C3  UNL     1       1.378  -0.844  -0.470  1.00  0.00     0.107 A 
HETATM    2  C4  UNL     1       1.649   0.470  -0.176  1.00  0.00     0.099 A 
HETATM    3  C5  UNL     1       0.601   1.374   0.252  1.00  0.00     0.055 A 
HETATM    4  C8  UNL     1      -0.685   0.831   0.361  1.00  0.00    -0.004 A 
HETATM    5  C9  UNL     1      -0.965  -0.487   0.061  1.00  0.00    -0.004 A 
HETATM    6  C10 UNL     1       0.119  -1.296  -0.356  1.00  0.00     0.092 A 
HETATM    7  C11 UNL     1      -2.277  -1.103   0.112  1.00  0.00    -0.014 C 
HETATM    8  C12 UNL     1      -2.289  -2.501   0.687  1.00  0.00     0.020 C 
HETATM    9  C13 UNL     1      -2.718  -1.304  -1.362  1.00  0.00     0.020 C 
HETATM   10  C14 UNL     1      -3.301  -0.296   0.753  1.00  0.00     0.041 C 
HETATM   11  C15 UNL     1      -2.944   1.062   1.068  1.00  0.00    -0.018 C 
HETATM   12  C16 UNL     1      -1.745   1.671   0.917  1.00  0.00    -0.054 C 
HETATM   13  C17 UNL     1      -1.604   3.018   1.466  1.00  0.00     0.049 C 
ENDROOT
BRANCH   1  14
HETATM   14  C2  UNL     1       2.498  -1.706  -0.901  1.00  0.00     0.298 C 
HETATM   15  O2  UNL     1       2.353  -2.925  -1.192  1.00  0.00    -0.259 OA
BRANCH  14  16
HETATM   16  O1  UNL     1       3.769  -1.229  -1.010  1.00  0.00    -0.322 OA
HETATM   17  C1  UNL     1       4.900  -1.948  -1.405  1.00  0.00     0.213 C 
ENDBRANCH  14  16
ENDBRANCH   1  14
BRANCH   2  18
HETATM   18  O3  UNL     1       2.875   0.933  -0.280  1.00  0.00    -0.359 OA
ATOM     19  H3  UNL     1       3.062   1.842  -0.077  1.00  0.00     0.217 HD
ENDBRANCH   2  18
BRANCH   6  20
HETATM   20  O5  UNL     1      -0.234  -2.568  -0.632  1.00  0.00    -0.359 OA
ATOM     21  H5  UNL     1      -1.125  -2.888  -0.551  1.00  0.00     0.217 HD
ENDBRANCH   6  20
BRANCH   3  22
HETATM   22  C6  UNL     1       0.928   2.740   0.385  1.00  0.00     0.159 C 
HETATM   23  C7  UNL     1       2.419   3.116   0.166  1.00  0.00     0.097 C 
HETATM   24  O4  UNL     1       0.377   3.761   0.633  1.00  0.00    -0.293 OA
ENDBRANCH   3  22
TORSDOF 5
