REMARK  4 active torsions:
REMARK  status: ('A' for Active; 'I' for Inactive)
REMARK       I    between atoms: C1_2  and  N1_3 
REMARK    1  A    between atoms: C1_2  and  C10_18 
REMARK    2  A    between atoms: N1_3  and  C2_5 
REMARK    3  A    between atoms: C2_5  and  N2_7 
REMARK    4  A    between atoms: N2_7  and  C3_9 
ROOT
HETATM    1  C2  UNL     1       0.589  -0.341  -0.307  1.00  0.00     0.179 C 
HETATM    2  S1  UNL     1       0.194  -1.733  -1.050  1.00  0.00    -0.040 SA
ENDROOT
BRANCH   1   3
HETATM    3  N1  UNL     1       1.962  -0.090   0.025  1.00  0.00    -0.299 N 
HETATM    4  C1  UNL     1       3.004  -0.999  -0.263  1.00  0.00     0.264 C 
HETATM    5  O1  UNL     1       2.735  -2.075  -0.832  1.00  0.00    -0.267 OA
ATOM      6  H1  UNL     1       2.197   0.786   0.491  1.00  0.00     0.171 HD
BRANCH   4   7
HETATM    7  C10 UNL     1       4.390  -0.718   0.086  1.00  0.00     0.072 A 
HETATM    8  C11 UNL     1       4.930   0.376   0.704  1.00  0.00     0.025 A 
HETATM    9  C12 UNL     1       6.248   0.387   0.910  1.00  0.00     0.009 A 
HETATM   10  C13 UNL     1       6.965  -0.701   0.486  1.00  0.00     0.050 A 
HETATM   11  S2  UNL     1       5.755  -1.704  -0.190  1.00  0.00    -0.097 SA
ENDBRANCH   4   7
ENDBRANCH   1   3
BRANCH   1  12
HETATM   12  N2  UNL     1      -0.388   0.611   0.056  1.00  0.00    -0.333 N 
ATOM     13  H2  UNL     1      -0.104   1.451   0.561  1.00  0.00     0.168 HD
BRANCH  12  14
HETATM   14  C3  UNL     1      -1.755   0.425  -0.266  1.00  0.00     0.037 A 
HETATM   15  C4  UNL     1      -2.217  -0.084  -1.442  1.00  0.00     0.032 A 
HETATM   16  C5  UNL     1      -3.566  -0.283  -1.708  1.00  0.00     0.042 A 
HETATM   17  C6  UNL     1      -4.479   0.047  -0.744  1.00  0.00     0.105 A 
HETATM   18  C7  UNL     1      -4.043   0.569   0.466  1.00  0.00     0.107 A 
HETATM   19  O3  UNL     1      -5.862  -0.026  -0.694  1.00  0.00    -0.323 OA
HETATM   20  C8  UNL     1      -2.709   0.759   0.712  1.00  0.00     0.069 A 
HETATM   21  O2  UNL     1      -5.149   0.829   1.286  1.00  0.00    -0.323 OA
HETATM   22  C9  UNL     1      -6.269   0.301   0.621  1.00  0.00     0.352 C 
ENDBRANCH  12  14
ENDBRANCH   1  12
TORSDOF 4
