REMARK  7 active torsions:
REMARK  status: ('A' for Active; 'I' for Inactive)
REMARK    1  A    between atoms: C3_3  and  C4_4 
REMARK    2  A    between atoms: C3_3  and  N2_19 
REMARK    3  A    between atoms: C4_4  and  N1_5 
REMARK    4  A    between atoms: N1_5  and  C5_8 
REMARK    5  A    between atoms: C16_21  and  O1_22 
REMARK    6  A    between atoms: C16_21  and  C17_24 
REMARK    7  A    between atoms: C17_24  and  C18_25 
ROOT
HETATM    1  C1  UNL     1       0.704  -3.176   1.762  1.00  0.00     0.014 C 
HETATM    2  C2  UNL     1       0.792  -2.001   1.525  1.00  0.00    -0.090 C 
HETATM    3  C3  UNL     1       0.930  -0.541   1.235  1.00  0.00     0.191 C 
ENDROOT
BRANCH   3   4
HETATM    4  C4  UNL     1      -0.286  -0.125   0.468  1.00  0.00     0.271 C 
BRANCH   4   5
HETATM    5  N1  UNL     1      -1.496  -0.352   1.232  1.00  0.00    -0.063 N 
ATOM      6  H12 UNL     1      -1.518  -1.306   1.591  1.00  0.00     0.278 HD
ATOM      7  H11 UNL     1      -1.465   0.163   2.112  1.00  0.00     0.278 HD
BRANCH   5   8
HETATM    8  C5  UNL     1      -2.697  -0.058   0.524  1.00  0.00     0.128 C 
HETATM    9  C6  UNL     1      -3.749  -1.048   1.039  1.00  0.00     0.043 C 
HETATM   10  C7  UNL     1      -5.076  -0.829   0.394  1.00  0.00    -0.010 C 
HETATM   11  C8  UNL     1      -5.017  -0.962  -1.110  1.00  0.00     0.009 C 
HETATM   12  C12 UNL     1      -5.542   0.580   0.714  1.00  0.00     0.026 C 
HETATM   13  C9  UNL     1      -3.921  -0.035  -1.591  1.00  0.00    -0.010 C 
HETATM   14  C10 UNL     1      -4.399   1.374  -1.316  1.00  0.00     0.026 C 
HETATM   15  C14 UNL     1      -2.589  -0.318  -0.962  1.00  0.00     0.043 C 
HETATM   16  C11 UNL     1      -4.516   1.547   0.172  1.00  0.00     0.021 C 
HETATM   17 BR1  UNL     1      -5.078   3.346   0.575  1.00  0.00    -0.085 Br
HETATM   18  C13 UNL     1      -3.165   1.319   0.816  1.00  0.00     0.060 C 
ENDBRANCH   5   8
ENDBRANCH   4   5
ENDBRANCH   3   4
BRANCH   3  19
HETATM   19  N2  UNL     1       2.168  -0.297   0.527  1.00  0.00    -0.332 N 
HETATM   20  C15 UNL     1       3.299   0.410   1.096  1.00  0.00     0.165 C 
HETATM   21  C16 UNL     1       4.043   0.820  -0.154  1.00  0.00     0.082 C 
HETATM   22  C20 UNL     1       3.935  -0.415  -0.982  1.00  0.00     0.142 C 
HETATM   23  C21 UNL     1       2.464  -0.719  -0.797  1.00  0.00     0.223 C 
HETATM   24  O2  UNL     1       1.755  -1.229  -1.680  1.00  0.00    -0.273 OA
BRANCH  21  25
HETATM   25  O1  UNL     1       3.234   1.785  -0.784  1.00  0.00    -0.388 OA
ATOM     26  H1  UNL     1       3.702   2.043  -1.570  1.00  0.00     0.210 HD
ENDBRANCH  21  25
BRANCH  21  27
HETATM   27  C17 UNL     1       5.358   1.417   0.059  1.00  0.00     0.040 C 
BRANCH  27  28
HETATM   28  C18 UNL     1       6.425   0.658   0.739  1.00  0.00    -0.002 C 
HETATM   29  C19 UNL     1       6.889  -0.603   0.075  1.00  0.00     0.005 C 
ENDBRANCH  27  28
ENDBRANCH  21  27
ENDBRANCH   3  19
TORSDOF 7
