REMARK  6 active torsions:
REMARK  status: ('A' for Active; 'I' for Inactive)
REMARK    1  A    between atoms: C2_2  and  C3_3 
REMARK    2  A    between atoms: C3_3  and  N1_4 
REMARK    3  A    between atoms: C3_3  and  C8_12 
REMARK       I    between atoms: N1_4  and  C4_6 
REMARK    4  A    between atoms: C4_6  and  C5_8 
REMARK       I    between atoms: C8_12  and  N2_14 
REMARK    5  A    between atoms: N2_14  and  C9_16 
REMARK    6  A    between atoms: C16_23  and  C17_24 
ROOT
HETATM    1  C8  UNL     1       1.000  -0.262  -0.247  1.00  0.00     0.240 C 
HETATM    2  O2  UNL     1       1.408  -1.389   0.111  1.00  0.00    -0.271 OA
HETATM    3  N2  UNL     1      -0.320   0.107   0.105  1.00  0.00    -0.354 N 
ATOM      4  H2  UNL     1      -0.677   1.022  -0.168  1.00  0.00     0.162 HD
ENDROOT
BRANCH   3   5
HETATM    5  C9  UNL     1      -1.159  -0.789   0.840  1.00  0.00     0.092 C 
HETATM    6  C10 UNL     1      -2.454  -1.093   0.119  1.00  0.00     0.010 C 
HETATM    7  C11 UNL     1      -3.059  -2.309   0.784  1.00  0.00     0.011 C 
HETATM    8  C19 UNL     1      -3.444   0.036   0.169  1.00  0.00     0.025 C 
HETATM    9  C12 UNL     1      -3.311  -2.022   2.247  1.00  0.00    -0.013 C 
HETATM   10  C13 UNL     1      -2.086  -1.541   2.961  1.00  0.00     0.011 C 
HETATM   11  C18 UNL     1      -4.341  -0.913   2.302  1.00  0.00     0.023 C 
HETATM   12  C14 UNL     1      -1.497  -0.329   2.238  1.00  0.00     0.010 C 
HETATM   13  C15 UNL     1      -2.503   0.769   2.286  1.00  0.00     0.025 C 
HETATM   14  C16 UNL     1      -3.794   0.323   1.628  1.00  0.00     0.040 C 
BRANCH  14  15
HETATM   15  C17 UNL     1      -4.826   1.367   1.646  1.00  0.00     0.239 C 
HETATM   16  N3  UNL     1      -4.666   2.635   1.035  1.00  0.00    -0.061 NA
HETATM   17  O3  UNL     1      -5.922   1.126   2.239  1.00  0.00    -0.276 OA
ENDBRANCH  14  15
ENDBRANCH   3   5
BRANCH   1  18
HETATM   18  C3  UNL     1       1.899   0.633  -1.018  1.00  0.00     0.176 C 
BRANCH  18  19
HETATM   19  C2  UNL     1       1.200   1.040  -2.299  1.00  0.00     0.030 C 
HETATM   20  C1  UNL     1       1.982   2.100  -3.043  1.00  0.00     0.007 C 
ENDBRANCH  18  19
BRANCH  18  21
HETATM   21  N1  UNL     1       3.197   0.092  -1.246  1.00  0.00    -0.346 N 
HETATM   22  C4  UNL     1       4.393   0.732  -0.831  1.00  0.00     0.237 C 
HETATM   23  O1  UNL     1       4.366   1.854  -0.220  1.00  0.00    -0.272 OA
ATOM     24  H1  UNL     1       3.270  -0.801  -1.733  1.00  0.00     0.163 HD
BRANCH  22  25
HETATM   25  C5  UNL     1       5.723   0.146  -1.075  1.00  0.00     0.091 C 
HETATM   26  C6  UNL     1       5.840  -1.100  -0.186  1.00  0.00     0.037 C 
HETATM   27  C7  UNL     1       5.895  -0.294  -2.519  1.00  0.00     0.037 C 
HETATM   28 BR1  UNL     1       7.125   1.364  -0.635  1.00  0.00    -0.076 Br
ENDBRANCH  22  25
ENDBRANCH  18  21
ENDBRANCH   1  18
TORSDOF 6
