REMARK  8 active torsions:
REMARK  status: ('A' for Active; 'I' for Inactive)
REMARK    1  A    between atoms: C2_2  and  N1_4 
REMARK    2  A    between atoms: C4_6  and  C5_7 
REMARK    3  A    between atoms: C4_6  and  O4_39 
REMARK    4  A    between atoms: C5_7  and  N2_8 
REMARK       I    between atoms: N2_8  and  C7_10 
REMARK    5  A    between atoms: C7_10  and  C8_12 
REMARK    6  A    between atoms: C10_14  and  C11_15 
REMARK       I    between atoms: C11_15  and  N3_17 
REMARK    7  A    between atoms: N3_17  and  C12_19 
REMARK       I    between atoms: N4_30  and  C23_31 
REMARK       I    between atoms: C23_31  and  N5_33 
REMARK    8  A    between atoms: O4_39  and  C27_40 
ROOT
HETATM    1  C8  UNL     1      -1.070   1.906   0.451  1.00  0.00     0.182 C 
HETATM    2  C9  UNL     1      -0.099   0.944  -0.252  1.00  0.00     0.051 C 
HETATM    3  C10 UNL     1       1.239   1.565  -0.151  1.00  0.00     0.098 C 
HETATM    4  C22 UNL     1       1.101   2.569   0.938  1.00  0.00     0.142 C 
HETATM    5  N4  UNL     1      -0.229   3.072   0.781  1.00  0.00    -0.320 N 
HETATM    6  C23 UNL     1      -0.671   4.395   0.936  1.00  0.00     0.321 C 
HETATM    7  O3  UNL     1      -1.928   4.615   0.782  1.00  0.00    -0.247 OA
HETATM    8  N5  UNL     1       0.128   5.526   1.247  1.00  0.00    -0.323 N 
HETATM    9  C24 UNL     1       1.504   5.833   1.520  1.00  0.00     0.208 C 
HETATM   10  C25 UNL     1       1.191   7.215   1.999  1.00  0.00     0.275 C 
HETATM   11  F1  UNL     1       1.830   8.228   1.298  1.00  0.00    -0.203 F 
HETATM   12  F2  UNL     1       1.259   7.434   3.342  1.00  0.00    -0.203 F 
HETATM   13  C26 UNL     1      -0.163   6.966   1.427  1.00  0.00     0.208 C 
ENDROOT
BRANCH   1  14
HETATM   14  C7  UNL     1      -2.142   2.263  -0.495  1.00  0.00     0.242 C 
HETATM   15  N2  UNL     1      -3.468   1.874  -0.319  1.00  0.00    -0.347 N 
HETATM   16  C6  UNL     1      -4.437   2.323  -1.329  1.00  0.00     0.153 C 
HETATM   17  O1  UNL     1      -1.813   2.954  -1.492  1.00  0.00    -0.271 OA
BRANCH  15  18
HETATM   18  C5  UNL     1      -3.919   1.083   0.781  1.00  0.00     0.209 C 
BRANCH  18  19
HETATM   19  C4  UNL     1      -3.981  -0.394   0.531  1.00  0.00     0.132 C 
HETATM   20  N1  UNL     1      -4.978  -1.000   0.938  1.00  0.00    -0.369 N 
ATOM     21  H1  UNL     1      -5.589  -0.318   1.387  1.00  0.00     0.161 HD
BRANCH  20  22
HETATM   22  C2  UNL     1      -5.593  -2.229   1.027  1.00  0.00     0.075 C 
HETATM   23  C1  UNL     1      -7.024  -2.056   1.626  1.00  0.00     0.032 C 
HETATM   24  C3  UNL     1      -4.917  -3.222   1.965  1.00  0.00     0.032 C 
ENDBRANCH  20  22
BRANCH  19  25
HETATM   25  O4  UNL     1      -2.978  -1.062  -0.120  1.00  0.00    -0.333 OA
BRANCH  25  26
HETATM   26  C27 UNL     1      -3.089  -2.082  -1.067  1.00  0.00     0.122 C 
HETATM   27  C28 UNL     1      -3.899  -1.566  -2.249  1.00  0.00     0.040 C 
HETATM   28  C29 UNL     1      -1.683  -2.457  -1.575  1.00  0.00     0.040 C 
ENDBRANCH  25  26
ENDBRANCH  19  25
ENDBRANCH  18  19
ENDBRANCH  15  18
ENDBRANCH   1  14
BRANCH   3  29
HETATM   29  C11 UNL     1       2.325   0.568   0.107  1.00  0.00     0.224 C 
HETATM   30  O2  UNL     1       2.969   0.716   1.169  1.00  0.00    -0.273 OA
HETATM   31  N3  UNL     1       2.588  -0.475  -0.817  1.00  0.00    -0.351 N 
ATOM     32  H3  UNL     1       2.013  -0.513  -1.658  1.00  0.00     0.163 HD
BRANCH  31  33
HETATM   33  C12 UNL     1       3.591  -1.474  -0.664  1.00  0.00     0.034 C 
HETATM   34  C13 UNL     1       4.995  -0.866  -0.564  1.00  0.00     0.035 C 
HETATM   35  C14 UNL     1       6.014  -1.972  -0.469  1.00  0.00    -0.012 C 
HETATM   36  C15 UNL     1       6.004  -2.783  -1.729  1.00  0.00     0.009 C 
HETATM   37  C19 UNL     1       5.772  -2.877   0.721  1.00  0.00     0.009 C 
HETATM   38  C16 UNL     1       4.640  -3.429  -1.860  1.00  0.00    -0.012 C 
HETATM   39  C17 UNL     1       4.322  -4.323  -0.691  1.00  0.00     0.009 C 
HETATM   40  C21 UNL     1       3.621  -2.345  -1.920  1.00  0.00     0.035 C 
HETATM   41  C18 UNL     1       4.382  -3.476   0.556  1.00  0.00    -0.012 C 
HETATM   42  C20 UNL     1       3.400  -2.345   0.551  1.00  0.00     0.035 C 
ENDBRANCH  31  33
ENDBRANCH   3  29
TORSDOF 8
