REMARK  8 active torsions:
REMARK  status: ('A' for Active; 'I' for Inactive)
REMARK       I    between atoms: C1_2  and  N1_3 
REMARK    1  A    between atoms: C1_2  and  C28_40 
REMARK    2  A    between atoms: N1_3  and  C2_5 
REMARK    3  A    between atoms: C5_8  and  C6_9 
REMARK       I    between atoms: C6_9  and  N2_11 
REMARK    4  A    between atoms: N3_16  and  C11_17 
REMARK    5  A    between atoms: C11_17  and  C12_18 
REMARK    6  A    between atoms: N4_27  and  C19_28 
REMARK    7  A    between atoms: C19_28  and  O4_29 
REMARK    8  A    between atoms: C19_28  and  C20_31 
ROOT
HETATM    1  C6  UNL     1       1.159   1.777  -0.183  1.00  0.00     0.226 C 
HETATM    2  O2  UNL     1       2.023   2.277  -0.933  1.00  0.00    -0.273 OA
HETATM    3  N2  UNL     1      -0.253   1.857  -0.487  1.00  0.00    -0.317 N 
HETATM    4  C7  UNL     1      -1.133   1.300   0.487  1.00  0.00     0.170 C 
HETATM    5  C8  UNL     1      -2.500   1.050  -0.149  1.00  0.00     0.133 C 
HETATM    6  C9  UNL     1      -3.405   0.503   0.884  1.00  0.00     0.063 C 
HETATM    7  C10 UNL     1      -4.331  -0.458   0.158  1.00  0.00     0.129 C 
HETATM    8  N3  UNL     1      -3.570  -0.880  -1.007  1.00  0.00    -0.345 N 
HETATM    9  C18 UNL     1      -2.362  -0.139  -1.074  1.00  0.00     0.250 C 
HETATM   10  O3  UNL     1      -1.397  -0.472  -1.792  1.00  0.00    -0.270 OA
HETATM   11  N4  UNL     1      -2.844   2.224  -0.853  1.00  0.00    -0.341 N 
HETATM   12  C24 UNL     1      -2.038   2.379  -2.111  1.00  0.00     0.185 C 
HETATM   13  C25 UNL     1      -0.591   2.484  -1.736  1.00  0.00     0.292 C 
HETATM   14  F2  UNL     1      -0.138   3.808  -1.804  1.00  0.00    -0.225 F 
ENDROOT
BRANCH   1  15
HETATM   15  C5  UNL     1       1.650   1.079   1.051  1.00  0.00     0.078 C 
HETATM   16  C4  UNL     1       3.031   1.601   1.343  1.00  0.00     0.016 C 
HETATM   17  C3  UNL     1       3.825   0.634   2.202  1.00  0.00     0.026 C 
HETATM   18  C2  UNL     1       4.141  -0.625   1.425  1.00  0.00     0.084 C 
HETATM   19  C27 UNL     1       3.214  -0.702   0.242  1.00  0.00     0.026 C 
HETATM   20  C26 UNL     1       1.806  -0.417   0.742  1.00  0.00     0.016 C 
BRANCH  18  21
HETATM   21  N1  UNL     1       5.508  -0.653   0.961  1.00  0.00    -0.356 N 
HETATM   22  C1  UNL     1       6.418  -1.676   1.298  1.00  0.00     0.222 C 
HETATM   23  O1  UNL     1       5.979  -2.603   2.049  1.00  0.00    -0.273 OA
ATOM     24  H1  UNL     1       5.831   0.105   0.360  1.00  0.00     0.162 HD
BRANCH  22  25
HETATM   25  C28 UNL     1       7.800  -1.672   0.808  1.00  0.00     0.078 C 
HETATM   26  C29 UNL     1       8.142  -2.811  -0.154  1.00  0.00     0.014 C 
HETATM   27  C30 UNL     1       8.934  -1.795  -0.970  1.00  0.00     0.002 C 
HETATM   28  C31 UNL     1       8.006  -0.739  -0.367  1.00  0.00     0.014 C 
ENDBRANCH  22  25
ENDBRANCH  18  21
ENDBRANCH   1  15
BRANCH  11  29
HETATM   29  C19 UNL     1      -3.727   3.238  -0.577  1.00  0.00     0.118 C 
BRANCH  29  30
HETATM   30  O4  UNL     1      -3.795   4.174  -1.495  1.00  0.00    -0.349 OA
ATOM     31  H4  UNL     1      -4.406   4.876  -1.304  1.00  0.00     0.219 HD
ENDBRANCH  29  30
BRANCH  29  32
HETATM   32  C20 UNL     1      -4.622   3.497   0.552  1.00  0.00     0.060 C 
HETATM   33  C21 UNL     1      -5.279   4.910   0.487  1.00  0.00     0.013 C 
HETATM   34  C22 UNL     1      -6.480   4.261   1.136  1.00  0.00     0.002 C 
HETATM   35  C23 UNL     1      -6.044   2.990   0.443  1.00  0.00     0.013 C 
ENDBRANCH  29  32
ENDBRANCH  11  29
BRANCH   8  36
HETATM   36  C11 UNL     1      -4.051  -1.921  -1.897  1.00  0.00     0.167 C 
BRANCH  36  37
HETATM   37  C12 UNL     1      -3.577  -3.251  -1.398  1.00  0.00    -0.002 A 
HETATM   38  C13 UNL     1      -2.804  -3.368  -0.248  1.00  0.00     0.012 A 
HETATM   39  C14 UNL     1      -2.395  -4.612   0.179  1.00  0.00     0.001 A 
HETATM   40  C15 UNL     1      -2.725  -5.764  -0.498  1.00  0.00     0.003 A 
HETATM   41  C16 UNL     1      -3.494  -5.667  -1.645  1.00  0.00     0.043 A 
HETATM   42  C17 UNL     1      -3.903  -4.400  -2.068  1.00  0.00     0.124 A 
HETATM   43  F1  UNL     1      -4.665  -4.291  -3.199  1.00  0.00    -0.205 F 
ENDBRANCH  36  37
ENDBRANCH   8  36
TORSDOF 8
