REMARK  3 active torsions:
REMARK  status: ('A' for Active; 'I' for Inactive)
REMARK    1  A    between atoms: C10_10  and  C11_11 
REMARK    2  A    between atoms: C12_13  and  C13_14 
REMARK    3  A    between atoms: C15_18  and  O4_19 
ROOT
HETATM    1  C1  UNL     1      -2.308   0.380   2.361  1.00  0.00     0.016 C 
HETATM    2  C2  UNL     1      -2.072   0.435   0.846  1.00  0.00    -0.035 C 
HETATM    3  C3  UNL     1      -1.444   1.706   0.448  1.00  0.00     0.010 C 
HETATM    4  C4  UNL     1       0.057   1.562   0.579  1.00  0.00     0.011 C 
HETATM    5  C5  UNL     1       0.598   0.540  -0.349  1.00  0.00    -0.026 C 
HETATM    6  C6  UNL     1       0.453   1.031  -1.758  1.00  0.00     0.016 C 
HETATM    7  C7  UNL     1      -0.056  -0.771  -0.063  1.00  0.00     0.002 C 
HETATM    8  C8  UNL     1       0.343  -1.743  -1.162  1.00  0.00     0.007 C 
HETATM    9  C9  UNL     1       1.786  -1.747  -1.446  1.00  0.00     0.013 C 
HETATM   10  C10 UNL     1       2.674  -0.862  -0.641  1.00  0.00     0.062 C 
HETATM   11  C12 UNL     1       2.092   0.364  -0.077  1.00  0.00     0.106 C 
HETATM   12  C14 UNL     1      -1.477  -0.804   0.275  1.00  0.00     0.027 C 
HETATM   13  C15 UNL     1      -2.536  -0.836  -0.762  1.00  0.00     0.124 C 
HETATM   14  C16 UNL     1      -3.379   0.066   0.154  1.00  0.00     0.041 C 
ENDROOT
BRANCH  11  15
HETATM   15  C13 UNL     1       2.458   0.686   1.326  1.00  0.00     0.178 C 
HETATM   16  O2  UNL     1       2.765  -0.132   2.217  1.00  0.00    -0.648 OA
HETATM   17  O3  UNL     1       2.487   2.025   1.789  1.00  0.00    -0.648 OA
ENDBRANCH  11  15
BRANCH  10  18
HETATM   18  C11 UNL     1       3.407  -1.671   0.377  1.00  0.00     0.236 C 
HETATM   19  O1  UNL     1       2.960  -2.732   0.781  1.00  0.00    -0.306 OA
ENDBRANCH  10  18
BRANCH  13  20
HETATM   20  O4  UNL     1      -2.376  -0.241  -1.965  1.00  0.00    -0.395 OA
ATOM     21  H4  UNL     1      -3.055  -0.262  -2.630  1.00  0.00     0.210 HD
ENDBRANCH  13  20
TORSDOF 3
