REMARK  11 active torsions:
REMARK  status: ('A' for Active; 'I' for Inactive)
REMARK    1  A    between atoms: C2_2  and  O1_3 
REMARK    2  A    between atoms: O1_3  and  C3_4 
REMARK    3  A    between atoms: C3_4  and  C4_6 
REMARK    4  A    between atoms: C4_6  and  C5_11 
REMARK    5  A    between atoms: N1_7  and  O3_9 
REMARK    6  A    between atoms: C6_15  and  C7_16 
REMARK    7  A    between atoms: C7_16  and  C8_17 
REMARK    8  A    between atoms: C8_17  and  N5_23 
REMARK    9  A    between atoms: N3_18  and  N4_20 
REMARK   10  A    between atoms: N5_23  and  N6_25 
REMARK   11  A    between atoms: N6_25  and  S1_27 
ROOT
HETATM    1  C5  UNL     1      -1.166  -1.074  -0.363  1.00  0.00     0.262 C 
HETATM    2  N2  UNL     1       0.056  -0.424  -0.838  1.00  0.00    -0.050 N 
ATOM      3  H21 UNL     1       0.450   0.262  -0.194  1.00  0.00     0.279 HD
ATOM      4  H22 UNL     1      -0.082   0.227  -1.611  1.00  0.00     0.279 HD
HETATM    5  C6  UNL     1       0.922  -1.532  -1.136  1.00  0.00     0.255 C 
HETATM    6  S2  UNL     1       0.688  -2.552   0.387  1.00  0.00    -0.124 SA
HETATM    7  C9  UNL     1      -0.836  -1.646   0.960  1.00  0.00     0.037 C 
HETATM    8  C10 UNL     1      -1.791  -2.728   1.395  1.00  0.00     0.029 C 
HETATM    9  C11 UNL     1      -0.371  -0.771   2.046  1.00  0.00     0.029 C 
ENDROOT
BRANCH   5  10
HETATM   10  C7  UNL     1       2.355  -1.244  -1.347  1.00  0.00     0.123 C 
BRANCH  10  11
HETATM   11  C8  UNL     1       3.106  -0.642  -0.265  1.00  0.00     0.113 C 
HETATM   12  N3  UNL     1       4.075  -1.275   0.347  1.00  0.00    -0.294 N 
ATOM     13  H3  UNL     1       4.594  -0.836   1.107  1.00  0.00     0.187 HD
BRANCH  12  14
HETATM   14  N4  UNL     1       4.373  -2.569  -0.076  1.00  0.00    -0.344 N 
ATOM     15  H42 UNL     1       3.845  -2.994  -0.838  1.00  0.00     0.176 HD
ATOM     16  H41 UNL     1       5.128  -3.062   0.401  1.00  0.00     0.176 HD
ENDBRANCH  12  14
BRANCH  11  17
HETATM   17  N5  UNL     1       2.843   0.666   0.200  1.00  0.00    -0.278 N 
ATOM     18  H5  UNL     1       2.453   0.790   1.134  1.00  0.00     0.189 HD
BRANCH  17  19
HETATM   19  N6  UNL     1       3.100   1.791  -0.578  1.00  0.00    -0.212 N 
ATOM     20  H6  UNL     1       2.672   2.016  -1.476  1.00  0.00     0.201 HD
BRANCH  19  21
HETATM   21  S1  UNL     1       4.279   2.735   0.262  1.00  0.00     0.373 S 
HETATM   22  O4  UNL     1       5.119   3.547  -0.672  1.00  0.00    -0.186 OA
HETATM   23  O5  UNL     1       5.165   1.895   1.122  1.00  0.00    -0.186 OA
ENDBRANCH  19  21
ENDBRANCH  17  19
ENDBRANCH  11  17
ENDBRANCH  10  11
ENDBRANCH   5  10
BRANCH   1  24
HETATM   24  C4  UNL     1      -2.381  -0.349  -0.567  1.00  0.00     0.139 C 
HETATM   25  N1  UNL     1      -3.292  -0.836  -1.395  1.00  0.00    -0.265 N 
ATOM     26  H1  UNL     1      -4.166  -0.331  -1.542  1.00  0.00     0.194 HD
BRANCH  24  27
HETATM   27  C3  UNL     1      -2.816   0.904   0.027  1.00  0.00     0.309 C 
HETATM   28  O2  UNL     1      -2.070   1.495   0.822  1.00  0.00    -0.258 OA
BRANCH  27  29
HETATM   29  O1  UNL     1      -4.041   1.514  -0.232  1.00  0.00    -0.317 OA
BRANCH  29  30
HETATM   30  C2  UNL     1      -4.421   2.736   0.371  1.00  0.00     0.175 C 
HETATM   31  C1  UNL     1      -3.437   3.850   0.014  1.00  0.00     0.034 C 
ENDBRANCH  29  30
ENDBRANCH  27  29
ENDBRANCH  24  27
BRANCH  25  32
HETATM   32  O3  UNL     1      -3.070  -2.003  -2.049  1.00  0.00    -0.290 OA
ATOM     33  H3  UNL     1      -3.724  -2.352  -2.643  1.00  0.00     0.244 HD
ENDBRANCH  25  32
ENDBRANCH   1  24
TORSDOF 11
