REMARK  11 active torsions:
REMARK  status: ('A' for Active; 'I' for Inactive)
REMARK    1  A    between atoms: N1_2  and  C2_4 
REMARK    2  A    between atoms: C2_4  and  C3_5 
REMARK    3  A    between atoms: C3_5  and  C4_6 
REMARK    4  A    between atoms: C4_6  and  O1_7 
REMARK    5  A    between atoms: C4_6  and  C5_9 
REMARK    6  A    between atoms: C5_9  and  C6_10 
REMARK    7  A    between atoms: C6_10  and  C7_11 
REMARK    8  A    between atoms: C7_11  and  O2_12 
REMARK    9  A    between atoms: C24_31  and  C26_33 
REMARK   10  A    between atoms: C26_33  and  C27_34 
REMARK   11  A    between atoms: C27_34  and  C28_35 
ROOT
HETATM    1  C5  UNL     1       2.688   0.284   0.335  1.00  0.00     0.019 C 
HETATM    2  C8  UNL     1       1.312   0.433  -0.266  1.00  0.00     0.026 C 
HETATM    3  C9  UNL     1       0.298  -0.598  -0.386  1.00  0.00    -0.025 C 
HETATM    4  C10 UNL     1      -0.353  -1.506   0.466  1.00  0.00     0.013 C 
HETATM    5  C11 UNL     1      -0.255  -1.723   1.926  1.00  0.00     0.036 C 
HETATM    6  C12 UNL     1       0.169  -0.425   2.503  1.00  0.00     0.156 C 
HETATM    7  O3  UNL     1       1.303  -0.185   1.974  1.00  0.00    -0.371 OA
HETATM    8  C13 UNL     1       2.288  -0.797   1.356  1.00  0.00     0.068 C 
HETATM    9  C14 UNL     1       3.377  -0.881   2.457  1.00  0.00     0.047 C 
HETATM   10  C15 UNL     1       2.391  -2.043   0.643  1.00  0.00     0.039 C 
HETATM   11  C16 UNL     1       1.760  -2.515  -0.574  1.00  0.00     0.009 C 
HETATM   12  C17 UNL     1       0.942  -1.546  -1.421  1.00  0.00     0.006 C 
HETATM   13  C18 UNL     1       0.090  -2.214  -2.406  1.00  0.00    -0.026 C 
HETATM   14  C19 UNL     1       0.788  -2.223  -3.820  1.00  0.00     0.019 C 
HETATM   15  C20 UNL     1      -0.173  -3.691  -2.246  1.00  0.00     0.019 C 
HETATM   16  C21 UNL     1      -1.165  -1.527  -2.761  1.00  0.00    -0.021 C 
HETATM   17  C22 UNL     1      -1.506  -0.442  -2.131  1.00  0.00    -0.022 C 
HETATM   18  C23 UNL     1      -0.817   0.264  -1.054  1.00  0.00     0.051 C 
HETATM   19  C24 UNL     1      -1.682   0.988  -0.047  1.00  0.00     0.066 C 
HETATM   20  C25 UNL     1      -1.365   2.515  -0.241  1.00  0.00     0.047 C 
HETATM   21  O4  UNL     1      -1.553   0.705   1.201  1.00  0.00    -0.367 OA
HETATM   22  C32 UNL     1      -1.086   0.442   2.311  1.00  0.00     0.081 C 
HETATM   23  C33 UNL     1      -2.177  -0.413   3.055  1.00  0.00     0.048 C 
HETATM   24  C34 UNL     1      -1.094   1.620   3.314  1.00  0.00     0.048 C 
ENDROOT
BRANCH   1  25
HETATM   25  C4  UNL     1       3.772   0.034  -0.578  1.00  0.00     0.131 C 
BRANCH  25  26
HETATM   26  C3  UNL     1       4.204   0.918  -1.657  1.00  0.00     0.052 C 
BRANCH  26  27
HETATM   27  C2  UNL     1       4.953   2.166  -1.430  1.00  0.00     0.120 C 
BRANCH  27  28
HETATM   28  N1  UNL     1       5.196   2.704  -2.793  1.00  0.00    -0.408 N 
HETATM   29  C1  UNL     1       4.208   3.376  -3.298  1.00  0.00     0.112 C 
ATOM     30  H1  UNL     1       6.072   2.556  -3.293  1.00  0.00     0.157 HD
ENDBRANCH  27  28
ENDBRANCH  26  27
ENDBRANCH  25  26
BRANCH  25  31
HETATM   31  O1  UNL     1       4.972  -0.289   0.143  1.00  0.00    -0.395 OA
ATOM     32  H1  UNL     1       4.691  -0.864   0.845  1.00  0.00     0.210 HD
ENDBRANCH  25  31
ENDBRANCH   1  25
BRANCH   1  33
HETATM   33  C6  UNL     1       3.143   1.570   1.008  1.00  0.00     0.041 C 
BRANCH  33  34
HETATM   34  C7  UNL     1       2.433   2.209   2.080  1.00  0.00     0.165 C 
BRANCH  34  35
HETATM   35  O2  UNL     1       3.201   3.375   2.389  1.00  0.00    -0.401 OA
ATOM     36  H2  UNL     1       2.731   3.798   3.098  1.00  0.00     0.209 HD
ENDBRANCH  34  35
ENDBRANCH  33  34
ENDBRANCH   1  33
BRANCH  19  37
HETATM   37  C26 UNL     1      -3.161   0.998  -0.359  1.00  0.00     0.042 C 
BRANCH  37  38
HETATM   38  C27 UNL     1      -4.028  -0.141  -0.447  1.00  0.00     0.030 C 
BRANCH  38  39
HETATM   39  C28 UNL     1      -5.381   0.409  -0.814  1.00  0.00    -0.025 C 
HETATM   40  C29 UNL     1      -6.392   0.190   0.007  1.00  0.00    -0.091 C 
HETATM   41  C30 UNL     1      -7.736   0.740  -0.364  1.00  0.00     0.042 C 
HETATM   42  C31 UNL     1      -6.271  -0.563   1.262  1.00  0.00     0.042 C 
ENDBRANCH  38  39
ENDBRANCH  37  38
ENDBRANCH  19  37
TORSDOF 11
