REMARK  0 active torsions:
REMARK  status: ('A' for Active; 'I' for Inactive)
ROOT
HETATM    1  C1  UNL     1       2.937  -0.018  -0.381  1.00  0.00     0.070 C 
HETATM    2  C2  UNL     1       1.563  -0.005   0.175  1.00  0.00     0.318 C 
HETATM    3  N1  UNL     1       0.679   0.961  -0.441  1.00  0.00    -0.039 N 
ATOM      4  H11 UNL     1       0.743   1.038  -1.456  1.00  0.00     0.281 HD
ATOM      5  H12 UNL     1       0.904   1.941  -0.270  1.00  0.00     0.281 HD
HETATM    6  C3  UNL     1      -0.616   0.499   0.086  1.00  0.00     0.147 C 
HETATM    7  C4  UNL     1      -0.841   1.262   1.392  1.00  0.00     0.049 C 
HETATM    8  C5  UNL     1      -1.668   0.859  -0.882  1.00  0.00     0.049 C 
HETATM    9  C6  UNL     1      -0.378  -0.932   0.329  1.00  0.00     0.155 C 
HETATM   10  C7  UNL     1      -1.314  -1.895  -0.276  1.00  0.00     0.042 C 
HETATM   11  O1  UNL     1       0.916  -1.209  -0.172  1.00  0.00    -0.352 OA
ENDROOT
TORSDOF 0
