REMARK  1 active torsions:
REMARK  status: ('A' for Active; 'I' for Inactive)
REMARK    1  A    between atoms: C5_6  and  O2_7 
ROOT
HETATM    1  C1  UNL     1       2.429   0.833  -0.332  1.00  0.00     0.040 C 
HETATM    2  C2  UNL     1       1.010   0.518  -0.588  1.00  0.00     0.124 C 
HETATM    3  O1  UNL     1       0.105   1.284   0.153  1.00  0.00    -0.378 OA
HETATM    4  C3  UNL     1      -1.108   0.759  -0.299  1.00  0.00     0.147 C 
HETATM    5  C4  UNL     1      -2.263   1.126   0.591  1.00  0.00     0.042 C 
HETATM    6  C5  UNL     1      -0.930  -0.748  -0.339  1.00  0.00     0.152 C 
HETATM    7  C6  UNL     1       0.592  -0.877  -0.183  1.00  0.00     0.041 C 
HETATM    8  C7  UNL     1       0.873  -1.191   1.250  1.00  0.00     0.015 C 
ENDROOT
BRANCH   6   9
HETATM    9  O2  UNL     1      -1.305  -1.163  -1.626  1.00  0.00    -0.393 OA
ATOM     10  H2  UNL     1      -1.194  -2.106  -1.651  1.00  0.00     0.210 HD
ENDBRANCH   6   9
TORSDOF 1
