REMARK  10 active torsions:
REMARK  status: ('A' for Active; 'I' for Inactive)
REMARK    1  A    between atoms: C2_2  and  C3_3 
REMARK    2  A    between atoms: C3_3  and  C4_4 
REMARK    3  A    between atoms: C4_4  and  C6_6 
REMARK    4  A    between atoms: C8_11  and  C9_12 
REMARK    5  A    between atoms: C9_12  and  C10_13 
REMARK    6  A    between atoms: C14_20  and  C15_21 
REMARK    7  A    between atoms: C15_21  and  C16_22 
REMARK    8  A    between atoms: C19_27  and  O3_28 
REMARK    9  A    between atoms: C20_30  and  C22_32 
REMARK   10  A    between atoms: C22_32  and  C23_33 
ROOT
HETATM    1  C6  UNL     1       2.427  -0.869  -0.918  1.00  0.00     0.180 C 
HETATM    2  N1  UNL     1       2.397   0.210  -0.004  1.00  0.00    -0.346 N 
ATOM      3  H1  UNL     1       3.016   0.104   0.800  1.00  0.00     0.163 HD
HETATM    4  C7  UNL     1       1.653   1.408  -0.020  1.00  0.00     0.241 C 
HETATM    5  O1  UNL     1       1.683   2.037   1.113  1.00  0.00    -0.271 OA
HETATM    6  C8  UNL     1       0.880   2.019  -1.088  1.00  0.00     0.177 C 
HETATM    7  N2  UNL     1      -0.273   1.271  -1.546  1.00  0.00    -0.346 N 
ATOM      8  H2  UNL     1      -0.103   0.590  -2.286  1.00  0.00     0.163 HD
HETATM    9  C13 UNL     1      -1.603   1.375  -1.088  1.00  0.00     0.241 C 
HETATM   10  O2  UNL     1      -2.603   1.454  -1.892  1.00  0.00    -0.271 OA
HETATM   11  C14 UNL     1      -2.014   1.404   0.367  1.00  0.00     0.175 C 
HETATM   12  N3  UNL     1      -3.061   0.458   0.635  1.00  0.00    -0.359 N 
ATOM     13  H3  UNL     1      -3.986   0.862   0.488  1.00  0.00     0.162 HD
HETATM   14  C19 UNL     1      -3.134  -0.860   1.041  1.00  0.00     0.140 C 
HETATM   15  C20 UNL     1      -2.881  -2.158   0.377  1.00  0.00     0.094 C 
HETATM   16  C21 UNL     1      -2.327  -2.063  -1.016  1.00  0.00     0.048 C 
HETATM   17  N4  UNL     1      -1.899  -2.979   1.076  1.00  0.00    -0.343 N 
ATOM     18  H4  UNL     1      -1.995  -3.982   0.918  1.00  0.00     0.163 HD
HETATM   19  C26 UNL     1      -0.860  -2.627   1.917  1.00  0.00     0.241 C 
HETATM   20  O4  UNL     1      -0.886  -3.099   3.112  1.00  0.00    -0.271 OA
HETATM   21  C27 UNL     1       0.315  -1.753   1.615  1.00  0.00     0.172 C 
HETATM   22  C28 UNL     1       1.014  -1.329   2.874  1.00  0.00     0.042 C 
HETATM   23  N5  UNL     1       1.293  -2.453   0.790  1.00  0.00    -0.346 N 
ATOM     24  H5  UNL     1       1.682  -3.306   1.191  1.00  0.00     0.163 HD
HETATM   25  C29 UNL     1       1.767  -2.106  -0.481  1.00  0.00     0.241 C 
HETATM   26  O5  UNL     1       1.599  -2.999  -1.397  1.00  0.00    -0.271 OA
ENDROOT
BRANCH   1  27
HETATM   27  C4  UNL     1       3.855  -1.140  -1.412  1.00  0.00     0.013 C 
HETATM   28  C5  UNL     1       3.878  -2.280  -2.407  1.00  0.00     0.012 C 
BRANCH  27  29
HETATM   29  C3  UNL     1       4.762  -1.487  -0.275  1.00  0.00     0.006 C 
BRANCH  29  30
HETATM   30  C2  UNL     1       6.192  -1.714  -0.726  1.00  0.00    -0.004 C 
HETATM   31  C1  UNL     1       6.981  -2.057   0.547  1.00  0.00     0.005 C 
ENDBRANCH  29  30
ENDBRANCH  27  29
ENDBRANCH   1  27
BRANCH   6  32
HETATM   32  C9  UNL     1       1.617   2.493  -2.295  1.00  0.00     0.038 C 
BRANCH  32  33
HETATM   33  C10 UNL     1       2.632   3.534  -2.158  1.00  0.00    -0.020 C 
HETATM   34  C11 UNL     1       2.170   4.849  -1.602  1.00  0.00     0.009 C 
HETATM   35  C12 UNL     1       3.874   3.116  -1.417  1.00  0.00     0.009 C 
ENDBRANCH  32  33
ENDBRANCH   6  32
BRANCH  11  36
HETATM   36  C15 UNL     1      -2.422   2.847   0.583  1.00  0.00     0.038 C 
BRANCH  36  37
HETATM   37  C16 UNL     1      -2.871   3.257   1.913  1.00  0.00    -0.020 C 
HETATM   38  C17 UNL     1      -4.066   2.614   2.509  1.00  0.00     0.009 C 
HETATM   39  C18 UNL     1      -1.723   3.314   2.939  1.00  0.00     0.009 C 
ENDBRANCH  36  37
ENDBRANCH  11  36
BRANCH  15  40
HETATM   40  C22 UNL     1      -4.148  -2.996   0.421  1.00  0.00     0.043 C 
BRANCH  40  41
HETATM   41  C23 UNL     1      -5.374  -2.525  -0.197  1.00  0.00    -0.020 C 
HETATM   42  C24 UNL     1      -5.364  -2.247  -1.672  1.00  0.00     0.009 C 
HETATM   43  C25 UNL     1      -6.202  -1.520   0.574  1.00  0.00     0.009 C 
ENDBRANCH  40  41
ENDBRANCH  15  40
BRANCH  14  44
HETATM   44  O3  UNL     1      -3.503  -1.097   2.268  1.00  0.00    -0.348 OA
ATOM     45  H3  UNL     1      -3.553  -2.004   2.547  1.00  0.00     0.219 HD
ENDBRANCH  14  44
TORSDOF 10
