REMARK  10 active torsions:
REMARK  status: ('A' for Active; 'I' for Inactive)
REMARK    1  A    between atoms: C2_2  and  C4_4 
REMARK    2  A    between atoms: C4_4  and  C5_5 
REMARK    3  A    between atoms: C11_14  and  C12_15 
REMARK       I    between atoms: C12_15  and  N2_17 
REMARK    4  A    between atoms: N2_17  and  C13_19 
REMARK    5  A    between atoms: C13_19  and  C14_20 
REMARK    6  A    between atoms: C18_24  and  O3_25 
REMARK    7  A    between atoms: C18_24  and  C19_27 
REMARK       I    between atoms: C19_27  and  N3_29 
REMARK    8  A    between atoms: N3_29  and  C20_31 
REMARK    9  A    between atoms: C20_31  and  C21_32 
REMARK   10  A    between atoms: C21_32  and  N4_33 
ROOT
HETATM    1  C5  UNL     1      -0.254   2.909   0.694  1.00  0.00     0.177 C 
HETATM    2  N1  UNL     1       0.053   3.285  -0.646  1.00  0.00    -0.347 N 
ATOM      3  H1  UNL     1       1.031   3.524  -0.807  1.00  0.00     0.163 HD
HETATM    4  C6  UNL     1      -0.763   3.380  -1.773  1.00  0.00     0.222 C 
HETATM    5  O1  UNL     1      -0.788   4.533  -2.351  1.00  0.00    -0.273 OA
HETATM    6  C7  UNL     1      -1.613   2.361  -2.423  1.00  0.00     0.078 C 
HETATM    7  C8  UNL     1      -1.189   2.255  -3.867  1.00  0.00     0.020 C 
HETATM    8  C9  UNL     1      -1.878   1.106  -1.728  1.00  0.00     0.012 C 
HETATM    9  C10 UNL     1      -3.245   0.550  -2.218  1.00  0.00     0.012 C 
HETATM   10  C11 UNL     1      -0.949  -0.042  -1.824  1.00  0.00     0.148 C 
HETATM   11  C18 UNL     1       0.300  -0.010  -1.023  1.00  0.00     0.230 C 
HETATM   12  N5  UNL     1       0.048   0.355   0.344  1.00  0.00    -0.319 N 
ATOM     13  H5  UNL     1      -0.363  -0.387   0.910  1.00  0.00     0.166 HD
HETATM   14  C25 UNL     1       0.269   1.549   1.030  1.00  0.00     0.243 C 
HETATM   15  O5  UNL     1       1.007   1.486   2.077  1.00  0.00    -0.271 OA
ENDROOT
BRANCH  11  16
HETATM   16  O3  UNL     1       1.288   0.790  -1.638  1.00  0.00    -0.362 OA
ATOM     17  H3  UNL     1       2.087   0.810  -1.125  1.00  0.00     0.213 HD
ENDBRANCH  11  16
BRANCH  11  18
HETATM   18  C19 UNL     1       0.976  -1.344  -1.020  1.00  0.00     0.274 C 
HETATM   19  O4  UNL     1       0.370  -2.221  -0.386  1.00  0.00    -0.268 OA
HETATM   20  N3  UNL     1       2.183  -1.658  -1.651  1.00  0.00    -0.355 N 
ATOM     21  H3  UNL     1       2.638  -0.899  -2.159  1.00  0.00     0.162 HD
BRANCH  20  22
HETATM   22  C20 UNL     1       2.845  -2.905  -1.666  1.00  0.00     0.150 C 
BRANCH  22  23
HETATM   23  C21 UNL     1       3.252  -3.468  -0.345  1.00  0.00     0.255 C 
BRANCH  23  24
HETATM   24  N4  UNL     1       4.143  -2.683   0.430  1.00  0.00    -0.077 N 
HETATM   25  C22 UNL     1       4.539  -1.419  -0.115  1.00  0.00     0.271 C 
HETATM   26  C23 UNL     1       5.332  -3.457   0.813  1.00  0.00     0.271 C 
HETATM   27  C24 UNL     1       3.495  -2.371   1.717  1.00  0.00     0.271 C 
ENDBRANCH  23  24
ENDBRANCH  22  23
ENDBRANCH  20  22
ENDBRANCH  11  18
BRANCH  10  28
HETATM   28  C12 UNL     1      -1.715  -1.269  -1.497  1.00  0.00     0.227 C 
HETATM   29  O2  UNL     1      -1.713  -2.295  -2.273  1.00  0.00    -0.273 OA
HETATM   30  N2  UNL     1      -2.511  -1.424  -0.317  1.00  0.00    -0.360 N 
ATOM     31  H2  UNL     1      -2.567  -0.650   0.345  1.00  0.00     0.162 HD
BRANCH  30  32
HETATM   32  C13 UNL     1      -3.237  -2.638  -0.033  1.00  0.00     0.131 C 
BRANCH  32  33
HETATM   33  C14 UNL     1      -4.001  -2.590   1.246  1.00  0.00    -0.035 C 
HETATM   34  C15 UNL     1      -5.034  -1.510   1.312  1.00  0.00     0.016 C 
HETATM   35  C16 UNL     1      -3.016  -2.511   2.406  1.00  0.00     0.016 C 
HETATM   36  C17 UNL     1      -4.721  -3.926   1.401  1.00  0.00     0.016 C 
ENDBRANCH  32  33
ENDBRANCH  30  32
ENDBRANCH  10  28
BRANCH   1  37
HETATM   37  C4  UNL     1       0.104   3.901   1.747  1.00  0.00     0.038 C 
BRANCH  37  38
HETATM   38  C2  UNL     1       1.497   4.343   1.935  1.00  0.00    -0.020 C 
HETATM   39  C1  UNL     1       1.540   5.324   3.158  1.00  0.00     0.009 C 
HETATM   40  C3  UNL     1       1.884   5.300   0.794  1.00  0.00     0.009 C 
ENDBRANCH  37  38
ENDBRANCH   1  37
TORSDOF 10
