REMARK  5 active torsions:
REMARK  status: ('A' for Active; 'I' for Inactive)
REMARK    1  A    between atoms: O1_2  and  C2_3 
REMARK    2  A    between atoms: C4_5  and  N1_6 
REMARK    3  A    between atoms: C13_15  and  C15_17 
REMARK    4  A    between atoms: C15_17  and  O2_18 
REMARK    5  A    between atoms: O2_18  and  C16_19 
ROOT
HETATM    1  C2  UNL     1      -2.329  -0.852  -1.656  1.00  0.00     0.261 C 
HETATM    2  C3  UNL     1      -3.319  -0.089  -0.833  1.00  0.00     0.094 C 
HETATM    3  C4  UNL     1      -2.924   0.005   0.644  1.00  0.00     0.200 C 
HETATM    4  C8  UNL     1      -1.573   0.664   0.729  1.00  0.00     0.047 C 
HETATM    5  C9  UNL     1      -0.838   0.375   2.013  1.00  0.00     0.009 C 
HETATM    6  C10 UNL     1      -0.338  -1.015   2.120  1.00  0.00     0.001 C 
HETATM    7  C11 UNL     1       0.756  -1.395   1.181  1.00  0.00     0.006 C 
HETATM    8  C12 UNL     1       1.464  -0.218   0.554  1.00  0.00     0.006 C 
HETATM    9  C13 UNL     1       2.864  -0.576   0.087  1.00  0.00    -0.018 C 
HETATM   10  C14 UNL     1       3.524  -1.553   1.073  1.00  0.00     0.018 C 
HETATM   11  C18 UNL     1       2.916  -1.227  -1.246  1.00  0.00     0.012 C 
HETATM   12  C19 UNL     1       1.676  -1.114  -2.062  1.00  0.00     0.002 C 
HETATM   13  C20 UNL     1       1.139   0.286  -1.893  1.00  0.00     0.012 C 
HETATM   14  C21 UNL     1       0.679   0.525  -0.444  1.00  0.00    -0.013 C 
HETATM   15  C22 UNL     1       0.870   2.035  -0.227  1.00  0.00     0.018 C 
HETATM   16  C23 UNL     1      -0.802   0.301  -0.484  1.00  0.00     0.139 C 
HETATM   17  O4  UNL     1      -1.146  -0.958  -0.978  1.00  0.00    -0.355 OA
ENDROOT
BRANCH   9  18
HETATM   18  C15 UNL     1       3.771   0.660   0.175  1.00  0.00     0.188 C 
BRANCH  18  19
HETATM   19  O2  UNL     1       5.076   0.268  -0.273  1.00  0.00    -0.321 OA
BRANCH  19  20
HETATM   20  C16 UNL     1       6.092   1.182  -0.299  1.00  0.00     0.254 C 
HETATM   21  C17 UNL     1       7.481   0.844  -0.756  1.00  0.00     0.126 C 
HETATM   22  O3  UNL     1       5.855   2.359   0.075  1.00  0.00    -0.266 OA
ENDBRANCH  19  20
ENDBRANCH  18  19
ENDBRANCH   9  18
BRANCH   3  23
HETATM   23  N1  UNL     1      -3.978   0.677   1.320  1.00  0.00    -0.074 N 
HETATM   24  C5  UNL     1      -4.206   0.163   2.674  1.00  0.00     0.272 C 
HETATM   25  C6  UNL     1      -3.813   2.124   1.415  1.00  0.00     0.272 C 
HETATM   26  C7  UNL     1      -5.283   0.512   0.648  1.00  0.00     0.272 C 
ENDBRANCH   3  23
BRANCH   1  27
HETATM   27  O1  UNL     1      -2.819  -2.059  -2.126  1.00  0.00    -0.366 OA
HETATM   28  C1  UNL     1      -2.905  -2.128  -3.501  1.00  0.00     0.204 C 
ENDBRANCH   1  27
TORSDOF 5
