REMARK  11 active torsions:
REMARK  status: ('A' for Active; 'I' for Inactive)
REMARK    1  A    between atoms: N1_1  and  C1_4 
REMARK    2  A    between atoms: C3_8  and  C4_9 
REMARK    3  A    between atoms: C5_12  and  C6_13 
REMARK    4  A    between atoms: C6_13  and  C7_14 
REMARK    5  A    between atoms: C7_14  and  C8_15 
REMARK    6  A    between atoms: C8_15  and  C9_16 
REMARK    7  A    between atoms: C10_17  and  C11_18 
REMARK    8  A    between atoms: C11_18  and  O1_19 
REMARK    9  A    between atoms: C11_18  and  N4_21 
REMARK   10  A    between atoms: N4_21  and  N5_23 
REMARK   11  A    between atoms: N7_32  and  N8_33 
ROOT
HETATM    1  C7  UNL     1      -0.754  -1.097  -1.316  1.00  0.00     0.013 C 
ENDROOT
BRANCH   1   2
HETATM    2  C6  UNL     1      -0.345  -1.921  -0.116  1.00  0.00     0.079 C 
BRANCH   2   3
HETATM    3  C5  UNL     1       1.123  -1.714   0.086  1.00  0.00     0.104 A 
HETATM    4  N3  UNL     1       1.805  -0.488   0.341  1.00  0.00    -0.323 N 
HETATM    5  C4  UNL     1       3.080  -0.694   0.463  1.00  0.00     0.189 A 
ATOM      6  H3  UNL     1       1.354   0.423   0.417  1.00  0.00     0.169 HD
HETATM    7  O4  UNL     1       3.280  -2.063   0.293  1.00  0.00    -0.217 OA
HETATM    8  N9  UNL     1       2.055  -2.609   0.070  1.00  0.00    -0.247 N 
ATOM      9  H9  UNL     1       1.892  -3.603  -0.090  1.00  0.00     0.196 HD
BRANCH   5  10
HETATM   10  C3  UNL     1       4.138   0.256   0.722  1.00  0.00     0.102 A 
HETATM   11  C2  UNL     1       5.459  -0.115   0.829  1.00  0.00     0.127 A 
HETATM   12  N2  UNL     1       6.400   0.843   1.076  1.00  0.00    -0.201 N 
HETATM   13  C1  UNL     1       6.056   2.139   1.218  1.00  0.00     0.678 A 
ATOM     14  H2  UNL     1       7.381   0.574   1.154  1.00  0.00     0.183 HD
HETATM   15  N10 UNL     1       4.771   2.525   1.118  1.00  0.00    -0.156 N 
HETATM   16  C14 UNL     1       3.833   1.585   0.873  1.00  0.00     0.275 A 
ATOM     17  H10 UNL     1       4.511   3.506   1.225  1.00  0.00     0.187 HD
HETATM   18  O5  UNL     1       2.641   1.986   0.787  1.00  0.00    -0.267 OA
BRANCH  13  19
HETATM   19  N1  UNL     1       6.962   3.015   1.450  1.00  0.00    -0.234 N 
ATOM     20  H12 UNL     1       7.936   2.722   1.526  1.00  0.00     0.174 HD
ATOM     21  H11 UNL     1       6.702   3.995   1.557  1.00  0.00     0.174 HD
ENDBRANCH  13  19
ENDBRANCH   5  10
ENDBRANCH   2   3
ENDBRANCH   1   2
BRANCH   1  22
HETATM   22  C8  UNL     1      -2.225  -1.220  -1.628  1.00  0.00     0.061 C 
BRANCH  22  23
HETATM   23  C9  UNL     1      -3.158  -0.813  -0.619  1.00  0.00     0.058 A 
HETATM   24  C10 UNL     1      -3.450   0.458  -0.269  1.00  0.00     0.109 A 
HETATM   25  C12 UNL     1      -4.381   0.708   0.779  1.00  0.00     0.266 A 
HETATM   26  O2  UNL     1      -4.665   1.876   1.118  1.00  0.00    -0.267 OA
HETATM   27  N6  UNL     1      -4.971  -0.289   1.423  1.00  0.00    -0.273 N 
HETATM   28  C13 UNL     1      -4.672  -1.545   1.064  1.00  0.00     0.348 A 
ATOM     29  H6  UNL     1      -5.637  -0.105   2.174  1.00  0.00     0.173 HD
HETATM   30  O3  UNL     1      -5.247  -2.475   1.692  1.00  0.00    -0.245 OA
HETATM   31  N7  UNL     1      -3.797  -1.810   0.079  1.00  0.00    -0.215 N 
BRANCH  24  32
HETATM   32  C11 UNL     1      -2.914   1.605  -0.920  1.00  0.00     0.172 C 
BRANCH  32  33
HETATM   33  O1  UNL     1      -2.906   2.679  -0.174  1.00  0.00    -0.344 OA
ATOM     34  H1  UNL     1      -2.548   3.444  -0.608  1.00  0.00     0.219 HD
ENDBRANCH  32  33
BRANCH  32  35
HETATM   35  N4  UNL     1      -2.401   1.823  -2.185  1.00  0.00    -0.286 N 
ATOM     36  H4  UNL     1      -2.366   1.053  -2.853  1.00  0.00     0.188 HD
BRANCH  35  37
HETATM   37  N5  UNL     1      -1.914   3.125  -2.575  1.00  0.00    -0.343 N 
ATOM     38  H52 UNL     1      -1.956   3.884  -1.895  1.00  0.00     0.176 HD
ATOM     39  H51 UNL     1      -1.535   3.286  -3.508  1.00  0.00     0.176 HD
ENDBRANCH  35  37
ENDBRANCH  32  35
ENDBRANCH  24  32
BRANCH  31  40
HETATM   40  N8  UNL     1      -3.552  -3.130  -0.219  1.00  0.00    -0.334 N 
ATOM     41  H82 UNL     1      -2.888  -3.331  -0.967  1.00  0.00     0.177 HD
ATOM     42  H81 UNL     1      -4.026  -3.870   0.299  1.00  0.00     0.177 HD
ENDBRANCH  31  40
ENDBRANCH  22  23
ENDBRANCH   1  22
TORSDOF 11
