REMARK  10 active torsions:
REMARK  status: ('A' for Active; 'I' for Inactive)
REMARK    1  A    between atoms: C2_2  and  N1_4 
REMARK    2  A    between atoms: C2_2  and  C13_25 
REMARK       I    between atoms: N1_4  and  C4_6 
REMARK    3  A    between atoms: C4_6  and  C5_8 
REMARK    4  A    between atoms: C11_21  and  C12_22 
REMARK    5  A    between atoms: C13_25  and  O4_26 
REMARK    6  A    between atoms: C13_25  and  C14_28 
REMARK    7  A    between atoms: C14_28  and  C15_30 
REMARK    8  A    between atoms: C15_30  and  C16_32 
REMARK    9  A    between atoms: C16_32  and  N6_33 
REMARK   10  A    between atoms: C16_32  and  O7_37 
ROOT
HETATM    1  N1  UNL     1       0.063   0.118  -0.161  1.00  0.00    -0.345 N 
ATOM      2  H1  UNL     1       0.398  -0.527  -0.877  1.00  0.00     0.163 HD
HETATM    3  C4  UNL     1       1.070   0.590   0.683  1.00  0.00     0.253 C 
HETATM    4  O1  UNL     1       0.842   1.399   1.608  1.00  0.00    -0.268 OA
ENDROOT
BRANCH   1   5
HETATM    5  C2  UNL     1      -1.318   0.354  -0.220  1.00  0.00     0.059 C 
HETATM    6  C1  UNL     1      -1.917  -0.411  -1.441  1.00  0.00     0.041 C 
HETATM    7  C3  UNL     1      -1.668   1.803  -0.469  1.00  0.00     0.041 C 
BRANCH   5   8
HETATM    8  C13 UNL     1      -2.135  -0.130   0.980  1.00  0.00     0.223 C 
BRANCH   8   9
HETATM    9  O4  UNL     1      -1.617   0.594   2.082  1.00  0.00    -0.385 OA
ATOM     10  H4  UNL     1      -2.124   0.294   2.827  1.00  0.00     0.210 HD
ENDBRANCH   8   9
BRANCH   8  11
HETATM   11  C14 UNL     1      -3.545   0.313   0.837  1.00  0.00     0.230 C 
HETATM   12  O5  UNL     1      -3.840   1.481   1.286  1.00  0.00    -0.286 OA
BRANCH  11  13
HETATM   13  C15 UNL     1      -4.634  -0.413   0.255  1.00  0.00     0.253 C 
HETATM   14  O6  UNL     1      -4.546  -1.617  -0.120  1.00  0.00    -0.284 OA
BRANCH  13  15
HETATM   15  C16 UNL     1      -5.990   0.189   0.028  1.00  0.00     0.395 C 
BRANCH  15  16
HETATM   16  N6  UNL     1      -6.938  -0.571   0.817  1.00  0.00    -0.045 N 
ATOM     17  H63 UNL     1      -6.908  -1.571   0.621  1.00  0.00     0.277 HD
ATOM     18  H62 UNL     1      -6.685  -0.622   1.804  1.00  0.00     0.277 HD
ATOM     19  H61 UNL     1      -7.860  -0.162   0.663  1.00  0.00     0.277 HD
ENDBRANCH  15  16
BRANCH  15  20
HETATM   20  O7  UNL     1      -6.002   1.531   0.327  1.00  0.00    -0.364 OA
ATOM     21  H7  UNL     1      -6.860   1.912   0.183  1.00  0.00     0.212 HD
ENDBRANCH  15  20
ENDBRANCH  13  15
ENDBRANCH  11  13
ENDBRANCH   8  11
ENDBRANCH   5   8
ENDBRANCH   1   5
BRANCH   3  22
HETATM   22  C5  UNL     1       2.482   0.136   0.534  1.00  0.00     0.049 A 
HETATM   23  C6  UNL     1       2.970  -0.731   1.540  1.00  0.00     0.050 A 
HETATM   24  C7  UNL     1       4.224  -1.291   1.418  1.00  0.00     0.066 A 
HETATM   25  N2  UNL     1       4.731  -2.138   2.350  1.00  0.00    -0.285 N 
HETATM   26  C9  UNL     1       4.963  -0.978   0.305  1.00  0.00     0.062 A 
HETATM   27  N3  UNL     1       5.951  -2.671   2.186  1.00  0.00    -0.239 N 
ATOM     28  H2  UNL     1       4.182  -2.370   3.178  1.00  0.00     0.188 HD
HETATM   29  N4  UNL     1       6.694  -2.396   1.129  1.00  0.00    -0.251 N 
ATOM     30  H3  UNL     1       6.315  -3.306   2.897  1.00  0.00     0.208 HD
HETATM   31  C8  UNL     1       6.216  -1.561   0.194  1.00  0.00     0.273 A 
ATOM     32  H4  UNL     1       7.619  -2.813   1.025  1.00  0.00     0.192 HD
HETATM   33  O2  UNL     1       6.887  -1.269  -0.832  1.00  0.00    -0.266 OA
HETATM   34  C10 UNL     1       4.480  -0.132  -0.664  1.00  0.00     0.037 A 
HETATM   35  C11 UNL     1       3.197   0.460  -0.569  1.00  0.00     0.046 A 
BRANCH  35  36
HETATM   36  C12 UNL     1       2.789   1.392  -1.605  1.00  0.00     0.266 C 
HETATM   37  N5  UNL     1       3.590   1.556  -2.749  1.00  0.00    -0.057 NA
HETATM   38  O3  UNL     1       1.747   2.069  -1.532  1.00  0.00    -0.271 OA
ENDBRANCH  35  36
ENDBRANCH   3  22
TORSDOF 10
