REMARK  6 active torsions:
REMARK  status: ('A' for Active; 'I' for Inactive)
REMARK    1  A    between atoms: C3_3  and  N1_4 
REMARK    2  A    between atoms: N1_4  and  C6_7 
REMARK    3  A    between atoms: C6_7  and  C7_8 
REMARK    4  A    between atoms: C7_8  and  N2_9 
REMARK    5  A    between atoms: N2_9  and  C8_11 
REMARK    6  A    between atoms: C10_18  and  N5_19 
REMARK       I    between atoms: N5_19  and  C11_21 
ROOT
HETATM    1  C1  UNL     1      -6.141   1.385   0.293  1.00  0.00     0.013 C 
HETATM    2  C2  UNL     1      -5.011   1.125  -0.007  1.00  0.00    -0.089 C 
HETATM    3  C3  UNL     1      -3.632   0.827  -0.389  1.00  0.00     0.329 C 
ENDROOT
BRANCH   3   4
HETATM    4  N1  UNL     1      -3.155  -0.402   0.219  1.00  0.00    -0.063 N 
HETATM    5  C4  UNL     1      -4.035  -1.489  -0.169  1.00  0.00     0.273 C 
HETATM    6  C5  UNL     1      -3.198  -0.316   1.675  1.00  0.00     0.273 C 
BRANCH   4   7
HETATM    7  C6  UNL     1      -1.846  -0.698  -0.279  1.00  0.00     0.257 C 
BRANCH   7   8
HETATM    8  C7  UNL     1      -1.040   0.537  -0.599  1.00  0.00     0.166 C 
BRANCH   8   9
HETATM    9  N2  UNL     1       0.252   0.156  -1.089  1.00  0.00    -0.224 N 
ATOM     10  H2  UNL     1       0.312  -0.194  -2.045  1.00  0.00     0.177 HD
BRANCH   9  11
HETATM   11  C8  UNL     1       1.339   0.224  -0.408  1.00  0.00     0.695 A 
HETATM   12  N3  UNL     1       1.388   0.669   0.864  1.00  0.00    -0.165 N 
HETATM   13  C9  UNL     1       2.520   0.734   1.557  1.00  0.00     0.208 A 
ATOM     14  H3  UNL     1       0.522   0.968   1.312  1.00  0.00     0.186 HD
HETATM   15 CL1  UNL     1       2.631   1.304   3.208  1.00  0.00    -0.044 Cl
HETATM   16  N4  UNL     1       3.652   0.334   0.942  1.00  0.00    -0.164 N 
HETATM   17  C10 UNL     1       3.634  -0.113  -0.321  1.00  0.00     0.701 A 
ATOM     18  H4  UNL     1       4.537   0.372   1.447  1.00  0.00     0.186 HD
HETATM   19  N8  UNL     1       2.469  -0.173  -1.016  1.00  0.00    -0.022 N 
ATOM     20  H8  UNL     1       2.452  -0.512  -1.978  1.00  0.00     0.203 HD
BRANCH  17  21
HETATM   21  N5  UNL     1       4.686  -0.504  -0.948  1.00  0.00    -0.163 N 
HETATM   22  C11 UNL     1       5.942  -0.484  -0.325  1.00  0.00     0.200 C 
HETATM   23  N6  UNL     1       6.473  -1.627   0.014  1.00  0.00    -0.373 N 
HETATM   24  N7  UNL     1       6.618   0.731  -0.069  1.00  0.00    -0.063 NA
ATOM     25  H62 UNL     1       5.985  -2.504  -0.171  1.00  0.00     0.158 HD
ATOM     26  H61 UNL     1       7.387  -1.612   0.467  1.00  0.00     0.158 HD
ATOM     27  H5  UNL     1       4.606  -0.833  -1.910  1.00  0.00     0.187 HD
ENDBRANCH  17  21
ENDBRANCH   9  11
ENDBRANCH   8   9
ENDBRANCH   7   8
ENDBRANCH   4   7
ENDBRANCH   3   4
TORSDOF 6
