REMARK  3 active torsions:
REMARK  status: ('A' for Active; 'I' for Inactive)
REMARK    1  A    between atoms: N1_3  and  C3_5 
REMARK    2  A    between atoms: C3_5  and  C6_8 
REMARK    3  A    between atoms: C8_13  and  C9_14 
ROOT
HETATM    1  C1  UNL     1      -5.920  -1.049  -0.593  1.00  0.00     0.037 C 
HETATM    2  C2  UNL     1      -4.741  -0.792  -0.729  1.00  0.00    -0.005 C 
HETATM    3  N1  UNL     1      -3.378  -0.503  -0.874  1.00  0.00    -0.341 N 
ATOM      4  H1  UNL     1      -2.875  -0.849  -1.692  1.00  0.00     0.170 HD
ENDROOT
BRANCH   3   5
HETATM    5  C3  UNL     1      -2.674   0.277   0.117  1.00  0.00     0.044 C 
HETATM    6  C4  UNL     1      -3.326   1.659   0.228  1.00  0.00     0.039 C 
HETATM    7  C5  UNL     1      -2.805  -0.383   1.442  1.00  0.00     0.039 C 
BRANCH   5   8
HETATM    8  C6  UNL     1      -1.267   0.493  -0.336  1.00  0.00     0.101 C 
HETATM    9  C7  UNL     1      -0.479  -0.751  -0.545  1.00  0.00     0.251 C 
HETATM   10  N2  UNL     1       0.834  -0.689   0.069  1.00  0.00    -0.062 N 
HETATM   11  C8  UNL     1       1.665   0.338  -0.491  1.00  0.00     0.261 C 
ATOM     12  H22 UNL     1       0.759  -0.586   1.081  1.00  0.00     0.278 HD
ATOM     13  H21 UNL     1       1.299  -1.596   0.029  1.00  0.00     0.278 HD
HETATM   14  C12 UNL     1       1.316   1.719   0.011  1.00  0.00     0.115 C 
HETATM   15  S1  UNL     1      -0.338   1.588   0.773  1.00  0.00    -0.158 SA
BRANCH  11  16
HETATM   16  C9  UNL     1       3.088   0.061  -0.100  1.00  0.00     0.105 C 
HETATM   17  N3  UNL     1       3.889   0.787   0.572  1.00  0.00    -0.377 N 
HETATM   18  C10 UNL     1       5.191   0.187   0.751  1.00  0.00     0.140 C 
ATOM     19  H3  UNL     1       3.637   1.701   0.947  1.00  0.00     0.160 HD
HETATM   20  C11 UNL     1       4.991  -1.234   0.355  1.00  0.00     0.140 C 
HETATM   21  N4  UNL     1       3.771  -1.135  -0.455  1.00  0.00    -0.377 N 
ATOM     22  H4  UNL     1       3.464  -1.811  -1.155  1.00  0.00     0.160 HD
ENDBRANCH  11  16
ENDBRANCH   5   8
ENDBRANCH   3   5
TORSDOF 3
