REMARK  2 active torsions:
REMARK  status: ('A' for Active; 'I' for Inactive)
REMARK       I    between atoms: C1_2  and  N1_3 
REMARK    1  A    between atoms: C1_2  and  C14_17 
REMARK    2  A    between atoms: N1_3  and  C2_5 
ROOT
HETATM    1  O1  UNL     1      -1.138   1.132  -1.377  1.00  0.00    -0.273 OA
HETATM    2  C1  UNL     1      -1.640   0.335  -0.514  1.00  0.00     0.226 C 
HETATM    3  N1  UNL     1      -0.757  -0.427   0.292  1.00  0.00    -0.356 N 
ATOM      4  H1  UNL     1      -1.148  -1.067   0.984  1.00  0.00     0.162 HD
ENDROOT
BRANCH   3   5
HETATM    5  C2  UNL     1       0.682  -0.326   0.164  1.00  0.00     0.084 C 
HETATM    6  C3  UNL     1       1.296   0.300   1.413  1.00  0.00     0.025 C 
HETATM    7  C4  UNL     1       2.133   1.513   1.083  1.00  0.00     0.002 C 
HETATM    8  C5  UNL     1       3.259   1.763   2.029  1.00  0.00     0.000 C 
HETATM    9  C6  UNL     1       4.542   2.135   1.285  1.00  0.00     0.000 C 
HETATM   10  C7  UNL     1       5.525   0.987   1.260  1.00  0.00     0.000 C 
HETATM   11  C8  UNL     1       5.884   0.563  -0.138  1.00  0.00     0.000 C 
HETATM   12  C9  UNL     1       5.491  -0.869  -0.436  1.00  0.00     0.000 C 
HETATM   13  C10 UNL     1       4.440  -0.964  -1.503  1.00  0.00     0.000 C 
HETATM   14  C11 UNL     1       3.439  -2.068  -1.244  1.00  0.00     0.000 C 
HETATM   15  C12 UNL     1       2.692  -1.855   0.053  1.00  0.00     0.002 C 
HETATM   16  C13 UNL     1       1.225  -1.693  -0.134  1.00  0.00     0.025 C 
ENDBRANCH   3   5
BRANCH   2  17
HETATM   17  C14 UNL     1      -3.097   0.224  -0.375  1.00  0.00     0.042 C 
HETATM   18  C15 UNL     1      -3.774   1.158  -1.345  1.00  0.00     0.024 C 
HETATM   19  C16 UNL     1      -5.275   1.068  -1.197  1.00  0.00    -0.013 C 
HETATM   20  C17 UNL     1      -5.744   1.298   0.206  1.00  0.00     0.009 C 
HETATM   21  C21 UNL     1      -5.665  -0.341  -1.622  1.00  0.00     0.009 C 
HETATM   22  C18 UNL     1      -5.047   0.317   1.126  1.00  0.00    -0.013 C 
HETATM   23  C19 UNL     1      -5.408  -1.092   0.734  1.00  0.00     0.009 C 
HETATM   24  C23 UNL     1      -3.568   0.534   1.025  1.00  0.00     0.024 C 
HETATM   25  C20 UNL     1      -4.995  -1.330  -0.712  1.00  0.00    -0.013 C 
HETATM   26  C22 UNL     1      -3.507  -1.190  -0.784  1.00  0.00     0.024 C 
ENDBRANCH   2  17
TORSDOF 2
