REMARK  7 active torsions:
REMARK  status: ('A' for Active; 'I' for Inactive)
REMARK    1  A    between atoms: C2_2  and  C4_4 
REMARK    2  A    between atoms: C4_4  and  C5_5 
REMARK    3  A    between atoms: C5_5  and  C6_6 
REMARK    4  A    between atoms: C13_13  and  O1_14 
REMARK    5  A    between atoms: C19_21  and  O2_22 
REMARK    6  A    between atoms: O2_22  and  C20_23 
REMARK    7  A    between atoms: N1_25  and  O3_27 
ROOT
HETATM    1  C6  UNL     1       3.747  -0.100   0.946  1.00  0.00     0.014 C 
HETATM    2  C7  UNL     1       2.902   1.082   1.143  1.00  0.00     0.009 C 
HETATM    3  C8  UNL     1       1.510   0.609   1.682  1.00  0.00     0.007 C 
HETATM    4  C9  UNL     1       0.981  -0.233   0.583  1.00  0.00     0.005 C 
HETATM    5  C10 UNL     1       1.570  -1.602   0.888  1.00  0.00     0.019 C 
HETATM    6  C11 UNL     1       1.172  -2.655  -0.062  1.00  0.00     0.012 C 
HETATM    7  C12 UNL     1      -0.368  -2.678  -0.153  1.00  0.00     0.040 C 
HETATM    8  C13 UNL     1      -0.815  -1.308  -0.611  1.00  0.00     0.073 C 
HETATM    9  C14 UNL     1      -2.077  -1.227  -1.343  1.00  0.00    -0.010 C 
HETATM   10  C15 UNL     1      -2.016  -0.412  -2.651  1.00  0.00     0.018 C 
HETATM   11  C16 UNL     1      -2.291  -2.660  -1.917  1.00  0.00     0.018 C 
HETATM   12  C17 UNL     1      -3.350  -0.915  -0.696  1.00  0.00     0.022 C 
HETATM   13  C18 UNL     1      -3.984  -2.144  -0.005  1.00  0.00     0.013 C 
HETATM   14  C19 UNL     1      -3.490   0.230   0.210  1.00  0.00     0.135 C 
HETATM   15  C22 UNL     1      -2.481   1.280   0.229  1.00  0.00     0.034 C 
HETATM   16  C23 UNL     1      -1.057   1.016  -0.016  1.00  0.00     0.015 C 
HETATM   17  C24 UNL     1      -0.539  -0.312   0.476  1.00  0.00    -0.008 C 
HETATM   18  C25 UNL     1      -1.022  -0.622   1.841  1.00  0.00     0.019 C 
HETATM   19  C26 UNL     1       3.020  -1.415   1.028  1.00  0.00    -0.081 C 
HETATM   20  C27 UNL     1       3.767  -2.481   1.248  1.00  0.00     0.015 C 
ENDROOT
BRANCH  14  21
HETATM   21  O2  UNL     1      -4.750   0.867  -0.090  1.00  0.00    -0.332 OA
BRANCH  21  22
HETATM   22  C20 UNL     1      -5.253   1.950   0.557  1.00  0.00     0.133 C 
HETATM   23  C21 UNL     1      -6.051   2.979  -0.154  1.00  0.00     0.099 C 
HETATM   24  N1  UNL     1      -4.996   2.027   1.829  1.00  0.00    -0.251 N 
ATOM     25  H1  UNL     1      -4.443   1.285   2.258  1.00  0.00     0.196 HD
BRANCH  24  26
HETATM   26  O3  UNL     1      -5.429   3.048   2.614  1.00  0.00    -0.288 OA
ATOM     27  H3  UNL     1      -5.241   3.104   3.544  1.00  0.00     0.244 HD
ENDBRANCH  24  26
ENDBRANCH  21  22
ENDBRANCH  14  21
BRANCH   8  28
HETATM   28  O1  UNL     1       0.167  -1.010  -1.611  1.00  0.00    -0.388 OA
ATOM     29  H1  UNL     1      -0.114  -0.149  -1.899  1.00  0.00     0.210 HD
ENDBRANCH   8  28
BRANCH   1  30
HETATM   30  C5  UNL     1       4.678  -0.183  -0.193  1.00  0.00     0.013 C 
BRANCH  30  31
HETATM   31  C4  UNL     1       5.766   0.824  -0.312  1.00  0.00     0.033 C 
BRANCH  31  32
HETATM   32  C2  UNL     1       5.292   2.180  -0.539  1.00  0.00    -0.093 C 
HETATM   33  C1  UNL     1       5.486   3.153   0.328  1.00  0.00     0.014 C 
HETATM   34  C3  UNL     1       4.604   2.467  -1.847  1.00  0.00     0.042 C 
ENDBRANCH  31  32
ENDBRANCH  30  31
ENDBRANCH   1  30
TORSDOF 7
