REMARK  13 active torsions:
REMARK  status: ('A' for Active; 'I' for Inactive)
REMARK    1  A    between atoms: C2_2  and  O1_3 
REMARK    2  A    between atoms: C2_2  and  N1_5 
REMARK    3  A    between atoms: N1_5  and  C3_7 
REMARK    4  A    between atoms: C4_8  and  C5_9 
REMARK    5  A    between atoms: C6_13  and  C7_14 
REMARK    6  A    between atoms: C8_18  and  O3_19 
REMARK    7  A    between atoms: C8_18  and  C9_21 
REMARK       I    between atoms: C9_21  and  N4_23 
REMARK    8  A    between atoms: N4_23  and  C10_25 
REMARK    9  A    between atoms: C14_37  and  O6_38 
REMARK   10  A    between atoms: C14_37  and  C15_40 
REMARK   11  A    between atoms: C15_40  and  O7_41 
REMARK   12  A    between atoms: C15_40  and  O8_43 
REMARK   13  A    between atoms: C16_50  and  C17_51 
ROOT
HETATM    1  C7  UNL     1       1.291  -1.073   0.009  1.00  0.00     0.309 C 
HETATM    2  N3  UNL     1       1.887  -0.764   1.290  1.00  0.00     0.007 N 
ATOM      3  H31 UNL     1       1.372  -1.192   2.059  1.00  0.00     0.284 HD
ATOM      4  H32 UNL     1       1.754   0.215   1.542  1.00  0.00     0.284 HD
HETATM    5  C8  UNL     1       3.260  -1.130   1.307  1.00  0.00     0.474 C 
HETATM    6  N7  UNL     1       3.617  -2.106   0.315  1.00  0.00    -0.005 N 
ATOM      7  H71 UNL     1       4.531  -2.515   0.509  1.00  0.00     0.283 HD
ATOM      8  H72 UNL     1       3.826  -1.665  -0.581  1.00  0.00     0.283 HD
HETATM    9  C13 UNL     1       2.608  -3.123   0.175  1.00  0.00     0.284 C 
HETATM   10  C14 UNL     1       1.251  -2.537  -0.182  1.00  0.00     0.167 C 
ENDROOT
BRANCH   1  11
HETATM   11  C6  UNL     1      -0.013  -0.369  -0.122  1.00  0.00     0.183 A 
HETATM   12  O2  UNL     1      -0.223   0.923   0.115  1.00  0.00    -0.220 OA
HETATM   13  N2  UNL     1      -1.478   1.165  -0.105  1.00  0.00    -0.241 N 
HETATM   14  C5  UNL     1      -2.140   0.078  -0.487  1.00  0.00     0.159 A 
ATOM     15  H2  UNL     1      -1.907   2.084   0.003  1.00  0.00     0.196 HD
HETATM   16  N8  UNL     1      -1.171  -0.893  -0.489  1.00  0.00    -0.320 N 
ATOM     17  H8  UNL     1      -1.321  -1.871  -0.736  1.00  0.00     0.169 HD
BRANCH  14  18
HETATM   18  C4  UNL     1      -3.514  -0.208  -0.848  1.00  0.00     0.130 A 
HETATM   19  C3  UNL     1      -4.607   0.641  -0.941  1.00  0.00     0.106 A 
HETATM   20  C16 UNL     1      -5.700  -0.105  -1.380  1.00  0.00     0.203 A 
HETATM   21  O9  UNL     1      -5.232  -1.349  -1.523  1.00  0.00    -0.228 OA
HETATM   22  N9  UNL     1      -4.005  -1.426  -1.229  1.00  0.00    -0.254 N 
ATOM     23  H9  UNL     1      -3.454  -2.283  -1.270  1.00  0.00     0.195 HD
BRANCH  19  24
HETATM   24  N1  UNL     1      -4.621   1.998  -0.598  1.00  0.00    -0.360 N 
ATOM     25  H1  UNL     1      -4.284   2.681  -1.277  1.00  0.00     0.162 HD
BRANCH  24  26
HETATM   26  C2  UNL     1      -5.088   2.459   0.664  1.00  0.00     0.213 C 
HETATM   27  C1  UNL     1      -4.439   1.804   1.839  1.00  0.00     0.063 C 
BRANCH  26  28
HETATM   28  O1  UNL     1      -4.892   3.849   0.803  1.00  0.00    -0.377 OA
ATOM     29  H1  UNL     1      -5.305   4.266   0.056  1.00  0.00     0.212 HD
ENDBRANCH  26  28
ENDBRANCH  24  26
ENDBRANCH  19  24
BRANCH  20  30
HETATM   30  C17 UNL     1      -7.061   0.319  -1.645  1.00  0.00     0.238 C 
HETATM   31  O10 UNL     1      -7.481   1.476  -1.527  1.00  0.00    -0.642 OA
HETATM   32  O11 UNL     1      -7.991  -0.641  -2.070  1.00  0.00    -0.642 OA
ENDBRANCH  20  30
ENDBRANCH  14  18
ENDBRANCH   1  11
BRANCH  10  33
HETATM   33  O6  UNL     1       0.345  -3.111   0.701  1.00  0.00    -0.380 OA
ATOM     34  H6  UNL     1       0.319  -4.053   0.578  1.00  0.00     0.211 HD
ENDBRANCH  10  33
BRANCH  10  35
HETATM   35  C15 UNL     1       0.868  -2.977  -1.587  1.00  0.00     0.292 C 
BRANCH  35  36
HETATM   36  O7  UNL     1       0.975  -4.374  -1.608  1.00  0.00    -0.368 OA
ATOM     37  H7  UNL     1       0.736  -4.649  -2.485  1.00  0.00     0.212 HD
ENDBRANCH  35  36
BRANCH  35  38
HETATM   38  O8  UNL     1       1.588  -2.352  -2.574  1.00  0.00    -0.368 OA
ATOM     39  H8  UNL     1       1.349  -2.627  -3.451  1.00  0.00     0.212 HD
ENDBRANCH  35  38
ENDBRANCH  10  35
BRANCH   5  40
HETATM   40  O3  UNL     1       3.484  -1.757   2.570  1.00  0.00    -0.336 OA
ATOM     41  H3  UNL     1       4.402  -2.002   2.581  1.00  0.00     0.214 HD
ENDBRANCH   5  40
BRANCH   5  42
HETATM   42  C9  UNL     1       4.100   0.092   1.274  1.00  0.00     0.313 C 
HETATM   43  O4  UNL     1       4.789   0.408   2.323  1.00  0.00    -0.266 OA
HETATM   44  N4  UNL     1       4.229   0.972   0.184  1.00  0.00    -0.326 N 
ATOM     45  H4  UNL     1       3.719   0.792  -0.681  1.00  0.00     0.165 HD
BRANCH  44  46
HETATM   46  C10 UNL     1       5.080   2.125   0.290  1.00  0.00     0.279 C 
HETATM   47  N5  UNL     1       4.354   3.364   0.055  1.00  0.00    -0.357 N 
HETATM   48  C11 UNL     1       5.287   4.237  -0.569  1.00  0.00     0.180 C 
ATOM     49  H5  UNL     1       3.381   3.564   0.289  1.00  0.00     0.162 HD
HETATM   50  N6  UNL     1       6.283   3.566  -1.059  1.00  0.00    -0.320 N 
HETATM   51  C12 UNL     1       6.095   2.180  -0.800  1.00  0.00     0.265 C 
ATOM     52  H6  UNL     1       7.078   3.970  -1.554  1.00  0.00     0.169 HD
HETATM   53  O5  UNL     1       6.646   1.194  -1.349  1.00  0.00    -0.269 OA
ENDBRANCH  44  46
ENDBRANCH   5  42
TORSDOF 13
