REMARK  11 active torsions:
REMARK  status: ('A' for Active; 'I' for Inactive)
REMARK    1  A    between atoms: C2_2  and  N1_3 
REMARK    2  A    between atoms: N3_13  and  C8_14 
REMARK    3  A    between atoms: C8_14  and  C9_15 
REMARK    4  A    between atoms: C9_15  and  C10_16 
REMARK    5  A    between atoms: C10_16  and  N4_17 
REMARK    6  A    between atoms: N4_17  and  C12_19 
REMARK    7  A    between atoms: C12_19  and  C13_20 
REMARK    8  A    between atoms: C13_20  and  C14_21 
REMARK    9  A    between atoms: C14_21  and  N5_22 
REMARK       I    between atoms: N5_22  and  C15_24 
REMARK   10  A    between atoms: C15_24  and  C16_26 
REMARK   11  A    between atoms: C26_38  and  C27_39 
ROOT
HETATM    1  N5  UNL     1       0.663   0.797  -1.675  1.00  0.00    -0.337 N 
ATOM      2  H5  UNL     1       1.347   1.551  -1.616  1.00  0.00     0.168 HD
HETATM    3  C15 UNL     1       1.182  -0.467  -1.347  1.00  0.00     0.255 C 
HETATM    4  O3  UNL     1       0.489  -1.488  -1.382  1.00  0.00    -0.267 OA
ENDROOT
BRANCH   3   5
HETATM    5  C16 UNL     1       2.603  -0.622  -0.945  1.00  0.00     0.035 A 
HETATM    6  C17 UNL     1       3.087  -1.919  -0.859  1.00  0.00     0.026 A 
HETATM    7  C18 UNL     1       4.426  -2.121  -0.509  1.00  0.00    -0.028 A 
HETATM    8  C19 UNL     1       5.215  -1.056  -0.265  1.00  0.00     0.070 A 
HETATM    9  C33 UNL     1       4.980  -3.482  -0.385  1.00  0.00     0.043 C 
HETATM   10  C20 UNL     1       4.732   0.227  -0.350  1.00  0.00     0.062 A 
HETATM   11  N8  UNL     1       6.510  -1.081   0.060  1.00  0.00    -0.324 N 
HETATM   12  C21 UNL     1       3.403   0.472  -0.694  1.00  0.00     0.049 A 
HETATM   13  N6  UNL     1       5.789   1.006  -0.059  1.00  0.00    -0.339 N 
HETATM   14  C22 UNL     1       6.863   0.197   0.188  1.00  0.00     0.136 A 
ATOM     15  H6  UNL     1       5.789   2.026  -0.028  1.00  0.00     0.167 HD
HETATM   16  C23 UNL     1       8.173   0.707   0.511  1.00  0.00     0.076 A 
HETATM   17  C24 UNL     1       8.404   2.096   0.561  1.00  0.00     0.034 A 
HETATM   18  N7  UNL     1       9.189  -0.113   0.748  1.00  0.00    -0.362 N 
HETATM   19  C25 UNL     1       9.647   2.565   0.845  1.00  0.00     0.019 A 
HETATM   20  C26 UNL     1      10.696   1.702   1.088  1.00  0.00     0.025 A 
HETATM   21  C29 UNL     1      10.405   0.361   1.025  1.00  0.00     0.103 A 
ATOM     22  H7  UNL     1       9.038  -1.121   0.718  1.00  0.00     0.165 HD
HETATM   23  C30 UNL     1       7.166  -2.372   0.153  1.00  0.00     0.088 C 
HETATM   24  C31 UNL     1       7.874  -2.703  -1.158  1.00  0.00     0.033 C 
HETATM   25  C32 UNL     1       6.206  -3.482   0.493  1.00  0.00     0.030 C 
BRANCH  20  26
HETATM   26  C27 UNL     1      12.029   2.170   1.384  1.00  0.00     0.157 C 
HETATM   27  C28 UNL     1      12.278   3.626   1.417  1.00  0.00     0.097 C 
HETATM   28  O4  UNL     1      12.942   1.307   1.606  1.00  0.00    -0.293 OA
ENDBRANCH  20  26
ENDBRANCH   3   5
BRANCH   1  29
HETATM   29  C14 UNL     1      -0.620   1.222  -2.069  1.00  0.00     0.066 C 
BRANCH  29  30
HETATM   30  C13 UNL     1      -1.781   1.173  -1.174  1.00  0.00     0.074 C 
BRANCH  30  31
HETATM   31  C12 UNL     1      -2.208  -0.165  -0.707  1.00  0.00     0.277 C 
BRANCH  31  32
HETATM   32  N4  UNL     1      -3.438  -0.023   0.109  1.00  0.00     0.084 N 
HETATM   33  C11 UNL     1      -3.076   0.740   1.275  1.00  0.00     0.309 C 
BRANCH  32  34
HETATM   34  C10 UNL     1      -3.998  -1.296   0.335  1.00  0.00     0.273 C 
BRANCH  34  35
HETATM   35  C9  UNL     1      -5.421  -1.169   0.925  1.00  0.00     0.052 C 
BRANCH  35  36
HETATM   36  C8  UNL     1      -6.265  -0.363  -0.004  1.00  0.00     0.154 C 
BRANCH  36  37
HETATM   37  N3  UNL     1      -7.604  -0.212   0.483  1.00  0.00    -0.253 N 
HETATM   38  N1  UNL     1      -8.019   0.856   1.279  1.00  0.00    -0.238 N 
HETATM   39  C3  UNL     1      -9.399   0.948   1.691  1.00  0.00     0.338 C 
HETATM   40  O1  UNL     1      -9.729   1.917   2.404  1.00  0.00    -0.245 OA
HETATM   41  N2  UNL     1     -10.322  -0.071   1.269  1.00  0.00    -0.324 N 
HETATM   42  C4  UNL     1     -10.038  -0.734  -0.004  1.00  0.00     0.110 C 
ATOM     43  H2  UNL     1     -11.136  -0.320   1.831  1.00  0.00     0.165 HD
HETATM   44  C5  UNL     1     -10.098   0.338  -1.075  1.00  0.00     0.049 C 
HETATM   45  C6  UNL     1     -10.939  -1.886  -0.291  1.00  0.00     0.049 C 
HETATM   46  C7  UNL     1      -8.605  -1.187   0.111  1.00  0.00     0.266 C 
HETATM   47  O2  UNL     1      -8.289  -2.381  -0.110  1.00  0.00    -0.269 OA
BRANCH  38  48
HETATM   48  C2  UNL     1      -7.057   1.863   1.666  1.00  0.00     0.150 C 
HETATM   49  C1  UNL     1      -6.917   2.995   0.706  1.00  0.00     0.028 C 
ENDBRANCH  38  48
ENDBRANCH  36  37
ENDBRANCH  35  36
ENDBRANCH  34  35
ENDBRANCH  32  34
ENDBRANCH  31  32
ENDBRANCH  30  31
ENDBRANCH  29  30
ENDBRANCH   1  29
TORSDOF 11
