REMARK  14 active torsions:
REMARK  status: ('A' for Active; 'I' for Inactive)
REMARK    1  A    between atoms: C2_2  and  C5_5 
REMARK    2  A    between atoms: C5_5  and  O2_7 
REMARK    3  A    between atoms: O2_7  and  C6_8 
REMARK    4  A    between atoms: C6_8  and  C7_9 
REMARK    5  A    between atoms: C7_9  and  N1_10 
REMARK    6  A    between atoms: C10_13  and  C11_14 
REMARK    7  A    between atoms: C11_14  and  N2_15 
REMARK    8  A    between atoms: C14_18  and  C15_19 
REMARK    9  A    between atoms: C17_21  and  C18_22 
REMARK       I    between atoms: C18_22  and  N3_24 
REMARK   10  A    between atoms: N3_24  and  C19_26 
REMARK   11  A    between atoms: C19_26  and  C20_27 
REMARK   12  A    between atoms: C20_27  and  C21_28 
REMARK   13  A    between atoms: C21_28  and  N4_29 
REMARK       I    between atoms: N4_29  and  C22_31 
REMARK       I    between atoms: C22_31  and  N5_33 
REMARK   14  A    between atoms: C25_36  and  C26_37 
ROOT
HETATM    1  C15 UNL     1       1.083  -1.096  -1.452  1.00  0.00     0.039 A 
HETATM    2  C16 UNL     1       2.010  -0.560  -0.585  1.00  0.00     0.072 A 
HETATM    3  C17 UNL     1       3.271  -0.850  -1.078  1.00  0.00     0.168 A 
HETATM    4  O5  UNL     1       3.071  -1.524  -2.179  1.00  0.00    -0.232 OA
HETATM    5  N6  UNL     1       1.802  -1.679  -2.417  1.00  0.00    -0.264 N 
ATOM      6  H6  UNL     1       1.413  -2.172  -3.221  1.00  0.00     0.194 HD
ENDROOT
BRANCH   1   7
HETATM    7  C14 UNL     1      -0.394  -1.047  -1.370  1.00  0.00     0.041 C 
HETATM    8  C13 UNL     1      -0.873  -1.616  -0.079  1.00  0.00     0.041 C 
HETATM    9  C12 UNL     1      -1.448  -0.603   0.869  1.00  0.00     0.273 C 
HETATM   10  N2  UNL     1      -2.306   0.346   0.238  1.00  0.00     0.088 N 
HETATM   11  C31 UNL     1      -1.510   1.118  -0.657  1.00  0.00     0.273 C 
HETATM   12  C30 UNL     1      -0.820   0.333  -1.704  1.00  0.00     0.041 C 
BRANCH  10  13
HETATM   13  C11 UNL     1      -3.440  -0.296  -0.333  1.00  0.00     0.277 C 
BRANCH  13  14
HETATM   14  C10 UNL     1      -4.369  -0.847   0.720  1.00  0.00     0.017 C 
HETATM   15  C9  UNL     1      -4.891   0.233   1.634  1.00  0.00     0.025 C 
HETATM   16  C8  UNL     1      -6.401   0.223   1.560  1.00  0.00     0.117 C 
HETATM   17  N1  UNL     1      -6.797   0.438   0.206  1.00  0.00    -0.410 N 
HETATM   18  C33 UNL     1      -6.459  -0.650  -0.653  1.00  0.00     0.117 C 
HETATM   19  C32 UNL     1      -5.475  -1.602   0.006  1.00  0.00     0.025 C 
BRANCH  17  20
HETATM   20  C7  UNL     1      -8.076   1.031   0.008  1.00  0.00     0.143 C 
BRANCH  20  21
HETATM   21  C6  UNL     1      -9.183   0.113   0.424  1.00  0.00     0.198 C 
BRANCH  21  22
HETATM   22  O2  UNL     1     -10.456   0.725   0.215  1.00  0.00    -0.319 OA
BRANCH  22  23
HETATM   23  C5  UNL     1     -11.612   0.041   0.538  1.00  0.00     0.266 C 
HETATM   24  O1  UNL     1     -11.477  -1.118   1.013  1.00  0.00    -0.264 OA
BRANCH  23  25
HETATM   25  C2  UNL     1     -12.975   0.591   0.357  1.00  0.00     0.037 C 
HETATM   26  C1  UNL     1     -13.999  -0.411   0.823  1.00  0.00     0.025 C 
HETATM   27  C3  UNL     1     -13.190   0.979  -1.095  1.00  0.00     0.025 C 
HETATM   28  C4  UNL     1     -13.104   1.838   1.213  1.00  0.00     0.025 C 
ENDBRANCH  23  25
ENDBRANCH  22  23
ENDBRANCH  21  22
ENDBRANCH  20  21
ENDBRANCH  17  20
ENDBRANCH  13  14
ENDBRANCH  10  13
ENDBRANCH   1   7
BRANCH   3  29
HETATM   29  C18 UNL     1       4.537  -0.454  -0.445  1.00  0.00     0.281 C 
HETATM   30  O3  UNL     1       5.562  -0.786  -1.064  1.00  0.00    -0.265 OA
HETATM   31  N3  UNL     1       4.548   0.236   0.751  1.00  0.00    -0.335 N 
ATOM     32  H3  UNL     1       3.610   0.426   1.103  1.00  0.00     0.168 HD
BRANCH  31  33
HETATM   33  C19 UNL     1       5.555   0.737   1.596  1.00  0.00     0.066 C 
BRANCH  33  34
HETATM   34  C20 UNL     1       6.516  -0.140   2.271  1.00  0.00     0.064 C 
BRANCH  34  35
HETATM   35  C21 UNL     1       7.484  -0.954   1.516  1.00  0.00     0.129 C 
BRANCH  35  36
HETATM   36  N4  UNL     1       8.406  -0.175   0.705  1.00  0.00    -0.343 N 
HETATM   37  C22 UNL     1       9.389  -0.838  -0.068  1.00  0.00     0.318 C 
HETATM   38  O4  UNL     1       9.434  -2.096  -0.025  1.00  0.00    -0.247 OA
HETATM   39  N5  UNL     1      10.305  -0.095  -0.876  1.00  0.00    -0.334 N 
HETATM   40  C23 UNL     1      10.331   1.342  -0.990  1.00  0.00     0.128 C 
HETATM   41  C29 UNL     1      11.338  -0.690  -1.697  1.00  0.00     0.132 C 
HETATM   42  C24 UNL     1      11.499   1.652  -1.899  1.00  0.00     0.026 C 
HETATM   43  C25 UNL     1      12.375   0.432  -1.726  1.00  0.00     0.009 C 
ATOM     44  H4  UNL     1       8.345   0.843   0.693  1.00  0.00     0.164 HD
BRANCH  43  45
HETATM   45  C26 UNL     1      13.035   0.483  -0.385  1.00  0.00    -0.009 A 
HETATM   46  C27 UNL     1      13.941  -0.648  -0.064  1.00  0.00     0.005 A 
HETATM   47  C28 UNL     1      14.484   0.742  -0.225  1.00  0.00     0.005 A 
ENDBRANCH  43  45
ENDBRANCH  35  36
ENDBRANCH  34  35
ENDBRANCH  33  34
ENDBRANCH  31  33
ENDBRANCH   3  29
TORSDOF 14
