REMARK  8 active torsions:
REMARK  status: ('A' for Active; 'I' for Inactive)
REMARK    1  A    between atoms: N1_2  and  S1_4 
REMARK    2  A    between atoms: S1_4  and  C2_7 
REMARK    3  A    between atoms: C4_9  and  C5_10 
REMARK       I    between atoms: C5_10  and  N2_12 
REMARK    4  A    between atoms: N2_12  and  C6_14 
REMARK    5  A    between atoms: C6_14  and  C7_15 
REMARK    6  A    between atoms: C6_14  and  C12_23 
REMARK       I    between atoms: C7_15  and  N3_17 
REMARK    7  A    between atoms: N3_17  and  C8_19 
REMARK    8  A    between atoms: C8_19  and  C9_20 
ROOT
HETATM    1  C5  UNL     1       1.064  -0.021  -1.892  1.00  0.00     0.252 C 
HETATM    2  O3  UNL     1       0.438  -0.195  -2.949  1.00  0.00    -0.268 OA
HETATM    3  N2  UNL     1       0.530  -0.439  -0.621  1.00  0.00    -0.343 N 
ATOM      4  H2  UNL     1       1.040  -0.296   0.251  1.00  0.00     0.163 HD
ENDROOT
BRANCH   3   5
HETATM    5  C6  UNL     1      -0.785  -1.080  -0.650  1.00  0.00     0.184 C 
BRANCH   5   6
HETATM    6  C7  UNL     1      -1.652  -0.188   0.216  1.00  0.00     0.244 C 
HETATM    7  O4  UNL     1      -1.079   0.670   0.943  1.00  0.00    -0.271 OA
HETATM    8  N3  UNL     1      -3.050  -0.276   0.239  1.00  0.00    -0.339 N 
ATOM      9  H3  UNL     1      -3.452  -0.991  -0.368  1.00  0.00     0.167 HD
BRANCH   8  10
HETATM   10  C8  UNL     1      -3.976   0.477   0.976  1.00  0.00     0.068 C 
BRANCH  10  11
HETATM   11  C9  UNL     1      -4.172   1.912   0.774  1.00  0.00     0.016 C 
HETATM   12  C10 UNL     1      -3.084   2.881   0.989  1.00  0.00     0.015 C 
HETATM   13  C11 UNL     1      -4.739   2.174  -0.632  1.00  0.00     0.015 C 
ENDBRANCH  10  11
ENDBRANCH   8  10
ENDBRANCH   5   6
BRANCH   5  14
HETATM   14  C12 UNL     1      -0.669  -2.452  -0.011  1.00  0.00    -0.022 C 
HETATM   15  C13 UNL     1       0.344  -3.307  -0.755  1.00  0.00     0.017 C 
HETATM   16  C14 UNL     1      -0.232  -2.372   1.431  1.00  0.00     0.017 C 
HETATM   17  C15 UNL     1      -1.983  -3.175  -0.123  1.00  0.00     0.017 C 
ENDBRANCH   5  14
ENDBRANCH   3   5
BRANCH   1  18
HETATM   18  C4  UNL     1       2.393   0.638  -1.975  1.00  0.00     0.040 A 
HETATM   19  C3  UNL     1       3.294   0.573  -0.980  1.00  0.00     0.050 A 
HETATM   20  C2  UNL     1       4.484   1.217  -1.146  1.00  0.00     0.120 A 
HETATM   21  S2  UNL     1       4.323   1.909  -2.705  1.00  0.00    -0.087 SA
HETATM   22  C16 UNL     1       2.758   1.357  -3.084  1.00  0.00     0.068 A 
BRANCH  20  23
HETATM   23  S1  UNL     1       5.864   1.308  -0.042  1.00  0.00     0.265 S 
HETATM   24  O1  UNL     1       7.100   0.770  -0.681  1.00  0.00    -0.200 OA
HETATM   25  O2  UNL     1       6.064   2.786   0.265  1.00  0.00    -0.200 OA
BRANCH  23  26
HETATM   26  N1  UNL     1       5.494   0.473   1.390  1.00  0.00    -0.319 N 
HETATM   27  C1  UNL     1       4.357   1.103   2.038  1.00  0.00     0.159 C 
ATOM     28  H1  UNL     1       5.993  -0.344   1.741  1.00  0.00     0.171 HD
ENDBRANCH  23  26
ENDBRANCH  20  23
ENDBRANCH   1  18
TORSDOF 8
