REMARK  3 active torsions:
REMARK  status: ('A' for Active; 'I' for Inactive)
REMARK    1  A    between atoms: O1_2  and  C2_3 
REMARK    2  A    between atoms: N1_5  and  N2_7 
REMARK    3  A    between atoms: N2_7  and  C4_9 
ROOT
HETATM    1  N2  UNL     1       0.466  -0.406   1.141  1.00  0.00    -0.278 N 
ATOM      2  H2  UNL     1       0.514  -1.102   1.885  1.00  0.00     0.189 HD
ENDROOT
BRANCH   1   3
HETATM    3  N1  UNL     1      -0.689   0.385   0.967  1.00  0.00    -0.282 N 
HETATM    4  C2  UNL     1      -1.857  -0.147   0.839  1.00  0.00     0.127 C 
HETATM    5  C3  UNL     1      -2.012  -1.638   0.875  1.00  0.00     0.099 C 
ATOM      6  H1  UNL     1      -0.598   1.401   0.942  1.00  0.00     0.189 HD
BRANCH   4   7
HETATM    7  O1  UNL     1      -2.933   0.712   0.672  1.00  0.00    -0.343 OA
HETATM    8  C1  UNL     1      -2.765   2.056   0.249  1.00  0.00     0.211 C 
ENDBRANCH   4   7
ENDBRANCH   1   3
BRANCH   1   9
HETATM    9  C4  UNL     1       1.483  -0.226   0.320  1.00  0.00     0.163 A 
HETATM   10  N3  UNL     1       2.648  -0.875   0.331  1.00  0.00    -0.345 N 
HETATM   11  C5  UNL     1       3.543  -0.556  -0.569  1.00  0.00     0.097 A 
ATOM     12  H3  UNL     1       2.836  -1.601   1.023  1.00  0.00     0.167 HD
HETATM   13  C6  UNL     1       3.231   0.423  -1.468  1.00  0.00     0.070 A 
HETATM   14  S1  UNL     1       1.654   0.856  -0.986  1.00  0.00    -0.063 SA
ENDBRANCH   1   9
TORSDOF 3
