REMARK  1 active torsions:
REMARK  status: ('A' for Active; 'I' for Inactive)
REMARK    1  A    between atoms: C5_6  and  O2_7 
ROOT
HETATM    1  C1  UNL     1      -2.308   0.701   1.151  1.00  0.00     0.078 C 
HETATM    2  C2  UNL     1      -2.216   0.248  -0.281  1.00  0.00     0.159 C 
HETATM    3  C3  UNL     1      -3.353   0.969  -1.024  1.00  0.00     0.078 C 
HETATM    4  O1  UNL     1      -2.541  -1.101  -0.317  1.00  0.00    -0.352 OA
HETATM    5  C4  UNL     1      -1.559  -1.884  -0.884  1.00  0.00     0.224 C 
HETATM    6  C5  UNL     1      -0.375  -1.913   0.066  1.00  0.00     0.241 C 
HETATM    7  N1  UNL     1       0.566  -0.900  -0.266  1.00  0.00    -0.360 N 
HETATM    8  C6  UNL     1       1.894  -1.127   0.157  1.00  0.00     0.122 C 
HETATM    9  C7  UNL     1       2.387  -0.254   1.256  1.00  0.00     0.020 C 
HETATM   10  C8  UNL     1       3.154   0.906   0.611  1.00  0.00     0.002 C 
HETATM   11  C9  UNL     1       2.104   1.903   0.168  1.00  0.00     0.004 C 
HETATM   12  C10 UNL     1       1.154   1.331  -0.848  1.00  0.00     0.054 C 
HETATM   13  C11 UNL     1       0.093   0.438  -0.183  1.00  0.00     0.224 C 
HETATM   14  O3  UNL     1      -1.054   0.574  -0.911  1.00  0.00    -0.332 OA
ENDROOT
BRANCH   6  15
HETATM   15  O2  UNL     1       0.257  -3.158  -0.131  1.00  0.00    -0.375 OA
ATOM     16  H2  UNL     1       0.998  -3.176   0.463  1.00  0.00     0.212 HD
ENDBRANCH   6  15
TORSDOF 1
