REMARK  5 active torsions:
REMARK  status: ('A' for Active; 'I' for Inactive)
REMARK    1  A    between atoms: O1_2  and  C2_3 
REMARK    2  A    between atoms: C7_9  and  O3_10 
REMARK    3  A    between atoms: O3_10  and  C8_11 
REMARK    4  A    between atoms: C12_18  and  O4_19 
REMARK    5  A    between atoms: O4_19  and  C13_20 
ROOT
HETATM    1  C8  UNL     1       0.845  -0.182  -1.973  1.00  0.00     0.179 A 
HETATM    2  N1  UNL     1       1.364  -0.420  -3.228  1.00  0.00    -0.311 N 
ATOM      3  H1  UNL     1       2.377  -0.428  -3.350  1.00  0.00     0.170 HD
HETATM    4  C9  UNL     1       0.591  -0.638  -4.277  1.00  0.00     0.190 A 
HETATM    5  F1  UNL     1       1.138  -0.871  -5.508  1.00  0.00    -0.186 F 
HETATM    6  C10 UNL     1      -0.783  -0.622  -4.096  1.00  0.00     0.064 A 
HETATM    7  C11 UNL     1      -1.335  -0.387  -2.853  1.00  0.00     0.046 A 
HETATM    8  C12 UNL     1      -0.519  -0.161  -1.763  1.00  0.00     0.120 A 
ENDROOT
BRANCH   1   9
HETATM    9  O3  UNL     1       1.778   0.018  -1.026  1.00  0.00    -0.325 OA
BRANCH   9  10
HETATM   10  C7  UNL     1       1.855   0.278   0.293  1.00  0.00     0.168 C 
HETATM   11  C2  UNL     1       2.610  -0.760   1.116  1.00  0.00     0.179 C 
HETATM   12  C3  UNL     1       3.474   0.113   1.999  1.00  0.00     0.153 C 
HETATM   13  C4  UNL     1       3.984   1.068   0.897  1.00  0.00     0.044 C 
HETATM   14  O2  UNL     1       2.729   0.960   2.808  1.00  0.00    -0.383 OA
HETATM   15  C5  UNL     1       2.563   1.574   0.598  1.00  0.00     0.044 C 
HETATM   16  C6  UNL     1       2.182   1.952   2.009  1.00  0.00     0.175 C 
BRANCH  11  17
HETATM   17  O1  UNL     1       3.522  -1.459   0.295  1.00  0.00    -0.386 OA
HETATM   18  C1  UNL     1       3.322  -2.810   0.435  1.00  0.00     0.202 C 
ENDBRANCH  11  17
ENDBRANCH   9  10
ENDBRANCH   1   9
BRANCH   8  19
HETATM   19  O4  UNL     1      -1.049   0.072  -0.536  1.00  0.00    -0.341 OA
BRANCH  19  20
HETATM   20  C13 UNL     1      -2.339   0.141  -0.084  1.00  0.00     0.132 C 
HETATM   21  C14 UNL     1      -2.722   1.500   0.483  1.00  0.00     0.060 C 
HETATM   22  C15 UNL     1      -4.231   1.532   0.581  1.00  0.00     0.235 C 
HETATM   23  N2  UNL     1      -4.823   0.234   0.445  1.00  0.00    -0.075 N 
HETATM   24  C16 UNL     1      -4.181  -0.765   1.241  1.00  0.00     0.235 C 
ATOM     25  H22 UNL     1      -5.823   0.269   0.644  1.00  0.00     0.277 HD
ATOM     26  H21 UNL     1      -4.856  -0.049  -0.534  1.00  0.00     0.277 HD
HETATM   27  C17 UNL     1      -2.698  -0.875   0.977  1.00  0.00     0.060 C 
ENDBRANCH  19  20
ENDBRANCH   8  19
TORSDOF 5
