REMARK  5 active torsions:
REMARK  status: ('A' for Active; 'I' for Inactive)
REMARK    1  A    between atoms: C2_2  and  C4_4 
REMARK    2  A    between atoms: C4_4  and  O1_5 
REMARK    3  A    between atoms: O1_5  and  C5_6 
REMARK    4  A    between atoms: C7_8  and  N1_9 
REMARK    5  A    between atoms: C12_17  and  N3_18 
ROOT
HETATM    1  C5  UNL     1      -0.620  -1.043  -0.718  1.00  0.00     0.114 A 
HETATM    2  C6  UNL     1      -0.836   0.319  -0.743  1.00  0.00     0.088 A 
HETATM    3  C7  UNL     1       0.076   1.224  -0.252  1.00  0.00     0.107 A 
HETATM    4  N2  UNL     1       1.242   0.735   0.277  1.00  0.00    -0.326 N 
ATOM      5  H2  UNL     1       1.929   1.393   0.644  1.00  0.00     0.169 HD
HETATM    6  C12 UNL     1       1.510  -0.570   0.329  1.00  0.00     0.147 A 
HETATM    7  C17 UNL     1       0.599  -1.460  -0.160  1.00  0.00     0.193 A 
HETATM    8  F1  UNL     1       0.852  -2.765  -0.117  1.00  0.00    -0.199 F 
ENDROOT
BRANCH   6   9
HETATM    9  N3  UNL     1       2.728  -1.014   0.887  1.00  0.00    -0.362 N 
HETATM   10  C13 UNL     1       2.730  -1.854   2.042  1.00  0.00     0.143 C 
HETATM   11  C14 UNL     1       3.706  -2.983   1.817  1.00  0.00     0.133 C 
HETATM   12  N4  UNL     1       4.977  -2.564   1.337  1.00  0.00    -0.418 N 
HETATM   13  C15 UNL     1       4.987  -1.693   0.219  1.00  0.00     0.133 C 
ATOM     14  H4  UNL     1       5.842  -2.876   1.777  1.00  0.00     0.153 HD
HETATM   15  C16 UNL     1       3.952  -0.598   0.261  1.00  0.00     0.143 C 
ENDBRANCH   6   9
BRANCH   3  16
HETATM   16  N1  UNL     1      -0.119   2.628  -0.251  1.00  0.00    -0.363 N 
HETATM   17  C8  UNL     1       0.971   3.541   0.092  1.00  0.00     0.150 C 
HETATM   18  C9  UNL     1       0.442   4.948  -0.112  1.00  0.00     0.187 C 
HETATM   19  O2  UNL     1      -0.674   5.155   0.695  1.00  0.00    -0.388 OA
HETATM   20  C10 UNL     1      -1.713   4.305   0.417  1.00  0.00     0.187 C 
HETATM   21  C11 UNL     1      -1.389   3.209  -0.577  1.00  0.00     0.150 C 
ENDBRANCH   3  16
BRANCH   1  22
HETATM   22  O1  UNL     1      -1.484  -1.967  -1.189  1.00  0.00    -0.347 OA
BRANCH  22  23
HETATM   23  C4  UNL     1      -2.714  -1.968  -1.761  1.00  0.00     0.179 C 
BRANCH  23  24
HETATM   24  C2  UNL     1      -3.816  -1.433  -0.880  1.00  0.00     0.002 C 
HETATM   25  C1  UNL     1      -5.155  -1.467  -1.592  1.00  0.00     0.011 C 
HETATM   26  C3  UNL     1      -3.908  -2.310   0.377  1.00  0.00     0.011 C 
ENDBRANCH  23  24
ENDBRANCH  22  23
ENDBRANCH   1  22
TORSDOF 5
