REMARK  6 active torsions:
REMARK  status: ('A' for Active; 'I' for Inactive)
REMARK    1  A    between atoms: O1_1  and  N1_3 
REMARK    2  A    between atoms: C1_5  and  C2_6 
REMARK    3  A    between atoms: C1_5  and  C10_16 
REMARK    4  A    between atoms: C2_6  and  N2_7 
REMARK    5  A    between atoms: C10_16  and  C11_17 
REMARK    6  A    between atoms: C10_16  and  C17_24 
ROOT
HETATM    1  N1  UNL     1      -0.135   1.853   0.176  1.00  0.00    -0.271 N 
ATOM      2  H1  UNL     1      -0.968   2.309   0.547  1.00  0.00     0.194 HD
HETATM    3  C1  UNL     1      -0.297   0.764  -0.447  1.00  0.00     0.067 C 
ENDROOT
BRANCH   3   4
HETATM    4  C2  UNL     1       0.826   0.020  -1.020  1.00  0.00     0.332 C 
BRANCH   4   5
HETATM    5  N2  UNL     1       2.100   0.181  -0.369  1.00  0.00     0.100 N 
HETATM    6  C3  UNL     1       2.115  -0.490   0.871  1.00  0.00     0.303 C 
HETATM    7  C4  UNL     1       3.420  -0.557   1.597  1.00  0.00     0.302 C 
HETATM    8  N3  UNL     1       4.568  -0.114   0.892  1.00  0.00     0.090 N 
HETATM    9  C5  UNL     1       4.532   1.219   0.382  1.00  0.00     0.274 C 
HETATM   10  C9  UNL     1       5.058  -1.078  -0.065  1.00  0.00     0.274 C 
HETATM   11  C6  UNL     1       4.162   1.151  -1.082  1.00  0.00     0.066 C 
HETATM   12  C7  UNL     1       3.205  -0.013  -1.246  1.00  0.00     0.227 C 
HETATM   13  C8  UNL     1       3.971  -1.279  -1.082  1.00  0.00     0.066 C 
ENDBRANCH   4   5
ENDBRANCH   3   4
BRANCH   3  14
HETATM   14  C10 UNL     1      -1.665   0.270  -0.662  1.00  0.00    -0.017 C 
BRANCH  14  15
HETATM   15  C11 UNL     1      -1.939  -1.068  -0.106  1.00  0.00    -0.027 A 
HETATM   16  C12 UNL     1      -2.514  -2.088  -0.875  1.00  0.00     0.015 A 
HETATM   17  C13 UNL     1      -2.744  -3.323  -0.319  1.00  0.00     0.043 A 
HETATM   18  C14 UNL     1      -2.426  -3.602   0.985  1.00  0.00     0.116 A 
HETATM   19  F1  UNL     1      -2.684  -4.846   1.469  1.00  0.00    -0.206 F 
HETATM   20  C15 UNL     1      -1.858  -2.625   1.773  1.00  0.00     0.043 A 
HETATM   21  C16 UNL     1      -1.636  -1.392   1.194  1.00  0.00     0.015 A 
ENDBRANCH  14  15
BRANCH  14  22
HETATM   22  C17 UNL     1      -2.735   1.280  -0.427  1.00  0.00     0.025 C 
HETATM   23  C18 UNL     1      -4.085   0.627  -0.687  1.00  0.00     0.036 C 
HETATM   24  C19 UNL     1      -5.087   1.774  -0.834  1.00  0.00     0.168 C 
HETATM   25  O2  UNL     1      -4.943   2.649   0.234  1.00  0.00    -0.391 OA
HETATM   26  C20 UNL     1      -4.258   2.071   1.292  1.00  0.00     0.168 C 
HETATM   27  C21 UNL     1      -2.773   1.931   0.908  1.00  0.00     0.036 C 
ENDBRANCH  14  22
ENDBRANCH   3  14
BRANCH   1  28
HETATM   28  O1  UNL     1       1.061   2.465   0.391  1.00  0.00    -0.290 OA
ATOM     29  H1  UNL     1       1.183   3.283   0.859  1.00  0.00     0.244 HD
ENDBRANCH   1  28
TORSDOF 6
