REMARK  10 active torsions:
REMARK  status: ('A' for Active; 'I' for Inactive)
REMARK    1  A    between atoms: N1_2  and  C2_4 
REMARK    2  A    between atoms: C3_5  and  C4_6 
REMARK    3  A    between atoms: C6_10  and  N3_11 
REMARK    4  A    between atoms: C9_18  and  N5_19 
REMARK    5  A    between atoms: N5_19  and  C10_21 
REMARK    6  A    between atoms: C10_21  and  C11_22 
REMARK    7  A    between atoms: N7_29  and  C15_30 
REMARK    8  A    between atoms: C15_30  and  C16_31 
REMARK    9  A    between atoms: C16_31  and  C17_32 
REMARK   10  A    between atoms: C17_32  and  N8_33 
ROOT
HETATM    1  C2  UNL     1      -0.066   1.591  -0.882  1.00  0.00     0.132 A 
HETATM    2  C3  UNL     1       1.186   1.754  -0.373  1.00  0.00     0.026 A 
HETATM    3  C8  UNL     1       2.023   0.629  -0.226  1.00  0.00     0.065 A 
HETATM    4  C9  UNL     1       1.598  -0.624  -0.584  1.00  0.00     0.116 A 
HETATM    5  N6  UNL     1       0.351  -0.720  -1.079  1.00  0.00    -0.282 N 
ATOM      6  H6  UNL     1       0.009  -1.641  -1.353  1.00  0.00     0.189 HD
HETATM    7  N7  UNL     1      -0.446   0.306  -1.227  1.00  0.00    -0.274 N 
ENDROOT
BRANCH   2   8
HETATM    8  C4  UNL     1       1.666   3.045   0.072  1.00  0.00     0.010 A 
HETATM    9  C5  UNL     1       2.796   3.576  -0.571  1.00  0.00     0.120 A 
HETATM   10  N2  UNL     1       3.313   4.743  -0.162  1.00  0.00    -0.201 N 
HETATM   11  C6  UNL     1       2.791   5.448   0.857  1.00  0.00     0.675 A 
ATOM     12  H2  UNL     1       4.134   5.111  -0.642  1.00  0.00     0.183 HD
HETATM   13  N4  UNL     1       1.717   4.952   1.475  1.00  0.00    -0.201 N 
HETATM   14  C7  UNL     1       1.175   3.795   1.097  1.00  0.00     0.120 A 
ATOM     15  H4  UNL     1       1.303   5.468   2.251  1.00  0.00     0.183 HD
BRANCH  11  16
HETATM   16  N3  UNL     1       3.325   6.568   1.216  1.00  0.00    -0.234 N 
ATOM     17  H32 UNL     1       4.146   6.947   0.744  1.00  0.00     0.174 HD
ATOM     18  H31 UNL     1       2.929   7.103   1.989  1.00  0.00     0.174 HD
ENDBRANCH  11  16
ENDBRANCH   2   8
BRANCH   1  19
HETATM   19  N1  UNL     1      -0.914   2.450  -1.127  1.00  0.00    -0.360 N 
HETATM   20  C1  UNL     1      -1.242   3.778  -1.121  1.00  0.00     0.120 C 
ATOM     21  H1  UNL     1      -1.726   1.955  -1.495  1.00  0.00     0.165 HD
ENDBRANCH   1  19
BRANCH   7  22
HETATM   22  C15 UNL     1      -1.774   0.046  -1.774  1.00  0.00     0.152 C 
BRANCH  22  23
HETATM   23  C16 UNL     1      -2.665  -0.247  -0.594  1.00  0.00     0.039 C 
BRANCH  23  24
HETATM   24  C17 UNL     1      -4.085  -0.535  -1.072  1.00  0.00     0.122 C 
BRANCH  24  25
HETATM   25  N8  UNL     1      -4.953  -0.821   0.056  1.00  0.00    -0.197 NA
HETATM   26  C18 UNL     1      -4.602  -2.079   0.686  1.00  0.00     0.120 C 
HETATM   27  C19 UNL     1      -5.622  -2.422   1.723  1.00  0.00     0.019 C 
HETATM   28  C20 UNL     1      -6.515  -1.200   1.934  1.00  0.00     0.029 C 
HETATM   29  C21 UNL     1      -5.550  -0.029   2.110  1.00  0.00     0.194 C 
HETATM   30  O2  UNL     1      -4.906   0.218   0.922  1.00  0.00    -0.303 OA
ENDBRANCH  24  25
ENDBRANCH  23  24
ENDBRANCH  22  23
ENDBRANCH   7  22
BRANCH   4  31
HETATM   31  N5  UNL     1       2.380  -1.626  -0.437  1.00  0.00    -0.373 N 
ATOM     32  H5  UNL     1       2.070  -2.561  -0.702  1.00  0.00     0.161 HD
BRANCH  31  33
HETATM   33  C10 UNL     1       3.704  -1.429   0.106  1.00  0.00     0.153 C 
BRANCH  33  34
HETATM   34  C11 UNL     1       4.291  -2.786   0.435  1.00  0.00     0.139 C 
HETATM   35  C12 UNL     1       4.565  -3.500  -0.859  1.00  0.00     0.035 C 
HETATM   36  C13 UNL     1       5.660  -4.465  -0.441  1.00  0.00     0.029 C 
HETATM   37  C14 UNL     1       5.990  -4.012   0.951  1.00  0.00     0.168 C 
HETATM   38  O1  UNL     1       5.581  -2.672   0.966  1.00  0.00    -0.384 OA
ENDBRANCH  33  34
ENDBRANCH  31  33
ENDBRANCH   4  31
TORSDOF 10
