REMARK  6 active torsions:
REMARK  status: ('A' for Active; 'I' for Inactive)
REMARK    1  A    between atoms: C2_2  and  C3_3 
REMARK    2  A    between atoms: C3_3  and  C4_4 
REMARK    3  A    between atoms: C4_4  and  C5_5 
REMARK    4  A    between atoms: C5_5  and  C6_6 
REMARK    5  A    between atoms: C7_9  and  O1_10 
REMARK    6  A    between atoms: C10_14  and  O2_15 
ROOT
HETATM    1  C6  UNL     1       0.658   0.165   1.356  1.00  0.00     0.136 C 
HETATM    2  N1  UNL     1       0.051   1.385   0.952  1.00  0.00    -0.361 N 
ATOM      3  H1  UNL     1      -0.061   2.050   1.717  1.00  0.00     0.162 HD
HETATM    4  C7  UNL     1      -0.421   1.863  -0.261  1.00  0.00     0.132 C 
HETATM    5  C8  UNL     1      -1.345   1.440  -1.276  1.00  0.00     0.033 C 
HETATM    6  C9  UNL     1      -2.283   0.330  -1.136  1.00  0.00     0.085 C 
HETATM    7  C10 UNL     1      -3.327   0.407  -0.096  1.00  0.00     0.223 C 
HETATM    8  N2  UNL     1      -2.999   0.814   1.191  1.00  0.00    -0.371 N 
ATOM      9  H2  UNL     1      -3.247   1.765   1.465  1.00  0.00     0.161 HD
HETATM   10  C12 UNL     1      -2.362   0.024   2.123  1.00  0.00     0.117 C 
HETATM   11  C13 UNL     1      -1.506  -1.084   1.648  1.00  0.00     0.073 A 
HETATM   12  N3  UNL     1      -1.900  -2.362   1.465  1.00  0.00    -0.350 N 
ATOM     13  H3  UNL     1      -2.843  -2.711   1.635  1.00  0.00     0.166 HD
HETATM   14  C14 UNL     1      -0.899  -3.091   1.038  1.00  0.00     0.181 A 
HETATM   15  N4  UNL     1       0.163  -2.286   0.939  1.00  0.00    -0.352 N 
ATOM     16  H4  UNL     1       1.095  -2.565   0.631  1.00  0.00     0.166 HD
HETATM   17  C15 UNL     1      -0.203  -1.045   1.314  1.00  0.00     0.061 A 
ENDROOT
BRANCH   1  18
HETATM   18  C5  UNL     1       2.025  -0.086   0.758  1.00  0.00     0.031 C 
BRANCH  18  19
HETATM   19  C4  UNL     1       2.081  -0.161  -0.719  1.00  0.00     0.002 C 
BRANCH  19  20
HETATM   20  C3  UNL     1       3.499  -0.423  -1.163  1.00  0.00    -0.000 C 
BRANCH  20  21
HETATM   21  C2  UNL     1       4.471   0.623  -0.746  1.00  0.00    -0.005 C 
HETATM   22  C1  UNL     1       5.857   0.221  -1.268  1.00  0.00     0.005 C 
ENDBRANCH  20  21
ENDBRANCH  19  20
ENDBRANCH  18  19
ENDBRANCH   1  18
BRANCH   4  23
HETATM   23  O1  UNL     1       0.108   3.016  -0.589  1.00  0.00    -0.347 OA
ATOM     24  H1  UNL     1      -0.215   3.343  -1.420  1.00  0.00     0.219 HD
ENDBRANCH   4  23
BRANCH   7  25
HETATM   25  O2  UNL     1      -4.011  -0.806  -0.065  1.00  0.00    -0.371 OA
HETATM   26  C11 UNL     1      -5.336  -0.683  -0.480  1.00  0.00     0.204 C 
ENDBRANCH   7  25
TORSDOF 6
