REMARK  11 active torsions:
REMARK  status: ('A' for Active; 'I' for Inactive)
REMARK    1  A    between atoms: C1_4  and  C2_5 
REMARK    2  A    between atoms: N2_8  and  C5_9 
REMARK    3  A    between atoms: C5_9  and  C6_10 
REMARK    4  A    between atoms: C6_10  and  C7_11 
REMARK    5  A    between atoms: C6_10  and  O2_32 
REMARK    6  A    between atoms: C7_11  and  O1_12 
REMARK    7  A    between atoms: O1_12  and  C8_13 
REMARK    8  A    between atoms: C11_16  and  C12_17 
REMARK    9  A    between atoms: N3_18  and  N4_20 
REMARK   10  A    between atoms: N4_20  and  C13_22 
REMARK   11  A    between atoms: O2_32  and  O3_33 
ROOT
HETATM    1  C8  UNL     1       0.255  -1.437  -0.388  1.00  0.00     0.068 A 
HETATM    2  C9  UNL     1       1.425  -1.975   0.112  1.00  0.00     0.037 A 
HETATM    3  C10 UNL     1       2.633  -1.342  -0.105  1.00  0.00     0.015 A 
HETATM    4  C11 UNL     1       2.734  -0.166  -0.817  1.00  0.00    -0.019 A 
HETATM    5  C17 UNL     1       1.555   0.368  -1.317  1.00  0.00     0.015 A 
HETATM    6  C18 UNL     1       0.348  -0.260  -1.102  1.00  0.00     0.037 A 
ENDROOT
BRANCH   1   7
HETATM    7  O1  UNL     1      -0.954  -2.087  -0.161  1.00  0.00    -0.348 OA
BRANCH   7   8
HETATM    8  C7  UNL     1      -2.119  -1.489  -0.698  1.00  0.00     0.212 C 
BRANCH   8   9
HETATM    9  C6  UNL     1      -3.307  -2.342  -0.342  1.00  0.00     0.202 C 
BRANCH   9  10
HETATM   10  C5  UNL     1      -4.562  -1.913  -1.049  1.00  0.00     0.165 C 
BRANCH  10  11
HETATM   11  N2  UNL     1      -4.965  -0.580  -0.769  1.00  0.00    -0.364 N 
HETATM   12  C4  UNL     1      -4.545   0.455  -1.507  1.00  0.00     0.091 A 
HETATM   13  C3  UNL     1      -4.957   1.762  -1.212  1.00  0.00     0.030 A 
HETATM   14  C2  UNL     1      -5.803   2.003  -0.156  1.00  0.00    -0.019 A 
HETATM   15  C20 UNL     1      -6.224   0.927   0.591  1.00  0.00     0.030 A 
HETATM   16  C19 UNL     1      -5.789  -0.328   0.256  1.00  0.00     0.091 A 
BRANCH  14  17
HETATM   17  C1  UNL     1      -6.243   3.353   0.167  1.00  0.00     0.092 C 
HETATM   18  N1  UNL     1      -5.896   4.404  -0.478  1.00  0.00    -0.407 N 
ATOM     19  H12 UNL     1      -5.268   4.268  -1.270  1.00  0.00     0.155 HD
ATOM     20  H11 UNL     1      -6.204   5.350  -0.252  1.00  0.00     0.155 HD
ENDBRANCH  14  17
ENDBRANCH  10  11
ENDBRANCH   9  10
BRANCH   9  21
HETATM   21  O2  UNL     1      -3.414  -2.429   1.014  1.00  0.00    -0.234 OA
BRANCH  21  22
HETATM   22  O3  UNL     1      -3.233  -3.601   1.522  1.00  0.00    -0.250 OA
ATOM     23  H3  UNL     1      -3.308  -3.662   2.467  1.00  0.00     0.253 HD
ENDBRANCH  21  22
ENDBRANCH   9  21
ENDBRANCH   8   9
ENDBRANCH   7   8
ENDBRANCH   1   7
BRANCH   4  24
HETATM   24  C12 UNL     1       4.007   0.504  -1.048  1.00  0.00     0.119 C 
HETATM   25  N3  UNL     1       5.069  -0.037  -0.561  1.00  0.00    -0.297 N 
ATOM     26  H3  UNL     1       4.983  -0.907  -0.036  1.00  0.00     0.186 HD
BRANCH  25  27
HETATM   27  N4  UNL     1       6.339   0.530  -0.728  1.00  0.00    -0.132 N 
ATOM     28  H4  UNL     1       6.664   0.781  -1.662  1.00  0.00     0.205 HD
BRANCH  27  29
HETATM   29  C13 UNL     1       7.098   0.736   0.292  1.00  0.00     0.696 A 
HETATM   30  N5  UNL     1       6.667   0.405   1.523  1.00  0.00    -0.200 N 
HETATM   31  C14 UNL     1       7.426   0.603   2.614  1.00  0.00     0.107 A 
ATOM     32  H5  UNL     1       5.740  -0.007   1.631  1.00  0.00     0.183 HD
HETATM   33  C15 UNL     1       8.672   1.160   2.436  1.00  0.00     0.035 A 
HETATM   34  C16 UNL     1       9.083   1.487   1.165  1.00  0.00     0.107 A 
HETATM   35  N6  UNL     1       8.306   1.282   0.075  1.00  0.00    -0.200 N 
ATOM     36  H6  UNL     1       8.622   1.530  -0.863  1.00  0.00     0.183 HD
ENDBRANCH  27  29
ENDBRANCH  25  27
ENDBRANCH   4  24
TORSDOF 11
