REMARK  10 active torsions:
REMARK  status: ('A' for Active; 'I' for Inactive)
REMARK    1  A    between atoms: C4_8  and  C5_9 
REMARK    2  A    between atoms: C5_9  and  C6_10 
REMARK    3  A    between atoms: C6_10  and  C7_11 
REMARK    4  A    between atoms: C7_11  and  C8_12 
REMARK    5  A    between atoms: C8_12  and  C9_13 
REMARK    6  A    between atoms: C9_13  and  C10_14 
REMARK    7  A    between atoms: C10_14  and  C11_15 
REMARK    8  A    between atoms: C11_15  and  C12_16 
REMARK    9  A    between atoms: C12_16  and  C13_17 
REMARK   10  A    between atoms: C13_17  and  O2_18 
ROOT
HETATM    1  C1  UNL     1      -5.431   0.100   2.841  1.00  0.00     0.158 C 
HETATM    2  N1  UNL     1      -4.977  -0.029   1.489  1.00  0.00    -0.329 N 
HETATM    3  C2  UNL     1      -3.726  -0.421   1.131  1.00  0.00     0.139 A 
HETATM    4  N2  UNL     1      -2.634  -0.770   1.789  1.00  0.00    -0.306 N 
ATOM      5  H2  UNL     1      -2.635  -0.780   2.809  1.00  0.00     0.170 HD
HETATM    6  C3  UNL     1      -1.498  -1.119   1.101  1.00  0.00     0.269 A 
HETATM    7  O1  UNL     1      -0.505  -1.445   1.798  1.00  0.00    -0.266 OA
HETATM    8  C4  UNL     1      -1.429  -1.125  -0.253  1.00  0.00     0.078 A 
HETATM    9  N3  UNL     1      -2.596  -0.754  -0.892  1.00  0.00    -0.351 N 
ATOM     10  H3  UNL     1      -2.607  -0.741  -1.912  1.00  0.00     0.166 HD
HETATM   11  C14 UNL     1      -3.710  -0.412  -0.240  1.00  0.00     0.096 A 
HETATM   12  C15 UNL     1      -4.973  -0.008  -0.730  1.00  0.00     0.097 A 
HETATM   13  C16 UNL     1      -5.448   0.157  -2.013  1.00  0.00     0.264 A 
HETATM   14  O3  UNL     1      -4.584  -0.107  -2.936  1.00  0.00    -0.267 OA
HETATM   15  N4  UNL     1      -6.676   0.550  -2.355  1.00  0.00    -0.284 N 
ATOM     16  H4  UNL     1      -6.859   0.618  -3.356  1.00  0.00     0.172 HD
HETATM   17  C17 UNL     1      -7.692   0.864  -1.556  1.00  0.00     0.292 A 
HETATM   18  O4  UNL     1      -8.792   1.219  -2.065  1.00  0.00    -0.260 OA
HETATM   19  S1  UNL     1      -7.341   0.734   0.102  1.00  0.00    -0.010 SA
HETATM   20  C18 UNL     1      -5.723   0.217   0.403  1.00  0.00     0.101 A 
ENDROOT
BRANCH   8  21
HETATM   21  C5  UNL     1      -0.254  -1.423  -1.111  1.00  0.00     0.063 C 
BRANCH  21  22
HETATM   22  C6  UNL     1       0.638  -0.294  -1.422  1.00  0.00     0.006 C 
BRANCH  22  23
HETATM   23  C7  UNL     1       1.423   0.309  -0.326  1.00  0.00     0.000 C 
BRANCH  23  24
HETATM   24  C8  UNL     1       2.475  -0.605   0.240  1.00  0.00     0.000 C 
BRANCH  24  25
HETATM   25  C9  UNL     1       3.172   0.138   1.349  1.00  0.00     0.000 C 
BRANCH  25  26
HETATM   26  C10 UNL     1       3.833   1.405   0.918  1.00  0.00     0.000 C 
BRANCH  26  27
HETATM   27  C11 UNL     1       4.890   1.217  -0.124  1.00  0.00     0.002 C 
BRANCH  27  28
HETATM   28  C12 UNL     1       6.014   0.313   0.360  1.00  0.00     0.026 C 
BRANCH  28  29
HETATM   29  C13 UNL     1       7.030   0.190  -0.763  1.00  0.00     0.164 C 
BRANCH  29  30
HETATM   30  O2  UNL     1       8.088  -0.647  -0.343  1.00  0.00    -0.401 OA
ATOM     31  H2  UNL     1       8.723  -0.724  -1.045  1.00  0.00     0.209 HD
ENDBRANCH  29  30
ENDBRANCH  28  29
ENDBRANCH  27  28
ENDBRANCH  26  27
ENDBRANCH  25  26
ENDBRANCH  24  25
ENDBRANCH  23  24
ENDBRANCH  22  23
ENDBRANCH  21  22
ENDBRANCH   8  21
TORSDOF 10
