REMARK  2 active torsions:
REMARK  status: ('A' for Active; 'I' for Inactive)
REMARK    1  A    between atoms: C3_5  and  N2_6 
REMARK    2  A    between atoms: N2_6  and  C4_8 
ROOT
HETATM    1  N2  UNL     1      -0.432   1.548   0.060  1.00  0.00    -0.195 N 
ATOM      2  H2  UNL     1      -0.381   2.273   0.776  1.00  0.00     0.180 HD
ENDROOT
BRANCH   1   3
HETATM    3  C3  UNL     1      -1.509   0.868  -0.136  1.00  0.00     0.679 A 
HETATM    4  N1  UNL     1      -1.640  -0.096  -1.059  1.00  0.00    -0.202 N 
HETATM    5  C2  UNL     1      -2.790  -0.774  -1.220  1.00  0.00     0.107 A 
ATOM      6  H1  UNL     1      -0.844  -0.321  -1.656  1.00  0.00     0.183 HD
HETATM    7  C1  UNL     1      -3.857  -0.461  -0.406  1.00  0.00     0.035 A 
HETATM    8  C11 UNL     1      -3.746   0.525   0.549  1.00  0.00     0.107 A 
HETATM    9  N3  UNL     1      -2.561   1.158   0.648  1.00  0.00    -0.202 N 
ATOM     10  H3  UNL     1      -2.458   1.891   1.350  1.00  0.00     0.183 HD
ENDBRANCH   1   3
BRANCH   1  11
HETATM   11  C4  UNL     1       0.706   1.234  -0.786  1.00  0.00     0.281 A 
HETATM   12  O1  UNL     1       1.840   2.011  -0.593  1.00  0.00    -0.320 OA
HETATM   13  C5  UNL     1       2.533   0.928  -0.058  1.00  0.00     0.082 A 
HETATM   14  C6  UNL     1       3.698   0.394   0.498  1.00  0.00     0.037 A 
HETATM   15  C10 UNL     1       1.454   0.105  -0.219  1.00  0.00     0.024 A 
HETATM   16  C7  UNL     1       3.807  -0.921   0.888  1.00  0.00     0.003 A 
HETATM   17  C8  UNL     1       2.692  -1.718   0.708  1.00  0.00     0.001 A 
HETATM   18  C9  UNL     1       1.531  -1.238   0.169  1.00  0.00     0.014 A 
ENDBRANCH   1  11
TORSDOF 2
