REMARK  2 active torsions:
REMARK  status: ('A' for Active; 'I' for Inactive)
REMARK    1  A    between atoms: N1_2  and  C2_4 
REMARK    2  A    between atoms: C3_7  and  C4_8 
ROOT
HETATM    1  C2  UNL     1       2.175   0.117   0.377  1.00  0.00     0.144 A 
HETATM    2  N2  UNL     1       0.860   0.117   0.554  1.00  0.00    -0.336 N 
ATOM      3  H2  UNL     1       0.460   0.259   1.482  1.00  0.00     0.168 HD
HETATM    4  C3  UNL     1       0.090  -0.068  -0.480  1.00  0.00     0.052 A 
HETATM    5  C9  UNL     1       0.693  -0.253  -1.702  1.00  0.00     0.083 A 
HETATM    6  S1  UNL     1       2.358  -0.148  -1.286  1.00  0.00    -0.064 SA
ENDROOT
BRANCH   4   7
HETATM    7  C4  UNL     1      -1.403  -0.089  -0.399  1.00  0.00     0.006 A 
HETATM    8  C5  UNL     1      -2.073   0.089   0.789  1.00  0.00     0.016 A 
HETATM    9  C6  UNL     1      -3.443   0.068   0.849  1.00  0.00     0.018 A 
HETATM   10  C7  UNL     1      -4.152  -0.135  -0.306  1.00  0.00     0.087 A 
HETATM   11  N3  UNL     1      -3.524  -0.310  -1.475  1.00  0.00    -0.374 N 
HETATM   12  C8  UNL     1      -2.183  -0.286  -1.512  1.00  0.00     0.101 A 
ATOM     13  H3  UNL     1      -4.060  -0.460  -2.330  1.00  0.00     0.164 HD
ENDBRANCH   4   7
BRANCH   1  14
HETATM   14  N1  UNL     1       3.084   0.283   1.275  1.00  0.00    -0.375 N 
HETATM   15  C1  UNL     1       4.493   0.265   0.968  1.00  0.00     0.148 C 
ATOM     16  H1  UNL     1       2.795   0.433   2.242  1.00  0.00     0.161 HD
ENDBRANCH   1  14
TORSDOF 2
