REMARK  18 active torsions:
REMARK  status: ('A' for Active; 'I' for Inactive)
REMARK    1  A    between atoms: C2_2  and  C3_3 
REMARK    2  A    between atoms: C3_3  and  C4_4 
REMARK    3  A    between atoms: C4_4  and  C5_5 
REMARK    4  A    between atoms: C5_5  and  C6_6 
REMARK    5  A    between atoms: C6_6  and  C7_7 
REMARK    6  A    between atoms: C7_7  and  C8_8 
REMARK    7  A    between atoms: C8_8  and  C9_9 
REMARK    8  A    between atoms: C9_9  and  C10_10 
REMARK    9  A    between atoms: C10_10  and  C11_11 
REMARK   10  A    between atoms: C11_11  and  C12_12 
REMARK   11  A    between atoms: C12_12  and  N1_13 
REMARK       I    between atoms: N1_13  and  C13_15 
REMARK   12  A    between atoms: C13_15  and  C14_17 
REMARK   13  A    between atoms: C20_26  and  C21_27 
REMARK   14  A    between atoms: C20_26  and  N4_29 
REMARK   15  A    between atoms: N4_29  and  C23_31 
REMARK   16  A    between atoms: C25_34  and  O2_35 
REMARK   17  A    between atoms: C30_45  and  C31_46 
REMARK   18  A    between atoms: C31_46  and  C32_47 
ROOT
HETATM    1  C14 UNL     1      -1.797   0.798  -0.253  1.00  0.00     0.125 C 
HETATM    2  C15 UNL     1      -3.038   0.032  -0.666  1.00  0.00     0.049 C 
HETATM    3  C16 UNL     1      -3.522  -0.942   0.375  1.00  0.00     0.136 C 
HETATM    4  N2  UNL     1      -4.629  -0.429   1.179  1.00  0.00    -0.348 N 
HETATM    5  C17 UNL     1      -5.907  -0.467   0.468  1.00  0.00     0.150 C 
HETATM    6  C18 UNL     1      -6.219  -1.923   0.172  1.00  0.00     0.093 C 
HETATM    7  C19 UNL     1      -6.978  -2.499   1.390  1.00  0.00     0.033 C 
HETATM    8  N3  UNL     1      -5.157  -2.763  -0.082  1.00  0.00    -0.390 N 
ATOM      9  H3  UNL     1      -5.358  -3.743  -0.281  1.00  0.00     0.156 HD
HETATM   10  C20 UNL     1      -3.792  -2.345  -0.083  1.00  0.00     0.121 C 
HETATM   11  C25 UNL     1      -4.600   0.036   2.510  1.00  0.00     0.186 C 
HETATM   12  C26 UNL     1      -3.831   1.117   3.098  1.00  0.00     0.212 C 
HETATM   13  O3  UNL     1      -2.951   0.751   3.973  1.00  0.00    -0.288 OA
HETATM   14  C27 UNL     1      -3.891   2.562   2.863  1.00  0.00     0.152 C 
HETATM   15  C28 UNL     1      -5.177   3.076   2.248  1.00  0.00     0.028 C 
HETATM   16  C29 UNL     1      -2.682   3.170   2.252  1.00  0.00     0.233 C 
HETATM   17  O4  UNL     1      -2.442   4.370   2.681  1.00  0.00    -0.272 OA
HETATM   18  N5  UNL     1      -1.792   2.669   1.320  1.00  0.00    -0.333 N 
ATOM     19  H5  UNL     1      -0.839   2.564   1.669  1.00  0.00     0.168 HD
HETATM   20  C30 UNL     1      -1.962   2.266  -0.059  1.00  0.00     0.003 C 
ENDROOT
BRANCH   1  21
HETATM   21  C13 UNL     1      -0.611   0.429  -1.088  1.00  0.00     0.227 C 
HETATM   22  N1  UNL     1       0.619   1.071  -0.794  1.00  0.00    -0.360 N 
ATOM     23  H1  UNL     1       0.681   1.753  -0.038  1.00  0.00     0.162 HD
HETATM   24  O1  UNL     1      -0.671  -0.406  -2.014  1.00  0.00    -0.273 OA
BRANCH  22  25
HETATM   25  C12 UNL     1       1.791   0.740  -1.589  1.00  0.00     0.122 C 
BRANCH  25  26
HETATM   26  C11 UNL     1       2.993   1.502  -1.150  1.00  0.00     0.020 C 
BRANCH  26  27
HETATM   27  C10 UNL     1       3.349   1.208   0.278  1.00  0.00     0.002 C 
BRANCH  27  28
HETATM   28  C9  UNL     1       4.567   1.977   0.739  1.00  0.00     0.000 C 
BRANCH  28  29
HETATM   29  C8  UNL     1       5.762   1.633  -0.111  1.00  0.00     0.000 C 
BRANCH  29  30
HETATM   30  C7  UNL     1       6.052   0.171  -0.026  1.00  0.00     0.000 C 
BRANCH  30  31
HETATM   31  C6  UNL     1       6.352  -0.261   1.375  1.00  0.00     0.000 C 
BRANCH  31  32
HETATM   32  C5  UNL     1       6.633  -1.728   1.421  1.00  0.00     0.000 C 
BRANCH  32  33
HETATM   33  C4  UNL     1       7.800  -2.135   0.576  1.00  0.00     0.000 C 
BRANCH  33  34
HETATM   34  C3  UNL     1       9.080  -1.436   1.019  1.00  0.00    -0.000 C 
BRANCH  34  35
HETATM   35  C2  UNL     1      10.194  -1.917   0.103  1.00  0.00    -0.005 C 
HETATM   36  C1  UNL     1      11.463  -1.207   0.559  1.00  0.00     0.005 C 
ENDBRANCH  34  35
ENDBRANCH  33  34
ENDBRANCH  32  33
ENDBRANCH  31  32
ENDBRANCH  30  31
ENDBRANCH  29  30
ENDBRANCH  28  29
ENDBRANCH  27  28
ENDBRANCH  26  27
ENDBRANCH  25  26
ENDBRANCH  22  25
ENDBRANCH   1  21
BRANCH  20  37
HETATM   37  C31 UNL     1      -3.020   2.950  -0.831  1.00  0.00     0.057 C 
BRANCH  37  38
HETATM   38  C32 UNL     1      -2.838   2.857  -2.326  1.00  0.00    -0.018 C 
HETATM   39  C33 UNL     1      -1.552   3.477  -2.823  1.00  0.00     0.010 C 
HETATM   40  C34 UNL     1      -3.977   3.557  -3.061  1.00  0.00     0.010 C 
ENDBRANCH  37  38
ENDBRANCH  20  37
BRANCH  10  41
HETATM   41  C21 UNL     1      -3.172  -3.296   0.992  1.00  0.00     0.051 C 
HETATM   42  C22 UNL     1      -3.375  -4.730   0.640  1.00  0.00     0.009 C 
ENDBRANCH  10  41
BRANCH  10  43
HETATM   43  N4  UNL     1      -3.188  -2.760  -1.314  1.00  0.00    -0.357 N 
ATOM     44  H4  UNL     1      -2.292  -3.238  -1.216  1.00  0.00     0.162 HD
BRANCH  43  45
HETATM   45  C23 UNL     1      -3.638  -2.610  -2.626  1.00  0.00     0.071 C 
HETATM   46  C24 UNL     1      -2.809  -3.122  -3.779  1.00  0.00     0.081 C 
HETATM   47  S1  UNL     1      -5.052  -1.927  -3.065  1.00  0.00    -0.066 SA
ENDBRANCH  43  45
ENDBRANCH  10  43
BRANCH  11  48
HETATM   48  O2  UNL     1      -5.390  -0.603   3.357  1.00  0.00    -0.344 OA
ATOM     49  H2  UNL     1      -5.370  -0.290   4.254  1.00  0.00     0.219 HD
ENDBRANCH  11  48
TORSDOF 18
