REMARK  4 active torsions:
REMARK  status: ('A' for Active; 'I' for Inactive)
REMARK    1  A    between atoms: C2_2  and  C3_4 
REMARK    2  A    between atoms: C4_5  and  O2_6 
REMARK    3  A    between atoms: C9_12  and  O3_13 
REMARK    4  A    between atoms: O3_13  and  C10_14 
ROOT
HETATM    1  C3  UNL     1       0.419   1.679   0.298  1.00  0.00     0.077 A 
HETATM    2  C4  UNL     1      -0.837   2.124   0.820  1.00  0.00     0.088 A 
HETATM    3  C5  UNL     1      -1.974   1.378   0.690  1.00  0.00    -0.021 A 
HETATM    4  C6  UNL     1      -3.306   1.824   1.218  1.00  0.00     0.052 C 
HETATM    5  C7  UNL     1      -1.914   0.174   0.045  1.00  0.00    -0.040 A 
HETATM    6  C8  UNL     1      -0.687  -0.270  -0.469  1.00  0.00    -0.017 A 
HETATM    7  C9  UNL     1       0.477   0.460  -0.346  1.00  0.00     0.092 A 
HETATM    8  C13 UNL     1      -0.811  -1.525  -1.284  1.00  0.00     0.042 C 
HETATM    9  C14 UNL     1      -1.506  -2.545  -0.416  1.00  0.00     0.005 C 
HETATM   10  C15 UNL     1      -2.911  -2.126  -0.105  1.00  0.00     0.005 C 
HETATM   11  C16 UNL     1      -3.138  -0.647  -0.088  1.00  0.00     0.040 C 
ENDROOT
BRANCH   7  12
HETATM   12  O3  UNL     1       1.659  -0.060  -0.860  1.00  0.00    -0.345 OA
BRANCH  12  13
HETATM   13  C10 UNL     1       2.633  -0.802  -0.212  1.00  0.00     0.120 C 
HETATM   14  C11 UNL     1       2.268  -2.261   0.112  1.00  0.00     0.040 C 
HETATM   15  C12 UNL     1       3.907  -0.826  -1.020  1.00  0.00     0.040 C 
ENDBRANCH  12  13
ENDBRANCH   7  12
BRANCH   1  16
HETATM   16  C2  UNL     1       1.503   2.624   0.441  1.00  0.00     0.161 C 
HETATM   17  C1  UNL     1       2.879   2.534  -0.010  1.00  0.00     0.097 C 
HETATM   18  O1  UNL     1       1.236   3.731   1.052  1.00  0.00    -0.293 OA
ENDBRANCH   1  16
BRANCH   2  19
HETATM   19  O2  UNL     1      -0.879   3.333   1.463  1.00  0.00    -0.359 OA
ATOM     20  H2  UNL     1      -1.713   3.628   1.810  1.00  0.00     0.217 HD
ENDBRANCH   2  19
TORSDOF 4
