REMARK  6 active torsions:
REMARK  status: ('A' for Active; 'I' for Inactive)
REMARK    1  A    between atoms: N1_1  and  C1_4 
REMARK    2  A    between atoms: C2_10  and  C3_11 
REMARK       I    between atoms: C3_11  and  N4_13 
REMARK    3  A    between atoms: N4_13  and  C4_15 
REMARK    4  A    between atoms: C5_21  and  N7_22 
REMARK    5  A    between atoms: N7_22  and  N8_23 
REMARK    6  A    between atoms: N7_22  and  N9_26 
ROOT
HETATM    1  C4  UNL     1      -0.920   0.658   0.476  1.00  0.00     0.180 A 
HETATM    2  N5  UNL     1      -0.586   1.869   0.984  1.00  0.00    -0.222 N 
ATOM      3  H5  UNL     1       0.310   2.118   1.404  1.00  0.00     0.198 HD
HETATM    4  O3  UNL     1      -1.609   2.655   0.841  1.00  0.00    -0.153 OA
HETATM    5  N6  UNL     1      -2.596   2.014   0.262  1.00  0.00    -0.219 N 
ATOM      6  H6  UNL     1      -3.508   2.411   0.038  1.00  0.00     0.198 HD
HETATM    7  C5  UNL     1      -2.211   0.742   0.009  1.00  0.00     0.212 A 
ENDROOT
BRANCH   1   8
HETATM    8  N4  UNL     1      -0.155  -0.386   0.448  1.00  0.00    -0.303 N 
HETATM    9  C3  UNL     1       1.174  -0.343   0.980  1.00  0.00     0.279 C 
HETATM   10  O2  UNL     1       1.396  -0.130   2.190  1.00  0.00    -0.265 OA
ATOM     11  H4  UNL     1      -0.504  -1.253   0.040  1.00  0.00     0.171 HD
BRANCH   9  12
HETATM   12  C2  UNL     1       2.295  -0.554   0.079  1.00  0.00     0.169 A 
HETATM   13  C1  UNL     1       3.621  -0.557   0.388  1.00  0.00     0.155 A 
HETATM   14  N2  UNL     1       4.270  -0.799  -0.797  1.00  0.00    -0.224 N 
HETATM   15  O1  UNL     1       3.396  -0.933  -1.752  1.00  0.00    -0.155 OA
ATOM     16  H2  UNL     1       5.281  -0.864  -0.912  1.00  0.00     0.198 HD
HETATM   17  N3  UNL     1       2.200  -0.794  -1.273  1.00  0.00    -0.233 N 
ATOM     18  H3  UNL     1       1.334  -0.853  -1.808  1.00  0.00     0.197 HD
BRANCH  13  19
HETATM   19  N1  UNL     1       4.216  -0.384   1.497  1.00  0.00    -0.382 N 
ATOM     20  H12 UNL     1       5.209  -0.386   1.728  1.00  0.00     0.157 HD
ATOM     21  H11 UNL     1       3.734  -0.204   2.378  1.00  0.00     0.157 HD
ENDBRANCH  13  19
ENDBRANCH   9  12
ENDBRANCH   1   8
BRANCH   7  22
HETATM   22  N7  UNL     1      -3.004  -0.260  -0.612  1.00  0.00    -0.187 N 
BRANCH  22  23
HETATM   23  N8  UNL     1      -2.994  -0.323  -2.007  1.00  0.00    -0.323 N 
ATOM     24  H82 UNL     1      -2.427   0.345  -2.529  1.00  0.00     0.179 HD
ATOM     25  H81 UNL     1      -3.563  -1.042  -2.453  1.00  0.00     0.179 HD
ENDBRANCH  22  23
BRANCH  22  26
HETATM   26  N9  UNL     1      -3.777  -1.171   0.099  1.00  0.00    -0.323 N 
ATOM     27  H92 UNL     1      -3.784  -1.125   1.118  1.00  0.00     0.179 HD
ATOM     28  H91 UNL     1      -4.346  -1.890  -0.347  1.00  0.00     0.179 HD
ENDBRANCH  22  26
ENDBRANCH   7  22
TORSDOF 6
