REMARK  0 active torsions:
REMARK  status: ('A' for Active; 'I' for Inactive)
ROOT
HETATM    1  O1  UNL     1       3.771  -0.308   1.036  1.00  0.00    -0.289 OA
HETATM    2  C1  UNL     1       2.683  -0.211   0.442  1.00  0.00     0.172 C 
HETATM    3  C2  UNL     1       2.056  -1.390   0.032  1.00  0.00     0.055 C 
HETATM    4  C3  UNL     1       0.722  -1.564  -0.276  1.00  0.00     0.016 C 
HETATM    5  C4  UNL     1      -0.314  -0.658  -0.183  1.00  0.00    -0.026 A 
HETATM    6  C5  UNL     1      -1.568  -1.245  -0.237  1.00  0.00     0.012 A 
HETATM    7  C6  UNL     1      -2.728  -0.501  -0.159  1.00  0.00     0.001 A 
HETATM    8  C7  UNL     1      -2.676   0.871  -0.024  1.00  0.00     0.001 A 
HETATM    9  C8  UNL     1      -1.420   1.457   0.030  1.00  0.00     0.012 A 
HETATM   10  C9  UNL     1      -0.256   0.715  -0.047  1.00  0.00    -0.026 A 
HETATM   11  C10 UNL     1       0.896   1.475   0.024  1.00  0.00     0.016 C 
HETATM   12  C11 UNL     1       2.212   1.073   0.253  1.00  0.00     0.055 C 
ENDROOT
TORSDOF 0
