REMARK  2 active torsions:
REMARK  status: ('A' for Active; 'I' for Inactive)
REMARK    1  A    between atoms: C2_2  and  N1_3 
REMARK    2  A    between atoms: C2_2  and  N2_6 
ROOT
HETATM    1  N2  UNL     1      -0.293   0.079   0.503  1.00  0.00    -0.027 N 
HETATM    2  C4  UNL     1       0.048  -0.428   1.826  1.00  0.00     0.281 C 
HETATM    3  C5  UNL     1      -1.398  -0.666  -0.071  1.00  0.00     0.245 C 
HETATM    4  C6  UNL     1      -2.428   0.332  -0.547  1.00  0.00     0.030 C 
HETATM    5  C7  UNL     1      -1.570   1.607  -0.631  1.00  0.00     0.030 C 
HETATM    6  C8  UNL     1      -0.761   1.411   0.635  1.00  0.00     0.245 C 
ENDROOT
BRANCH   1   7
HETATM    7  C2  UNL     1       0.870  -0.000  -0.276  1.00  0.00     0.193 C 
HETATM    8  C1  UNL     1       1.499   1.008  -0.825  1.00  0.00     0.071 C 
BRANCH   7   9
HETATM    9  N1  UNL     1       1.388  -1.333  -0.464  1.00  0.00    -0.375 N 
HETATM   10  C3  UNL     1       2.635  -1.684   0.158  1.00  0.00     0.147 C 
ATOM     11  H1  UNL     1       0.879  -2.014  -1.028  1.00  0.00     0.160 HD
ENDBRANCH   7   9
ENDBRANCH   1   7
TORSDOF 2
