REMARK  9 active torsions:
REMARK  status: ('A' for Active; 'I' for Inactive)
REMARK    1  A    between atoms: N1_1  and  C1_4 
REMARK    2  A    between atoms: C4_12  and  O1_13 
REMARK    3  A    between atoms: C5_15  and  C6_16 
REMARK    4  A    between atoms: C6_16  and  C7_17 
REMARK    5  A    between atoms: C6_16  and  C8_20 
REMARK    6  A    between atoms: C9_25  and  S1_26 
REMARK    7  A    between atoms: C10_36  and  C11_37 
REMARK    8  A    between atoms: C11_37  and  N9_38 
REMARK    9  A    between atoms: C11_37  and  O8_42 
ROOT
HETATM    1  C1  UNL     1      -3.774   0.033  -0.105  1.00  0.00     0.129 C 
HETATM    2  N2  UNL     1      -3.434  -1.250  -0.362  1.00  0.00    -0.326 N 
ATOM      3  H2  UNL     1      -4.216  -1.899  -0.448  1.00  0.00     0.169 HD
HETATM    4  C2  UNL     1      -2.204  -1.799  -0.522  1.00  0.00     0.134 C 
HETATM    5  N3  UNL     1      -2.127  -2.899  -1.176  1.00  0.00    -0.383 N 
ATOM      6  H31 UNL     1      -1.202  -3.312  -1.296  1.00  0.00     0.157 HD
ATOM      7  H32 UNL     1      -3.013  -3.271  -1.519  1.00  0.00     0.157 HD
HETATM    8  C3  UNL     1      -1.019  -1.301  -0.063  1.00  0.00     0.153 A 
HETATM    9  C4  UNL     1       0.074  -2.060   0.273  1.00  0.00     0.125 A 
HETATM   10  C5  UNL     1       1.042  -1.125   0.677  1.00  0.00     0.086 A 
HETATM   11  N6  UNL     1       0.489   0.066   0.562  1.00  0.00    -0.279 N 
ATOM     12  H6  UNL     1       0.970   0.936   0.790  1.00  0.00     0.189 HD
HETATM   13  N7  UNL     1      -0.749   0.012   0.121  1.00  0.00    -0.190 N 
HETATM   14  N8  UNL     1      -1.544   1.071  -0.084  1.00  0.00    -0.275 N 
ATOM     15  H8  UNL     1      -1.077   1.953  -0.294  1.00  0.00     0.189 HD
HETATM   16  C10 UNL     1      -2.910   1.103  -0.044  1.00  0.00     0.127 C 
ENDROOT
BRANCH  10  17
HETATM   17  C6  UNL     1       2.418  -1.481   1.129  1.00  0.00     0.217 C 
BRANCH  17  18
HETATM   18  C7  UNL     1       2.801  -2.835   0.655  1.00  0.00     0.191 C 
HETATM   19  O2  UNL     1       3.039  -3.763   1.466  1.00  0.00    -0.647 OA
HETATM   20  O3  UNL     1       2.901  -3.090  -0.690  1.00  0.00    -0.647 OA
ENDBRANCH  17  18
BRANCH  17  21
HETATM   21  C8  UNL     1       3.409  -0.493   0.555  1.00  0.00     0.162 A 
HETATM   22  N4  UNL     1       4.049  -0.619  -0.619  1.00  0.00    -0.280 N 
HETATM   23  N5  UNL     1       4.827   0.462  -0.750  1.00  0.00    -0.266 N 
ATOM     24  H4  UNL     1       3.959  -1.389  -1.282  1.00  0.00     0.189 HD
HETATM   25  C9  UNL     1       4.665   1.245   0.338  1.00  0.00     0.284 A 
ATOM     26  H5  UNL     1       5.440   0.661  -1.540  1.00  0.00     0.190 HD
HETATM   27  O7  UNL     1       3.806   0.628   1.088  1.00  0.00    -0.265 OA
BRANCH  25  28
HETATM   28  S1  UNL     1       5.492   2.774   0.599  1.00  0.00     0.181 S 
HETATM   29  O4  UNL     1       6.802   2.764  -0.137  1.00  0.00    -0.589 OA
HETATM   30  O5  UNL     1       5.767   3.036   2.031  1.00  0.00    -0.589 OA
HETATM   31  O6  UNL     1       4.592   4.058  -0.037  1.00  0.00    -0.589 OA
ENDBRANCH  25  28
ENDBRANCH  17  21
ENDBRANCH  10  17
BRANCH   9  32
HETATM   32  O1  UNL     1       0.232  -3.427   0.240  1.00  0.00    -0.356 OA
ATOM     33  H1  UNL     1       0.989  -3.952   0.473  1.00  0.00     0.218 HD
ENDBRANCH   9  32
BRANCH  16  34
HETATM   34  C11 UNL     1      -3.582   2.412   0.078  1.00  0.00     0.372 C 
BRANCH  34  35
HETATM   35  N9  UNL     1      -4.690   2.538  -0.826  1.00  0.00    -0.047 N 
ATOM     36  H93 UNL     1      -4.404   2.358  -1.788  1.00  0.00     0.277 HD
ATOM     37  H92 UNL     1      -5.352   1.771  -0.708  1.00  0.00     0.277 HD
ATOM     38  H91 UNL     1      -5.154   3.442  -0.742  1.00  0.00     0.277 HD
ENDBRANCH  34  35
BRANCH  34  39
HETATM   39  O8  UNL     1      -3.936   2.701   1.394  1.00  0.00    -0.365 OA
ATOM     40  H8  UNL     1      -4.368   3.543   1.472  1.00  0.00     0.212 HD
ENDBRANCH  34  39
ENDBRANCH  16  34
BRANCH   1  41
HETATM   41  N1  UNL     1      -5.024   0.259   0.098  1.00  0.00    -0.384 N 
ATOM     42  H12 UNL     1      -5.664  -0.534   0.053  1.00  0.00     0.157 HD
ATOM     43  H11 UNL     1      -5.281   1.227   0.292  1.00  0.00     0.157 HD
ENDBRANCH   1  41
TORSDOF 9
