REMARK  4 active torsions:
REMARK  status: ('A' for Active; 'I' for Inactive)
REMARK    1  A    between atoms: N1_1  and  C1_4 
REMARK    2  A    between atoms: C7_18  and  C8_19 
REMARK    3  A    between atoms: C8_19  and  S1_20 
REMARK    4  A    between atoms: S1_20  and  C9_21 
ROOT
HETATM    1  C1  UNL     1      -2.749  -1.040   1.004  1.00  0.00     0.129 A 
HETATM    2  N2  UNL     1      -4.020  -1.493   1.062  1.00  0.00    -0.328 N 
ATOM      3  H2  UNL     1      -4.225  -2.293   1.660  1.00  0.00     0.168 HD
HETATM    4  C2  UNL     1      -5.026  -0.936   0.367  1.00  0.00     0.143 A 
HETATM    5  N3  UNL     1      -6.359  -1.407   0.424  1.00  0.00    -0.081 NA
HETATM    6  C3  UNL     1      -4.733   0.147  -0.436  1.00  0.00     0.101 A 
HETATM    7  N4  UNL     1      -5.738   0.797  -1.204  1.00  0.00    -0.098 NA
HETATM    8  C4  UNL     1      -3.459   0.658  -0.539  1.00  0.00     0.039 A 
HETATM    9  C5  UNL     1      -3.138   1.728  -1.325  1.00  0.00     0.122 A 
HETATM   10  N5  UNL     1      -1.885   2.186  -1.391  1.00  0.00    -0.200 N 
ATOM     11  H5  UNL     1      -1.655   2.986  -1.981  1.00  0.00     0.183 HD
HETATM   12  C6  UNL     1      -0.935   1.575  -0.668  1.00  0.00     0.689 A 
HETATM   13  N6  UNL     1       0.391   1.831  -0.553  1.00  0.00    -0.193 N 
ATOM     14  H6  UNL     1       0.886   2.580  -1.038  1.00  0.00     0.184 HD
HETATM   15  C7  UNL     1       0.955   0.959   0.288  1.00  0.00     0.052 A 
HETATM   16  C12 UNL     1      -0.063   0.118   0.720  1.00  0.00     0.142 A 
HETATM   17  N10 UNL     1      -1.172   0.507   0.137  1.00  0.00    -0.151 N 
HETATM   18  C13 UNL     1      -2.455   0.040   0.203  1.00  0.00     0.113 A 
ENDROOT
BRANCH  15  19
HETATM   19  C8  UNL     1       2.406   0.907   0.682  1.00  0.00     0.141 C 
BRANCH  19  20
HETATM   20  S1  UNL     1       3.234  -0.196  -0.527  1.00  0.00    -0.088 SA
BRANCH  20  21
HETATM   21  C9  UNL     1       4.983  -0.298  -0.106  1.00  0.00     0.150 A 
HETATM   22  N7  UNL     1       5.449  -1.240   0.734  1.00  0.00    -0.313 N 
HETATM   23  C10 UNL     1       6.756  -1.334   1.062  1.00  0.00     0.181 A 
ATOM     24  H7  UNL     1       4.792  -1.907   1.138  1.00  0.00     0.170 HD
HETATM   25  S2  UNL     1       7.296  -2.487   2.085  1.00  0.00    -0.040 SA
HETATM   26  N8  UNL     1       7.639  -0.462   0.540  1.00  0.00    -0.285 N 
HETATM   27  C11 UNL     1       7.204   0.492  -0.304  1.00  0.00     0.328 A 
ATOM     28  H8  UNL     1       8.628  -0.524   0.782  1.00  0.00     0.173 HD
HETATM   29  O1  UNL     1       7.991   1.333  -0.821  1.00  0.00    -0.247 OA
HETATM   30  N9  UNL     1       5.883   0.567  -0.620  1.00  0.00    -0.289 N 
ATOM     31  H9  UNL     1       5.565   1.294  -1.261  1.00  0.00     0.172 HD
ENDBRANCH  20  21
ENDBRANCH  19  20
ENDBRANCH  15  19
BRANCH   1  32
HETATM   32  N1  UNL     1      -1.910  -1.682   1.726  1.00  0.00    -0.384 N 
ATOM     33  H12 UNL     1      -2.128  -2.482   2.320  1.00  0.00     0.157 HD
ATOM     34  H11 UNL     1      -0.950  -1.340   1.682  1.00  0.00     0.157 HD
ENDBRANCH   1  32
TORSDOF 4
