REMARK  1 active torsions:
REMARK  status: ('A' for Active; 'I' for Inactive)
REMARK    1  A    between atoms: O1_1  and  C1_3 
ROOT
HETATM    1  C1  UNL     1       1.343  -0.187  -0.128  1.00  0.00     0.183 C 
HETATM    2  C2  UNL     1       0.445  -0.151   1.102  1.00  0.00     0.069 C 
HETATM    3  C3  UNL     1      -0.754   0.656   0.756  1.00  0.00     0.172 C 
HETATM    4  O2  UNL     1      -1.680   0.093  -0.021  1.00  0.00    -0.381 OA
HETATM    5  C4  UNL     1      -1.377  -0.786  -0.978  1.00  0.00     0.244 C 
HETATM    6  S1  UNL     1       0.332  -1.085  -1.358  1.00  0.00    -0.112 SA
ENDROOT
BRANCH   1   7
HETATM    7  O1  UNL     1       1.529   1.098  -0.650  1.00  0.00    -0.385 OA
ATOM      8  H1  UNL     1       2.089   1.076  -1.417  1.00  0.00     0.211 HD
ENDBRANCH   1   7
TORSDOF 1
