REMARK  9 active torsions:
REMARK  status: ('A' for Active; 'I' for Inactive)
REMARK    1  A    between atoms: C1_2  and  C2_4 
REMARK    2  A    between atoms: C2_4  and  C3_5 
REMARK    3  A    between atoms: C2_4  and  C8_12 
REMARK    4  A    between atoms: C8_12  and  O2_13 
REMARK    5  A    between atoms: C8_12  and  S1_15 
REMARK    6  A    between atoms: S1_15  and  C9_16 
REMARK    7  A    between atoms: C9_16  and  C10_17 
REMARK    8  A    between atoms: C10_17  and  N3_18 
REMARK    9  A    between atoms: C10_17  and  C11_22 
ROOT
HETATM    1  C8  UNL     1      -0.226  -0.056   0.430  1.00  0.00     0.196 C 
ENDROOT
BRANCH   1   2
HETATM    2  C2  UNL     1      -1.126  -0.818  -0.519  1.00  0.00     0.148 C 
BRANCH   2   3
HETATM    3  C1  UNL     1      -1.158  -0.237  -1.863  1.00  0.00     0.243 C 
HETATM    4  N1  UNL     1      -1.666   1.033  -2.176  1.00  0.00    -0.061 NA
HETATM    5  O1  UNL     1      -0.699  -0.914  -2.826  1.00  0.00    -0.276 OA
ENDBRANCH   2   3
BRANCH   2   6
HETATM    6  C3  UNL     1      -2.494  -0.937   0.040  1.00  0.00    -0.027 A 
HETATM    7  C4  UNL     1      -3.309   0.156   0.266  1.00  0.00     0.011 A 
HETATM    8  C5  UNL     1      -4.587   0.014   0.790  1.00  0.00     0.018 A 
HETATM    9  C6  UNL     1      -5.081  -1.236   1.101  1.00  0.00     0.087 A 
HETATM   10  N2  UNL     1      -4.274  -2.294   0.875  1.00  0.00    -0.375 N 
HETATM   11  C7  UNL     1      -3.048  -2.171   0.373  1.00  0.00     0.095 A 
ATOM     12  H2  UNL     1      -4.619  -3.228   1.099  1.00  0.00     0.164 HD
ENDBRANCH   2   6
ENDBRANCH   1   2
BRANCH   1  13
HETATM   13  O2  UNL     1      -0.588   1.253   0.611  1.00  0.00    -0.384 OA
ATOM     14  H2  UNL     1      -0.023   1.731   1.207  1.00  0.00     0.211 HD
ENDBRANCH   1  13
BRANCH   1  15
HETATM   15  S1  UNL     1       1.492  -0.211  -0.179  1.00  0.00    -0.134 SA
BRANCH  15  16
HETATM   16  C9  UNL     1       2.548   0.693   0.948  1.00  0.00     0.120 C 
BRANCH  16  17
HETATM   17  C10 UNL     1       4.004   0.655   0.572  1.00  0.00     0.292 C 
BRANCH  17  18
HETATM   18  N3  UNL     1       4.508  -0.689   0.543  1.00  0.00    -0.065 N 
ATOM     19  H33 UNL     1       4.339  -1.169   1.427  1.00  0.00     0.275 HD
ATOM     20  H32 UNL     1       3.949  -1.283  -0.070  1.00  0.00     0.275 HD
ATOM     21  H31 UNL     1       5.495  -0.715   0.288  1.00  0.00     0.275 HD
ENDBRANCH  17  18
BRANCH  17  22
HETATM   22  C11 UNL     1       4.312   1.349  -0.673  1.00  0.00     0.205 C 
HETATM   23  O3  UNL     1       3.976   2.542  -0.894  1.00  0.00    -0.646 OA
HETATM   24  O4  UNL     1       5.007   0.676  -1.665  1.00  0.00    -0.646 OA
ENDBRANCH  17  22
ENDBRANCH  16  17
ENDBRANCH  15  16
ENDBRANCH   1  15
TORSDOF 9
