REMARK  14 active torsions:
REMARK  status: ('A' for Active; 'I' for Inactive)
REMARK    1  A    between atoms: C2_2  and  C4_4 
REMARK    2  A    between atoms: C4_4  and  O1_6 
REMARK    3  A    between atoms: C4_4  and  C6_8 
REMARK    4  A    between atoms: C6_8  and  O2_9 
REMARK    5  A    between atoms: C6_8  and  C7_11 
REMARK    6  A    between atoms: C7_11  and  O3_12 
REMARK    7  A    between atoms: O3_12  and  N1_13 
REMARK    8  A    between atoms: N1_13  and  C8_15 
REMARK    9  A    between atoms: C8_15  and  O4_16 
REMARK   10  A    between atoms: C8_15  and  N2_18 
REMARK   11  A    between atoms: N2_18  and  C9_20 
REMARK   12  A    between atoms: C14_30  and  N6_31 
REMARK   13  A    between atoms: N6_31  and  N7_33 
REMARK   14  A    between atoms: N11_44  and  N12_45 
ROOT
HETATM    1  C9  UNL     1       1.912  -0.993   0.635  1.00  0.00     0.173 A 
HETATM    2  C10 UNL     1       2.925  -1.884   0.998  1.00  0.00     0.176 A 
HETATM    3  N3  UNL     1       2.825  -3.150   1.493  1.00  0.00    -0.281 N 
ATOM      4  H3  UNL     1       1.957  -3.653   1.678  1.00  0.00     0.188 HD
HETATM    5  N4  UNL     1       4.032  -3.608   1.689  1.00  0.00    -0.294 N 
ATOM      6  H4  UNL     1       4.264  -4.531   2.055  1.00  0.00     0.187 HD
HETATM    7  C11 UNL     1       4.941  -2.639   1.321  1.00  0.00     0.208 A 
HETATM    8  N5  UNL     1       4.227  -1.604   0.906  1.00  0.00    -0.271 N 
HETATM    9  C12 UNL     1       4.608  -0.392   0.436  1.00  0.00     0.165 A 
HETATM   10  C13 UNL     1       3.595   0.512   0.068  1.00  0.00     0.149 A 
HETATM   11  C14 UNL     1       3.940   1.751  -0.410  1.00  0.00     0.168 A 
HETATM   12  N8  UNL     1       5.229   2.066  -0.513  1.00  0.00    -0.173 N 
ATOM     13  H8  UNL     1       5.498   2.984  -0.866  1.00  0.00     0.186 HD
HETATM   14  C15 UNL     1       6.167   1.198  -0.161  1.00  0.00     0.681 A 
HETATM   15  N9  UNL     1       7.441   1.490  -0.255  1.00  0.00    -0.234 N 
ATOM     16  H91 UNL     1       8.163   0.822   0.016  1.00  0.00     0.174 HD
ATOM     17  H92 UNL     1       7.639   2.423  -0.616  1.00  0.00     0.174 HD
HETATM   18  N10 UNL     1       5.901  -0.059   0.325  1.00  0.00    -0.170 N 
HETATM   19  C16 UNL     1       6.974  -0.919   0.675  1.00  0.00     0.177 C 
HETATM   20  N11 UNL     1       2.293   0.199   0.173  1.00  0.00    -0.235 N 
ENDROOT
BRANCH   1  21
HETATM   21  N2  UNL     1       0.730  -1.359   0.765  1.00  0.00    -0.328 N 
ATOM     22  H2  UNL     1       0.692  -2.308   1.137  1.00  0.00     0.165 HD
BRANCH  21  23
HETATM   23  C8  UNL     1      -0.558  -0.870   0.558  1.00  0.00     0.348 C 
BRANCH  23  24
HETATM   24  N1  UNL     1      -0.953  -1.045  -0.818  1.00  0.00    -0.256 N 
ATOM     25  H1  UNL     1      -0.350  -1.499  -1.504  1.00  0.00     0.192 HD
BRANCH  24  26
HETATM   26  O3  UNL     1      -2.142  -0.580  -1.129  1.00  0.00    -0.279 OA
BRANCH  26  27
HETATM   27  C7  UNL     1      -2.599   0.535  -0.493  1.00  0.00     0.235 C 
BRANCH  27  28
HETATM   28  C6  UNL     1      -3.976   0.914  -1.012  1.00  0.00     0.178 C 
BRANCH  28  29
HETATM   29  C4  UNL     1      -4.992  -0.167  -0.856  1.00  0.00     0.085 C 
HETATM   30  C5  UNL     1      -4.604  -1.377  -1.701  1.00  0.00     0.049 C 
BRANCH  29  31
HETATM   31  C2  UNL     1      -5.234  -0.614   0.547  1.00  0.00     0.014 C 
HETATM   32  C1  UNL     1      -5.625   0.520   1.453  1.00  0.00     0.012 C 
HETATM   33  C3  UNL     1      -6.428  -1.574   0.510  1.00  0.00     0.012 C 
ENDBRANCH  29  31
BRANCH  29  34
HETATM   34  O1  UNL     1      -6.192   0.303  -1.382  1.00  0.00    -0.387 OA
ATOM     35  H1  UNL     1      -6.038   0.588  -2.275  1.00  0.00     0.210 HD
ENDBRANCH  29  34
ENDBRANCH  28  29
BRANCH  28  36
HETATM   36  O2  UNL     1      -4.380   2.038  -0.337  1.00  0.00    -0.390 OA
ATOM     37  H2  UNL     1      -3.733   2.726  -0.436  1.00  0.00     0.210 HD
ENDBRANCH  28  36
ENDBRANCH  27  28
ENDBRANCH  26  27
ENDBRANCH  24  26
ENDBRANCH  23  24
BRANCH  23  38
HETATM   38  O4  UNL     1      -1.528  -1.554   1.335  1.00  0.00    -0.358 OA
ATOM     39  H4  UNL     1      -1.268  -1.439   2.241  1.00  0.00     0.214 HD
ENDBRANCH  23  38
ENDBRANCH  21  23
ENDBRANCH   1  21
BRANCH  20  40
HETATM   40  N12 UNL     1       1.348   1.147  -0.216  1.00  0.00    -0.336 N 
ATOM     41 2H12 UNL     1       0.359   0.909  -0.136  1.00  0.00     0.177 HD
ATOM     42 1H12 UNL     1       1.639   2.058  -0.569  1.00  0.00     0.177 HD
ENDBRANCH  20  40
BRANCH  11  43
HETATM   43  N6  UNL     1       3.012   2.597  -0.752  1.00  0.00    -0.290 N 
ATOM     44  H6  UNL     1       2.026   2.351  -0.670  1.00  0.00     0.188 HD
BRANCH  43  45
HETATM   45  N7  UNL     1       3.398   3.851  -1.235  1.00  0.00    -0.344 N 
ATOM     46  H72 UNL     1       4.389   4.082  -1.311  1.00  0.00     0.176 HD
ATOM     47  H71 UNL     1       2.671   4.514  -1.503  1.00  0.00     0.176 HD
ENDBRANCH  43  45
ENDBRANCH  11  43
TORSDOF 14
