REMARK  11 active torsions:
REMARK  status: ('A' for Active; 'I' for Inactive)
REMARK    1  A    between atoms: O1_2  and  C2_3 
REMARK    2  A    between atoms: C2_3  and  C3_5 
REMARK    3  A    between atoms: C3_5  and  O3_6 
REMARK    4  A    between atoms: O3_6  and  N1_7 
REMARK    5  A    between atoms: N1_7  and  C4_9 
REMARK    6  A    between atoms: C4_9  and  C6_11 
REMARK       I    between atoms: C6_11  and  N2_13 
REMARK    7  A    between atoms: N2_13  and  O5_14 
REMARK    8  A    between atoms: N2_13  and  C7_16 
REMARK    9  A    between atoms: C8_18  and  C9_19 
REMARK   10  A    between atoms: C9_19  and  O6_20 
REMARK   11  A    between atoms: O6_20  and  C10_21 
ROOT
HETATM    1  C6  UNL     1       0.965  -1.108  -1.805  1.00  0.00     0.292 C 
HETATM    2  O4  UNL     1       1.154  -1.847  -2.804  1.00  0.00    -0.264 OA
HETATM    3  N2  UNL     1      -0.175  -1.279  -1.002  1.00  0.00    -0.206 N 
ENDROOT
BRANCH   3   4
HETATM    4  O5  UNL     1      -0.672  -2.622  -1.180  1.00  0.00    -0.283 OA
ATOM      5  H5  UNL     1      -1.443  -2.738  -0.637  1.00  0.00     0.245 HD
ENDBRANCH   3   4
BRANCH   3   6
HETATM    6  C7  UNL     1      -1.090  -0.508  -0.294  1.00  0.00     0.209 C 
HETATM    7  S1  UNL     1      -2.818  -1.110  -1.169  1.00  0.00    -0.083 SA
HETATM    8  C8  UNL     1      -3.966  -0.112  -0.256  1.00  0.00     0.088 C 
HETATM    9  N4  UNL     1      -3.331   0.728   0.694  1.00  0.00    -0.300 N 
HETATM   10  N5  UNL     1      -2.294   1.512   0.349  1.00  0.00    -0.328 N 
ATOM     11  H4  UNL     1      -3.667   0.738   1.657  1.00  0.00     0.187 HD
HETATM   12  C11 UNL     1      -1.286   0.902  -0.488  1.00  0.00     0.131 C 
ATOM     13  H5  UNL     1      -2.223   2.481   0.660  1.00  0.00     0.180 HD
HETATM   14  C12 UNL     1      -1.762   1.256  -1.920  1.00  0.00     0.036 C 
BRANCH   8  15
HETATM   15  C9  UNL     1      -5.249  -0.687   0.188  1.00  0.00     0.246 C 
BRANCH  15  16
HETATM   16  O6  UNL     1      -5.349  -1.063   1.568  1.00  0.00    -0.300 OA
BRANCH  16  17
HETATM   17  C10 UNL     1      -5.581   0.034   2.427  1.00  0.00     0.373 C 
HETATM   18  N3  UNL     1      -5.683  -0.104   3.812  1.00  0.00    -0.032 NA
HETATM   19  O7  UNL     1      -5.708   1.228   1.954  1.00  0.00    -0.242 OA
ENDBRANCH  16  17
ENDBRANCH  15  16
ENDBRANCH   8  15
ENDBRANCH   3   6
BRANCH   1  20
HETATM   20  C4  UNL     1       2.021  -0.100  -1.496  1.00  0.00     0.098 C 
HETATM   21  C5  UNL     1       2.054   1.212  -2.031  1.00  0.00     0.076 C 
BRANCH  20  22
HETATM   22  N1  UNL     1       2.486  -0.382  -0.155  1.00  0.00    -0.265 N 
ATOM     23  H1  UNL     1       1.774  -0.659   0.521  1.00  0.00     0.194 HD
BRANCH  22  24
HETATM   24  O3  UNL     1       3.639  -0.326   0.261  1.00  0.00    -0.270 OA
BRANCH  24  25
HETATM   25  C3  UNL     1       4.756  -0.409  -0.524  1.00  0.00     0.312 C 
BRANCH  25  26
HETATM   26  C2  UNL     1       5.977  -0.380   0.368  1.00  0.00     0.284 C 
HETATM   27  O2  UNL     1       7.096  -0.454  -0.151  1.00  0.00    -0.263 OA
BRANCH  26  28
HETATM   28  O1  UNL     1       5.829  -0.278   1.739  1.00  0.00    -0.325 OA
HETATM   29  C1  UNL     1       6.930  -0.256   2.582  1.00  0.00     0.213 C 
ENDBRANCH  26  28
ENDBRANCH  25  26
ENDBRANCH  24  25
ENDBRANCH  22  24
ENDBRANCH  20  22
ENDBRANCH   1  20
TORSDOF 11
