REMARK  5 active torsions:
REMARK  status: ('A' for Active; 'I' for Inactive)
REMARK    1  A    between atoms: C2_2  and  C3_3 
REMARK    2  A    between atoms: C3_3  and  N1_4 
REMARK    3  A    between atoms: N2_11  and  S1_12 
REMARK    4  A    between atoms: S1_12  and  C10_15 
REMARK    5  A    between atoms: C14_21  and  C15_22 
ROOT
HETATM    1  S1  UNL     1      -1.521  -1.159   0.200  1.00  0.00     0.266 S 
HETATM    2  O1  UNL     1      -1.593  -1.926  -1.136  1.00  0.00    -0.200 OA
HETATM    3  O2  UNL     1      -0.555  -2.020   1.019  1.00  0.00    -0.200 OA
ENDROOT
BRANCH   1   4
HETATM    4  N2  UNL     1      -0.802   0.293  -0.089  1.00  0.00    -0.285 N 
HETATM    5  C9  UNL     1      -1.296   1.255  -0.955  1.00  0.00     0.076 C 
HETATM    6  C8  UNL     1      -0.173   2.014  -1.627  1.00  0.00     0.046 C 
HETATM    7  C7  UNL     1       0.945   2.400  -0.687  1.00  0.00     0.016 C 
HETATM    8  C6  UNL     1       1.337   1.234   0.202  1.00  0.00    -0.020 C 
HETATM    9  C5  UNL     1       1.732   0.088  -0.698  1.00  0.00     0.031 C 
HETATM   10  C18 UNL     1       0.069   0.820   0.907  1.00  0.00     0.150 C 
HETATM   11  C19 UNL     1       2.386   1.629   1.168  1.00  0.00     0.031 C 
HETATM   12  C4  UNL     1       3.137   0.286  -1.248  1.00  0.00     0.122 C 
HETATM   13  N1  UNL     1       3.976   0.418  -0.120  1.00  0.00    -0.393 N 
HETATM   14  C20 UNL     1       3.800   1.611   0.636  1.00  0.00     0.122 C 
BRANCH  13  15
HETATM   15  C3  UNL     1       5.271  -0.127  -0.155  1.00  0.00     0.057 C 
BRANCH  15  16
HETATM   16  C2  UNL     1       5.189  -1.632  -0.162  1.00  0.00     0.040 C 
HETATM   17  C1  UNL     1       6.563  -2.272  -0.195  1.00  0.00     0.010 C 
ENDBRANCH  15  16
ENDBRANCH  13  15
ENDBRANCH   1   4
BRANCH   1  18
HETATM   18  C10 UNL     1      -3.101  -1.232   0.880  1.00  0.00     0.109 A 
HETATM   19  C11 UNL     1      -3.312  -1.705   2.188  1.00  0.00     0.114 A 
HETATM   20  N3  UNL     1      -4.623  -1.631   2.428  1.00  0.00    -0.367 N 
HETATM   21  C12 UNL     1      -5.291  -1.154   1.402  1.00  0.00     0.019 A 
ATOM     22  H3  UNL     1      -5.057  -1.913   3.307  1.00  0.00     0.165 HD
HETATM   23  C13 UNL     1      -6.747  -0.900   1.216  1.00  0.00     0.069 C 
HETATM   24  C14 UNL     1      -4.331  -0.896   0.409  1.00  0.00     0.039 A 
BRANCH  24  25
HETATM   25  C15 UNL     1      -4.638  -0.361  -0.908  1.00  0.00     0.070 A 
HETATM   26  C16 UNL     1      -4.679  -1.125  -2.067  1.00  0.00     0.173 A 
HETATM   27  O3  UNL     1      -4.980  -0.325  -3.060  1.00  0.00    -0.316 OA
HETATM   28  C17 UNL     1      -5.138   0.904  -2.635  1.00  0.00     0.233 A 
HETATM   29  N4  UNL     1      -4.926   0.881  -1.298  1.00  0.00    -0.345 N 
ATOM     30  H4  UNL     1      -4.979   1.692  -0.682  1.00  0.00     0.167 HD
ENDBRANCH  24  25
ENDBRANCH   1  18
TORSDOF 5
