REMARK  4 active torsions:
REMARK  status: ('A' for Active; 'I' for Inactive)
REMARK    1  A    between atoms: C3_5  and  N2_6 
REMARK    2  A    between atoms: C7_14  and  C8_15 
REMARK    3  A    between atoms: C8_15  and  N4_16 
REMARK    4  A    between atoms: N4_16  and  C10_18 
ROOT
HETATM    1  C1  UNL     1       2.444   2.756  -0.679  1.00  0.00     0.069 C 
HETATM    2  C2  UNL     1       3.360   1.614  -0.391  1.00  0.00     0.031 A 
HETATM    3  N1  UNL     1       4.697   1.757  -0.394  1.00  0.00    -0.196 N 
ATOM      4  H1  UNL     1       5.116   2.666  -0.592  1.00  0.00     0.184 HD
HETATM    5  C3  UNL     1       5.481   0.690  -0.133  1.00  0.00     0.676 A 
HETATM    6  N3  UNL     1       4.913  -0.491   0.122  1.00  0.00    -0.194 N 
ATOM      7  H3  UNL     1       5.518  -1.288   0.317  1.00  0.00     0.184 HD
HETATM    8  C4  UNL     1       3.560  -0.684   0.134  1.00  0.00     0.060 A 
HETATM    9  C5  UNL     1       2.776   0.399  -0.129  1.00  0.00    -0.009 A 
HETATM   10  C6  UNL     1       1.272   0.223  -0.081  1.00  0.00     0.077 C 
HETATM   11  C7  UNL     1       0.996  -1.215  -0.256  1.00  0.00     0.218 C 
HETATM   12  N5  UNL     1       1.662  -1.944   0.822  1.00  0.00    -0.064 N 
ATOM     13  H51 UNL     1       1.226  -2.841   1.035  1.00  0.00     0.278 HD
ATOM     14  H52 UNL     1       1.530  -1.520   1.740  1.00  0.00     0.278 HD
HETATM   15  C16 UNL     1       3.066  -2.058   0.430  1.00  0.00     0.291 C 
ENDROOT
BRANCH  11  16
HETATM   16  C8  UNL     1      -0.393  -1.674  -0.479  1.00  0.00     0.305 C 
BRANCH  16  17
HETATM   17  N4  UNL     1      -1.379  -1.390   0.506  1.00  0.00     0.090 N 
HETATM   18  C9  UNL     1      -2.495  -2.338   0.213  1.00  0.00     0.310 C 
BRANCH  17  19
HETATM   19  C10 UNL     1      -1.984  -0.051   0.391  1.00  0.00     0.222 C 
HETATM   20  C11 UNL     1      -2.965   0.059   1.533  1.00  0.00     0.036 C 
HETATM   21  C12 UNL     1      -3.865   1.262   1.389  1.00  0.00     0.002 C 
HETATM   22  C13 UNL     1      -4.705   1.011   0.173  1.00  0.00     0.000 C 
HETATM   23  C14 UNL     1      -3.837   0.955  -1.029  1.00  0.00     0.002 C 
HETATM   24  C15 UNL     1      -2.570   0.201  -0.942  1.00  0.00     0.036 C 
ENDBRANCH  17  19
ENDBRANCH  16  17
ENDBRANCH  11  16
BRANCH   5  25
HETATM   25  N2  UNL     1       6.772   0.887  -0.137  1.00  0.00    -0.234 N 
ATOM     26  H22 UNL     1       7.206   1.789  -0.332  1.00  0.00     0.174 HD
ATOM     27  H21 UNL     1       7.365   0.081   0.060  1.00  0.00     0.174 HD
ENDBRANCH   5  25
TORSDOF 4
