REMARK  8 active torsions:
REMARK  status: ('A' for Active; 'I' for Inactive)
REMARK    1  A    between atoms: C2_2  and  O1_3 
REMARK    2  A    between atoms: C2_2  and  C3_5 
REMARK    3  A    between atoms: C3_5  and  C4_6 
REMARK    4  A    between atoms: C4_6  and  C5_7 
REMARK    5  A    between atoms: C4_6  and  O2_11 
REMARK    6  A    between atoms: O2_11  and  C6_12 
REMARK    7  A    between atoms: C11_18  and  C12_19 
REMARK    8  A    between atoms: C12_19  and  O4_20 
ROOT
HETATM    1  C6  UNL     1       1.318  -0.244  -0.910  1.00  0.00     0.266 C 
HETATM    2  O3  UNL     1       1.637   0.829  -1.779  1.00  0.00    -0.354 OA
HETATM    3  C7  UNL     1       0.441   1.509  -2.072  1.00  0.00     0.139 A 
HETATM    4  C8  UNL     1      -0.511   1.656  -1.007  1.00  0.00     0.027 A 
HETATM    5  C9  UNL     1      -1.887   2.166  -0.898  1.00  0.00     0.009 C 
HETATM    6  C10 UNL     1      -2.573   1.469   0.227  1.00  0.00     0.013 C 
HETATM    7  C11 UNL     1      -2.539   0.052   0.447  1.00  0.00    -0.011 C 
HETATM    8  C13 UNL     1      -1.278  -0.553   1.005  1.00  0.00     0.018 C 
HETATM    9  C14 UNL     1      -0.971  -1.224  -0.266  1.00  0.00     0.005 C 
HETATM   10  C15 UNL     1      -0.022  -0.702  -1.223  1.00  0.00     0.057 C 
HETATM   11  C16 UNL     1      -0.565   0.528  -1.882  1.00  0.00     0.001 A 
HETATM   12  C17 UNL     1      -1.667   0.200  -2.735  1.00  0.00     0.014 C 
HETATM   13  C18 UNL     1      -2.724  -0.547  -1.991  1.00  0.00     0.011 C 
HETATM   14  C19 UNL     1      -2.437  -0.947  -0.626  1.00  0.00    -0.030 C 
HETATM   15  C20 UNL     1      -3.221  -2.234  -0.288  1.00  0.00     0.016 C 
ENDROOT
BRANCH   1  16
HETATM   16  O2  UNL     1       1.644   0.000   0.404  1.00  0.00    -0.350 OA
BRANCH  16  17
HETATM   17  C4  UNL     1       2.709  -0.737   0.889  1.00  0.00     0.164 C 
BRANCH  17  18
HETATM   18  C3  UNL     1       3.844   0.078   1.410  1.00  0.00     0.068 C 
BRANCH  18  19
HETATM   19  C2  UNL     1       4.350   1.079   0.397  1.00  0.00     0.116 C 
HETATM   20  C1  UNL     1       5.504   1.876   0.989  1.00  0.00     0.039 C 
BRANCH  19  21
HETATM   21  O1  UNL     1       4.841   0.452  -0.742  1.00  0.00    -0.396 OA
ATOM     22  H1  UNL     1       4.121  -0.045  -1.111  1.00  0.00     0.210 HD
ENDBRANCH  19  21
ENDBRANCH  18  19
ENDBRANCH  17  18
BRANCH  17  23
HETATM   23  C5  UNL     1       2.313  -1.675   1.973  1.00  0.00     0.085 C 
HETATM   24  N1  UNL     1       2.525  -1.374   3.197  1.00  0.00    -0.409 N 
ATOM     25  H12 UNL     1       2.969  -0.482   3.414  1.00  0.00     0.155 HD
ATOM     26  H11 UNL     1       2.253  -2.017   3.940  1.00  0.00     0.155 HD
ENDBRANCH  17  23
ENDBRANCH  16  17
ENDBRANCH   1  16
BRANCH   7  27
HETATM   27  C12 UNL     1      -3.730  -0.291   1.382  1.00  0.00     0.174 C 
BRANCH  27  28
HETATM   28  O4  UNL     1      -4.927   0.064   0.811  1.00  0.00    -0.400 OA
ATOM     29  H4  UNL     1      -5.656  -0.146   1.383  1.00  0.00     0.209 HD
ENDBRANCH  27  28
ENDBRANCH   7  27
TORSDOF 8
