REMARK  7 active torsions:
REMARK  status: ('A' for Active; 'I' for Inactive)
REMARK    1  A    between atoms: C1_2  and  C2_3 
REMARK       I    between atoms: C1_2  and  N1_6 
REMARK    2  A    between atoms: C2_3  and  O2_4 
REMARK    3  A    between atoms: N1_6  and  C3_8 
REMARK    4  A    between atoms: C3_8  and  C4_9 
REMARK    5  A    between atoms: N2_15  and  C9_16 
REMARK    6  A    between atoms: C9_16  and  O4_17 
REMARK    7  A    between atoms: C9_16  and  N3_19 
ROOT
HETATM    1  C4  UNL     1       2.160  -0.378  -0.823  1.00  0.00     0.167 C 
HETATM    2  C5  UNL     1       2.882  -1.646  -0.494  1.00  0.00     0.205 C 
HETATM    3  O3  UNL     1       2.055  -2.275   0.404  1.00  0.00    -0.352 OA
HETATM    4  C6  UNL     1       0.779  -1.848   0.143  1.00  0.00     0.167 C 
HETATM    5  C7  UNL     1      -0.020  -2.786  -0.742  1.00  0.00     0.088 C 
HETATM    6  C8  UNL     1      -1.473  -2.780  -0.337  1.00  0.00     0.131 C 
HETATM    7  N2  UNL     1      -1.905  -1.440   0.057  1.00  0.00    -0.347 N 
HETATM    8  C14 UNL     1      -1.180  -0.744   1.061  1.00  0.00     0.131 C 
HETATM    9  C15 UNL     1       0.012  -1.631   1.456  1.00  0.00     0.088 C 
HETATM   10  O5  UNL     1       0.829  -0.611  -0.486  1.00  0.00    -0.346 OA
ENDROOT
BRANCH   1  11
HETATM   11  C3  UNL     1       2.680   0.803  -0.057  1.00  0.00     0.156 C 
BRANCH  11  12
HETATM   12  N1  UNL     1       4.048   1.035  -0.409  1.00  0.00    -0.357 N 
HETATM   13  C1  UNL     1       4.803   2.097   0.166  1.00  0.00     0.241 C 
HETATM   14  O1  UNL     1       4.236   2.837   1.002  1.00  0.00    -0.271 OA
ATOM     15  H1  UNL     1       4.495   0.422  -1.091  1.00  0.00     0.162 HD
BRANCH  13  16
HETATM   16  C2  UNL     1       6.211   2.360  -0.177  1.00  0.00     0.266 C 
BRANCH  16  17
HETATM   17  O2  UNL     1       6.688   3.451   0.532  1.00  0.00    -0.392 OA
ATOM     18  H2  UNL     1       7.596   3.621   0.311  1.00  0.00     0.210 HD
ENDBRANCH  16  17
ENDBRANCH  13  16
ENDBRANCH  11  12
ENDBRANCH   1  11
BRANCH   7  19
HETATM   19  C9  UNL     1      -3.027  -0.903  -0.584  1.00  0.00     0.217 C 
BRANCH  19  20
HETATM   20  O4  UNL     1      -3.569  -1.702  -1.464  1.00  0.00    -0.333 OA
ATOM     21  H4  UNL     1      -4.331  -1.337  -1.899  1.00  0.00     0.220 HD
ENDBRANCH  19  20
BRANCH  19  22
HETATM   22  N3  UNL     1      -3.571   0.344  -0.365  1.00  0.00    -0.348 N 
HETATM   23  C10 UNL     1      -3.312   1.465   0.449  1.00  0.00     0.126 C 
HETATM   24  C11 UNL     1      -4.720   1.690   1.075  1.00  0.00     0.021 C 
HETATM   25  C12 UNL     1      -5.682   1.161   0.033  1.00  0.00     0.021 C 
HETATM   26  C13 UNL     1      -4.784   0.780  -1.141  1.00  0.00     0.126 C 
ENDBRANCH  19  22
ENDBRANCH   7  19
TORSDOF 7
