REMARK  4 active torsions:
REMARK  status: ('A' for Active; 'I' for Inactive)
REMARK       I    between atoms: C1_2  and  N1_3 
REMARK    1  A    between atoms: C1_2  and  C8_11 
REMARK    2  A    between atoms: N1_3  and  C2_5 
REMARK       I    between atoms: C8_11  and  N2_13 
REMARK    3  A    between atoms: C11_18  and  O3_19 
REMARK    4  A    between atoms: O3_19  and  C12_20 
ROOT
HETATM    1  C8  UNL     1       0.687   1.264   1.118  1.00  0.00     0.311 C 
HETATM    2  O2  UNL     1       1.451   1.958   1.883  1.00  0.00    -0.262 OA
HETATM    3  N2  UNL     1      -0.669   1.602   1.035  1.00  0.00    -0.338 N 
HETATM    4  C9  UNL     1      -1.179   2.717   1.832  1.00  0.00     0.145 C 
HETATM    5  C10 UNL     1      -2.477   2.192   2.442  1.00  0.00     0.136 C 
HETATM    6  N3  UNL     1      -3.432   2.031   1.397  1.00  0.00    -0.394 N 
ATOM      7  H3  UNL     1      -4.396   2.345   1.508  1.00  0.00     0.155 HD
HETATM    8  C11 UNL     1      -2.993   1.419   0.201  1.00  0.00     0.235 C 
HETATM    9  C16 UNL     1      -1.577   0.895   0.194  1.00  0.00     0.179 C 
ENDROOT
BRANCH   1  10
HETATM   10  C1  UNL     1       1.246   0.166   0.375  1.00  0.00     0.309 C 
HETATM   11  O1  UNL     1       0.553  -0.545  -0.364  1.00  0.00    -0.262 OA
HETATM   12  N1  UNL     1       2.629  -0.130   0.473  1.00  0.00    -0.348 N 
ATOM     13  H1  UNL     1       3.215   0.447   1.076  1.00  0.00     0.163 HD
BRANCH  12  14
HETATM   14  C2  UNL     1       3.244  -1.236  -0.263  1.00  0.00     0.084 C 
HETATM   15  C3  UNL     1       4.209  -0.751  -1.316  1.00  0.00     0.025 C 
HETATM   16  C4  UNL     1       5.580  -0.466  -0.766  1.00  0.00     0.002 C 
HETATM   17  C5  UNL     1       6.105  -1.717  -0.092  1.00  0.00     0.000 C 
HETATM   18  C6  UNL     1       5.212  -1.925   1.134  1.00  0.00     0.002 C 
HETATM   19  C7  UNL     1       3.847  -2.272   0.643  1.00  0.00     0.025 C 
ENDBRANCH  12  14
ENDBRANCH   1  10
BRANCH   8  20
HETATM   20  O3  UNL     1      -3.808   0.315  -0.151  1.00  0.00    -0.358 OA
BRANCH  20  21
HETATM   21  C12 UNL     1      -4.443   0.500  -1.371  1.00  0.00     0.150 C 
HETATM   22  C13 UNL     1      -3.854  -0.555  -2.305  1.00  0.00     0.060 C 
HETATM   23  C14 UNL     1      -4.886  -1.665  -2.276  1.00  0.00     0.170 C 
HETATM   24  O4  UNL     1      -6.081  -1.051  -2.010  1.00  0.00    -0.389 OA
HETATM   25  C15 UNL     1      -5.885   0.132  -1.357  1.00  0.00     0.199 C 
ENDBRANCH  20  21
ENDBRANCH   8  20
TORSDOF 4
