REMARK  11 active torsions:
REMARK  status: ('A' for Active; 'I' for Inactive)
REMARK       I    between atoms: C1_2  and  N2_4 
REMARK    1  A    between atoms: N2_4  and  C2_6 
REMARK    2  A    between atoms: C2_6  and  C3_7 
REMARK    3  A    between atoms: C3_7  and  C4_8 
REMARK    4  A    between atoms: C4_8  and  C5_9 
REMARK    5  A    between atoms: C5_9  and  N3_10 
REMARK    6  A    between atoms: C6_11  and  C7_12 
REMARK    7  A    between atoms: C8_13  and  C9_14 
REMARK    8  A    between atoms: C15_21  and  N4_22 
REMARK    9  A    between atoms: N5_25  and  C18_26 
REMARK   10  A    between atoms: C18_26  and  N6_28 
REMARK   11  A    between atoms: N6_28  and  C19_30 
ROOT
HETATM    1  N3  UNL     1      -1.184   0.547  -0.426  1.00  0.00    -0.320 N 
HETATM    2  C6  UNL     1      -1.845   1.580  -0.889  1.00  0.00     0.097 A 
HETATM    3  C14 UNL     1      -1.113   2.620  -1.398  1.00  0.00     0.092 A 
HETATM    4  S1  UNL     1       0.488   2.075  -1.194  1.00  0.00    -0.063 SA
HETATM    5  C15 UNL     1       0.145   0.564  -0.476  1.00  0.00     0.149 A 
ENDROOT
BRANCH   5   6
HETATM    6  N4  UNL     1       1.121  -0.405  -0.066  1.00  0.00    -0.358 N 
HETATM    7  C16 UNL     1       1.524  -1.432  -0.992  1.00  0.00     0.145 C 
HETATM    8  C17 UNL     1       2.618  -2.285  -0.367  1.00  0.00     0.145 C 
HETATM    9  N5  UNL     1       3.617  -1.400   0.194  1.00  0.00    -0.355 N 
HETATM   10  C24 UNL     1       3.219  -0.318   1.065  1.00  0.00     0.145 C 
HETATM   11  C25 UNL     1       1.717  -0.355   1.251  1.00  0.00     0.145 C 
BRANCH   9  12
HETATM   12  C18 UNL     1       5.003  -1.559  -0.088  1.00  0.00     0.170 C 
HETATM   13  S2  UNL     1       5.453  -2.778  -1.068  1.00  0.00    -0.041 SA
BRANCH  12  14
HETATM   14  N6  UNL     1       5.993  -0.712   0.444  1.00  0.00    -0.362 N 
ATOM     15  H6  UNL     1       5.698   0.047   1.058  1.00  0.00     0.162 HD
BRANCH  14  16
HETATM   16  C19 UNL     1       7.404  -0.857   0.170  1.00  0.00     0.083 C 
HETATM   17  C20 UNL     1       7.700  -0.720  -1.291  1.00  0.00     0.025 C 
HETATM   18  C21 UNL     1       8.916   0.145  -1.367  1.00  0.00     0.002 C 
HETATM   19  C22 UNL     1       8.771   1.096  -0.212  1.00  0.00     0.002 C 
HETATM   20  C23 UNL     1       8.217   0.201   0.898  1.00  0.00     0.025 C 
ENDBRANCH  14  16
ENDBRANCH  12  14
ENDBRANCH   9  12
ENDBRANCH   5   6
BRANCH   1  21
HETATM   21  C5  UNL     1      -1.852  -0.663   0.140  1.00  0.00     0.132 C 
BRANCH  21  22
HETATM   22  C4  UNL     1      -2.140  -0.476   1.576  1.00  0.00     0.022 C 
BRANCH  22  23
HETATM   23  C3  UNL     1      -2.761  -1.609   2.323  1.00  0.00     0.021 C 
BRANCH  23  24
HETATM   24  C2  UNL     1      -4.067  -2.113   1.854  1.00  0.00     0.124 C 
BRANCH  24  25
HETATM   25  N2  UNL     1      -4.119  -2.725   0.573  1.00  0.00    -0.345 N 
HETATM   26  C1  UNL     1      -5.337  -3.196   0.022  1.00  0.00     0.328 C 
HETATM   27  N1  UNL     1      -5.398  -3.804  -1.248  1.00  0.00    -0.040 NA
HETATM   28  O1  UNL     1      -6.389  -3.067   0.684  1.00  0.00    -0.251 OA
ATOM     29  H2  UNL     1      -3.258  -2.828   0.036  1.00  0.00     0.163 HD
ENDBRANCH  24  25
ENDBRANCH  23  24
ENDBRANCH  22  23
ENDBRANCH  21  22
ENDBRANCH   1  21
BRANCH   2  30
HETATM   30  C7  UNL     1      -3.317   1.685  -0.889  1.00  0.00    -0.048 C 
HETATM   31  C8  UNL     1      -4.526   1.780  -0.881  1.00  0.00    -0.095 C 
BRANCH  31  32
HETATM   32  C9  UNL     1      -5.984   1.885  -0.849  1.00  0.00     0.065 C 
HETATM   33  C10 UNL     1      -6.488   2.349   0.502  1.00  0.00     0.017 C 
HETATM   34  C11 UNL     1      -6.421   3.843   0.497  1.00  0.00     0.001 C 
HETATM   35  C12 UNL     1      -5.918   4.229  -0.873  1.00  0.00     0.001 C 
HETATM   36  C13 UNL     1      -6.403   3.064  -1.724  1.00  0.00     0.017 C 
ENDBRANCH  31  32
ENDBRANCH   2  30
TORSDOF 11
