REMARK  9 active torsions:
REMARK  status: ('A' for Active; 'I' for Inactive)
REMARK    1  A    between atoms: C8_9  and  O2_10 
REMARK    2  A    between atoms: C12_16  and  O4_17 
REMARK    3  A    between atoms: O4_17  and  C13_18 
REMARK    4  A    between atoms: C13_18  and  C14_19 
REMARK    5  A    between atoms: C14_19  and  C15_20 
REMARK    6  A    between atoms: C15_20  and  C16_21 
REMARK    7  A    between atoms: C16_21  and  C17_22 
REMARK    8  A    between atoms: C17_22  and  C18_23 
REMARK    9  A    between atoms: C18_23  and  O5_24 
ROOT
HETATM    1  C1  UNL     1      -5.190   1.064   0.499  1.00  0.00     0.017 C 
HETATM    2  C2  UNL     1      -4.096   0.390   0.229  1.00  0.00    -0.051 C 
HETATM    3  C3  UNL     1      -4.201  -1.078   0.032  1.00  0.00     0.039 C 
HETATM    4  C4  UNL     1      -3.008  -1.644  -0.697  1.00  0.00     0.039 C 
HETATM    5  C5  UNL     1      -1.720  -0.899  -0.408  1.00  0.00     0.160 C 
HETATM    6  O1  UNL     1      -1.842   0.077   0.549  1.00  0.00    -0.362 OA
HETATM    7  C6  UNL     1      -2.756   1.032   0.113  1.00  0.00     0.130 C 
HETATM    8  C7  UNL     1      -2.720   2.172   1.111  1.00  0.00     0.056 C 
HETATM    9  C8  UNL     1      -2.491   1.486  -1.298  1.00  0.00     0.296 C 
HETATM   10  O3  UNL     1      -1.358   0.994  -1.864  1.00  0.00    -0.342 OA
HETATM   11  C9  UNL     1      -1.100  -0.343  -1.663  1.00  0.00     0.116 C 
HETATM   12  C10 UNL     1      -1.322  -1.204  -2.897  1.00  0.00     0.046 C 
HETATM   13  C11 UNL     1       0.072  -0.795  -3.306  1.00  0.00     0.038 C 
HETATM   14  C12 UNL     1       0.376  -0.609  -1.853  1.00  0.00     0.158 C 
ENDROOT
BRANCH  14  15
HETATM   15  O4  UNL     1       0.800  -1.638  -1.114  1.00  0.00    -0.383 OA
BRANCH  15  16
HETATM   16  C13 UNL     1       1.897  -1.499  -0.298  1.00  0.00     0.168 C 
BRANCH  16  17
HETATM   17  C14 UNL     1       1.756  -0.439   0.760  1.00  0.00     0.026 C 
BRANCH  17  18
HETATM   18  C15 UNL     1       2.987  -0.376   1.617  1.00  0.00     0.002 C 
BRANCH  18  19
HETATM   19  C16 UNL     1       4.219  -0.043   0.856  1.00  0.00     0.002 C 
BRANCH  19  20
HETATM   20  C17 UNL     1       5.426   0.025   1.788  1.00  0.00     0.026 C 
BRANCH  20  21
HETATM   21  C18 UNL     1       5.255   1.074   2.846  1.00  0.00     0.164 C 
BRANCH  21  22
HETATM   22  O5  UNL     1       6.413   1.051   3.627  1.00  0.00    -0.401 OA
ATOM     23  H5  UNL     1       6.305   1.716   4.297  1.00  0.00     0.209 HD
ENDBRANCH  21  22
ENDBRANCH  20  21
ENDBRANCH  19  20
ENDBRANCH  18  19
ENDBRANCH  17  18
ENDBRANCH  16  17
ENDBRANCH  15  16
ENDBRANCH  14  15
BRANCH   9  24
HETATM   24  O2  UNL     1      -3.644   1.265  -2.043  1.00  0.00    -0.368 OA
ATOM     25  H2  UNL     1      -3.477   1.551  -2.933  1.00  0.00     0.212 HD
ENDBRANCH   9  24
TORSDOF 9
