REMARK  8 active torsions:
REMARK  status: ('A' for Active; 'I' for Inactive)
REMARK    1  A    between atoms: C2_2  and  C3_3 
REMARK    2  A    between atoms: C2_2  and  C5_5 
REMARK    3  A    between atoms: C5_5  and  C6_6 
REMARK    4  A    between atoms: C5_5  and  C9_10 
REMARK    5  A    between atoms: C6_6  and  C7_7 
REMARK    6  A    between atoms: C7_7  and  S1_8 
REMARK    7  A    between atoms: C9_10  and  O1_11 
REMARK    8  A    between atoms: C9_10  and  N1_13 
ROOT
HETATM    1  C9  UNL     1      -0.220   0.899  -0.498  1.00  0.00     0.226 C 
ENDROOT
BRANCH   1   2
HETATM    2  C5  UNL     1      -1.442   0.300   0.178  1.00  0.00     0.063 C 
BRANCH   2   3
HETATM    3  C2  UNL     1      -1.330  -1.160   0.386  1.00  0.00    -0.081 C 
HETATM    4  C1  UNL     1      -1.368  -1.577   1.676  1.00  0.00     0.015 C 
BRANCH   3   5
HETATM    5  C3  UNL     1      -1.216  -2.171  -0.671  1.00  0.00     0.029 C 
HETATM    6  C4  UNL     1      -1.207  -3.566  -0.072  1.00  0.00     0.010 C 
ENDBRANCH   3   5
ENDBRANCH   2   3
BRANCH   2   7
HETATM    7  C6  UNL     1      -2.705   0.525  -0.628  1.00  0.00     0.023 C 
BRANCH   7   8
HETATM    8  C7  UNL     1      -2.987   1.958  -0.937  1.00  0.00     0.074 C 
BRANCH   8   9
HETATM    9  S1  UNL     1      -3.169   2.917   0.605  1.00  0.00    -0.173 SA
HETATM   10  C8  UNL     1      -4.621   2.419   1.535  1.00  0.00     0.089 C 
ENDBRANCH   8   9
ENDBRANCH   7   8
ENDBRANCH   2   7
ENDBRANCH   1   2
BRANCH   1  11
HETATM   11  O1  UNL     1      -0.046   0.328  -1.729  1.00  0.00    -0.376 OA
ATOM     12  H1  UNL     1       0.718   0.702  -2.152  1.00  0.00     0.212 HD
ENDBRANCH   1  11
BRANCH   1  13
HETATM   13  N1  UNL     1       0.855   0.927   0.396  1.00  0.00    -0.351 N 
HETATM   14  C10 UNL     1       2.004   0.472   0.418  1.00  0.00     0.104 C 
HETATM   15  C11 UNL     1       2.831   0.779   1.653  1.00  0.00     0.243 C 
HETATM   16  N2  UNL     1       2.446  -0.300  -0.707  1.00  0.00    -0.339 N 
HETATM   17  O2  UNL     1       4.118   1.146   1.279  1.00  0.00    -0.383 OA
HETATM   18  C12 UNL     1       4.900   0.126   0.807  1.00  0.00     0.175 C 
HETATM   19  C13 UNL     1       5.023   0.247  -0.707  1.00  0.00     0.096 C 
HETATM   20  C14 UNL     1       3.756  -0.234  -1.309  1.00  0.00     0.080 C 
HETATM   21  S2  UNL     1       3.861  -0.757  -2.848  1.00  0.00    -0.065 SA
ATOM     22  H2  UNL     1       1.777  -0.952  -1.117  1.00  0.00     0.168 HD
ATOM     23  H1  UNL     1       0.636   1.455   1.241  1.00  0.00     0.163 HD
ENDBRANCH   1  13
TORSDOF 8
