REMARK  3 active torsions:
REMARK  status: ('A' for Active; 'I' for Inactive)
REMARK    1  A    between atoms: C2_4  and  N2_5 
REMARK    2  A    between atoms: C2_4  and  C5_10 
REMARK    3  A    between atoms: C5_10  and  N4_13 
ROOT
HETATM    1  C1  UNL     1      -0.879   2.021   1.716  1.00  0.00     0.147 C 
HETATM    2  N1  UNL     1       0.071   1.444   0.853  1.00  0.00    -0.382 N 
ATOM      3  H1  UNL     1       1.011   1.829   0.952  1.00  0.00     0.160 HD
HETATM    4  C2  UNL     1      -0.024   0.543  -0.017  1.00  0.00     0.113 C 
ENDROOT
BRANCH   4   5
HETATM    5  N2  UNL     1       1.152   0.190  -0.725  1.00  0.00    -0.336 N 
HETATM    6  C3  UNL     1       2.205  -0.219  -0.108  1.00  0.00     0.090 C 
HETATM    7  C4  UNL     1       3.453  -0.595  -0.837  1.00  0.00     0.085 C 
HETATM    8  N3  UNL     1       2.169  -0.311   1.292  1.00  0.00    -0.088 NA
ATOM      9  H2  UNL     1       1.164   0.261  -1.742  1.00  0.00     0.168 HD
ENDBRANCH   4   5
BRANCH   4  10
HETATM   10  C5  UNL     1      -1.264  -0.186  -0.367  1.00  0.00     0.173 C 
HETATM   11  C6  UNL     1      -1.564   0.060  -1.845  1.00  0.00     0.054 C 
HETATM   12  C7  UNL     1      -1.081  -1.689  -0.225  1.00  0.00     0.054 C 
BRANCH  10  13
HETATM   13  N4  UNL     1      -2.415   0.241   0.379  1.00  0.00    -0.064 N 
ATOM     14  H43 UNL     1      -2.235   0.185   1.381  1.00  0.00     0.275 HD
ATOM     15  H42 UNL     1      -2.551   1.248   0.286  1.00  0.00     0.275 HD
ATOM     16  H41 UNL     1      -3.269  -0.261   0.138  1.00  0.00     0.275 HD
ENDBRANCH  10  13
ENDBRANCH   4  10
TORSDOF 3
