REMARK  4 active torsions:
REMARK  status: ('A' for Active; 'I' for Inactive)
REMARK    1  A    between atoms: C3_3  and  C4_4 
REMARK    2  A    between atoms: C11_12  and  O2_13 
REMARK    3  A    between atoms: O2_13  and  C12_14 
REMARK    4  A    between atoms: C12_14  and  C13_16 
ROOT
HETATM    1  C1  UNL     1      -2.399  -0.294  -1.827  1.00  0.00     0.017 C 
HETATM    2  C2  UNL     1      -1.776  -0.013  -0.707  1.00  0.00    -0.049 C 
HETATM    3  C3  UNL     1      -2.339   0.824   0.438  1.00  0.00     0.174 C 
HETATM    4  O1  UNL     1      -1.720   0.333   1.591  1.00  0.00    -0.366 OA
HETATM    5  C7  UNL     1      -0.978  -0.808   1.216  1.00  0.00     0.067 C 
HETATM    6  C8  UNL     1      -1.989  -1.922   1.119  1.00  0.00     0.047 C 
HETATM    7  C9  UNL     1       0.138  -1.119   2.113  1.00  0.00     0.041 C 
HETATM    8  C10 UNL     1       1.479  -1.298   1.578  1.00  0.00     0.036 C 
HETATM    9  C11 UNL     1       1.737  -1.059   0.123  1.00  0.00     0.140 C 
HETATM   10  C15 UNL     1       0.517  -1.134  -0.761  1.00  0.00    -0.011 C 
HETATM   11  C16 UNL     1       0.937  -0.540  -2.096  1.00  0.00     0.018 C 
HETATM   12  C17 UNL     1       0.178  -2.569  -1.020  1.00  0.00     0.018 C 
HETATM   13  C18 UNL     1      -0.477  -0.314  -0.119  1.00  0.00     0.061 C 
ENDROOT
BRANCH   9  14
HETATM   14  O2  UNL     1       2.248   0.257  -0.029  1.00  0.00    -0.315 OA
BRANCH  14  15
HETATM   15  C12 UNL     1       3.542   0.522  -0.421  1.00  0.00     0.258 C 
HETATM   16  O3  UNL     1       4.314  -0.425  -0.651  1.00  0.00    -0.265 OA
BRANCH  15  17
HETATM   17  C13 UNL     1       3.978   1.939  -0.550  1.00  0.00     0.106 C 
HETATM   18  C14 UNL     1       5.328   2.002   0.179  1.00  0.00     0.015 C 
ENDBRANCH  15  17
ENDBRANCH  14  15
ENDBRANCH   9  14
BRANCH   3  19
HETATM   19  C4  UNL     1      -3.786   0.806   0.494  1.00  0.00     0.005 C 
HETATM   20  C5  UNL     1      -4.498   1.787  -0.038  1.00  0.00    -0.032 C 
HETATM   21  C6  UNL     1      -3.878   2.952  -0.716  1.00  0.00     0.036 C 
ENDBRANCH   3  19
TORSDOF 4
