REMARK  5 active torsions:
REMARK  status: ('A' for Active; 'I' for Inactive)
REMARK    1  A    between atoms: O1_2  and  C2_3 
REMARK       I    between atoms: C2_3  and  N1_5 
REMARK    2  A    between atoms: N1_5  and  C3_7 
REMARK    3  A    between atoms: C5_14  and  N4_15 
REMARK    4  A    between atoms: C6_19  and  C7_20 
REMARK    5  A    between atoms: C10_24  and  O4_25 
ROOT
HETATM    1  C7  UNL     1      -3.368   0.395   1.006  1.00  0.00    -0.078 C 
HETATM    2  C8  UNL     1      -4.257   0.603   1.792  1.00  0.00     0.013 C 
HETATM    3  C9  UNL     1      -5.294   0.830   2.730  1.00  0.00     0.152 C 
HETATM    4  N5  UNL     1      -6.138   1.007   3.517  1.00  0.00    -0.182 NA
ENDROOT
BRANCH   1   5
HETATM    5  C6  UNL     1      -2.334   0.161   0.043  1.00  0.00     0.162 C 
HETATM    6  C5  UNL     1      -2.318  -1.318  -0.379  1.00  0.00     0.279 C 
HETATM    7  C4  UNL     1      -1.527  -1.319  -1.662  1.00  0.00     0.166 C 
HETATM    8  O3  UNL     1      -0.407  -0.453  -1.615  1.00  0.00    -0.241 OA
HETATM    9  N3  UNL     1      -1.831  -2.024  -2.686  1.00  0.00    -0.380 N 
HETATM   10  N2  UNL     1       0.041  -0.269  -0.368  1.00  0.00    -0.121 NA
HETATM   11  C3  UNL     1       1.189   0.528  -0.134  1.00  0.00     0.235 C 
HETATM   12  C10 UNL     1      -0.975   0.594   0.325  1.00  0.00     0.198 C 
HETATM   13  C12 UNL     1       1.043   0.950   1.350  1.00  0.00     0.214 C 
HETATM   14  C11 UNL     1      -0.372   0.483   1.642  1.00  0.00     0.074 C 
HETATM   15  C13 UNL     1       1.095   2.400   1.462  1.00  0.00     0.094 C 
HETATM   16  C14 UNL     1       2.010   0.296   2.185  1.00  0.00     0.094 C 
HETATM   17  N6  UNL     1      -0.769   0.117   2.734  1.00  0.00    -0.400 N 
ATOM     18  H62 UNL     1      -1.720  -0.197   2.930  1.00  0.00     0.155 HD
ATOM     19  H61 UNL     1      -0.346   0.039   3.659  1.00  0.00     0.155 HD
HETATM   20  N7  UNL     1       1.147   3.560   1.538  1.00  0.00    -0.195 NA
HETATM   21  N8  UNL     1       2.797  -0.211   2.857  1.00  0.00    -0.195 NA
ATOM     22  H32 UNL     1      -1.296  -2.025  -3.554  1.00  0.00     0.158 HD
ATOM     23  H31 UNL     1      -2.637  -2.648  -2.720  1.00  0.00     0.158 HD
BRANCH   6  24
HETATM   24  N4  UNL     1      -3.633  -1.795  -0.670  1.00  0.00    -0.066 N 
ATOM     25  H43 UNL     1      -4.088  -1.267  -1.414  1.00  0.00     0.275 HD
ATOM     26  H42 UNL     1      -3.629  -2.705  -1.130  1.00  0.00     0.275 HD
ATOM     27  H41 UNL     1      -4.168  -1.794   0.198  1.00  0.00     0.275 HD
ENDBRANCH   6  24
BRANCH  11  28
HETATM   28  N1  UNL     1       2.367  -0.337  -0.193  1.00  0.00    -0.315 N 
HETATM   29  C2  UNL     1       3.488   0.003  -0.966  1.00  0.00     0.361 C 
HETATM   30  O2  UNL     1       3.497   1.063  -1.625  1.00  0.00    -0.238 OA
ATOM     31  H1  UNL     1       2.374  -1.207   0.340  1.00  0.00     0.166 HD
BRANCH  29  32
HETATM   32  O1  UNL     1       4.582  -0.842  -0.993  1.00  0.00    -0.309 OA
HETATM   33  C1  UNL     1       5.745  -0.547  -1.760  1.00  0.00     0.215 C 
ENDBRANCH  29  32
ENDBRANCH  11  28
BRANCH  12  34
HETATM   34  O4  UNL     1      -0.706   1.866  -0.259  1.00  0.00    -0.367 OA
ATOM     35  H4  UNL     1      -1.348   2.412   0.179  1.00  0.00     0.212 HD
ENDBRANCH  12  34
ENDBRANCH   1   5
TORSDOF 5
