REMARK  6 active torsions:
REMARK  status: ('A' for Active; 'I' for Inactive)
REMARK    1  A    between atoms: C5_7  and  O2_8 
REMARK    2  A    between atoms: O2_8  and  C6_9 
REMARK    3  A    between atoms: C6_9  and  N2_11 
REMARK    4  A    between atoms: N2_11  and  N3_13 
REMARK    5  A    between atoms: C11_22  and  C12_23 
REMARK    6  A    between atoms: C12_23  and  O5_24 
ROOT
HETATM    1  C1  UNL     1      -3.203   2.655  -0.484  1.00  0.00     0.058 C 
HETATM    2  C2  UNL     1      -2.215   1.589  -0.146  1.00  0.00     0.152 C 
HETATM    3  C3  UNL     1      -1.440   1.083  -1.326  1.00  0.00     0.088 C 
HETATM    4  C4  UNL     1      -0.016   1.305  -0.874  1.00  0.00     0.217 C 
HETATM    5  O1  UNL     1      -0.101   2.340   0.055  1.00  0.00    -0.273 OA
HETATM    6  N1  UNL     1      -1.216   2.111   0.727  1.00  0.00    -0.070 NA
HETATM    7  C5  UNL     1       0.673   0.103  -0.377  1.00  0.00     0.239 A 
HETATM    8  O3  UNL     1       0.847   0.093   1.117  1.00  0.00    -0.327 OA
HETATM    9  C7  UNL     1       0.134  -0.918   0.297  1.00  0.00     0.187 A 
HETATM   10  C8  UNL     1      -1.211  -1.142   0.778  1.00  0.00     0.193 C 
HETATM   11  C9  UNL     1      -0.973  -2.121   1.942  1.00  0.00     0.072 C 
HETATM   12  C10 UNL     1       0.135  -3.010   1.512  1.00  0.00     0.165 A 
HETATM   13  O4  UNL     1       1.451  -2.575   1.492  1.00  0.00    -0.363 OA
HETATM   14  C11 UNL     1       0.775  -2.292   0.344  1.00  0.00     0.147 A 
HETATM   15  O6  UNL     1      -1.911  -0.101   1.299  1.00  0.00    -0.276 OA
HETATM   16  N4  UNL     1      -2.849   0.419   0.473  1.00  0.00    -0.071 NA
ENDROOT
BRANCH   7  17
HETATM   17  O2  UNL     1       2.007  -0.058  -0.902  1.00  0.00    -0.281 OA
BRANCH  17  18
HETATM   18  C6  UNL     1       2.900   0.960  -0.629  1.00  0.00     0.231 C 
HETATM   19  S1  UNL     1       3.212   2.030  -1.823  1.00  0.00    -0.032 SA
BRANCH  18  20
HETATM   20  N2  UNL     1       3.542   1.103   0.631  1.00  0.00    -0.277 N 
ATOM     21  H2  UNL     1       3.349   0.438   1.380  1.00  0.00     0.189 HD
BRANCH  20  22
HETATM   22  N3  UNL     1       4.438   2.156   0.845  1.00  0.00    -0.343 N 
ATOM     23  H32 UNL     1       4.620   2.813   0.086  1.00  0.00     0.176 HD
ATOM     24  H31 UNL     1       4.899   2.259   1.749  1.00  0.00     0.176 HD
ENDBRANCH  20  22
ENDBRANCH  18  20
ENDBRANCH  17  18
ENDBRANCH   7  17
BRANCH  14  25
HETATM   25  C12 UNL     1       0.896  -3.095  -0.894  1.00  0.00     0.208 C 
BRANCH  25  26
HETATM   26  O5  UNL     1       0.103  -2.608  -1.941  1.00  0.00    -0.398 OA
ATOM     27  H5  UNL     1       0.181  -3.123  -2.735  1.00  0.00     0.209 HD
ENDBRANCH  25  26
ENDBRANCH  14  25
TORSDOF 6
