REMARK  6 active torsions:
REMARK  status: ('A' for Active; 'I' for Inactive)
REMARK    1  A    between atoms: C2_2  and  C3_3 
REMARK    2  A    between atoms: C3_3  and  C5_5 
REMARK    3  A    between atoms: C3_3  and  C6_12 
REMARK       I    between atoms: C5_5  and  N1_7 
REMARK    4  A    between atoms: N1_7  and  N2_9 
REMARK    5  A    between atoms: C6_12  and  C7_13 
REMARK    6  A    between atoms: C6_12  and  C10_16 
ROOT
HETATM    1  C3  UNL     1       1.053   0.115   0.076  1.00  0.00     0.064 C 
HETATM    2  C4  UNL     1       1.689  -0.439   1.339  1.00  0.00     0.030 C 
ENDROOT
BRANCH   1   3
HETATM    3  C2  UNL     1       1.952  -0.470  -1.008  1.00  0.00    -0.018 C 
HETATM    4  C1  UNL     1       3.236  -0.714  -0.767  1.00  0.00     0.008 C 
ENDBRANCH   1   3
BRANCH   1   5
HETATM    5  C5  UNL     1       1.328   1.543   0.060  1.00  0.00     0.248 C 
HETATM    6  O1  UNL     1       1.838   2.114  -0.972  1.00  0.00    -0.271 OA
HETATM    7  N1  UNL     1       1.102   2.482   1.093  1.00  0.00    -0.276 N 
ATOM      8  H1  UNL     1       0.698   2.105   1.950  1.00  0.00     0.189 HD
BRANCH   7   9
HETATM    9  N2  UNL     1       1.349   3.817   1.100  1.00  0.00    -0.343 N 
ATOM     10  H22 UNL     1       1.753   4.175   0.234  1.00  0.00     0.176 HD
ATOM     11  H21 UNL     1       1.186   4.494   1.845  1.00  0.00     0.176 HD
ENDBRANCH   7   9
ENDBRANCH   1   5
BRANCH   1  12
HETATM   12  C6  UNL     1      -0.302  -0.376  -0.202  1.00  0.00     0.067 C 
BRANCH  12  13
HETATM   13  C7  UNL     1      -0.600  -1.814  -0.182  1.00  0.00    -0.013 C 
HETATM   14  C8  UNL     1       0.103  -2.739  -1.102  1.00  0.00     0.010 C 
HETATM   15  C9  UNL     1      -0.643  -2.452   1.189  1.00  0.00     0.010 C 
ENDBRANCH  12  13
BRANCH  12  16
HETATM   16  C10 UNL     1      -1.475   0.363   0.400  1.00  0.00     0.326 C 
HETATM   17  N3  UNL     1      -1.584   1.736  -0.028  1.00  0.00    -0.046 N 
HETATM   18  C11 UNL     1      -2.411   1.738  -1.203  1.00  0.00     0.261 C 
ATOM     19  H32 UNL     1      -1.923   2.360   0.704  1.00  0.00     0.280 HD
ATOM     20  H31 UNL     1      -0.680   2.186  -0.171  1.00  0.00     0.280 HD
HETATM   21  C12 UNL     1      -3.177   0.454  -1.055  1.00  0.00     0.198 C 
HETATM   22  O2  UNL     1      -2.659  -0.260  -0.025  1.00  0.00    -0.357 OA
ENDBRANCH  12  16
ENDBRANCH   1  12
TORSDOF 6
