REMARK  2 active torsions:
REMARK  status: ('A' for Active; 'I' for Inactive)
REMARK    1  A    between atoms: C2_2  and  O1_4 
REMARK    2  A    between atoms: C2_2  and  C4_6 
ROOT
HETATM    1  C4  UNL     1       0.386   0.174   0.839  1.00  0.00     0.044 A 
HETATM    2  C5  UNL     1       1.161  -1.082   0.413  1.00  0.00     0.035 A 
HETATM    3  C6  UNL     1       1.643   0.374   0.185  1.00  0.00     0.040 A 
HETATM    4  C7  UNL     1       1.872   0.690  -1.247  1.00  0.00     0.033 C 
HETATM    5 CL1  UNL     1       3.043   0.825   1.231  1.00  0.00    -0.119 Cl
ENDROOT
BRANCH   1   6
HETATM    6  C2  UNL     1      -0.980   0.247   0.295  1.00  0.00     0.056 C 
HETATM    7  C1  UNL     1      -1.148   0.260  -1.172  1.00  0.00     0.045 C 
HETATM    8  C3  UNL     1      -1.808  -0.917   0.859  1.00  0.00     0.045 C 
BRANCH   6   9
HETATM    9  O1  UNL     1      -1.618   1.411   0.790  1.00  0.00    -0.390 OA
ATOM     10  H1  UNL     1      -1.510   1.403   1.734  1.00  0.00     0.210 HD
ENDBRANCH   6   9
ENDBRANCH   1   6
TORSDOF 2
