REMARK  2 active torsions:
REMARK  status: ('A' for Active; 'I' for Inactive)
REMARK    1  A    between atoms: C2_2  and  C3_3 
REMARK    2  A    between atoms: C3_3  and  O1_4 
ROOT
HETATM    1  C3  UNL     1      -0.888  -0.530  -0.003  1.00  0.00     0.084 C 
HETATM    2  C4  UNL     1      -0.643  -0.699   1.459  1.00  0.00     0.247 C 
HETATM    3  O2  UNL     1       0.201   0.355   1.863  1.00  0.00    -0.237 OA
HETATM    4  O3  UNL     1       1.410   0.034   1.470  1.00  0.00    -0.230 OA
HETATM    5  C5  UNL     1       1.532   0.071   0.099  1.00  0.00     0.092 C 
HETATM    6  C6  UNL     1       2.149  -1.233  -0.419  1.00  0.00     0.049 C 
HETATM    7  C7  UNL     1       2.516   1.163  -0.263  1.00  0.00     0.049 C 
HETATM    8  C8  UNL     1       0.209   0.344  -0.566  1.00  0.00     0.080 C 
ENDROOT
BRANCH   1   9
HETATM    9  C2  UNL     1      -2.251  -0.053  -0.358  1.00  0.00     0.035 C 
HETATM   10  C1  UNL     1      -2.636   1.280   0.180  1.00  0.00     0.008 C 
ENDBRANCH   1   9
BRANCH   1  11
HETATM   11  O1  UNL     1      -0.726  -1.795  -0.604  1.00  0.00    -0.387 OA
ATOM     12  H1  UNL     1       0.145  -2.100  -0.377  1.00  0.00     0.210 HD
ENDBRANCH   1  11
TORSDOF 2
