REMARK  4 active torsions:
REMARK  status: ('A' for Active; 'I' for Inactive)
REMARK    1  A    between atoms: O1_2  and  C2_3 
REMARK       I    between atoms: C2_3  and  N1_5 
REMARK    2  A    between atoms: N1_5  and  C3_7 
REMARK    3  A    between atoms: C7_15  and  C8_16 
REMARK    4  A    between atoms: C10_21  and  N6_22 
ROOT
HETATM    1  C3  UNL     1       3.401  -0.664  -1.430  1.00  0.00     0.724 A 
HETATM    2  N2  UNL     1       3.018  -0.738  -2.714  1.00  0.00    -0.130 N 
ATOM      3  H2  UNL     1       3.722  -0.892  -3.436  1.00  0.00     0.205 HD
HETATM    4  N3  UNL     1       1.759  -0.617  -3.062  1.00  0.00    -0.289 N 
ATOM      5  H3  UNL     1       1.523  -0.681  -4.052  1.00  0.00     0.187 HD
HETATM    6  C4  UNL     1       0.743  -0.409  -2.165  1.00  0.00     0.054 A 
HETATM    7  C5  UNL     1      -0.638  -0.266  -2.627  1.00  0.00     0.072 C 
HETATM    8  C6  UNL     1       1.107  -0.330  -0.841  1.00  0.00     0.131 A 
HETATM    9  C7  UNL     1       0.432  -0.136   0.312  1.00  0.00     0.125 A 
HETATM   10  N9  UNL     1       1.413  -0.156   1.315  1.00  0.00    -0.280 N 
ATOM     11  H9  UNL     1       1.228  -0.035   2.311  1.00  0.00     0.189 HD
HETATM   12  N10 UNL     1       2.582  -0.349   0.802  1.00  0.00    -0.220 N 
ATOM     13  H10 UNL     1       3.461  -0.405   1.316  1.00  0.00     0.209 HD
HETATM   14  N11 UNL     1       2.435  -0.462  -0.524  1.00  0.00    -0.066 N 
ENDROOT
BRANCH   9  15
HETATM   15  C8  UNL     1      -0.961   0.069   0.611  1.00  0.00     0.154 A 
HETATM   16  N4  UNL     1      -1.996   0.075  -0.143  1.00  0.00    -0.311 N 
HETATM   17  C9  UNL     1      -3.287   0.284   0.158  1.00  0.00     0.198 A 
ATOM     18  H4  UNL     1      -1.810  -0.108  -1.129  1.00  0.00     0.170 HD
HETATM   19  N5  UNL     1      -3.525   0.525   1.463  1.00  0.00    -0.151 N 
HETATM   20  N8  UNL     1      -4.502   0.309  -0.572  1.00  0.00    -0.360 N 
HETATM   21  C10 UNL     1      -2.476   0.536   2.335  1.00  0.00     0.682 A 
HETATM   22  C11 UNL     1      -4.946   0.737   1.624  1.00  0.00     0.170 C 
HETATM   23  N7  UNL     1      -1.247   0.319   1.933  1.00  0.00    -0.174 N 
ATOM     24  H7  UNL     1      -0.488   0.336   2.614  1.00  0.00     0.186 HD
HETATM   25  C12 UNL     1      -5.542   0.111   0.394  1.00  0.00     0.143 C 
ATOM     26  H8  UNL     1      -4.613   0.441  -1.577  1.00  0.00     0.162 HD
BRANCH  21  27
HETATM   27  N6  UNL     1      -2.776   0.777   3.584  1.00  0.00    -0.234 N 
ATOM     28  H62 UNL     1      -3.732   0.946   3.897  1.00  0.00     0.174 HD
ATOM     29  H61 UNL     1      -1.992   0.785   4.236  1.00  0.00     0.174 HD
ENDBRANCH  21  27
ENDBRANCH   9  15
BRANCH   1  30
HETATM   30  N1  UNL     1       4.648  -0.783  -1.082  1.00  0.00    -0.132 N 
HETATM   31  C2  UNL     1       5.141  -0.721   0.222  1.00  0.00     0.378 C 
HETATM   32  O2  UNL     1       5.222  -1.792   0.913  1.00  0.00    -0.238 OA
ATOM     33  H1  UNL     1       5.326  -0.935  -1.828  1.00  0.00     0.190 HD
BRANCH  31  34
HETATM   34  O1  UNL     1       5.555   0.467   0.810  1.00  0.00    -0.308 OA
HETATM   35  C1  UNL     1       6.043   0.430   2.139  1.00  0.00     0.215 C 
ENDBRANCH  31  34
ENDBRANCH   1  30
TORSDOF 4
