REMARK  6 active torsions:
REMARK  status: ('A' for Active; 'I' for Inactive)
REMARK    1  A    between atoms: C5_5  and  O1_6 
REMARK    2  A    between atoms: C16_18  and  N1_19 
REMARK       I    between atoms: N1_19  and  C17_21 
REMARK       I    between atoms: C17_21  and  N2_23 
REMARK    3  A    between atoms: N2_23  and  C18_25 
REMARK    4  A    between atoms: C18_25  and  C19_26 
REMARK    5  A    between atoms: C19_26  and  C20_27 
REMARK    6  A    between atoms: C20_27  and  N3_28 
REMARK       I    between atoms: N3_28  and  C21_30 
ROOT
HETATM    1  C1  UNL     1      -4.710   1.177  -1.023  1.00  0.00     0.016 C 
HETATM    2  C2  UNL     1      -3.917   0.832   0.239  1.00  0.00    -0.036 C 
HETATM    3  C3  UNL     1      -3.786   2.118   1.037  1.00  0.00     0.012 C 
HETATM    4  C4  UNL     1      -5.121   2.772   1.257  1.00  0.00     0.032 C 
HETATM    5  C5  UNL     1      -6.263   1.817   1.344  1.00  0.00     0.118 C 
HETATM    6  C6  UNL     1      -5.841   0.454   1.819  1.00  0.00     0.037 C 
HETATM    7  C7  UNL     1      -4.757  -0.173   0.996  1.00  0.00    -0.004 C 
HETATM    8  C8  UNL     1      -3.903  -0.976   1.966  1.00  0.00     0.006 C 
HETATM    9  C9  UNL     1      -2.836  -1.771   1.268  1.00  0.00     0.006 C 
HETATM   10  C10 UNL     1      -2.510  -1.238  -0.081  1.00  0.00    -0.001 C 
HETATM   11  C11 UNL     1      -2.602   0.289  -0.175  1.00  0.00    -0.001 C 
HETATM   12  C12 UNL     1      -1.415   0.802   0.577  1.00  0.00     0.007 C 
HETATM   13  C13 UNL     1      -0.187   0.437  -0.229  1.00  0.00     0.012 C 
HETATM   14  C14 UNL     1      -0.002  -1.081  -0.369  1.00  0.00    -0.016 C 
HETATM   15  C15 UNL     1       0.495  -1.490   1.036  1.00  0.00     0.018 C 
HETATM   16  C16 UNL     1       1.153  -1.290  -1.300  1.00  0.00     0.095 C 
HETATM   17  C22 UNL     1       0.872  -1.792  -2.674  1.00  0.00     0.026 C 
HETATM   18  C23 UNL     1      -0.445  -2.446  -2.883  1.00  0.00     0.003 C 
HETATM   19  C24 UNL     1      -1.482  -1.587  -2.216  1.00  0.00     0.010 C 
HETATM   20  C25 UNL     1      -1.269  -1.767  -0.715  1.00  0.00    -0.031 C 
HETATM   21  C26 UNL     1      -1.197  -3.251  -0.368  1.00  0.00     0.016 C 
ENDROOT
BRANCH  16  22
HETATM   22  N1  UNL     1       2.020  -0.153  -1.411  1.00  0.00    -0.338 N 
HETATM   23  C17 UNL     1       3.391  -0.260  -1.114  1.00  0.00     0.316 C 
HETATM   24  O2  UNL     1       3.865  -1.383  -0.749  1.00  0.00    -0.247 OA
HETATM   25  N2  UNL     1       4.287   0.846  -1.204  1.00  0.00    -0.343 N 
ATOM     26  H2  UNL     1       3.920   1.750  -1.501  1.00  0.00     0.164 HD
ATOM     27  H1  UNL     1       1.638   0.745  -1.709  1.00  0.00     0.164 HD
BRANCH  25  28
HETATM   28  C18 UNL     1       5.682   0.739  -0.894  1.00  0.00     0.126 C 
BRANCH  28  29
HETATM   29  C19 UNL     1       5.998   0.343   0.506  1.00  0.00     0.039 C 
BRANCH  29  30
HETATM   30  C20 UNL     1       7.492   0.261   0.759  1.00  0.00     0.125 C 
BRANCH  30  31
HETATM   31  N3  UNL     1       8.168   1.499   0.546  1.00  0.00    -0.345 N 
HETATM   32  C21 UNL     1       9.556   1.604   0.733  1.00  0.00     0.328 C 
HETATM   33  N4  UNL     1      10.233   2.822   0.525  1.00  0.00    -0.040 NA
HETATM   34  O3  UNL     1      10.225   0.600   1.094  1.00  0.00    -0.251 OA
ATOM     35  H3  UNL     1       7.636   2.319   0.254  1.00  0.00     0.163 HD
ENDBRANCH  30  31
ENDBRANCH  29  30
ENDBRANCH  28  29
ENDBRANCH  25  28
ENDBRANCH  16  22
BRANCH   5  36
HETATM   36  O1  UNL     1      -7.138   2.321   2.337  1.00  0.00    -0.396 OA
ATOM     37  H1  UNL     1      -7.866   1.713   2.392  1.00  0.00     0.210 HD
ENDBRANCH   5  36
TORSDOF 6
