REMARK  5 active torsions:
REMARK  status: ('A' for Active; 'I' for Inactive)
REMARK       I    between atoms: C1_2  and  N1_3 
REMARK    1  A    between atoms: C1_2  and  C7_11 
REMARK    2  A    between atoms: N1_3  and  N2_5 
REMARK    3  A    between atoms: C10_15  and  N3_16 
REMARK    4  A    between atoms: N4_18  and  N5_20 
REMARK    5  A    between atoms: N5_20  and  O2_22 
ROOT
HETATM    1  C7  UNL     1       1.495  -0.542   0.014  1.00  0.00     0.078 A 
HETATM    2  C8  UNL     1       1.800   0.769  -0.201  1.00  0.00     0.051 A 
HETATM    3  C9  UNL     1       3.085   1.092  -0.379  1.00  0.00     0.070 A 
HETATM    4 CL1  UNL     1       3.663   2.756  -0.667  1.00  0.00    -0.081 Cl
HETATM    5  C10 UNL     1       3.998   0.071  -0.330  1.00  0.00     0.112 A 
HETATM    6  S1  UNL     1       3.026  -1.298  -0.037  1.00  0.00    -0.064 SA
ENDROOT
BRANCH   1   7
HETATM    7  C1  UNL     1       0.182  -1.168   0.238  1.00  0.00     0.276 C 
HETATM    8  O1  UNL     1       0.172  -2.414   0.412  1.00  0.00    -0.265 OA
HETATM    9  N1  UNL     1      -1.003  -0.429   0.260  1.00  0.00    -0.268 N 
ATOM     10  H1  UNL     1      -0.935   0.578   0.114  1.00  0.00     0.190 HD
BRANCH   9  11
HETATM   11  N2  UNL     1      -2.251  -0.958   0.463  1.00  0.00    -0.325 N 
HETATM   12  C2  UNL     1      -3.087  -0.247   1.358  1.00  0.00     0.142 C 
HETATM   13  C3  UNL     1      -4.091   0.655   0.681  1.00  0.00     0.021 C 
HETATM   14  C4  UNL     1      -4.828  -0.061  -0.432  1.00  0.00     0.003 C 
HETATM   15  C5  UNL     1      -3.750  -0.532  -1.397  1.00  0.00     0.021 C 
HETATM   16  C6  UNL     1      -2.904  -1.534  -0.656  1.00  0.00     0.142 C 
ENDBRANCH   9  11
ENDBRANCH   1   7
BRANCH   5  17
HETATM   17  N3  UNL     1       5.425   0.086  -0.482  1.00  0.00    -0.276 N 
HETATM   18  N4  UNL     1       6.086   0.932   0.143  1.00  0.00    -0.222 N 
ATOM     19  H4  UNL     1       5.568   1.578   0.739  1.00  0.00     0.210 HD
ATOM     20  H3  UNL     1       5.889  -0.587  -1.093  1.00  0.00     0.189 HD
BRANCH  18  21
HETATM   21  N5  UNL     1       7.453   1.077   0.105  1.00  0.00    -0.196 N 
ATOM     22  H5  UNL     1       7.903   1.301  -0.782  1.00  0.00     0.217 HD
BRANCH  21  23
HETATM   23  O2  UNL     1       8.212   0.932   1.204  1.00  0.00    -0.273 OA
ATOM     24  H2  UNL     1       9.156   1.032   1.178  1.00  0.00     0.246 HD
ENDBRANCH  21  23
ENDBRANCH  18  21
ENDBRANCH   5  17
TORSDOF 5
