REMARK  10 active torsions:
REMARK  status: ('A' for Active; 'I' for Inactive)
REMARK    1  A    between atoms: C2_2  and  C3_3 
REMARK    2  A    between atoms: C3_3  and  C4_4 
REMARK    3  A    between atoms: C4_4  and  C5_5 
REMARK    4  A    between atoms: C6_7  and  C7_8 
REMARK    5  A    between atoms: C7_8  and  C8_9 
REMARK    6  A    between atoms: C8_9  and  C9_10 
REMARK    7  A    between atoms: C9_10  and  C10_11 
REMARK    8  A    between atoms: C13_18  and  C14_19 
REMARK    9  A    between atoms: C14_19  and  O3_20 
REMARK   10  A    between atoms: N2_22  and  O4_24 
ROOT
HETATM    1  C5  UNL     1      -0.291  -0.202   0.545  1.00  0.00     0.029 A 
HETATM    2  S1  UNL     1       0.205   0.013   2.206  1.00  0.00    -0.075 SA
HETATM    3  C6  UNL     1       0.321  -1.624   2.666  1.00  0.00     0.051 A 
HETATM    4  N1  UNL     1      -0.010  -2.231   1.574  1.00  0.00    -0.356 N 
ATOM      5  H1  UNL     1      -0.027  -3.251   1.556  1.00  0.00     0.166 HD
HETATM    6  C11 UNL     1      -0.325  -1.563   0.486  1.00  0.00     0.023 A 
HETATM    7  C12 UNL     1      -0.716  -2.332  -0.767  1.00  0.00     0.069 C 
ENDROOT
BRANCH   1   8
HETATM    8  C4  UNL     1      -0.550   0.861  -0.429  1.00  0.00     0.021 C 
BRANCH   8   9
HETATM    9  C3  UNL     1      -0.869   1.351  -1.424  1.00  0.00     0.008 C 
BRANCH   9  10
HETATM   10  C2  UNL     1      -1.368   1.282  -2.795  1.00  0.00    -0.058 C 
HETATM   11  C1  UNL     1      -1.585   0.072  -3.571  1.00  0.00     0.048 C 
HETATM   12  C13 UNL     1      -1.552   2.438  -3.402  1.00  0.00     0.064 C 
BRANCH  12  13
HETATM   13  C14 UNL     1      -1.910   2.791  -4.671  1.00  0.00     0.160 C 
HETATM   14  N2  UNL     1      -2.069   2.126  -5.788  1.00  0.00    -0.247 N 
ATOM     15  H2  UNL     1      -1.907   1.120  -5.823  1.00  0.00     0.196 HD
BRANCH  13  16
HETATM   16  O3  UNL     1      -2.158   4.207  -4.913  1.00  0.00    -0.345 OA
ATOM     17  H3  UNL     1      -2.407   4.453  -5.796  1.00  0.00     0.219 HD
ENDBRANCH  13  16
BRANCH  14  18
HETATM   18  O4  UNL     1      -2.446   2.791  -6.874  1.00  0.00    -0.288 OA
ATOM     19  H4  UNL     1      -2.561   2.309  -7.684  1.00  0.00     0.244 HD
ENDBRANCH  14  18
ENDBRANCH  12  13
ENDBRANCH   9  10
ENDBRANCH   8   9
ENDBRANCH   1   8
BRANCH   3  20
HETATM   20  C7  UNL     1       0.712  -2.210   4.010  1.00  0.00     0.065 C 
BRANCH  20  21
HETATM   21  C8  UNL     1       2.194  -2.441   4.056  1.00  0.00     0.017 C 
BRANCH  21  22
HETATM   22  C9  UNL     1       3.034  -1.207   3.894  1.00  0.00     0.113 C 
BRANCH  22  23
HETATM   23  C10 UNL     1       2.850  -0.243   4.983  1.00  0.00     0.172 C 
HETATM   24  O1  UNL     1       2.078  -0.442   5.977  1.00  0.00    -0.648 OA
HETATM   25  O2  UNL     1       3.539   0.958   4.959  1.00  0.00    -0.648 OA
ENDBRANCH  22  23
ENDBRANCH  21  22
ENDBRANCH  20  21
ENDBRANCH   3  20
TORSDOF 10
