REMARK  15 active torsions:
REMARK  status: ('A' for Active; 'I' for Inactive)
REMARK    1  A    between atoms: N2_4  and  N3_6 
REMARK    2  A    between atoms: C1_8  and  C2_10 
REMARK    3  A    between atoms: C2_10  and  C3_11 
REMARK    4  A    between atoms: C6_14  and  N5_15 
REMARK    5  A    between atoms: N5_15  and  S1_17 
REMARK    6  A    between atoms: S1_17  and  N6_20 
REMARK    7  A    between atoms: N6_20  and  C7_22 
REMARK    8  A    between atoms: C7_22  and  C8_23 
REMARK    9  A    between atoms: C7_22  and  C15_30 
REMARK   10  A    between atoms: C8_23  and  C9_24 
REMARK   11  A    between atoms: C15_30  and  O3_31 
REMARK   12  A    between atoms: C15_30  and  C16_33 
REMARK   13  A    between atoms: C16_33  and  N7_34 
REMARK   14  A    between atoms: N7_34  and  C17_37 
REMARK   15  A    between atoms: C17_37  and  C18_38 
ROOT
HETATM    1  N6  UNL     1      -0.018  -1.777   0.057  1.00  0.00    -0.295 N 
ATOM      2  H6  UNL     1       0.429  -2.373   0.754  1.00  0.00     0.174 HD
ENDROOT
BRANCH   1   3
HETATM    3  S1  UNL     1       0.743  -1.304  -1.416  1.00  0.00     0.319 S 
HETATM    4  O1  UNL     1      -0.254  -1.148  -2.529  1.00  0.00    -0.182 OA
HETATM    5  O2  UNL     1       1.676  -2.407  -1.807  1.00  0.00    -0.182 OA
BRANCH   3   6
HETATM    6  N5  UNL     1       1.605   0.158  -1.263  1.00  0.00    -0.268 N 
ATOM      7  H5  UNL     1       1.109   1.032  -1.438  1.00  0.00     0.180 HD
BRANCH   6   8
HETATM    8  C6  UNL     1       2.975   0.223  -0.905  1.00  0.00     0.043 A 
HETATM    9  C5  UNL     1       3.983  -0.517  -1.473  1.00  0.00     0.031 A 
HETATM   10  C4  UNL     1       5.315  -0.399  -1.084  1.00  0.00     0.010 A 
HETATM   11  C3  UNL     1       5.683   0.483  -0.096  1.00  0.00    -0.051 A 
HETATM   12  C25 UNL     1       4.681   1.229   0.478  1.00  0.00     0.010 A 
HETATM   13  C24 UNL     1       3.365   1.121   0.103  1.00  0.00     0.031 A 
BRANCH  11  14
HETATM   14  C2  UNL     1       7.100   0.638   0.348  1.00  0.00     0.113 C 
BRANCH  14  15
HETATM   15  C1  UNL     1       7.799   1.671  -0.444  1.00  0.00     0.113 C 
HETATM   16  N3  UNL     1       8.288   2.689   0.128  1.00  0.00    -0.277 N 
ATOM     17  H3  UNL     1       8.764   3.381  -0.451  1.00  0.00     0.189 HD
HETATM   18  N4  UNL     1       7.908   1.496  -1.843  1.00  0.00    -0.086 NA
BRANCH  16  19
HETATM   19  N2  UNL     1       8.216   2.923   1.501  1.00  0.00    -0.248 N 
HETATM   20  N1  UNL     1       7.788   4.065   1.866  1.00  0.00    -0.331 N 
ATOM     21  H12 UNL     1       7.515   4.764   1.175  1.00  0.00     0.178 HD
ATOM     22  H11 UNL     1       7.735   4.236   2.870  1.00  0.00     0.178 HD
ATOM     23  H2  UNL     1       8.493   2.214   2.180  1.00  0.00     0.207 HD
ENDBRANCH  16  19
ENDBRANCH  14  15
ENDBRANCH  11  14
ENDBRANCH   6   8
ENDBRANCH   3   6
ENDBRANCH   1   3
BRANCH   1  24
HETATM   24  C7  UNL     1      -1.358  -1.241   0.205  1.00  0.00     0.129 C 
BRANCH  24  25
HETATM   25  C8  UNL     1      -2.394  -2.302   0.172  1.00  0.00     0.067 C 
BRANCH  25  26
HETATM   26  C9  UNL     1      -2.306  -3.339   1.191  1.00  0.00    -0.056 A 
HETATM   27  C10 UNL     1      -2.916  -3.309   2.430  1.00  0.00     0.007 A 
HETATM   28  C11 UNL     1      -2.725  -4.378   3.279  1.00  0.00     0.001 A 
HETATM   29  C12 UNL     1      -1.945  -5.475   2.929  1.00  0.00     0.000 A 
HETATM   30  C13 UNL     1      -1.332  -5.515   1.695  1.00  0.00     0.001 A 
HETATM   31  C14 UNL     1      -1.523  -4.456   0.857  1.00  0.00     0.007 A 
ENDBRANCH  25  26
ENDBRANCH  24  25
BRANCH  24  32
HETATM   32  C15 UNL     1      -1.456  -0.267   1.325  1.00  0.00     0.167 C 
BRANCH  32  33
HETATM   33  O3  UNL     1      -0.568   0.820   1.115  1.00  0.00    -0.392 OA
ATOM     34  H3  UNL     1      -0.631   1.442   1.830  1.00  0.00     0.210 HD
ENDBRANCH  32  33
BRANCH  32  35
HETATM   35  C16 UNL     1      -2.803   0.375   1.479  1.00  0.00     0.266 C 
BRANCH  35  36
HETATM   36  N7  UNL     1      -3.180   1.134   0.292  1.00  0.00    -0.069 N 
ATOM     37  H72 UNL     1      -2.477   1.827   0.036  1.00  0.00     0.277 HD
ATOM     38  H71 UNL     1      -3.142   0.569  -0.557  1.00  0.00     0.277 HD
BRANCH  36  39
HETATM   39  C17 UNL     1      -4.488   1.728   0.500  1.00  0.00     0.271 C 
BRANCH  39  40
HETATM   40  C18 UNL     1      -4.885   2.498  -0.691  1.00  0.00    -0.030 A 
HETATM   41  C19 UNL     1      -4.560   3.830  -0.811  1.00  0.00     0.009 A 
HETATM   42  C20 UNL     1      -4.936   4.561  -1.942  1.00  0.00     0.004 A 
HETATM   43  C21 UNL     1      -5.643   3.938  -2.950  1.00  0.00     0.042 A 
HETATM   44  C22 UNL     1      -5.963   2.600  -2.816  1.00  0.00     0.117 A 
HETATM   45  F1  UNL     1      -6.660   1.969  -3.800  1.00  0.00    -0.206 F 
HETATM   46  C23 UNL     1      -5.589   1.873  -1.691  1.00  0.00     0.051 A 
ENDBRANCH  39  40
ENDBRANCH  36  39
ENDBRANCH  35  36
ENDBRANCH  32  35
ENDBRANCH  24  32
ENDBRANCH   1  24
TORSDOF 15
