REMARK  16 active torsions:
REMARK  status: ('A' for Active; 'I' for Inactive)
REMARK    1  A    between atoms: C1_2  and  O2_4 
REMARK    2  A    between atoms: O2_4  and  C2_5 
REMARK    3  A    between atoms: C2_5  and  C3_6 
REMARK    4  A    between atoms: C9_18  and  O4_19 
REMARK    5  A    between atoms: C11_23  and  N5_24 
REMARK    6  A    between atoms: N5_24  and  C12_26 
REMARK    7  A    between atoms: C12_26  and  O6_27 
REMARK    8  A    between atoms: C12_26  and  C13_29 
REMARK    9  A    between atoms: C13_29  and  O7_30 
REMARK   10  A    between atoms: C13_29  and  C14_32 
REMARK   11  A    between atoms: C14_32  and  O8_33 
REMARK   12  A    between atoms: C14_32  and  C15_35 
REMARK   13  A    between atoms: C15_35  and  O9_36 
REMARK   14  A    between atoms: C15_35  and  C16_38 
REMARK   15  A    between atoms: C16_38  and  O10_39 
REMARK   16  A    between atoms: C17_41  and  O11_42 
ROOT
HETATM    1  C3  UNL     1      -3.739  -1.701  -2.580  1.00  0.00     0.069 A 
HETATM    2  C4  UNL     1      -2.572  -2.340  -2.294  1.00  0.00     0.315 A 
HETATM    3  N2  UNL     1      -1.737  -3.230  -2.323  1.00  0.00    -0.271 N 
ATOM      4  H2  UNL     1      -1.651  -4.115  -2.823  1.00  0.00     0.185 HD
HETATM    5  N3  UNL     1      -0.995  -2.589  -1.450  1.00  0.00    -0.151 N 
ATOM      6  H3  UNL     1      -0.104  -2.681  -0.961  1.00  0.00     0.215 HD
HETATM    7  N4  UNL     1      -2.300  -1.533  -1.569  1.00  0.00     0.110 N 
HETATM    8  C5  UNL     1      -3.383  -0.716  -1.701  1.00  0.00     0.230 A 
HETATM    9  C6  UNL     1      -3.774   0.465  -1.173  1.00  0.00     0.220 A 
HETATM   10  O3  UNL     1      -4.835   1.098  -1.389  1.00  0.00    -0.285 OA
HETATM   11  C7  UNL     1      -2.694   0.859  -0.282  1.00  0.00     0.031 A 
HETATM   12  C8  UNL     1      -2.793   2.069   0.250  1.00  0.00     0.057 C 
HETATM   13  C9  UNL     1      -1.627   2.670   0.797  1.00  0.00     0.119 C 
HETATM   14  C10 UNL     1      -0.371   2.070   1.004  1.00  0.00     0.234 C 
HETATM   15  O5  UNL     1       0.305   2.569   1.894  1.00  0.00    -0.283 OA
HETATM   16  C11 UNL     1       0.244   0.991   0.354  1.00  0.00     0.117 C 
HETATM   17  C17 UNL     1      -0.343   0.197  -0.540  1.00  0.00     0.105 C 
HETATM   18  C18 UNL     1      -1.780  -0.126  -0.360  1.00  0.00     0.030 A 
HETATM   19  C19 UNL     1      -1.830  -1.258  -1.093  1.00  0.00     0.330 A 
ENDROOT
BRANCH  16  20
HETATM   20  N5  UNL     1       1.552   0.602   0.512  1.00  0.00    -0.356 N 
ATOM     21  H5  UNL     1       2.186   0.893  -0.232  1.00  0.00     0.162 HD
BRANCH  20  22
HETATM   22  C12 UNL     1       2.164  -0.163   1.584  1.00  0.00     0.249 C 
BRANCH  22  23
HETATM   23  O6  UNL     1       2.355   0.691   2.632  1.00  0.00    -0.374 OA
ATOM     24  H6  UNL     1       2.755   0.191   3.333  1.00  0.00     0.212 HD
ENDBRANCH  22  23
BRANCH  22  25
HETATM   25  C13 UNL     1       3.398  -0.825   1.127  1.00  0.00     0.197 C 
BRANCH  25  26
HETATM   26  O7  UNL     1       2.977  -1.750   0.124  1.00  0.00    -0.389 OA
ATOM     27  H7  UNL     1       3.773  -2.177  -0.171  1.00  0.00     0.210 HD
ENDBRANCH  25  26
BRANCH  25  28
HETATM   28  C14 UNL     1       4.243  -1.552   2.095  1.00  0.00     0.181 C 
BRANCH  28  29
HETATM   29  O8  UNL     1       3.654  -2.533   2.854  1.00  0.00    -0.390 OA
ATOM     30  H8  UNL     1       4.198  -3.001   3.477  1.00  0.00     0.210 HD
ENDBRANCH  28  29
BRANCH  28  31
HETATM   31  C15 UNL     1       5.228  -0.768   2.878  1.00  0.00     0.173 C 
BRANCH  31  32
HETATM   32  O9  UNL     1       4.757  -0.094   3.981  1.00  0.00    -0.391 OA
ATOM     33  H9  UNL     1       5.388   0.408   4.483  1.00  0.00     0.210 HD
ENDBRANCH  31  32
BRANCH  31  34
HETATM   34  C16 UNL     1       6.064   0.162   2.003  1.00  0.00     0.198 C 
BRANCH  34  35
HETATM   35  O10 UNL     1       7.157   0.581   2.790  1.00  0.00    -0.398 OA
ATOM     36  H10 UNL     1       7.677   1.160   2.245  1.00  0.00     0.209 HD
ENDBRANCH  34  35
ENDBRANCH  31  34
ENDBRANCH  28  31
ENDBRANCH  25  28
ENDBRANCH  22  25
ENDBRANCH  20  22
ENDBRANCH  16  20
BRANCH  17  37
HETATM   37  O11 UNL     1       0.123  -0.421  -1.676  1.00  0.00    -0.358 OA
ATOM     38  H11 UNL     1      -0.296  -0.987  -2.314  1.00  0.00     0.217 HD
ENDBRANCH  17  37
BRANCH  13  39
HETATM   39  O4  UNL     1      -1.799   3.951   1.136  1.00  0.00    -0.357 OA
ATOM     40  H4  UNL     1      -1.020   4.353   1.502  1.00  0.00     0.218 HD
ENDBRANCH  13  39
BRANCH   1  41
HETATM   41  C2  UNL     1      -4.779  -1.685  -3.236  1.00  0.00     0.161 C 
BRANCH  41  42
HETATM   42  O2  UNL     1      -5.819  -0.801  -3.272  1.00  0.00    -0.275 OA
BRANCH  42  43
HETATM   43  C1  UNL     1      -5.956   0.095  -4.373  1.00  0.00     0.377 C 
HETATM   44  N1  UNL     1      -7.010   1.015  -4.472  1.00  0.00    -0.032 NA
HETATM   45  O1  UNL     1      -5.062   0.001  -5.253  1.00  0.00    -0.242 OA
ENDBRANCH  42  43
ENDBRANCH  41  42
ENDBRANCH   1  41
TORSDOF 16
