REMARK  18 active torsions:
REMARK  status: ('A' for Active; 'I' for Inactive)
REMARK    1  A    between atoms: N1_1  and  N2_4 
REMARK    2  A    between atoms: C1_6  and  C2_7 
REMARK    3  A    between atoms: C3_8  and  C4_9 
REMARK    4  A    between atoms: C4_9  and  O1_10 
REMARK    5  A    between atoms: C4_9  and  O2_12 
REMARK    6  A    between atoms: C5_14  and  O3_15 
REMARK    7  A    between atoms: C7_20  and  C8_21 
REMARK    8  A    between atoms: C8_21  and  C9_22 
REMARK    9  A    between atoms: C8_21  and  N4_43 
REMARK   10  A    between atoms: C9_22  and  O6_23 
REMARK   11  A    between atoms: O6_23  and  C10_24 
REMARK   12  A    between atoms: C10_24  and  C11_26 
REMARK   13  A    between atoms: C11_26  and  N3_27 
REMARK   14  A    between atoms: C12_28  and  O8_29 
REMARK   15  A    between atoms: C14_32  and  C15_33 
REMARK   16  A    between atoms: C15_33  and  O9_34 
REMARK   17  A    between atoms: C15_33  and  O10_36 
REMARK   18  A    between atoms: C16_38  and  O11_39 
ROOT
HETATM    1  C8  UNL     1      -1.570  -0.391   0.487  1.00  0.00     0.053 C 
ENDROOT
BRANCH   1   2
HETATM    2  C7  UNL     1      -2.712   0.497   0.670  1.00  0.00     0.077 A 
HETATM    3  C2  UNL     1      -4.060   0.234   0.360  1.00  0.00     0.015 A 
HETATM    4  C3  UNL     1      -5.022   1.219   0.349  1.00  0.00     0.067 A 
HETATM    5  C5  UNL     1      -4.613   2.549   0.679  1.00  0.00     0.198 A 
HETATM    6  O4  UNL     1      -3.380   2.774   0.966  1.00  0.00    -0.250 OA
HETATM    7  C6  UNL     1      -2.452   1.862   0.976  1.00  0.00     0.303 A 
HETATM    8  O5  UNL     1      -1.301   2.247   1.265  1.00  0.00    -0.259 OA
BRANCH   3   9
HETATM    9  C1  UNL     1      -4.438  -1.153   0.255  1.00  0.00     0.119 C 
HETATM   10  N2  UNL     1      -5.634  -1.570   0.143  1.00  0.00    -0.318 N 
ATOM     11  H2  UNL     1      -6.367  -0.861   0.126  1.00  0.00     0.185 HD
BRANCH  10  12
HETATM   12  N1  UNL     1      -6.039  -2.885   0.042  1.00  0.00    -0.345 N 
ATOM     13  H12 UNL     1      -5.292  -3.579   0.061  1.00  0.00     0.176 HD
ATOM     14  H11 UNL     1      -6.998  -3.220  -0.048  1.00  0.00     0.176 HD
ENDBRANCH  10  12
ENDBRANCH   3   9
BRANCH   4  15
HETATM   15  C4  UNL     1      -6.414   1.026  -0.046  1.00  0.00     0.294 C 
BRANCH  15  16
HETATM   16  O1  UNL     1      -6.640   0.366  -1.233  1.00  0.00    -0.367 OA
ATOM     17  H1  UNL     1      -7.546   0.240  -1.490  1.00  0.00     0.213 HD
ENDBRANCH  15  16
BRANCH  15  18
HETATM   18  O2  UNL     1      -7.239   0.568   1.000  1.00  0.00    -0.367 OA
ATOM     19  H2  UNL     1      -8.145   0.442   0.743  1.00  0.00     0.213 HD
ENDBRANCH  15  18
ENDBRANCH   4  15
BRANCH   5  20
HETATM   20  O3  UNL     1      -5.583   3.535   0.673  1.00  0.00    -0.340 OA
ATOM     21  H3  UNL     1      -5.311   4.419   0.892  1.00  0.00     0.220 HD
ENDBRANCH   5  20
ENDBRANCH   1   2
BRANCH   1  22
HETATM   22  C9  UNL     1      -0.670  -0.363   1.699  1.00  0.00     0.237 C 
BRANCH  22  23
HETATM   23  O6  UNL     1       0.626  -0.720   1.565  1.00  0.00    -0.311 OA
BRANCH  23  24
HETATM   24  C10 UNL     1       1.711  -0.230   0.917  1.00  0.00     0.299 C 
HETATM   25  O7  UNL     1       1.548   0.811   0.245  1.00  0.00    -0.259 OA
BRANCH  24  26
HETATM   26  C11 UNL     1       3.035  -0.886   0.999  1.00  0.00     0.184 C 
BRANCH  26  27
HETATM   27  N3  UNL     1       4.119  -0.288   0.337  1.00  0.00    -0.261 N 
HETATM   28  C12 UNL     1       4.468  -0.559  -0.937  1.00  0.00     0.150 A 
HETATM   29  C13 UNL     1       5.600   0.017  -1.515  1.00  0.00     0.071 A 
HETATM   30  C14 UNL     1       6.400   0.883  -0.811  1.00  0.00     0.039 A 
HETATM   31  C16 UNL     1       6.030   1.152   0.487  1.00  0.00     0.146 A 
HETATM   32  C17 UNL     1       4.929   0.576   1.015  1.00  0.00     0.287 A 
HETATM   33  O12 UNL     1       4.629   0.854   2.215  1.00  0.00    -0.264 OA
BRANCH  28  34
HETATM   34  O8  UNL     1       3.702  -1.417  -1.699  1.00  0.00    -0.346 OA
ATOM     35  H8  UNL     1       3.948  -1.608  -2.597  1.00  0.00     0.219 HD
ENDBRANCH  28  34
BRANCH  30  36
HETATM   36  C15 UNL     1       7.618   1.468  -1.433  1.00  0.00     0.291 C 
BRANCH  36  37
HETATM   37  O9  UNL     1       7.772   2.817  -1.202  1.00  0.00    -0.367 OA
ATOM     38  H9  UNL     1       8.550   3.191  -1.599  1.00  0.00     0.213 HD
ENDBRANCH  36  37
BRANCH  36  39
HETATM   39  O10 UNL     1       8.767   0.792  -0.951  1.00  0.00    -0.367 OA
ATOM     40  H10 UNL     1       9.545   1.166  -1.348  1.00  0.00     0.213 HD
ENDBRANCH  36  39
ENDBRANCH  30  36
BRANCH  31  41
HETATM   41  O11 UNL     1       6.872   2.045   1.174  1.00  0.00    -0.355 OA
ATOM     42  H11 UNL     1       6.617   2.231   2.070  1.00  0.00     0.218 HD
ENDBRANCH  31  41
ENDBRANCH  26  27
ENDBRANCH  24  26
ENDBRANCH  23  24
ENDBRANCH  22  23
ENDBRANCH   1  22
BRANCH   1  43
HETATM   43  N4  UNL     1      -1.733  -1.604  -0.170  1.00  0.00    -0.334 N 
HETATM   44  C18 UNL     1      -1.200  -1.968  -1.307  1.00  0.00     0.201 C 
HETATM   45  N5  UNL     1      -1.496  -3.267  -1.798  1.00  0.00    -0.067 NA
HETATM   46  N6  UNL     1      -0.375  -1.098  -2.060  1.00  0.00    -0.067 NA
ATOM     47  H4  UNL     1      -2.337  -2.288   0.286  1.00  0.00     0.168 HD
ENDBRANCH   1  43
TORSDOF 18
