REMARK  1 active torsions:
REMARK  status: ('A' for Active; 'I' for Inactive)
REMARK    1  A    between atoms: C5_5  and  C6_6 
ROOT
HETATM    1  C6  UNL     1       1.120  -0.717   0.385  1.00  0.00     0.035 A 
HETATM    2  C7  UNL     1       1.041  -1.872   1.164  1.00  0.00     0.019 A 
HETATM    3  C8  UNL     1      -0.181  -2.389   1.439  1.00  0.00     0.019 A 
HETATM    4  C9  UNL     1      -1.299  -1.765   0.947  1.00  0.00     0.099 A 
HETATM    5  N1  UNL     1      -1.263  -0.655   0.199  1.00  0.00    -0.304 N 
HETATM    6  C10 UNL     1      -0.044  -0.124  -0.085  1.00  0.00     0.125 A 
HETATM    7  N2  UNL     1      -0.220   0.972  -0.795  1.00  0.00    -0.334 N 
ATOM      8  H2  UNL     1       0.508   1.590  -1.153  1.00  0.00     0.168 HD
HETATM    9  C11 UNL     1      -1.560   1.119  -0.957  1.00  0.00     0.104 A 
HETATM   10  S1  UNL     1      -2.765   2.095  -1.644  1.00  0.00    -0.069 SA
HETATM   11  C12 UNL     1      -4.144   1.218  -1.150  1.00  0.00     0.019 A 
HETATM   12  C13 UNL     1      -5.505   1.433  -1.357  1.00  0.00     0.020 A 
HETATM   13  C14 UNL     1      -6.413   0.540  -0.829  1.00  0.00     0.001 A 
HETATM   14  C15 UNL     1      -5.910  -0.506  -0.132  1.00  0.00     0.001 A 
HETATM   15  C16 UNL     1      -4.576  -0.725   0.077  1.00  0.00     0.015 A 
HETATM   16  C17 UNL     1      -3.617   0.170  -0.450  1.00  0.00     0.011 A 
HETATM   17  C18 UNL     1      -2.255   0.124  -0.352  1.00  0.00     0.086 A 
ENDROOT
BRANCH   1  18
HETATM   18  C5  UNL     1       2.451  -0.207   0.157  1.00  0.00     0.046 A 
HETATM   19  C4  UNL     1       2.846   0.390  -0.989  1.00  0.00     0.031 A 
HETATM   20  C3  UNL     1       4.180   0.795  -1.173  1.00  0.00     0.010 A 
HETATM   21  C2  UNL     1       5.105   0.585  -0.186  1.00  0.00    -0.047 A 
HETATM   22  C1  UNL     1       6.513   1.012  -0.380  1.00  0.00     0.049 C 
HETATM   23  C19 UNL     1       4.663  -0.033   0.974  1.00  0.00     0.095 A 
HETATM   24  N3  UNL     1       3.393  -0.399   1.109  1.00  0.00    -0.365 N 
ATOM     25  H3  UNL     1       3.112  -0.850   1.980  1.00  0.00     0.165 HD
ENDBRANCH   1  18
TORSDOF 1
