REMARK  2 active torsions:
REMARK  status: ('A' for Active; 'I' for Inactive)
REMARK    1  A    between atoms: N1_5  and  C4_6 
REMARK    2  A    between atoms: N1_5  and  C5_8 
ROOT
HETATM    1  F1  UNL     1      -2.549  -1.303   1.115  1.00  0.00    -0.248 F 
HETATM    2  C1  UNL     1      -1.653  -0.375   0.701  1.00  0.00     0.197 C 
HETATM    3  C2  UNL     1      -1.655  -0.198  -0.827  1.00  0.00     0.067 C 
HETATM    4  C3  UNL     1      -0.365   0.597  -0.965  1.00  0.00     0.243 C 
HETATM    5  N1  UNL     1       0.542   0.062   0.038  1.00  0.00    -0.040 N 
HETATM    6  C6  UNL     1      -0.202  -0.841   0.859  1.00  0.00     0.277 C 
ENDROOT
BRANCH   5   7
HETATM    7  C4  UNL     1       1.018   1.202   0.821  1.00  0.00     0.352 C 
HETATM    8 CL1  UNL     1       1.390   2.547  -0.297  1.00  0.00    -0.101 Cl
ENDBRANCH   5   7
BRANCH   5   9
HETATM    9  C5  UNL     1       1.663  -0.597  -0.579  1.00  0.00     0.352 C 
HETATM   10 CL2  UNL     1       2.051  -2.151   0.162  1.00  0.00    -0.101 Cl
ENDBRANCH   5   9
TORSDOF 2
