REMARK  2 active torsions:
REMARK  status: ('A' for Active; 'I' for Inactive)
REMARK    1  A    between atoms: C1_4  and  C2_6 
REMARK    2  A    between atoms: N3_8  and  C4_9 
ROOT
HETATM    1  C4  UNL     1       0.016  -0.282  -0.040  1.00  0.00     0.162 C 
HETATM    2  C5  UNL     1      -0.343   0.019  -1.466  1.00  0.00     0.046 C 
HETATM    3  C6  UNL     1      -1.800   0.416  -1.532  1.00  0.00    -0.011 C 
HETATM    4  C7  UNL     1      -2.011   1.612  -0.645  1.00  0.00     0.009 C 
HETATM    5  C8  UNL     1      -1.806   1.218   0.788  1.00  0.00    -0.011 C 
HETATM    6  C9  UNL     1      -2.633   0.038   1.207  1.00  0.00     0.009 C 
HETATM    7  C10 UNL     1      -2.298  -1.130   0.327  1.00  0.00    -0.011 C 
HETATM    8  C11 UNL     1      -2.661  -0.747  -1.108  1.00  0.00     0.009 C 
HETATM    9  C12 UNL     1      -0.847  -1.491   0.353  1.00  0.00     0.046 C 
HETATM   10  C13 UNL     1      -0.331   0.814   0.925  1.00  0.00     0.046 C 
ENDROOT
BRANCH   1  11
HETATM   11  N3  UNL     1       1.367  -0.676   0.165  1.00  0.00     0.114 N 
HETATM   12  C2  UNL     1       2.468   0.210  -0.132  1.00  0.00     0.315 A 
HETATM   13  C3  UNL     1       2.263  -1.030  -0.890  1.00  0.00     0.318 A 
BRANCH  12  14
HETATM   14  C1  UNL     1       3.485   0.319   0.935  1.00  0.00     0.122 C 
HETATM   15  N1  UNL     1       3.124   0.615   2.130  1.00  0.00    -0.389 N 
ATOM     16  H12 UNL     1       3.826   0.690   2.866  1.00  0.00     0.157 HD
ATOM     17  H11 UNL     1       2.146   0.779   2.369  1.00  0.00     0.157 HD
HETATM   18  N2  UNL     1       4.846   0.091   0.603  1.00  0.00    -0.086 NA
ENDBRANCH  12  14
ENDBRANCH   1  11
TORSDOF 2
