REMARK  1 active torsions:
REMARK  status: ('A' for Active; 'I' for Inactive)
REMARK       I    between atoms: N3_4  and  C2_6 
REMARK    1  A    between atoms: C2_6  and  C3_8 
ROOT
HETATM    1  C3  UNL     1       0.178  -0.262  -0.037  1.00  0.00     0.042 C 
HETATM    2  C4  UNL     1      -0.244   1.186   0.224  1.00  0.00     0.024 C 
HETATM    3  C5  UNL     1      -1.746   1.258   0.263  1.00  0.00    -0.013 C 
HETATM    4  C6  UNL     1      -2.301   0.828  -1.061  1.00  0.00     0.009 C 
HETATM    5  C7  UNL     1      -1.959  -0.624  -1.295  1.00  0.00    -0.013 C 
HETATM    6  C8  UNL     1      -2.496  -1.506  -0.174  1.00  0.00     0.009 C 
HETATM    7  C9  UNL     1      -1.876  -1.037   1.100  1.00  0.00    -0.013 C 
HETATM    8  C10 UNL     1      -2.344   0.391   1.344  1.00  0.00     0.009 C 
HETATM    9  C11 UNL     1      -0.387  -1.072   1.116  1.00  0.00     0.024 C 
HETATM   10  C12 UNL     1      -0.462  -0.789  -1.299  1.00  0.00     0.024 C 
ENDROOT
BRANCH   1  11
HETATM   11  C2  UNL     1       1.630  -0.384  -0.138  1.00  0.00     0.232 C 
HETATM   12  N3  UNL     1       2.525  -0.035   0.914  1.00  0.00    -0.303 N 
HETATM   13  C1  UNL     1       3.668   0.465   0.624  1.00  0.00     0.203 C 
ATOM     14  H3  UNL     1       2.258  -0.182   1.888  1.00  0.00     0.171 HD
HETATM   15  N1  UNL     1       4.070   0.682  -0.714  1.00  0.00    -0.066 NA
HETATM   16  N2  UNL     1       4.554   0.810   1.671  1.00  0.00    -0.066 NA
HETATM   17  O1  UNL     1       2.148  -0.818  -1.196  1.00  0.00    -0.272 OA
ENDBRANCH   1  11
TORSDOF 1
