REMARK  7 active torsions:
REMARK  status: ('A' for Active; 'I' for Inactive)
REMARK    1  A    between atoms: C2_2  and  N1_3 
REMARK    2  A    between atoms: N1_3  and  C3_5 
REMARK    3  A    between atoms: C3_5  and  N2_7 
REMARK    4  A    between atoms: N2_7  and  N3_9 
REMARK       I    between atoms: N3_9  and  C4_11 
REMARK    5  A    between atoms: C4_11  and  C5_13 
REMARK    6  A    between atoms: C6_14  and  C7_15 
REMARK    7  A    between atoms: C7_15  and  C8_16 
ROOT
HETATM    1  N3  UNL     1       1.634  -0.385  -1.164  1.00  0.00    -0.257 N 
ATOM      2  H3  UNL     1       1.742   0.611  -0.975  1.00  0.00     0.191 HD
HETATM    3  C4  UNL     1       0.372  -0.979  -0.919  1.00  0.00     0.315 C 
HETATM    4  O1  UNL     1       0.242  -2.204  -1.149  1.00  0.00    -0.256 OA
ENDROOT
BRANCH   1   5
HETATM    5  N2  UNL     1       2.724  -1.078  -1.644  1.00  0.00    -0.273 N 
ATOM      6  H2  UNL     1       2.656  -1.596  -2.520  1.00  0.00     0.189 HD
BRANCH   5   7
HETATM    7  C3  UNL     1       3.938  -1.068  -0.917  1.00  0.00     0.186 C 
HETATM    8  S1  UNL     1       5.235  -1.880  -1.475  1.00  0.00    -0.040 SA
BRANCH   7   9
HETATM    9  N1  UNL     1       4.049  -0.356   0.298  1.00  0.00    -0.366 N 
ATOM     10  H1  UNL     1       3.240   0.155   0.651  1.00  0.00     0.161 HD
BRANCH   9  11
HETATM   11  C2  UNL     1       5.290  -0.333   1.060  1.00  0.00     0.117 C 
HETATM   12  C1  UNL     1       6.323   0.437   0.301  1.00  0.00     0.026 C 
ENDBRANCH   9  11
ENDBRANCH   7   9
ENDBRANCH   5   7
ENDBRANCH   1   5
BRANCH   3  13
HETATM   13  C5  UNL     1      -0.747  -0.231  -0.424  1.00  0.00    -0.004 C 
HETATM   14  C6  UNL     1      -1.704   0.416  -0.025  1.00  0.00    -0.096 C 
BRANCH  14  15
HETATM   15  C7  UNL     1      -2.874   1.181   0.447  1.00  0.00     0.099 C 
BRANCH  15  16
HETATM   16  C8  UNL     1      -4.018   0.791  -0.438  1.00  0.00     0.001 A 
HETATM   17  C9  UNL     1      -5.323   1.475  -0.117  1.00  0.00     0.010 A 
HETATM   18  C10 UNL     1      -5.165  -0.002   0.005  1.00  0.00    -0.013 A 
HETATM   19  C11 UNL     1      -5.311  -0.585   1.376  1.00  0.00     0.010 C 
ENDBRANCH  15  16
ENDBRANCH  14  15
ENDBRANCH   3  13
TORSDOF 7
