REMARK  6 active torsions:
REMARK  status: ('A' for Active; 'I' for Inactive)
REMARK    1  A    between atoms: C5_8  and  C6_9 
REMARK    2  A    between atoms: C11_16  and  N4_17 
REMARK    3  A    between atoms: N4_17  and  C12_19 
REMARK    4  A    between atoms: C12_19  and  C13_20 
REMARK    5  A    between atoms: C17_25  and  N5_26 
REMARK    6  A    between atoms: C20_29  and  O2_30 
ROOT
HETATM    1  N1  UNL     1       3.658  -3.092  -0.570  1.00  0.00    -0.191 NA
HETATM    2  C1  UNL     1       3.111  -2.088  -0.387  1.00  0.00     0.102 C 
HETATM    3  C2  UNL     1       2.453  -0.828  -0.158  1.00  0.00     0.075 A 
HETATM    4  C3  UNL     1       3.187   0.337  -0.103  1.00  0.00     0.057 A 
HETATM    5  C4  UNL     1       2.564   1.546   0.116  1.00  0.00     0.063 A 
HETATM    6  N2  UNL     1       3.237   2.709   0.178  1.00  0.00    -0.356 N 
ATOM      7  H2  UNL     1       4.250   2.711   0.060  1.00  0.00     0.166 HD
HETATM    8  C5  UNL     1       2.593   3.869   0.393  1.00  0.00     0.029 A 
HETATM    9  C9  UNL     1       1.224   3.910   0.558  1.00  0.00     0.114 A 
HETATM   10  N3  UNL     1       0.554   2.746   0.495  1.00  0.00    -0.360 N 
ATOM     11  H3  UNL     1      -0.459   2.747   0.613  1.00  0.00     0.165 HD
HETATM   12  C10 UNL     1       1.197   1.568   0.278  1.00  0.00     0.088 A 
HETATM   13  C11 UNL     1       0.448   0.381   0.222  1.00  0.00     0.086 A 
HETATM   14  C17 UNL     1       1.062  -0.812   0.006  1.00  0.00     0.080 A 
ENDROOT
BRANCH  14  15
HETATM   15  N5  UNL     1       0.342  -2.024  -0.029  1.00  0.00    -0.378 N 
HETATM   16  C18 UNL     1      -0.137  -2.528  -1.272  1.00  0.00     0.125 C 
HETATM   17  C19 UNL     1       0.047  -4.006  -1.465  1.00  0.00     0.051 C 
HETATM   18  C20 UNL     1      -0.080  -4.817  -0.230  1.00  0.00     0.121 C 
HETATM   19  C21 UNL     1      -0.589  -4.065   0.968  1.00  0.00     0.051 C 
HETATM   20  C22 UNL     1       0.087  -2.757   1.194  1.00  0.00     0.125 C 
BRANCH  18  21
HETATM   21  O2  UNL     1       1.123  -5.487   0.088  1.00  0.00    -0.395 OA
ATOM     22  H2  UNL     1       1.042  -6.007   0.879  1.00  0.00     0.210 HD
ENDBRANCH  18  21
ENDBRANCH  14  15
BRANCH  13  23
HETATM   23  N4  UNL     1      -0.952   0.435   0.419  1.00  0.00    -0.384 N 
ATOM     24  H4  UNL     1      -1.303   0.250   1.359  1.00  0.00     0.159 HD
BRANCH  23  25
HETATM   25  C12 UNL     1      -1.921   0.731  -0.606  1.00  0.00     0.151 C 
BRANCH  25  26
HETATM   26  C13 UNL     1      -3.335   0.694  -0.078  1.00  0.00     0.139 C 
HETATM   27  C14 UNL     1      -4.352   0.814  -1.192  1.00  0.00     0.035 C 
HETATM   28  C15 UNL     1      -5.604   0.283  -0.488  1.00  0.00     0.029 C 
HETATM   29  C16 UNL     1      -5.014  -0.540   0.611  1.00  0.00     0.168 C 
HETATM   30  O1  UNL     1      -3.649  -0.568   0.438  1.00  0.00    -0.384 OA
ENDBRANCH  25  26
ENDBRANCH  23  25
ENDBRANCH  13  23
BRANCH   8  31
HETATM   31  C6  UNL     1       3.407   5.110   0.448  1.00  0.00     0.037 A 
HETATM   32  C7  UNL     1       4.681   5.204  -0.278  1.00  0.00     0.011 A 
HETATM   33  C8  UNL     1       4.779   4.998   1.174  1.00  0.00     0.011 A 
ENDBRANCH   8  31
TORSDOF 6
