REMARK  5 active torsions:
REMARK  status: ('A' for Active; 'I' for Inactive)
REMARK    1  A    between atoms: C2_2  and  C3_3 
REMARK    2  A    between atoms: C3_3  and  C4_4 
REMARK    3  A    between atoms: N2_8  and  C6_10 
REMARK    4  A    between atoms: C6_10  and  C7_11 
REMARK    5  A    between atoms: C7_11  and  N3_12 
ROOT
HETATM    1  C4  UNL     1      -2.243  -1.362  -0.025  1.00  0.00     0.054 A 
HETATM    2  N1  UNL     1      -1.163  -0.617   0.218  1.00  0.00    -0.340 N 
ATOM      3  H1  UNL     1      -0.274  -1.117   0.211  1.00  0.00     0.167 HD
HETATM    4  C5  UNL     1      -1.086   0.676   0.466  1.00  0.00     0.116 A 
HETATM    5  N2  UNL     1       0.069   1.213   0.678  1.00  0.00    -0.374 N 
ATOM      6  H2  UNL     1       0.153   2.211   0.873  1.00  0.00     0.161 HD
HETATM    7  C13 UNL     1      -2.173   1.526   0.520  1.00  0.00     0.061 A 
HETATM    8  C14 UNL     1      -3.474   1.180   0.330  1.00  0.00     0.091 A 
HETATM    9  N4  UNL     1      -4.255   2.268   0.458  1.00  0.00    -0.347 N 
ATOM     10  H4  UNL     1      -5.270   2.272   0.362  1.00  0.00     0.167 HD
HETATM   11  C15 UNL     1      -3.489   3.372   0.737  1.00  0.00     0.074 A 
HETATM   12  C16 UNL     1      -3.673   4.697   0.966  1.00  0.00     0.103 A 
HETATM   13  C17 UNL     1      -4.986   5.375   0.967  1.00  0.00     0.104 C 
HETATM   14  N5  UNL     1      -6.041   5.898   0.962  1.00  0.00    -0.191 NA
HETATM   15  C18 UNL     1      -2.553   5.444   1.213  1.00  0.00     0.111 A 
HETATM   16  N6  UNL     1      -2.471   6.864   1.486  1.00  0.00    -0.093 NA
HETATM   17  S1  UNL     1      -1.294   4.295   1.120  1.00  0.00    -0.070 SA
HETATM   18  C19 UNL     1      -2.211   2.903   0.773  1.00  0.00     0.051 A 
HETATM   19  S2  UNL     1      -3.707  -0.490  -0.003  1.00  0.00    -0.058 SA
ENDROOT
BRANCH   1  20
HETATM   20  C3  UNL     1      -2.103  -2.819  -0.282  1.00  0.00     0.065 C 
BRANCH  20  21
HETATM   21  C2  UNL     1      -1.917  -3.067  -1.772  1.00  0.00     0.002 C 
HETATM   22  C1  UNL     1      -1.771  -4.519  -2.089  1.00  0.00     0.005 C 
ENDBRANCH  20  21
ENDBRANCH   1  20
BRANCH   5  23
HETATM   23  C6  UNL     1       1.236   0.369   0.633  1.00  0.00     0.140 C 
BRANCH  23  24
HETATM   24  C7  UNL     1       1.920   0.427  -0.725  1.00  0.00     0.136 C 
BRANCH  24  25
HETATM   25  N3  UNL     1       3.056  -0.430  -0.687  1.00  0.00    -0.411 N 
HETATM   26  C8  UNL     1       4.133  -0.038   0.144  1.00  0.00     0.117 C 
HETATM   27  C9  UNL     1       4.460  -1.174   1.091  1.00  0.00     0.019 C 
HETATM   28  C10 UNL     1       5.009  -2.296   0.236  1.00  0.00     0.003 C 
HETATM   29  C11 UNL     1       3.996  -2.692  -0.813  1.00  0.00     0.019 C 
HETATM   30  C12 UNL     1       2.764  -1.818  -0.766  1.00  0.00     0.117 C 
ENDBRANCH  24  25
ENDBRANCH  23  24
ENDBRANCH   5  23
TORSDOF 5
