REMARK  7 active torsions:
REMARK  status: ('A' for Active; 'I' for Inactive)
REMARK    1  A    between atoms: N1_2  and  C1_4 
REMARK    2  A    between atoms: C6_9  and  C7_10 
REMARK    3  A    between atoms: C9_12  and  O3_13 
REMARK    4  A    between atoms: N2_15  and  C10_16 
REMARK    5  A    between atoms: C16_22  and  N3_23 
REMARK    6  A    between atoms: C17_25  and  C18_26 
REMARK    7  A    between atoms: C18_26  and  N4_27 
ROOT
HETATM    1  C7  UNL     1      -1.917   2.075   0.287  1.00  0.00     0.025 A 
HETATM    2  C8  UNL     1      -3.066   1.704   1.002  1.00  0.00     0.072 A 
HETATM    3  C9  UNL     1      -3.277   0.348   0.901  1.00  0.00     0.144 A 
HETATM    4  N2  UNL     1      -2.262  -0.137   0.124  1.00  0.00    -0.308 N 
HETATM    5  C16 UNL     1      -1.458   0.876  -0.239  1.00  0.00     0.120 A 
ENDROOT
BRANCH   5   6
HETATM    6  N3  UNL     1      -0.272   0.768  -1.047  1.00  0.00    -0.353 N 
HETATM    7  C17 UNL     1       0.693  -0.032  -0.691  1.00  0.00     0.092 C 
ATOM      8  H3  UNL     1      -0.187   1.319  -1.901  1.00  0.00     0.166 HD
BRANCH   7   9
HETATM    9  C18 UNL     1       1.884  -0.101  -1.559  1.00  0.00     0.317 C 
BRANCH   9  10
HETATM   10  N4  UNL     1       2.954  -0.853  -0.913  1.00  0.00     0.093 N 
HETATM   11  C19 UNL     1       4.111  -0.912  -1.790  1.00  0.00     0.273 C 
HETATM   12  C20 UNL     1       5.200  -1.697  -1.130  1.00  0.00     0.030 C 
HETATM   13  C21 UNL     1       5.616  -1.028   0.164  1.00  0.00     0.003 C 
HETATM   14  C22 UNL     1       4.412  -0.911   1.052  1.00  0.00     0.030 C 
HETATM   15  C23 UNL     1       3.327  -0.177   0.289  1.00  0.00     0.273 C 
ENDBRANCH   9  10
ENDBRANCH   7   9
ENDBRANCH   5   6
BRANCH   1  16
HETATM   16  C6  UNL     1      -1.405   3.428   0.155  1.00  0.00     0.011 A 
HETATM   17  C1  UNL     1      -0.262   3.819   0.780  1.00  0.00     0.114 A 
HETATM   18  C2  UNL     1       0.181   5.139   0.610  1.00  0.00     0.037 A 
HETATM   19  C3  UNL     1      -0.502   6.047  -0.167  1.00  0.00     0.002 A 
HETATM   20  C4  UNL     1      -1.654   5.654  -0.798  1.00  0.00     0.001 A 
HETATM   21  C5  UNL     1      -2.094   4.362  -0.635  1.00  0.00     0.015 A 
BRANCH  17  22
HETATM   22  N1  UNL     1       0.476   2.939   1.591  1.00  0.00    -0.115 N 
HETATM   23  O1  UNL     1       0.038   2.012   2.272  1.00  0.00    -0.532 OA
HETATM   24  O2  UNL     1       1.856   3.138   1.625  1.00  0.00    -0.532 OA
ENDBRANCH  17  22
ENDBRANCH   1  16
BRANCH   4  25
HETATM   25  C10 UNL     1      -2.157  -1.532  -0.223  1.00  0.00     0.093 C 
HETATM   26  C11 UNL     1      -3.385  -2.014  -0.974  1.00  0.00     0.026 C 
HETATM   27  C12 UNL     1      -3.995  -3.257  -0.391  1.00  0.00     0.002 C 
HETATM   28  C13 UNL     1      -2.985  -4.351  -0.268  1.00  0.00     0.000 C 
HETATM   29  C14 UNL     1      -1.737  -3.842   0.374  1.00  0.00     0.002 C 
HETATM   30  C15 UNL     1      -1.914  -2.434   0.959  1.00  0.00     0.026 C 
ENDBRANCH   4  25
BRANCH   3  31
HETATM   31  O3  UNL     1      -4.325  -0.364   1.486  1.00  0.00    -0.346 OA
ATOM     32  H3  UNL     1      -4.471  -1.300   1.416  1.00  0.00     0.219 HD
ENDBRANCH   3  31
TORSDOF 7
