REMARK  15 active torsions:
REMARK  status: ('A' for Active; 'I' for Inactive)
REMARK       I    between atoms: C2_2  and  N1_4 
REMARK    1  A    between atoms: N1_4  and  C3_6 
REMARK    2  A    between atoms: C4_8  and  O3_9 
REMARK    3  A    between atoms: C4_8  and  C11_23 
REMARK    4  A    between atoms: O3_9  and  C5_10 
REMARK    5  A    between atoms: C5_10  and  C7_12 
REMARK    6  A    between atoms: C9_14  and  N2_15 
REMARK    7  A    between atoms: C10_19  and  O4_20 
REMARK    8  A    between atoms: C11_23  and  O6_25 
REMARK    9  A    between atoms: C13_28  and  O8_29 
REMARK   10  A    between atoms: C13_28  and  O9_31 
REMARK   11  A    between atoms: O9_31  and  C14_32 
REMARK   12  A    between atoms: C14_32  and  C15_34 
REMARK   13  A    between atoms: C15_34  and  O11_35 
REMARK   14  A    between atoms: C15_34  and  O12_37 
REMARK   15  A    between atoms: C16_39  and  N3_40 
ROOT
HETATM    1  C3  UNL     1      -1.612  -1.231  -0.500  1.00  0.00     0.268 C 
HETATM    2  O2  UNL     1      -0.830  -1.919   0.370  1.00  0.00    -0.303 OA
HETATM    3  C4  UNL     1      -0.080  -1.195   1.257  1.00  0.00     0.316 C 
HETATM    4  O7  UNL     1      -0.285   0.126   1.303  1.00  0.00    -0.266 OA
HETATM    5  C13 UNL     1      -1.482   0.690   0.994  1.00  0.00     0.325 C 
HETATM    6  C16 UNL     1      -2.330  -0.036   0.024  1.00  0.00     0.324 C 
ENDROOT
BRANCH   3   7
HETATM    7  O3  UNL     1       1.291  -1.395   1.081  1.00  0.00    -0.323 OA
BRANCH   7   8
HETATM    8  C5  UNL     1       1.840  -1.074  -0.104  1.00  0.00     0.152 C 
HETATM    9  C6  UNL     1       2.557  -2.281  -0.736  1.00  0.00     0.042 C 
BRANCH   8  10
HETATM   10  C7  UNL     1       2.940  -0.043   0.189  1.00  0.00     0.155 C 
HETATM   11  C8  UNL     1       3.500   0.540  -1.085  1.00  0.00     0.072 C 
HETATM   12  C9  UNL     1       4.150   1.798  -0.544  1.00  0.00     0.240 C 
HETATM   13  C10 UNL     1       3.312   2.104   0.655  1.00  0.00     0.287 C 
HETATM   14  O5  UNL     1       2.388   1.079   0.794  1.00  0.00    -0.351 OA
BRANCH  12  15
HETATM   15  N2  UNL     1       4.188   2.863  -1.515  1.00  0.00    -0.070 N 
ATOM     16  H23 UNL     1       4.641   2.558  -2.376  1.00  0.00     0.274 HD
ATOM     17  H22 UNL     1       3.256   3.060  -1.880  1.00  0.00     0.274 HD
ATOM     18  H21 UNL     1       4.625   3.710  -1.151  1.00  0.00     0.274 HD
ENDBRANCH  12  15
BRANCH  13  19
HETATM   19  O4  UNL     1       2.643   3.304   0.599  1.00  0.00    -0.369 OA
ATOM     20  H4  UNL     1       2.110   3.499   1.361  1.00  0.00     0.212 HD
ENDBRANCH  13  19
ENDBRANCH   8  10
ENDBRANCH   7   8
ENDBRANCH   3   7
BRANCH   3  21
HETATM   21  C11 UNL     1      -0.319  -1.788   2.658  1.00  0.00     0.207 C 
HETATM   22  C12 UNL     1       0.167  -3.218   2.721  1.00  0.00     0.048 C 
BRANCH  21  23
HETATM   23  O6  UNL     1      -1.618  -1.751   3.068  1.00  0.00    -0.388 OA
ATOM     24  H6  UNL     1      -1.765  -2.117   3.932  1.00  0.00     0.210 HD
ENDBRANCH  21  23
ENDBRANCH   3  21
BRANCH   1  25
HETATM   25  N1  UNL     1      -2.635  -2.130  -1.053  1.00  0.00    -0.333 N 
HETATM   26  C2  UNL     1      -2.783  -2.390  -2.434  1.00  0.00     0.215 C 
HETATM   27  C1  UNL     1      -3.813  -3.295  -2.985  1.00  0.00     0.117 C 
HETATM   28  O1  UNL     1      -2.000  -1.823  -3.232  1.00  0.00    -0.274 OA
ATOM     29  H1  UNL     1      -3.273  -2.591  -0.404  1.00  0.00     0.165 HD
ENDBRANCH   1  25
BRANCH   5  30
HETATM   30  O8  UNL     1      -2.209   0.913   2.174  1.00  0.00    -0.341 OA
ATOM     31  H8  UNL     1      -3.046   1.307   1.958  1.00  0.00     0.215 HD
ENDBRANCH   5  30
BRANCH   5  32
HETATM   32  O9  UNL     1      -1.188   1.978   0.493  1.00  0.00    -0.252 OA
BRANCH  32  33
HETATM   33  C14 UNL     1      -2.142   2.882   0.109  1.00  0.00     0.318 C 
HETATM   34  O10 UNL     1      -3.360   2.582   0.203  1.00  0.00    -0.259 OA
BRANCH  33  35
HETATM   35  C15 UNL     1      -1.764   4.239  -0.428  1.00  0.00     0.356 C 
BRANCH  35  36
HETATM   36  O11 UNL     1      -0.399   4.387  -0.459  1.00  0.00    -0.363 OA
ATOM     37  H11 UNL     1      -0.161   5.242  -0.797  1.00  0.00     0.213 HD
ENDBRANCH  35  36
BRANCH  35  38
HETATM   38  O12 UNL     1      -2.424   5.253   0.259  1.00  0.00    -0.363 OA
ATOM     39  H12 UNL     1      -2.186   6.108  -0.079  1.00  0.00     0.213 HD
ENDBRANCH  35  38
ENDBRANCH  33  35
ENDBRANCH  32  33
ENDBRANCH   5  32
BRANCH   6  40
HETATM   40  N3  UNL     1      -3.669  -0.366   0.524  1.00  0.00    -0.063 N 
ATOM     41  H33 UNL     1      -4.221  -0.844  -0.188  1.00  0.00     0.275 HD
ATOM     42  H32 UNL     1      -3.629  -1.107   1.223  1.00  0.00     0.275 HD
ATOM     43  H31 UNL     1      -4.161   0.452   0.883  1.00  0.00     0.275 HD
ENDBRANCH   6  40
TORSDOF 15
