REMARK  7 active torsions:
REMARK  status: ('A' for Active; 'I' for Inactive)
REMARK    1  A    between atoms: C5_5  and  N1_6 
REMARK       I    between atoms: N1_6  and  C6_7 
REMARK    2  A    between atoms: N1_6  and  C15_24 
REMARK    3  A    between atoms: C6_7  and  C7_9 
REMARK    4  A    between atoms: C7_9  and  N2_10 
REMARK    5  A    between atoms: C8_15  and  C9_16 
REMARK    6  A    between atoms: C15_24  and  C16_30 
REMARK    7  A    between atoms: N6_25  and  N7_27 
ROOT
HETATM    1  N1  UNL     1      -1.676  -0.255  -0.357  1.00  0.00    -0.265 N 
HETATM    2  C6  UNL     1      -0.326  -0.270  -0.666  1.00  0.00     0.251 C 
HETATM    3  O1  UNL     1       0.296  -1.400  -0.543  1.00  0.00    -0.271 OA
ENDROOT
BRANCH   1   4
HETATM    4  C5  UNL     1      -2.260  -1.572  -0.058  1.00  0.00     0.044 A 
HETATM    5  C4  UNL     1      -2.852  -1.818   1.148  1.00  0.00     0.030 A 
HETATM    6  C3  UNL     1      -3.399  -3.079   1.402  1.00  0.00     0.009 A 
HETATM    7  C2  UNL     1      -3.338  -4.068   0.430  1.00  0.00    -0.062 A 
HETATM    8  C1  UNL     1      -3.900  -5.403   0.660  1.00  0.00     0.048 C 
HETATM    9  C23 UNL     1      -2.739  -3.807  -0.783  1.00  0.00     0.009 A 
HETATM   10  C22 UNL     1      -2.195  -2.539  -1.023  1.00  0.00     0.030 A 
ENDBRANCH   1   4
BRANCH   1  11
HETATM   11  C15 UNL     1      -2.544   0.825  -0.254  1.00  0.00     0.139 C 
HETATM   12  N6  UNL     1      -3.832   0.556   0.053  1.00  0.00    -0.291 N 
ATOM     13  H6  UNL     1      -4.155  -0.400   0.203  1.00  0.00     0.188 HD
BRANCH  12  14
HETATM   14  N7  UNL     1      -4.689   1.628   0.155  1.00  0.00    -0.344 N 
ATOM     15  H72 UNL     1      -4.351   2.578   0.002  1.00  0.00     0.176 HD
ATOM     16  H71 UNL     1      -5.661   1.425   0.387  1.00  0.00     0.176 HD
ENDBRANCH  12  14
BRANCH  11  17
HETATM   17  C16 UNL     1      -2.182   2.210  -0.402  1.00  0.00     0.010 A 
HETATM   18  C17 UNL     1      -1.986   2.947   0.783  1.00  0.00     0.015 A 
HETATM   19  C18 UNL     1      -1.689   4.285   0.745  1.00  0.00     0.001 A 
HETATM   20  C19 UNL     1      -1.568   4.972  -0.439  1.00  0.00     0.000 A 
HETATM   21  C20 UNL     1      -1.759   4.261  -1.616  1.00  0.00     0.001 A 
HETATM   22  C21 UNL     1      -2.059   2.908  -1.567  1.00  0.00     0.015 A 
ENDBRANCH  11  17
ENDBRANCH   1  11
BRANCH   2  23
HETATM   23  C7  UNL     1       0.524   0.830  -1.124  1.00  0.00     0.274 C 
BRANCH  23  24
HETATM   24  N2  UNL     1       1.916   0.342  -1.196  1.00  0.00    -0.209 N 
HETATM   25  N3  UNL     1       2.522  -0.228  -2.202  1.00  0.00    -0.224 N 
HETATM   26  N4  UNL     1       3.790  -0.464  -1.803  1.00  0.00    -0.268 N 
ATOM     27  H3  UNL     1       2.117  -0.451  -3.111  1.00  0.00     0.210 HD
HETATM   28  C8  UNL     1       3.961  -0.039  -0.553  1.00  0.00     0.147 A 
ATOM     29  H4  UNL     1       4.511  -0.903  -2.375  1.00  0.00     0.190 HD
HETATM   30  N5  UNL     1       2.755   0.470  -0.189  1.00  0.00    -0.265 N 
ATOM     31  H5  UNL     1       2.535   0.884   0.717  1.00  0.00     0.190 HD
BRANCH  28  32
HETATM   32  C9  UNL     1       5.127  -0.044   0.309  1.00  0.00     0.011 A 
HETATM   33  C10 UNL     1       5.074   0.445   1.606  1.00  0.00     0.015 A 
HETATM   34  C11 UNL     1       6.145   0.484   2.465  1.00  0.00     0.001 A 
HETATM   35  C12 UNL     1       7.345  -0.001   1.984  1.00  0.00     0.000 A 
HETATM   36  C13 UNL     1       7.461  -0.498   0.710  1.00  0.00     0.001 A 
HETATM   37  C14 UNL     1       6.344  -0.519  -0.132  1.00  0.00     0.015 A 
ENDBRANCH  28  32
ENDBRANCH  23  24
ENDBRANCH   2  23
TORSDOF 7
