REMARK  7 active torsions:
REMARK  status: ('A' for Active; 'I' for Inactive)
REMARK    1  A    between atoms: O1_2  and  C2_3 
REMARK    2  A    between atoms: C2_3  and  N1_4 
REMARK    3  A    between atoms: N1_4  and  C3_6 
REMARK    4  A    between atoms: C3_6  and  C4_7 
REMARK    5  A    between atoms: C4_7  and  N2_8 
REMARK    6  A    between atoms: N2_8  and  C5_10 
REMARK    7  A    between atoms: C8_15  and  N4_16 
ROOT
HETATM    1  C5  UNL     1      -1.873   0.429   0.340  1.00  0.00     0.122 A 
HETATM    2  C6  UNL     1      -2.517   1.620   0.725  1.00  0.00     0.066 A 
HETATM    3  C7  UNL     1      -3.865   1.688   0.627  1.00  0.00     0.110 A 
HETATM    4  N3  UNL     1      -4.606   0.659   0.176  1.00  0.00    -0.202 N 
ATOM      5  H3  UNL     1      -5.620   0.748   0.116  1.00  0.00     0.183 HD
HETATM    6  C8  UNL     1      -4.004  -0.493  -0.197  1.00  0.00     0.677 A 
HETATM    7  N5  UNL     1      -2.657  -0.558  -0.099  1.00  0.00    -0.177 N 
ATOM      8  H5  UNL     1      -2.206  -1.428  -0.382  1.00  0.00     0.185 HD
ENDROOT
BRANCH   1   9
HETATM    9  N2  UNL     1      -0.657   0.345   0.435  1.00  0.00    -0.351 N 
ATOM     10  H2  UNL     1      -0.241   1.198   0.809  1.00  0.00     0.166 HD
BRANCH   9  11
HETATM   11  C4  UNL     1       0.309  -0.638   0.156  1.00  0.00     0.106 C 
BRANCH  11  12
HETATM   12  C3  UNL     1       1.413   0.113  -0.566  1.00  0.00     0.102 C 
BRANCH  12  13
HETATM   13  N1  UNL     1       2.560  -0.623  -0.912  1.00  0.00    -0.377 N 
ATOM     14  H1  UNL     1       2.842  -0.864  -1.862  1.00  0.00     0.161 HD
BRANCH  13  15
HETATM   15  C2  UNL     1       3.281  -0.986   0.296  1.00  0.00     0.289 C 
BRANCH  15  16
HETATM   16  O1  UNL     1       3.947   0.140   0.718  1.00  0.00    -0.377 OA
HETATM   17  C1  UNL     1       4.697   0.701  -0.263  1.00  0.00     0.203 C 
ENDBRANCH  15  16
ENDBRANCH  13  15
ENDBRANCH  12  13
ENDBRANCH  11  12
ENDBRANCH   9  11
ENDBRANCH   1   9
BRANCH   6  18
HETATM   18  N4  UNL     1      -4.704  -1.501  -0.602  1.00  0.00    -0.234 N 
ATOM     19  H42 UNL     1      -5.720  -1.452  -0.676  1.00  0.00     0.174 HD
ATOM     20  H41 UNL     1      -4.250  -2.370  -0.883  1.00  0.00     0.174 HD
ENDBRANCH   6  18
TORSDOF 7
