REMARK  8 active torsions:
REMARK  status: ('A' for Active; 'I' for Inactive)
REMARK    1  A    between atoms: C7_7  and  C8_8 
REMARK    2  A    between atoms: C7_7  and  C30_37 
REMARK       I    between atoms: C8_8  and  N1_10 
REMARK    3  A    between atoms: C11_13  and  N2_15 
REMARK    4  A    between atoms: C15_18  and  C16_19 
REMARK    5  A    between atoms: C16_19  and  N3_20 
REMARK    6  A    between atoms: N3_20  and  C17_22 
REMARK    7  A    between atoms: C17_22  and  C18_23 
REMARK    8  A    between atoms: C17_22  and  C24_31 
ROOT
HETATM    1  C8  UNL     1      -4.533   0.079   0.640  1.00  0.00     0.233 C 
HETATM    2  O1  UNL     1      -4.994   0.308   1.828  1.00  0.00    -0.272 OA
HETATM    3  N1  UNL     1      -3.158   0.400   0.493  1.00  0.00    -0.351 N 
HETATM    4  C9  UNL     1      -2.400   0.243  -0.696  1.00  0.00     0.128 C 
HETATM    5  C10 UNL     1      -1.001  -0.289  -0.433  1.00  0.00     0.050 C 
HETATM    6  C11 UNL     1      -0.266   0.622   0.531  1.00  0.00     0.031 C 
HETATM    7  C12 UNL     1      -0.220   2.043  -0.037  1.00  0.00     0.039 C 
HETATM    8  C28 UNL     1      -1.071   0.695   1.834  1.00  0.00     0.050 C 
HETATM    9  C29 UNL     1      -2.497   0.973   1.660  1.00  0.00     0.128 C 
ENDROOT
BRANCH   6  10
HETATM   10  N2  UNL     1       0.997   0.151   0.813  1.00  0.00    -0.384 N 
HETATM   11  C13 UNL     1       1.803   0.804   1.763  1.00  0.00     0.060 C 
HETATM   12  C14 UNL     1       3.091  -0.002   1.776  1.00  0.00     0.056 C 
HETATM   13  C15 UNL     1       3.106  -0.649   0.404  1.00  0.00     0.046 C 
HETATM   14  C27 UNL     1       1.616  -0.875   0.121  1.00  0.00     0.133 C 
BRANCH  13  15
HETATM   15  C16 UNL     1       3.659   0.247  -0.646  1.00  0.00     0.062 C 
BRANCH  15  16
HETATM   16  N3  UNL     1       4.955   0.717  -0.500  1.00  0.00    -0.393 N 
ATOM     17  H3  UNL     1       5.072   1.706  -0.281  1.00  0.00     0.159 HD
BRANCH  16  18
HETATM   18  C17 UNL     1       6.111  -0.049  -0.628  1.00  0.00     0.118 C 
BRANCH  18  19
HETATM   19  C18 UNL     1       7.280   0.890  -0.444  1.00  0.00    -0.029 A 
HETATM   20  C19 UNL     1       7.316   1.774   0.606  1.00  0.00     0.051 A 
HETATM   21  C20 UNL     1       8.407   2.644   0.754  1.00  0.00     0.119 A 
HETATM   22  F1  UNL     1       8.445   3.515   1.785  1.00  0.00    -0.206 F 
HETATM   23  C21 UNL     1       9.449   2.620  -0.147  1.00  0.00     0.084 A 
HETATM   24  C22 UNL     1       9.405   1.727  -1.202  1.00  0.00     0.119 A 
HETATM   25  F2  UNL     1      10.423   1.692  -2.094  1.00  0.00    -0.206 F 
HETATM   26  C23 UNL     1       8.304   0.864  -1.334  1.00  0.00     0.051 A 
ENDBRANCH  18  19
BRANCH  18  27
HETATM   27  C24 UNL     1       6.327  -1.183   0.328  1.00  0.00     0.013 A 
HETATM   28  C25 UNL     1       7.630  -1.942   0.131  1.00  0.00     0.007 A 
HETATM   29  C26 UNL     1       6.350  -2.614  -0.173  1.00  0.00     0.007 A 
ENDBRANCH  18  27
ENDBRANCH  16  18
ENDBRANCH  15  16
ENDBRANCH  13  15
ENDBRANCH   6  10
BRANCH   1  30
HETATM   30  C7  UNL     1      -5.473  -0.461  -0.353  1.00  0.00     0.072 C 
HETATM   31  C2  UNL     1      -5.214  -1.893  -0.608  1.00  0.00     0.004 C 
HETATM   32  C1  UNL     1      -6.380  -2.622  -1.261  1.00  0.00     0.011 C 
HETATM   33  C3  UNL     1      -5.067  -2.558   0.763  1.00  0.00     0.006 C 
HETATM   34  C4  UNL     1      -6.323  -2.426   1.552  1.00  0.00     0.000 C 
HETATM   35  C5  UNL     1      -7.326  -1.445   1.077  1.00  0.00     0.002 C 
HETATM   36  C6  UNL     1      -6.879  -0.292   0.277  1.00  0.00     0.025 C 
BRANCH  30  37
HETATM   37  C30 UNL     1      -5.476   0.422  -1.536  1.00  0.00    -0.025 A 
HETATM   38  C31 UNL     1      -5.511   1.807  -1.332  1.00  0.00     0.011 A 
HETATM   39  C32 UNL     1      -5.533   2.686  -2.381  1.00  0.00     0.018 A 
HETATM   40  C33 UNL     1      -5.522   2.243  -3.686  1.00  0.00     0.087 A 
HETATM   41  N4  UNL     1      -5.488   0.914  -3.865  1.00  0.00    -0.375 N 
HETATM   42  C34 UNL     1      -5.465   0.025  -2.846  1.00  0.00     0.096 A 
ATOM     43  H4  UNL     1      -5.479   0.555  -4.820  1.00  0.00     0.164 HD
ENDBRANCH  30  37
ENDBRANCH   1  30
TORSDOF 8
