REMARK  11 active torsions:
REMARK  status: ('A' for Active; 'I' for Inactive)
REMARK    1  A    between atoms: C10_13  and  C11_14 
REMARK    2  A    between atoms: C11_14  and  C12_15 
REMARK    3  A    between atoms: C12_15  and  C13_16 
REMARK    4  A    between atoms: C13_16  and  N2_17 
REMARK    5  A    between atoms: C15_24  and  C16_25 
REMARK    6  A    between atoms: C16_25  and  S1_26 
REMARK    7  A    between atoms: S1_26  and  C17_27 
REMARK    8  A    between atoms: C17_27  and  C18_28 
REMARK    9  A    between atoms: C18_28  and  C19_29 
REMARK   10  A    between atoms: C19_29  and  N6_30 
REMARK   11  A    between atoms: C21_35  and  C22_36 
ROOT
HETATM    1  C1  UNL     1      -3.517  -6.624  -1.421  1.00  0.00     0.051 C 
HETATM    2  C2  UNL     1      -2.517  -5.560  -1.154  1.00  0.00    -0.021 A 
HETATM    3  C3  UNL     1      -1.174  -5.814  -1.028  1.00  0.00     0.010 A 
HETATM    4  C4  UNL     1      -0.268  -4.772  -0.773  1.00  0.00     0.011 A 
HETATM    5  C5  UNL     1      -0.706  -3.484  -0.646  1.00  0.00    -0.021 A 
HETATM    6  C6  UNL     1      -2.060  -3.238  -0.779  1.00  0.00     0.083 A 
HETATM    7  C7  UNL     1      -2.954  -4.251  -1.025  1.00  0.00     0.149 A 
HETATM    8  F1  UNL     1      -4.260  -3.931  -1.083  1.00  0.00    -0.203 F 
HETATM    9  N1  UNL     1      -2.864  -2.054  -0.770  1.00  0.00    -0.317 N 
HETATM   10  C8  UNL     1      -4.005  -2.146  -1.585  1.00  0.00     0.159 C 
HETATM   11  C9  UNL     1      -2.635  -0.801  -0.052  1.00  0.00     0.246 C 
HETATM   12  O1  UNL     1      -3.800  -0.436   0.340  1.00  0.00    -0.271 OA
HETATM   13  C10 UNL     1      -1.565   0.105   0.333  1.00  0.00     0.170 C 
HETATM   14  N5  UNL     1      -0.364  -0.608   0.623  1.00  0.00    -0.404 N 
ATOM     15  H5  UNL     1       0.017  -0.673   1.567  1.00  0.00     0.154 HD
HETATM   16  C15 UNL     1       0.261  -1.218  -0.489  1.00  0.00     0.095 C 
HETATM   17  C21 UNL     1       0.509  -2.694  -0.323  1.00  0.00     0.047 C 
ENDROOT
BRANCH  16  18
HETATM   18  C16 UNL     1       1.443  -0.512  -1.045  1.00  0.00     0.099 C 
BRANCH  18  19
HETATM   19  S1  UNL     1       1.097   1.167  -1.654  1.00  0.00    -0.167 SA
BRANCH  19  20
HETATM   20  C17 UNL     1       2.660   1.841  -2.280  1.00  0.00     0.075 C 
BRANCH  20  21
HETATM   21  C18 UNL     1       3.609   2.017  -1.117  1.00  0.00     0.030 C 
BRANCH  21  22
HETATM   22  C19 UNL     1       4.923   2.580  -1.612  1.00  0.00     0.122 C 
BRANCH  22  23
HETATM   23  N6  UNL     1       5.786   2.727  -0.464  1.00  0.00    -0.367 N 
HETATM   24  C20 UNL     1       6.780   3.540  -0.425  1.00  0.00     0.196 C 
HETATM   25  N7  UNL     1       7.121   4.377  -1.522  1.00  0.00    -0.067 NA
HETATM   26  N8  UNL     1       7.576   3.623   0.738  1.00  0.00    -0.067 NA
ATOM     27  H6  UNL     1       5.597   2.155   0.359  1.00  0.00     0.161 HD
ENDBRANCH  22  23
ENDBRANCH  21  22
ENDBRANCH  20  21
ENDBRANCH  19  20
ENDBRANCH  18  19
ENDBRANCH  16  18
BRANCH  17  28
HETATM   28  C22 UNL     1       1.008  -3.104   1.025  1.00  0.00    -0.012 C 
HETATM   29  C23 UNL     1       2.253  -2.377   1.476  1.00  0.00     0.010 C 
HETATM   30  C24 UNL     1       0.001  -2.979   2.135  1.00  0.00     0.010 C 
ENDBRANCH  17  28
BRANCH  13  31
HETATM   31  C11 UNL     1      -1.897   1.167   1.312  1.00  0.00     0.036 C 
BRANCH  31  32
HETATM   32  C12 UNL     1      -2.917   2.160   0.859  1.00  0.00     0.022 C 
BRANCH  32  33
HETATM   33  C13 UNL     1      -3.144   3.224   1.964  1.00  0.00     0.122 C 
BRANCH  33  34
HETATM   34  N2  UNL     1      -4.130   4.178   1.512  1.00  0.00    -0.367 N 
HETATM   35  C14 UNL     1      -3.841   5.416   1.309  1.00  0.00     0.196 C 
HETATM   36  N3  UNL     1      -4.864   6.293   0.865  1.00  0.00    -0.067 NA
HETATM   37  N4  UNL     1      -2.542   5.952   1.507  1.00  0.00    -0.067 NA
ATOM     38  H2  UNL     1      -5.086   3.861   1.348  1.00  0.00     0.161 HD
ENDBRANCH  33  34
ENDBRANCH  32  33
ENDBRANCH  31  32
ENDBRANCH  13  31
TORSDOF 11
