REMARK  12 active torsions:
REMARK  status: ('A' for Active; 'I' for Inactive)
REMARK    1  A    between atoms: C2_2  and  C3_3 
REMARK    2  A    between atoms: C3_3  and  C4_4 
REMARK    3  A    between atoms: C4_4  and  C5_5 
REMARK    4  A    between atoms: C4_4  and  C7_7 
REMARK    5  A    between atoms: C11_14  and  C12_15 
REMARK    6  A    between atoms: C12_15  and  C14_17 
REMARK    7  A    between atoms: C14_17  and  C15_18 
REMARK    8  A    between atoms: C16_19  and  C17_20 
REMARK    9  A    between atoms: C19_26  and  C20_27 
REMARK   10  A    between atoms: C20_27  and  C21_28 
REMARK   11  A    between atoms: C21_28  and  C22_29 
REMARK   12  A    between atoms: C22_29  and  N3_30 
ROOT
HETATM    1  C7  UNL     1      -1.551  -1.496  -0.308  1.00  0.00     0.082 C 
HETATM    2  C8  UNL     1      -0.927  -2.548  -1.137  1.00  0.00     0.024 C 
HETATM    3  C9  UNL     1       0.577  -2.662  -0.967  1.00  0.00     0.103 C 
HETATM    4  C10 UNL     1       1.289  -2.396  -2.242  1.00  0.00     0.219 C 
HETATM    5  O1  UNL     1       1.369  -3.352  -3.055  1.00  0.00    -0.274 OA
HETATM    6  N1  UNL     1       1.875  -1.157  -2.598  1.00  0.00    -0.340 N 
ATOM      7  H1  UNL     1       1.828  -0.858  -3.572  1.00  0.00     0.164 HD
HETATM    8  C11 UNL     1       2.551  -0.278  -1.621  1.00  0.00     0.191 C 
HETATM    9  N2  UNL     1       2.110   1.091  -1.732  1.00  0.00    -0.338 N 
ATOM     10  H2  UNL     1       2.844   1.794  -1.823  1.00  0.00     0.164 HD
HETATM   11  C18 UNL     1       0.782   1.574  -1.730  1.00  0.00     0.242 C 
HETATM   12  O2  UNL     1       0.409   2.261  -2.759  1.00  0.00    -0.271 OA
HETATM   13  C19 UNL     1      -0.246   1.396  -0.693  1.00  0.00     0.176 C 
HETATM   14  N6  UNL     1       0.096   0.389   0.280  1.00  0.00    -0.347 N 
ATOM     15  H6  UNL     1       0.977   0.509   0.780  1.00  0.00     0.163 HD
HETATM   16  C24 UNL     1      -0.679  -0.755   0.607  1.00  0.00     0.222 C 
HETATM   17  O3  UNL     1      -0.557  -1.119   1.830  1.00  0.00    -0.273 OA
ENDROOT
BRANCH  13  18
HETATM   18  C20 UNL     1      -0.426   2.681   0.087  1.00  0.00     0.036 C 
BRANCH  18  19
HETATM   19  C21 UNL     1      -0.851   3.860  -0.715  1.00  0.00     0.022 C 
BRANCH  19  20
HETATM   20  C22 UNL     1      -1.023   5.068   0.226  1.00  0.00     0.122 C 
BRANCH  20  21
HETATM   21  N3  UNL     1       0.215   5.382   0.900  1.00  0.00    -0.367 N 
HETATM   22  C23 UNL     1       0.229   5.918   2.090  1.00  0.00     0.196 C 
HETATM   23  N4  UNL     1      -0.974   6.213   2.764  1.00  0.00    -0.067 NA
HETATM   24  N5  UNL     1       1.469   6.208   2.714  1.00  0.00    -0.067 NA
ATOM     25  H3  UNL     1       1.100   5.180   0.435  1.00  0.00     0.161 HD
ENDBRANCH  20  21
ENDBRANCH  19  20
ENDBRANCH  18  19
ENDBRANCH  13  18
BRANCH   8  26
HETATM   26  C12 UNL     1       4.018  -0.346  -2.045  1.00  0.00     0.035 C 
HETATM   27  C13 UNL     1       4.511  -1.786  -1.993  1.00  0.00     0.015 C 
BRANCH  26  28
HETATM   28  C14 UNL     1       4.920   0.526  -1.243  1.00  0.00     0.102 C 
BRANCH  28  29
HETATM   29  C15 UNL     1       4.806   0.063   0.161  1.00  0.00    -0.105 C 
HETATM   30  C16 UNL     1       4.737  -0.322   1.291  1.00  0.00    -0.092 C 
BRANCH  30  31
HETATM   31  C17 UNL     1       4.660  -0.827   2.678  1.00  0.00     0.208 C 
HETATM   32 CL1  UNL     1       4.230  -2.548   2.608  1.00  0.00    -0.117 Cl
ENDBRANCH  30  31
ENDBRANCH  28  29
ENDBRANCH  26  28
ENDBRANCH   8  26
BRANCH   1  33
HETATM   33  C4  UNL     1      -2.845  -1.910   0.383  1.00  0.00    -0.002 C 
BRANCH  33  34
HETATM   34  C3  UNL     1      -2.755  -3.053   1.278  1.00  0.00     0.005 C 
BRANCH  34  35
HETATM   35  C2  UNL     1      -3.829  -3.234   2.283  1.00  0.00    -0.004 C 
HETATM   36  C1  UNL     1      -5.230  -3.468   1.881  1.00  0.00     0.005 C 
ENDBRANCH  34  35
ENDBRANCH  33  34
BRANCH  33  37
HETATM   37  C5  UNL     1      -4.004  -1.900  -0.555  1.00  0.00     0.001 C 
HETATM   38  C6  UNL     1      -4.032  -3.074  -1.518  1.00  0.00     0.005 C 
ENDBRANCH  33  37
ENDBRANCH   1  33
TORSDOF 12
