REMARK  14 active torsions:
REMARK  status: ('A' for Active; 'I' for Inactive)
REMARK    1  A    between atoms: C3_3  and  C4_5 
REMARK    2  A    between atoms: C4_5  and  N2_9 
REMARK    3  A    between atoms: C5_11  and  N3_12 
REMARK    4  A    between atoms: C5_11  and  C15_27 
REMARK    5  A    between atoms: N3_12  and  C6_14 
REMARK    6  A    between atoms: C6_14  and  C7_15 
REMARK       I    between atoms: C7_15  and  N4_17 
REMARK    7  A    between atoms: N4_17  and  C8_19 
REMARK    8  A    between atoms: C8_19  and  C9_20 
REMARK    9  A    between atoms: C15_27  and  N6_29 
REMARK       I    between atoms: N6_29  and  C17_31 
REMARK   10  A    between atoms: C17_31  and  C18_33 
REMARK   11  A    between atoms: C18_33  and  C19_34 
REMARK   12  A    between atoms: C19_34  and  C20_35 
REMARK   13  A    between atoms: C19_34  and  C24_39 
REMARK   14  A    between atoms: C20_35  and  C21_36 
ROOT
HETATM    1  N2  UNL     1       0.930  -3.489  -2.577  1.00  0.00    -0.330 N 
ATOM      2  H2  UNL     1       1.943  -3.477  -2.455  1.00  0.00     0.168 HD
HETATM    3  C5  UNL     1       0.410  -2.422  -3.042  1.00  0.00     0.102 C 
ENDROOT
BRANCH   3   4
HETATM    4  N3  UNL     1      -0.974  -2.325  -3.252  1.00  0.00    -0.369 N 
ATOM      5  H3  UNL     1      -1.402  -3.081  -3.786  1.00  0.00     0.161 HD
BRANCH   4   6
HETATM    6  C6  UNL     1      -1.852  -1.293  -2.807  1.00  0.00     0.223 C 
BRANCH   6   7
HETATM    7  C7  UNL     1      -2.086  -1.210  -1.365  1.00  0.00     0.235 C 
HETATM    8  O1  UNL     1      -1.539  -2.014  -0.590  1.00  0.00    -0.272 OA
HETATM    9  N4  UNL     1      -2.938  -0.220  -0.777  1.00  0.00    -0.358 N 
ATOM     10  H4  UNL     1      -3.400   0.450  -1.392  1.00  0.00     0.162 HD
BRANCH   9  11
HETATM   11  C8  UNL     1      -3.174  -0.125   0.649  1.00  0.00     0.156 C 
BRANCH  11  12
HETATM   12  C9  UNL     1      -4.108   1.025   0.868  1.00  0.00     0.207 C 
HETATM   13  C10 UNL     1      -5.427   0.896   0.195  1.00  0.00     0.037 C 
HETATM   14  C11 UNL     1      -6.225   2.012   0.832  1.00  0.00     0.030 C 
HETATM   15  C12 UNL     1      -5.683   2.024   2.239  1.00  0.00     0.237 C 
HETATM   16  N5  UNL     1      -4.378   1.381   2.212  1.00  0.00    -0.069 N 
HETATM   17  C13 UNL     1      -3.414   2.391   2.668  1.00  0.00     0.272 C 
HETATM   18  C14 UNL     1      -4.350   0.328   3.171  1.00  0.00     0.272 C 
ENDBRANCH  11  12
ENDBRANCH   9  11
ENDBRANCH   6   7
ENDBRANCH   4   6
ENDBRANCH   3   4
BRANCH   3  19
HETATM   19  C15 UNL     1       1.327  -1.281  -3.366  1.00  0.00     0.148 C 
HETATM   20  C16 UNL     1       1.016  -0.689  -4.719  1.00  0.00     0.040 C 
BRANCH  19  21
HETATM   21  N6  UNL     1       1.349  -0.242  -2.384  1.00  0.00    -0.350 N 
HETATM   22  C17 UNL     1       2.575   0.083  -1.719  1.00  0.00     0.219 C 
HETATM   23  O2  UNL     1       3.599  -0.555  -2.027  1.00  0.00    -0.274 OA
ATOM     24  H6  UNL     1       0.494   0.266  -2.158  1.00  0.00     0.163 HD
BRANCH  22  25
HETATM   25  C18 UNL     1       2.582   1.134  -0.719  1.00  0.00     0.116 C 
BRANCH  25  26
HETATM   26  C19 UNL     1       3.971   1.445  -0.142  1.00  0.00     0.084 C 
BRANCH  26  27
HETATM   27  C20 UNL     1       3.764   2.529   0.851  1.00  0.00     0.018 C 
BRANCH  27  28
HETATM   28  C21 UNL     1       4.941   3.061   1.565  1.00  0.00    -0.022 C 
HETATM   29  C22 UNL     1       4.410   4.165   2.506  1.00  0.00     0.009 C 
HETATM   30  C23 UNL     1       5.711   2.132   2.430  1.00  0.00     0.009 C 
ENDBRANCH  27  28
ENDBRANCH  26  27
BRANCH  26  31
HETATM   31  C24 UNL     1       4.530   0.191   0.354  1.00  0.00     0.235 C 
HETATM   32  N7  UNL     1       3.868  -0.599   1.330  1.00  0.00    -0.062 NA
HETATM   33  O3  UNL     1       5.649  -0.247  -0.079  1.00  0.00    -0.276 OA
ENDBRANCH  26  31
ENDBRANCH  25  26
ENDBRANCH  22  25
ENDBRANCH  19  21
ENDBRANCH   3  19
BRANCH   1  34
HETATM   34  C4  UNL     1       0.281  -4.678  -2.213  1.00  0.00     0.121 C 
HETATM   35  N1  UNL     1      -0.431  -5.322  -3.107  1.00  0.00    -0.384 N 
ATOM     36  H12 UNL     1      -0.903  -6.187  -2.842  1.00  0.00     0.157 HD
ATOM     37  H11 UNL     1      -0.485  -4.928  -4.046  1.00  0.00     0.157 HD
BRANCH  34  38
HETATM   38  C3  UNL     1       0.357  -5.234  -0.886  1.00  0.00     0.073 C 
HETATM   39  C2  UNL     1       1.013  -4.767   0.141  1.00  0.00    -0.003 C 
HETATM   40  C1  UNL     1       1.823  -3.547   0.084  1.00  0.00     0.038 C 
HETATM   41 CL1  UNL     1      -0.562  -6.734  -0.588  1.00  0.00    -0.081 Cl
ENDBRANCH  34  38
ENDBRANCH   1  34
TORSDOF 14
