REMARK  13 active torsions:
REMARK  status: ('A' for Active; 'I' for Inactive)
REMARK    1  A    between atoms: C3_3  and  O1_5 
REMARK    2  A    between atoms: C3_3  and  C5_7 
REMARK    3  A    between atoms: C6_8  and  O2_9 
REMARK    4  A    between atoms: C8_12  and  C10_14 
REMARK    5  A    between atoms: C12_16  and  C13_17 
REMARK    6  A    between atoms: C15_19  and  O3_20 
REMARK    7  A    between atoms: O3_20  and  C16_21 
REMARK    8  A    between atoms: C19_25  and  O5_26 
REMARK    9  A    between atoms: C20_28  and  N1_29 
REMARK   10  A    between atoms: N1_29  and  O6_30 
REMARK   11  A    between atoms: O6_30  and  C21_31 
REMARK   12  A    between atoms: C21_31  and  C24_34 
REMARK   13  A    between atoms: C24_34  and  O7_35 
ROOT
HETATM    1  C1  UNL     1      -5.792   2.749   0.064  1.00  0.00     0.015 C 
HETATM    2  C2  UNL     1      -4.611   2.569  -0.101  1.00  0.00    -0.079 C 
HETATM    3  C3  UNL     1      -3.151   2.349  -0.279  1.00  0.00     0.125 C 
HETATM    4  C4  UNL     1      -2.457   3.413   0.494  1.00  0.00     0.061 C 
ENDROOT
BRANCH   3   5
HETATM    5  O1  UNL     1      -2.960   2.474  -1.676  1.00  0.00    -0.377 OA
ATOM      6  H1  UNL     1      -2.027   2.333  -1.790  1.00  0.00     0.211 HD
ENDBRANCH   3   5
BRANCH   3   7
HETATM    7  C5  UNL     1      -2.877   0.952   0.162  1.00  0.00     0.090 C 
HETATM    8  C6  UNL     1      -3.683   0.019  -0.700  1.00  0.00     0.129 C 
HETATM    9  C7  UNL     1      -2.936  -1.199  -1.132  1.00  0.00     0.046 C 
HETATM   10  C8  UNL     1      -2.145  -1.838  -0.019  1.00  0.00    -0.015 C 
HETATM   11  C9  UNL     1      -1.176  -2.817  -0.694  1.00  0.00     0.020 C 
HETATM   12  C12 UNL     1      -1.375  -0.863   0.803  1.00  0.00     0.049 C 
HETATM   13  C15 UNL     1      -1.447   0.568   0.249  1.00  0.00     0.143 C 
BRANCH   8  14
HETATM   14  O2  UNL     1      -4.877  -0.382  -0.068  1.00  0.00    -0.395 OA
ATOM     15  H2  UNL     1      -5.386  -0.971  -0.612  1.00  0.00     0.210 HD
ENDBRANCH   8  14
BRANCH  10  16
HETATM   16  C10 UNL     1      -3.085  -2.661   0.785  1.00  0.00    -0.027 C 
HETATM   17  C11 UNL     1      -3.184  -3.976   0.655  1.00  0.00     0.007 C 
ENDBRANCH  10  16
BRANCH  12  18
HETATM   18  C13 UNL     1      -1.830  -0.926   2.212  1.00  0.00    -0.029 C 
HETATM   19  C14 UNL     1      -1.009  -1.351   3.154  1.00  0.00     0.007 C 
ENDBRANCH  12  18
BRANCH  13  20
HETATM   20  O3  UNL     1      -0.742   0.567  -0.929  1.00  0.00    -0.353 OA
BRANCH  20  21
HETATM   21  C16 UNL     1       0.436   1.309  -0.885  1.00  0.00     0.284 C 
HETATM   22  O4  UNL     1       0.424   2.299  -1.834  1.00  0.00    -0.352 OA
HETATM   23  C17 UNL     1       1.701   2.738  -2.052  1.00  0.00     0.151 C 
HETATM   24  C18 UNL     1       2.163   3.766  -1.029  1.00  0.00     0.042 C 
HETATM   25  C19 UNL     1       2.516   1.467  -1.979  1.00  0.00     0.173 C 
HETATM   26  C20 UNL     1       1.642   0.476  -1.239  1.00  0.00     0.192 C 
BRANCH  25  27
HETATM   27  O5  UNL     1       2.868   0.998  -3.245  1.00  0.00    -0.391 OA
ATOM     28  H5  UNL     1       3.380   0.199  -3.199  1.00  0.00     0.210 HD
ENDBRANCH  25  27
BRANCH  26  29
HETATM   29  N1  UNL     1       2.399   0.093  -0.036  1.00  0.00    -0.087 NA
BRANCH  29  30
HETATM   30  O6  UNL     1       3.435  -0.631  -0.455  1.00  0.00    -0.273 OA
BRANCH  30  31
HETATM   31  C21 UNL     1       4.148  -1.264   0.529  1.00  0.00     0.098 C 
HETATM   32  C22 UNL     1       4.750  -0.335   1.539  1.00  0.00     0.050 C 
HETATM   33  C23 UNL     1       3.347  -2.354   1.225  1.00  0.00     0.050 C 
BRANCH  31  34
HETATM   34  C24 UNL     1       5.315  -1.986  -0.157  1.00  0.00     0.203 C 
BRANCH  34  35
HETATM   35  O7  UNL     1       6.105  -2.664   0.759  1.00  0.00    -0.398 OA
ATOM     36  H7  UNL     1       6.828  -3.111   0.334  1.00  0.00     0.209 HD
ENDBRANCH  34  35
ENDBRANCH  31  34
ENDBRANCH  30  31
ENDBRANCH  29  30
ENDBRANCH  26  29
ENDBRANCH  20  21
ENDBRANCH  13  20
ENDBRANCH   3   7
TORSDOF 13
