REMARK  9 active torsions:
REMARK  status: ('A' for Active; 'I' for Inactive)
REMARK    1  A    between atoms: C8_8  and  N1_9 
REMARK       I    between atoms: N1_9  and  C10_11 
REMARK    2  A    between atoms: C13_15  and  C14_16 
REMARK    3  A    between atoms: C14_16  and  C15_17 
REMARK    4  A    between atoms: C15_17  and  C16_18 
REMARK    5  A    between atoms: C16_18  and  N2_20 
REMARK       I    between atoms: N2_20  and  C18_22 
REMARK    6  A    between atoms: C18_22  and  C19_24 
REMARK    7  A    between atoms: C19_24  and  C20_25 
REMARK    8  A    between atoms: C20_25  and  N3_26 
REMARK    9  A    between atoms: C20_25  and  C21_30 
ROOT
HETATM    1  C1  UNL     1      -4.852   5.215   0.422  1.00  0.00     0.012 C 
HETATM    2  C2  UNL     1      -5.063   4.314  -0.344  1.00  0.00    -0.112 C 
HETATM    3  C3  UNL     1      -5.344   3.237  -1.260  1.00  0.00     0.070 C 
HETATM    4  C4  UNL     1      -5.805   1.945  -0.594  1.00  0.00     0.027 C 
HETATM    5  C5  UNL     1      -4.936   1.206  -1.597  1.00  0.00     0.026 C 
HETATM    6  C6  UNL     1      -4.019   0.222  -1.011  1.00  0.00    -0.044 A 
HETATM    7  C7  UNL     1      -4.132  -1.147  -0.919  1.00  0.00     0.037 A 
HETATM    8  C8  UNL     1      -3.154  -1.866  -0.323  1.00  0.00     0.037 A 
HETATM    9  C12 UNL     1      -2.046  -1.220   0.191  1.00  0.00     0.037 A 
HETATM   10  C13 UNL     1      -1.877   0.140   0.129  1.00  0.00    -0.049 A 
HETATM   11  C24 UNL     1      -2.910   0.850  -0.495  1.00  0.00    -0.045 A 
HETATM   12  C25 UNL     1      -3.020   2.327  -0.713  1.00  0.00     0.046 C 
HETATM   13  C26 UNL     1      -4.113   2.475  -1.717  1.00  0.00     0.014 C 
ENDROOT
BRANCH  10  14
HETATM   14  C14 UNL     1      -0.702   0.849   0.674  1.00  0.00     0.041 C 
BRANCH  14  15
HETATM   15  C15 UNL     1       0.524  -0.015   0.818  1.00  0.00     0.029 C 
BRANCH  15  16
HETATM   16  C16 UNL     1       1.687   0.777   1.386  1.00  0.00     0.080 C 
HETATM   17  C17 UNL     1       1.320   1.315   2.765  1.00  0.00     0.032 C 
BRANCH  16  18
HETATM   18  N2  UNL     1       2.858  -0.048   1.529  1.00  0.00    -0.357 N 
HETATM   19  C18 UNL     1       4.153   0.330   1.045  1.00  0.00     0.219 C 
HETATM   20  O2  UNL     1       4.186   1.453   0.485  1.00  0.00    -0.274 OA
ATOM     21  H2  UNL     1       2.761  -0.948   1.999  1.00  0.00     0.162 HD
BRANCH  19  22
HETATM   22  C19 UNL     1       5.272  -0.580   1.237  1.00  0.00     0.135 C 
BRANCH  22  23
HETATM   23  C20 UNL     1       6.590  -0.207   0.688  1.00  0.00     0.195 C 
BRANCH  23  24
HETATM   24  N3  UNL     1       7.112   1.045   1.196  1.00  0.00    -0.074 N 
ATOM     25  H33 UNL     1       6.439   1.797   1.051  1.00  0.00     0.274 HD
ATOM     26  H32 UNL     1       7.141   1.032   2.216  1.00  0.00     0.274 HD
ATOM     27  H31 UNL     1       8.023   1.303   0.817  1.00  0.00     0.274 HD
ENDBRANCH  23  24
BRANCH  23  28
HETATM   28  C21 UNL     1       6.833  -0.380  -0.758  1.00  0.00     0.008 C 
HETATM   29  C22 UNL     1       6.666  -1.834  -1.207  1.00  0.00     0.011 C 
HETATM   30  C23 UNL     1       6.093   0.478  -1.711  1.00  0.00     0.011 C 
ENDBRANCH  23  28
ENDBRANCH  22  23
ENDBRANCH  19  22
ENDBRANCH  16  18
ENDBRANCH  15  16
ENDBRANCH  14  15
ENDBRANCH  10  14
BRANCH   8  31
HETATM   31  N1  UNL     1      -3.250  -3.294  -0.208  1.00  0.00    -0.323 N 
HETATM   32  C9  UNL     1      -2.246  -4.173  -0.748  1.00  0.00     0.159 C 
HETATM   33  C10 UNL     1      -4.362  -3.874   0.456  1.00  0.00     0.220 C 
HETATM   34  C11 UNL     1      -5.468  -3.072   1.060  1.00  0.00     0.117 C 
HETATM   35  O1  UNL     1      -4.465  -5.123   0.565  1.00  0.00    -0.274 OA
ENDBRANCH   8  31
TORSDOF 9
