REMARK  9 active torsions:
REMARK  status: ('A' for Active; 'I' for Inactive)
REMARK    1  A    between atoms: C2_2  and  C3_3 
REMARK    2  A    between atoms: C3_3  and  C4_4 
REMARK    3  A    between atoms: N2_10  and  C7_11 
REMARK    4  A    between atoms: C7_11  and  C8_12 
REMARK    5  A    between atoms: C8_12  and  N3_13 
REMARK    6  A    between atoms: C8_12  and  C20_27 
REMARK       I    between atoms: N3_13  and  C9_15 
REMARK    7  A    between atoms: C9_15  and  C10_17 
REMARK    8  A    between atoms: C10_17  and  C11_18 
REMARK    9  A    between atoms: C11_18  and  C12_19 
ROOT
HETATM    1  C8  UNL     1      -0.007  -0.763  -1.063  1.00  0.00     0.110 C 
ENDROOT
BRANCH   1   2
HETATM    2  C7  UNL     1      -1.211   0.076  -1.009  1.00  0.00     0.163 C 
BRANCH   2   3
HETATM    3  N2  UNL     1      -2.410  -0.360  -1.674  1.00  0.00    -0.266 N 
HETATM    4  C6  UNL     1      -3.393  -1.254  -1.155  1.00  0.00     0.326 A 
HETATM    5  N1  UNL     1      -4.444  -1.368  -2.057  1.00  0.00    -0.324 N 
HETATM    6  O1  UNL     1      -3.257  -1.833  -0.014  1.00  0.00    -0.247 OA
HETATM    7  C3  UNL     1      -4.223  -0.495  -3.168  1.00  0.00     0.115 A 
ATOM      8  H1  UNL     1      -5.251  -1.982  -1.944  1.00  0.00     0.165 HD
HETATM    9  C24 UNL     1      -2.861   0.086  -2.923  1.00  0.00     0.256 A 
HETATM   10  O3  UNL     1      -2.317   0.848  -3.790  1.00  0.00    -0.270 OA
BRANCH   7  11
HETATM   11  C2  UNL     1      -4.160  -1.184  -4.480  1.00  0.00     0.037 C 
HETATM   12  C1  UNL     1      -5.383  -1.872  -4.971  1.00  0.00     0.008 C 
ENDBRANCH   7  11
BRANCH   7  13
HETATM   13  C4  UNL     1      -5.209   0.629  -3.047  1.00  0.00     0.037 C 
HETATM   14  C5  UNL     1      -6.627   0.271  -3.261  1.00  0.00     0.008 C 
ENDBRANCH   7  13
ENDBRANCH   2   3
ENDBRANCH   1   2
BRANCH   1  15
HETATM   15  N3  UNL     1       1.004   0.003  -0.266  1.00  0.00    -0.354 N 
HETATM   16  C9  UNL     1       1.141  -0.203   1.105  1.00  0.00     0.218 C 
HETATM   17  O2  UNL     1       0.396  -1.060   1.704  1.00  0.00    -0.274 OA
ATOM     18  H3  UNL     1       1.601   0.685  -0.734  1.00  0.00     0.162 HD
BRANCH  16  19
HETATM   19  C10 UNL     1       2.114   0.525   1.925  1.00  0.00     0.107 C 
BRANCH  19  20
HETATM   20  C11 UNL     1       1.906   0.233   3.397  1.00  0.00     0.048 C 
BRANCH  20  21
HETATM   21  C12 UNL     1       2.846   0.940   4.283  1.00  0.00    -0.057 A 
HETATM   22  C13 UNL     1       2.526   2.216   4.722  1.00  0.00     0.007 A 
HETATM   23  C14 UNL     1       3.368   2.919   5.571  1.00  0.00     0.008 A 
HETATM   24  C15 UNL     1       4.554   2.349   5.997  1.00  0.00    -0.056 A 
HETATM   25  C16 UNL     1       5.484   3.080   6.918  1.00  0.00     0.049 C 
HETATM   26  C17 UNL     1       4.861   1.077   5.552  1.00  0.00    -0.056 A 
HETATM   27  C18 UNL     1       6.135   0.468   6.023  1.00  0.00     0.049 C 
HETATM   28  C19 UNL     1       4.019   0.396   4.713  1.00  0.00     0.014 A 
ENDBRANCH  20  21
ENDBRANCH  19  20
ENDBRANCH  16  19
ENDBRANCH   1  15
BRANCH   1  29
HETATM   29  C20 UNL     1       0.651  -1.104  -2.325  1.00  0.00    -0.029 C 
HETATM   30  C21 UNL     1       1.131   0.118  -3.107  1.00  0.00     0.016 C 
HETATM   31  C22 UNL     1      -0.136  -1.962  -3.283  1.00  0.00     0.016 C 
HETATM   32  C23 UNL     1       1.902  -1.947  -1.958  1.00  0.00     0.016 C 
ENDBRANCH   1  29
TORSDOF 9
