REMARK  8 active torsions:
REMARK  status: ('A' for Active; 'I' for Inactive)
REMARK    1  A    between atoms: C1_2  and  C2_4 
REMARK    2  A    between atoms: N2_9  and  N3_10 
REMARK    3  A    between atoms: C5_12  and  C6_13 
REMARK    4  A    between atoms: C6_13  and  O3_14 
REMARK    5  A    between atoms: C6_13  and  N4_16 
REMARK    6  A    between atoms: N4_16  and  O4_18 
REMARK    7  A    between atoms: C9_26  and  O7_27 
REMARK    8  A    between atoms: C9_26  and  C10_29 
ROOT
HETATM    1  N3  UNL     1       0.241   0.474  -0.369  1.00  0.00    -0.213 N 
HETATM    2  C4  UNL     1       1.188  -0.355   0.103  1.00  0.00     0.138 A 
HETATM    3  C5  UNL     1       2.568  -0.135  -0.057  1.00  0.00     0.077 A 
HETATM    4  C7  UNL     1       2.899   0.996  -0.736  1.00  0.00     0.261 A 
HETATM    5  O5  UNL     1       4.104   1.304  -0.948  1.00  0.00    -0.267 OA
HETATM    6  N5  UNL     1       1.917   1.811  -1.199  1.00  0.00    -0.273 N 
ATOM      7  H5  UNL     1       2.195   2.652  -1.705  1.00  0.00     0.173 HD
HETATM    8  C8  UNL     1       0.597   1.582  -1.034  1.00  0.00     0.348 A 
HETATM    9  O6  UNL     1      -0.234   2.413  -1.509  1.00  0.00    -0.245 OA
ENDROOT
BRANCH   1  10
HETATM   10  N2  UNL     1      -1.132   0.159  -0.145  1.00  0.00    -0.245 N 
HETATM   11  C3  UNL     1      -1.463  -1.063   0.612  1.00  0.00     0.380 C 
HETATM   12  N1  UNL     1      -2.807  -0.931   1.039  1.00  0.00    -0.038 N 
HETATM   13  C2  UNL     1      -3.417  -0.273  -0.076  1.00  0.00     0.355 C 
ATOM     14  H12 UNL     1      -2.929  -0.461   1.936  1.00  0.00     0.280 HD
ATOM     15  H11 UNL     1      -3.256  -1.802   1.323  1.00  0.00     0.280 HD
HETATM   16  C9  UNL     1      -2.342   0.782  -0.497  1.00  0.00     0.279 C 
BRANCH  13  17
HETATM   17  C1  UNL     1      -3.698  -1.191  -1.204  1.00  0.00     0.210 C 
HETATM   18  O1  UNL     1      -3.410  -2.418  -1.138  1.00  0.00    -0.646 OA
HETATM   19  O2  UNL     1      -4.287  -0.744  -2.376  1.00  0.00    -0.646 OA
ENDBRANCH  13  17
BRANCH  16  20
HETATM   20  O7  UNL     1      -2.521   0.934  -1.882  1.00  0.00    -0.359 OA
ATOM     21  H7  UNL     1      -1.868   1.575  -2.138  1.00  0.00     0.213 HD
ENDBRANCH  16  20
BRANCH  16  22
HETATM   22  C10 UNL     1      -2.718   2.000   0.234  1.00  0.00     0.236 C 
HETATM   23  O8  UNL     1      -3.250   3.009  -0.293  1.00  0.00    -0.644 OA
HETATM   24  O9  UNL     1      -2.482   2.075   1.601  1.00  0.00    -0.644 OA
ENDBRANCH  16  22
ENDBRANCH   1  10
BRANCH   3  25
HETATM   25  C6  UNL     1       3.515  -1.109   0.522  1.00  0.00     0.280 C 
BRANCH  25  26
HETATM   26  O3  UNL     1       3.113  -2.419   0.150  1.00  0.00    -0.371 OA
ATOM     27  H3  UNL     1       3.722  -3.046   0.522  1.00  0.00     0.212 HD
ENDBRANCH  25  26
BRANCH  25  28
HETATM   28  N4  UNL     1       4.882  -0.954   0.219  1.00  0.00    -0.272 N 
ATOM     29  H4  UNL     1       5.341  -1.545  -0.474  1.00  0.00     0.190 HD
BRANCH  28  30
HETATM   30  O4  UNL     1       5.549  -0.009   0.871  1.00  0.00    -0.292 OA
ATOM     31  H4  UNL     1       6.471   0.096   0.667  1.00  0.00     0.244 HD
ENDBRANCH  28  30
ENDBRANCH  25  28
ENDBRANCH   3  25
TORSDOF 8
