REMARK  7 active torsions:
REMARK  status: ('A' for Active; 'I' for Inactive)
REMARK    1  A    between atoms: N1_1  and  S1_4 
REMARK    2  A    between atoms: S1_4  and  C1_7 
REMARK    3  A    between atoms: C4_10  and  N2_11 
REMARK    4  A    between atoms: N2_11  and  C5_13 
REMARK    5  A    between atoms: N4_20  and  C9_22 
REMARK    6  A    between atoms: C9_22  and  C10_23 
REMARK    7  A    between atoms: C10_23  and  C11_24 
ROOT
HETATM    1  C5  UNL     1       1.348  -0.016  -0.619  1.00  0.00     0.684 A 
HETATM    2  N3  UNL     1       1.439  -0.506   0.626  1.00  0.00    -0.200 N 
ATOM      3  H3  UNL     1       2.340  -0.554   1.103  1.00  0.00     0.183 HD
HETATM    4  C6  UNL     1       0.323  -0.930   1.229  1.00  0.00     0.133 A 
HETATM    5  C7  UNL     1      -0.926  -0.877   0.598  1.00  0.00     0.094 A 
HETATM    6 CL1  UNL     1      -2.308  -1.461   1.492  1.00  0.00    -0.079 Cl
HETATM    7  C8  UNL     1      -1.015  -0.376  -0.675  1.00  0.00     0.140 A 
HETATM    8  N4  UNL     1      -2.071  -0.278  -1.346  1.00  0.00    -0.374 N 
ATOM      9  H4  UNL     1      -1.870   0.125  -2.261  1.00  0.00     0.161 HD
HETATM   10  N5  UNL     1       0.183   0.038  -1.217  1.00  0.00    -0.175 N 
ATOM     11  H5  UNL     1       0.161   0.418  -2.163  1.00  0.00     0.186 HD
ENDROOT
BRANCH   1  12
HETATM   12  N2  UNL     1       2.445   0.400  -1.208  1.00  0.00    -0.192 N 
ATOM     13  H2  UNL     1       2.397   0.776  -2.155  1.00  0.00     0.184 HD
BRANCH  12  14
HETATM   14  C4  UNL     1       3.681   0.334  -0.551  1.00  0.00     0.049 A 
HETATM   15  C3  UNL     1       4.121   1.327   0.324  1.00  0.00     0.031 A 
HETATM   16  C2  UNL     1       5.339   1.255   0.966  1.00  0.00     0.027 A 
HETATM   17  C1  UNL     1       6.171   0.173   0.753  1.00  0.00     0.079 A 
HETATM   18  C18 UNL     1       5.729  -0.796  -0.109  1.00  0.00     0.027 A 
HETATM   19  C17 UNL     1       4.518  -0.742  -0.758  1.00  0.00     0.031 A 
BRANCH  17  20
HETATM   20  S1  UNL     1       7.725   0.013   1.530  1.00  0.00     0.256 S 
HETATM   21  O1  UNL     1       7.743   0.581   2.906  1.00  0.00    -0.201 OA
HETATM   22  O2  UNL     1       8.043  -1.459   1.612  1.00  0.00    -0.201 OA
BRANCH  20  23
HETATM   23  N1  UNL     1       8.908   0.758   0.510  1.00  0.00    -0.324 N 
ATOM     24  H12 UNL     1       9.535   1.497   0.828  1.00  0.00     0.169 HD
ATOM     25  H11 UNL     1       8.896   0.369  -0.433  1.00  0.00     0.169 HD
ENDBRANCH  20  23
ENDBRANCH  17  20
ENDBRANCH  12  14
ENDBRANCH   1  12
BRANCH   8  26
HETATM   26  C9  UNL     1      -3.420  -0.547  -1.229  1.00  0.00     0.126 C 
BRANCH  26  27
HETATM   27  C10 UNL     1      -4.124   0.707  -0.678  1.00  0.00     0.058 C 
BRANCH  27  28
HETATM   28  C11 UNL     1      -5.556   0.384  -0.561  1.00  0.00    -0.057 A 
HETATM   29  C12 UNL     1      -6.418   0.611  -1.606  1.00  0.00     0.007 A 
HETATM   30  C13 UNL     1      -7.765   0.309  -1.500  1.00  0.00     0.001 A 
HETATM   31  C14 UNL     1      -8.281  -0.228  -0.344  1.00  0.00     0.000 A 
HETATM   32  C15 UNL     1      -7.420  -0.458   0.709  1.00  0.00     0.001 A 
HETATM   33  C16 UNL     1      -6.056  -0.152   0.601  1.00  0.00     0.007 A 
ENDBRANCH  27  28
ENDBRANCH  26  27
ENDBRANCH   8  26
TORSDOF 7
