REMARK  9 active torsions:
REMARK  status: ('A' for Active; 'I' for Inactive)
REMARK    1  A    between atoms: O1_2  and  C2_3 
REMARK    2  A    between atoms: C2_3  and  C3_5 
REMARK    3  A    between atoms: C3_5  and  C4_6 
REMARK    4  A    between atoms: C3_5  and  O5_33 
REMARK    5  A    between atoms: C5_7  and  C6_8 
REMARK    6  A    between atoms: C6_8  and  C8_10 
REMARK    7  A    between atoms: C8_10  and  O3_11 
REMARK    8  A    between atoms: C19_23  and  C21_25 
REMARK    9  A    between atoms: C21_25  and  O4_26 
ROOT
HETATM    1  C8  UNL     1       0.913  -0.150   0.096  1.00  0.00     0.111 C 
HETATM    2  C9  UNL     1       0.503  -0.942   1.253  1.00  0.00    -0.049 C 
HETATM    3  C10 UNL     1       0.884  -2.326   1.644  1.00  0.00     0.046 C 
HETATM    4  C11 UNL     1      -0.404  -0.297   2.051  1.00  0.00    -0.021 C 
HETATM    5  C12 UNL     1      -0.907   1.046   1.755  1.00  0.00     0.033 C 
HETATM    6  C13 UNL     1      -1.165   1.285   0.297  1.00  0.00     0.009 C 
HETATM    7  C14 UNL     1      -2.618   1.284  -0.110  1.00  0.00    -0.035 C 
HETATM    8  C15 UNL     1      -2.767   2.371  -1.243  1.00  0.00     0.016 C 
HETATM    9  C16 UNL     1      -3.522   1.884   0.941  1.00  0.00     0.010 C 
HETATM   10  C17 UNL     1      -4.361   0.973   1.720  1.00  0.00     0.002 C 
HETATM   11  C18 UNL     1      -4.401  -0.457   1.244  1.00  0.00     0.012 C 
HETATM   12  C19 UNL     1      -4.459  -0.454  -0.231  1.00  0.00    -0.018 C 
HETATM   13  C20 UNL     1      -4.587  -1.923  -0.671  1.00  0.00     0.018 C 
HETATM   14  C22 UNL     1      -3.153   0.078  -0.773  1.00  0.00     0.004 C 
HETATM   15  C23 UNL     1      -2.210  -1.086  -0.849  1.00  0.00     0.007 C 
HETATM   16  C24 UNL     1      -0.935  -0.546  -1.413  1.00  0.00     0.014 C 
HETATM   17  C25 UNL     1      -0.265   0.525  -0.628  1.00  0.00    -0.000 C 
HETATM   18  C26 UNL     1       0.408   1.577  -1.529  1.00  0.00     0.019 C 
ENDROOT
BRANCH   1  19
HETATM   19  C6  UNL     1       1.878  -0.827  -0.721  1.00  0.00    -0.045 C 
HETATM   20  C7  UNL     1       2.285  -0.473  -2.081  1.00  0.00     0.047 C 
BRANCH  19  21
HETATM   21  C5  UNL     1       3.118  -1.102   0.055  1.00  0.00     0.005 C 
HETATM   22  C4  UNL     1       4.322  -0.602  -0.312  1.00  0.00     0.015 C 
BRANCH  22  23
HETATM   23  C3  UNL     1       5.571  -0.851   0.428  1.00  0.00     0.243 C 
BRANCH  23  24
HETATM   24  C2  UNL     1       6.223   0.454   0.695  1.00  0.00     0.291 C 
HETATM   25  O2  UNL     1       6.473   0.768   1.885  1.00  0.00    -0.262 OA
BRANCH  24  26
HETATM   26  O1  UNL     1       6.570   1.343  -0.301  1.00  0.00    -0.324 OA
HETATM   27  C1  UNL     1       7.189   2.565   0.051  1.00  0.00     0.213 C 
ENDBRANCH  24  26
ENDBRANCH  23  24
BRANCH  23  28
HETATM   28  O5  UNL     1       5.344  -1.527   1.622  1.00  0.00    -0.377 OA
HETATM   29  C27 UNL     1       6.020  -2.727   1.585  1.00  0.00     0.203 C 
ENDBRANCH  23  28
ENDBRANCH  22  23
ENDBRANCH  19  21
ENDBRANCH   1  19
BRANCH   1  30
HETATM   30  O3  UNL     1       1.575   1.028   0.596  1.00  0.00    -0.380 OA
ATOM     31  H3  UNL     1       0.936   1.476   1.137  1.00  0.00     0.211 HD
ENDBRANCH   1  30
BRANCH  12  32
HETATM   32  C21 UNL     1      -5.674   0.222  -0.774  1.00  0.00     0.173 C 
BRANCH  32  33
HETATM   33  O4  UNL     1      -6.843  -0.426  -0.318  1.00  0.00    -0.400 OA
ATOM     34  H4  UNL     1      -7.616   0.004  -0.664  1.00  0.00     0.209 HD
ENDBRANCH  32  33
ENDBRANCH  12  32
TORSDOF 9
