REMARK  9 active torsions:
REMARK  status: ('A' for Active; 'I' for Inactive)
REMARK    1  A    between atoms: C2_2  and  C4_4 
REMARK    2  A    between atoms: C4_4  and  C5_5 
REMARK    3  A    between atoms: C5_5  and  O2_7 
REMARK    4  A    between atoms: O2_7  and  C6_8 
REMARK    5  A    between atoms: C8_10  and  O3_11 
REMARK    6  A    between atoms: C12_16  and  C13_17 
REMARK    7  A    between atoms: C13_17  and  C15_19 
REMARK    8  A    between atoms: C15_19  and  C16_20 
REMARK    9  A    between atoms: C16_20  and  C17_21 
ROOT
HETATM    1  C6  UNL     1       2.640  -0.821   0.121  1.00  0.00     0.146 C 
HETATM    2  C7  UNL     1       1.323  -0.403   0.677  1.00  0.00     0.077 C 
HETATM    3  C8  UNL     1       0.134  -0.864  -0.191  1.00  0.00     0.094 C 
HETATM    4  C9  UNL     1      -1.064  -0.508   0.558  1.00  0.00     0.054 C 
HETATM    5  C10 UNL     1      -2.420  -0.766  -0.083  1.00  0.00    -0.020 C 
HETATM    6  C11 UNL     1      -2.405  -0.311  -1.505  1.00  0.00     0.017 C 
HETATM    7  C12 UNL     1      -3.358  -0.051   0.814  1.00  0.00    -0.001 C 
HETATM    8  C18 UNL     1      -3.611  -1.090   1.909  1.00  0.00     0.007 C 
HETATM    9  C19 UNL     1      -3.360  -2.422   1.318  1.00  0.00     0.021 C 
HETATM   10  C20 UNL     1      -2.658  -2.236  -0.021  1.00  0.00     0.017 C 
HETATM   11  C21 UNL     1      -3.512  -2.815  -1.104  1.00  0.00     0.028 C 
HETATM   12  S1  UNL     1      -1.189  -3.278   0.040  1.00  0.00    -0.121 SA
HETATM   13  C22 UNL     1       0.259  -2.317  -0.273  1.00  0.00     0.010 C 
HETATM   14  C23 UNL     1       1.448  -2.839  -0.558  1.00  0.00     0.002 C 
HETATM   15  C24 UNL     1       2.645  -1.985  -0.792  1.00  0.00    -0.002 C 
HETATM   16  C25 UNL     1       2.870  -1.663  -2.248  1.00  0.00     0.021 C 
HETATM   17  C26 UNL     1       3.837  -2.885  -0.405  1.00  0.00     0.021 C 
ENDROOT
BRANCH   1  18
HETATM   18  O2  UNL     1       3.229   0.311  -0.494  1.00  0.00    -0.315 OA
BRANCH  18  19
HETATM   19  C5  UNL     1       4.370   0.898   0.020  1.00  0.00     0.259 C 
HETATM   20  O1  UNL     1       4.880   0.400   1.056  1.00  0.00    -0.265 OA
BRANCH  19  21
HETATM   21  C4  UNL     1       5.022   2.081  -0.584  1.00  0.00     0.115 C 
BRANCH  21  22
HETATM   22  C2  UNL     1       6.246   2.497   0.214  1.00  0.00    -0.013 C 
HETATM   23  C1  UNL     1       7.278   1.410   0.282  1.00  0.00     0.010 C 
HETATM   24  C3  UNL     1       6.828   3.734  -0.474  1.00  0.00     0.010 C 
ENDBRANCH  21  22
ENDBRANCH  19  21
ENDBRANCH  18  19
ENDBRANCH   1  18
BRANCH   3  25
HETATM   25  O3  UNL     1       0.328  -0.177  -1.382  1.00  0.00    -0.384 OA
ATOM     26  H3  UNL     1      -0.404  -0.461  -1.917  1.00  0.00     0.211 HD
ENDBRANCH   3  25
BRANCH   7  27
HETATM   27  C13 UNL     1      -4.617   0.546   0.438  1.00  0.00    -0.013 C 
HETATM   28  C14 UNL     1      -5.688  -0.361  -0.161  1.00  0.00     0.010 C 
BRANCH  27  29
HETATM   29  C15 UNL     1      -4.665   1.837  -0.275  1.00  0.00     0.015 C 
BRANCH  29  30
HETATM   30  C16 UNL     1      -4.085   3.040   0.341  1.00  0.00     0.113 C 
BRANCH  30  31
HETATM   31  C17 UNL     1      -4.668   3.488   1.619  1.00  0.00     0.172 C 
HETATM   32  O4  UNL     1      -4.056   4.467   2.177  1.00  0.00    -0.648 OA
HETATM   33  O5  UNL     1      -5.774   2.926   2.189  1.00  0.00    -0.648 OA
ENDBRANCH  30  31
ENDBRANCH  29  30
ENDBRANCH  27  29
ENDBRANCH   7  27
TORSDOF 9
