REMARK  9 active torsions:
REMARK  status: ('A' for Active; 'I' for Inactive)
REMARK    1  A    between atoms: O1_2  and  C2_3 
REMARK    2  A    between atoms: C12_14  and  C13_15 
REMARK    3  A    between atoms: C13_15  and  C14_16 
REMARK    4  A    between atoms: C17_20  and  C18_21 
REMARK    5  A    between atoms: C18_21  and  O4_22 
REMARK    6  A    between atoms: C18_21  and  C19_24 
REMARK    7  A    between atoms: C18_21  and  C20_27 
REMARK    8  A    between atoms: C19_24  and  O5_25 
REMARK    9  A    between atoms: C20_27  and  C21_28 
ROOT
HETATM    1  C14 UNL     1       1.240   2.254  -0.192  1.00  0.00    -0.007 C 
HETATM    2  C15 UNL     1       1.385   2.266  -1.684  1.00  0.00     0.031 C 
HETATM    3  C16 UNL     1       2.831   1.901  -2.001  1.00  0.00     0.168 C 
HETATM    4  O3  UNL     1       3.457   1.355  -0.866  1.00  0.00    -0.383 OA
HETATM    5  C17 UNL     1       2.688   0.313  -0.387  1.00  0.00     0.158 C 
HETATM    6  C25 UNL     1       1.442   0.863   0.313  1.00  0.00     0.040 C 
ENDROOT
BRANCH   1   7
HETATM    7  C13 UNL     1      -0.081   2.876   0.252  1.00  0.00     0.032 C 
BRANCH   7   8
HETATM    8  C12 UNL     1      -1.236   2.181  -0.283  1.00  0.00    -0.021 C 
HETATM    9  C11 UNL     1      -2.255   1.561   0.210  1.00  0.00    -0.050 C 
HETATM   10  C8  UNL     1      -2.695   1.285   1.581  1.00  0.00     0.078 C 
HETATM   11  C26 UNL     1      -3.257   0.976  -0.819  1.00  0.00     0.047 C 
HETATM   12  O2  UNL     1      -2.993  -0.045   1.844  1.00  0.00    -0.365 OA
HETATM   13  C9  UNL     1      -3.906   2.178   1.841  1.00  0.00     0.051 C 
HETATM   14  C10 UNL     1      -1.688   1.668   2.640  1.00  0.00     0.051 C 
HETATM   15  C6  UNL     1      -3.669  -0.760   0.929  1.00  0.00     0.065 C 
HETATM   16  C5  UNL     1      -3.320  -2.241   1.153  1.00  0.00     0.038 C 
HETATM   17  C7  UNL     1      -5.159  -0.665   1.190  1.00  0.00     0.046 C 
HETATM   18  C27 UNL     1      -3.315  -0.480  -0.507  1.00  0.00     0.053 C 
HETATM   19  C4  UNL     1      -3.252  -3.013  -0.110  1.00  0.00     0.006 C 
HETATM   20  C3  UNL     1      -4.270  -2.650  -1.140  1.00  0.00     0.032 C 
HETATM   21  C2  UNL     1      -4.357  -1.156  -1.372  1.00  0.00     0.128 C 
BRANCH  21  22
HETATM   22  O1  UNL     1      -4.255  -0.810  -2.703  1.00  0.00    -0.390 OA
HETATM   23  C1  UNL     1      -5.431  -0.164  -3.150  1.00  0.00     0.202 C 
ENDBRANCH  21  22
ENDBRANCH   7   8
ENDBRANCH   1   7
BRANCH   5  24
HETATM   24  C18 UNL     1       3.392  -0.633   0.519  1.00  0.00     0.108 C 
BRANCH  24  25
HETATM   25  O4  UNL     1       3.901   0.041   1.648  1.00  0.00    -0.385 OA
ATOM     26  H4  UNL     1       4.351  -0.563   2.227  1.00  0.00     0.210 HD
ENDBRANCH  24  25
BRANCH  24  27
HETATM   27  C19 UNL     1       2.333  -1.590   1.066  1.00  0.00     0.204 C 
BRANCH  27  28
HETATM   28  O5  UNL     1       1.734  -2.333   0.068  1.00  0.00    -0.398 OA
ATOM     29  H5  UNL     1       1.076  -2.928   0.408  1.00  0.00     0.209 HD
ENDBRANCH  27  28
ENDBRANCH  24  27
BRANCH  24  30
HETATM   30  C20 UNL     1       4.456  -1.423  -0.155  1.00  0.00     0.070 C 
BRANCH  30  31
HETATM   31  C21 UNL     1       5.549  -0.637  -0.759  1.00  0.00    -0.022 C 
HETATM   32  C22 UNL     1       6.821  -0.760  -0.354  1.00  0.00    -0.091 C 
HETATM   33  C23 UNL     1       7.908   0.024  -0.957  1.00  0.00     0.042 C 
HETATM   34  C24 UNL     1       7.165  -1.722   0.749  1.00  0.00     0.042 C 
ENDBRANCH  30  31
ENDBRANCH  24  30
ENDBRANCH   5  24
TORSDOF 9
