REMARK  5 active torsions:
REMARK  status: ('A' for Active; 'I' for Inactive)
REMARK    1  A    between atoms: C3_3  and  C4_4 
REMARK    2  A    between atoms: C6_8  and  S1_9 
REMARK    3  A    between atoms: S1_9  and  N2_10 
REMARK    4  A    between atoms: C7_16  and  C8_17 
REMARK    5  A    between atoms: N3_25  and  C15_26 
ROOT
HETATM    1  C15 UNL     1      -3.176  -0.794  -0.533  1.00  0.00     0.040 A 
HETATM    2  C16 UNL     1      -3.925  -0.859  -1.675  1.00  0.00     0.031 A 
HETATM    3  C17 UNL     1      -5.218  -1.369  -1.666  1.00  0.00     0.026 A 
HETATM    4  C18 UNL     1      -5.785  -1.829  -0.478  1.00  0.00     0.062 A 
HETATM    5  C19 UNL     1      -7.110  -2.361  -0.413  1.00  0.00     0.101 C 
HETATM    6  N4  UNL     1      -8.186  -2.779  -0.374  1.00  0.00    -0.191 NA
HETATM    7  C20 UNL     1      -5.040  -1.767   0.671  1.00  0.00     0.033 A 
HETATM    8 BR1  UNL     1      -5.780  -2.385   2.321  1.00  0.00    -0.049 Br
HETATM    9  C21 UNL     1      -3.762  -1.259   0.635  1.00  0.00     0.050 A 
ENDROOT
BRANCH   1  10
HETATM   10  N3  UNL     1      -1.842  -0.275  -0.467  1.00  0.00    -0.325 N 
HETATM   11  C2  UNL     1      -0.745  -0.850   0.041  1.00  0.00     0.026 A 
HETATM   12  C1  UNL     1      -0.708  -2.207   0.644  1.00  0.00     0.070 C 
HETATM   13  C3  UNL     1       0.350  -0.038  -0.063  1.00  0.00     0.033 A 
HETATM   14  C7  UNL     1      -0.080   1.118  -0.672  1.00  0.00     0.005 A 
HETATM   15  C14 UNL     1      -1.444   0.942  -0.912  1.00  0.00     0.110 A 
BRANCH  13  16
HETATM   16  C4  UNL     1       1.743  -0.282   0.365  1.00  0.00     0.088 A 
HETATM   17  N1  UNL     1       2.785   0.508   0.283  1.00  0.00    -0.357 N 
HETATM   18  C5  UNL     1       3.939   0.123   0.716  1.00  0.00     0.121 A 
ATOM     19  H1  UNL     1       2.684   1.436  -0.127  1.00  0.00     0.166 HD
HETATM   20  C6  UNL     1       4.036  -1.130   1.261  1.00  0.00     0.137 A 
HETATM   21  S2  UNL     1       2.422  -1.674   1.107  1.00  0.00    -0.057 SA
BRANCH  20  22
HETATM   22  S1  UNL     1       5.474  -1.888   1.910  1.00  0.00     0.264 S 
HETATM   23  O1  UNL     1       6.595  -0.906   1.870  1.00  0.00    -0.200 OA
HETATM   24  O2  UNL     1       5.774  -3.116   1.074  1.00  0.00    -0.200 OA
BRANCH  22  25
HETATM   25  N2  UNL     1       5.220  -2.308   3.561  1.00  0.00    -0.324 N 
ATOM     26  H22 UNL     1       4.354  -2.134   4.071  1.00  0.00     0.169 HD
ATOM     27  H21 UNL     1       6.058  -2.750   3.939  1.00  0.00     0.169 HD
ENDBRANCH  22  25
ENDBRANCH  20  22
ENDBRANCH  13  16
BRANCH  14  28
HETATM   28  C8  UNL     1       0.664   2.321  -1.018  1.00  0.00    -0.023 A 
HETATM   29  C9  UNL     1       1.095   3.208  -0.034  1.00  0.00     0.015 A 
HETATM   30  C10 UNL     1       1.801   4.342  -0.297  1.00  0.00     0.043 A 
HETATM   31  C11 UNL     1       2.126   4.664  -1.591  1.00  0.00     0.116 A 
HETATM   32  F1  UNL     1       2.826   5.784  -1.875  1.00  0.00    -0.206 F 
HETATM   33  C12 UNL     1       1.709   3.797  -2.594  1.00  0.00     0.043 A 
HETATM   34  C13 UNL     1       0.994   2.649  -2.329  1.00  0.00     0.015 A 
ENDBRANCH  14  28
ENDBRANCH   1  10
TORSDOF 5
