REMARK  9 active torsions:
REMARK  status: ('A' for Active; 'I' for Inactive)
REMARK    1  A    between atoms: N1_1  and  C1_4 
REMARK    2  A    between atoms: N4_13  and  C4_14 
REMARK    3  A    between atoms: C5_16  and  C6_17 
REMARK    4  A    between atoms: C6_17  and  N5_18 
REMARK    5  A    between atoms: C6_17  and  C7_22 
REMARK    6  A    between atoms: C9_26  and  C10_27 
REMARK    7  A    between atoms: C10_27  and  C11_29 
REMARK    8  A    between atoms: C11_29  and  O7_30 
REMARK    9  A    between atoms: C11_29  and  O8_32 
ROOT
HETATM    1  C4  UNL     1      -0.657  -0.378  -0.610  1.00  0.00     0.262 C 
HETATM    2  O3  UNL     1       0.272  -1.378  -0.218  1.00  0.00    -0.357 OA
HETATM    3  C5  UNL     1       1.446  -0.897  -0.844  1.00  0.00     0.166 C 
HETATM    4  C8  UNL     1       1.437   0.586  -0.728  1.00  0.00     0.051 C 
HETATM    5  C9  UNL     1       0.032   0.837  -0.122  1.00  0.00     0.113 C 
ENDROOT
BRANCH   1   6
HETATM    6  N4  UNL     1      -1.947  -0.681  -0.118  1.00  0.00    -0.104 N 
HETATM    7  C1  UNL     1      -2.291  -0.834   1.167  1.00  0.00     0.688 A 
HETATM    8  N2  UNL     1      -3.550  -1.126   1.557  1.00  0.00    -0.141 N 
HETATM    9  C2  UNL     1      -4.516  -1.277   0.650  1.00  0.00     0.342 A 
ATOM     10  H2  UNL     1      -3.763  -1.232   2.549  1.00  0.00     0.189 HD
HETATM   11  O1  UNL     1      -5.695  -1.550   1.004  1.00  0.00    -0.246 OA
HETATM   12  N3  UNL     1      -4.223  -1.135  -0.651  1.00  0.00    -0.259 N 
HETATM   13  C3  UNL     1      -2.956  -0.842  -1.024  1.00  0.00     0.346 A 
ATOM     14  H3  UNL     1      -4.952  -1.247  -1.356  1.00  0.00     0.175 HD
HETATM   15  O2  UNL     1      -2.782  -0.731  -2.259  1.00  0.00    -0.246 OA
BRANCH   7  16
HETATM   16  N1  UNL     1      -1.389  -0.708   2.062  1.00  0.00    -0.234 N 
ATOM     17  H12 UNL     1      -1.651  -0.825   3.041  1.00  0.00     0.174 HD
ATOM     18  H11 UNL     1      -0.438  -0.487   1.767  1.00  0.00     0.174 HD
ENDBRANCH   7  16
ENDBRANCH   1   6
BRANCH   5  19
HETATM   19  C10 UNL     1      -0.406   2.121  -0.673  1.00  0.00     0.189 C 
HETATM   20  O6  UNL     1      -1.293   2.169  -1.493  1.00  0.00    -0.292 OA
BRANCH  19  21
HETATM   21  C11 UNL     1       0.215   3.403  -0.252  1.00  0.00     0.326 C 
BRANCH  21  22
HETATM   22  O7  UNL     1      -0.740   4.313   0.207  1.00  0.00    -0.365 OA
ATOM     23  H7  UNL     1      -0.343   5.133   0.476  1.00  0.00     0.213 HD
ENDBRANCH  21  22
BRANCH  21  24
HETATM   24  O8  UNL     1       1.222   3.200   0.697  1.00  0.00    -0.365 OA
ATOM     25  H8  UNL     1       1.619   4.020   0.966  1.00  0.00     0.213 HD
ENDBRANCH  21  24
ENDBRANCH  19  21
ENDBRANCH   5  19
BRANCH   3  26
HETATM   26  C6  UNL     1       2.621  -1.546  -0.149  1.00  0.00     0.312 C 
BRANCH  26  27
HETATM   27  N5  UNL     1       2.686  -1.248   1.242  1.00  0.00    -0.063 N 
ATOM     28  H53 UNL     1       2.684  -0.240   1.397  1.00  0.00     0.275 HD
ATOM     29  H52 UNL     1       1.811  -1.491   1.706  1.00  0.00     0.275 HD
ATOM     30  H51 UNL     1       3.479  -1.686   1.711  1.00  0.00     0.275 HD
ENDBRANCH  26  27
BRANCH  26  31
HETATM   31  C7  UNL     1       3.854  -0.975  -0.791  1.00  0.00     0.207 C 
HETATM   32  O4  UNL     1       4.075  -1.084  -2.026  1.00  0.00    -0.646 OA
HETATM   33  O5  UNL     1       4.817  -0.295  -0.051  1.00  0.00    -0.646 OA
ENDBRANCH  26  31
ENDBRANCH   3  26
TORSDOF 9
