REMARK  3 active torsions:
REMARK  status: ('A' for Active; 'I' for Inactive)
REMARK    1  A    between atoms: C9_13  and  C10_14 
REMARK    2  A    between atoms: C10_14  and  N2_15 
REMARK       I    between atoms: N2_15  and  C11_17 
REMARK    3  A    between atoms: C11_17  and  C12_19 
ROOT
HETATM    1  C12 UNL     1       3.834   0.028   0.152  1.00  0.00     0.103 A 
HETATM    2  C13 UNL     1       4.451   0.943  -0.662  1.00  0.00     0.061 A 
HETATM    3  C14 UNL     1       5.748   0.636  -1.104  1.00  0.00     0.061 A 
HETATM    4 CL1  UNL     1       6.570   1.777  -2.144  1.00  0.00    -0.082 Cl
HETATM    5  C15 UNL     1       6.336  -0.546  -0.712  1.00  0.00     0.093 A 
HETATM    6 CL2  UNL     1       7.963  -0.893  -1.288  1.00  0.00    -0.079 Cl
HETATM    7  C16 UNL     1       5.684  -1.447   0.111  1.00  0.00     0.138 A 
HETATM    8  C17 UNL     1       6.340  -2.676   0.499  1.00  0.00     0.119 C 
HETATM    9  N3  UNL     1       6.863  -3.675   0.793  1.00  0.00    -0.190 NA
HETATM   10  N4  UNL     1       4.460  -1.135   0.515  1.00  0.00    -0.342 N 
ATOM     11  H4  UNL     1       3.964  -1.788   1.121  1.00  0.00     0.167 HD
ENDROOT
BRANCH   1  12
HETATM   12  C11 UNL     1       2.493   0.286   0.644  1.00  0.00     0.268 C 
HETATM   13  N2  UNL     1       1.758   1.444   0.341  1.00  0.00    -0.353 N 
ATOM     14  H2  UNL     1       2.206   2.138  -0.258  1.00  0.00     0.162 HD
HETATM   15  O2  UNL     1       1.965  -0.605   1.396  1.00  0.00    -0.266 OA
BRANCH  13  16
HETATM   16  C10 UNL     1       0.428   1.734   0.803  1.00  0.00     0.159 C 
BRANCH  16  17
HETATM   17  C9  UNL     1      -0.562   0.733   0.367  1.00  0.00     0.168 C 
HETATM   18  C2  UNL     1      -0.854   0.708  -1.069  1.00  0.00    -0.056 C 
HETATM   19  C1  UNL     1      -0.218   1.267  -2.051  1.00  0.00     0.017 C 
HETATM   20  C3  UNL     1      -2.080  -0.119  -1.171  1.00  0.00     0.074 C 
HETATM   21  C4  UNL     1      -2.711   0.163   0.179  1.00  0.00     0.068 C 
HETATM   22  C5  UNL     1      -4.069   0.776   0.045  1.00  0.00     0.066 C 
HETATM   23  C8  UNL     1      -2.827  -1.074   1.030  1.00  0.00     0.066 C 
HETATM   24  O1  UNL     1      -1.857   1.042   0.858  1.00  0.00    -0.368 OA
HETATM   25  C6  UNL     1      -5.047  -0.223  -0.526  1.00  0.00     0.235 C 
HETATM   26  N1  UNL     1      -5.221  -1.257   0.488  1.00  0.00    -0.075 N 
HETATM   27  C7  UNL     1      -3.986  -1.942   0.686  1.00  0.00     0.235 C 
ATOM     28  H12 UNL     1      -5.598  -0.883   1.359  1.00  0.00     0.277 HD
ATOM     29  H11 UNL     1      -5.984  -1.895   0.261  1.00  0.00     0.277 HD
ENDBRANCH  16  17
ENDBRANCH  13  16
ENDBRANCH   1  12
TORSDOF 3
