REMARK  8 active torsions:
REMARK  status: ('A' for Active; 'I' for Inactive)
REMARK    1  A    between atoms: C3_3  and  C4_4 
REMARK    2  A    between atoms: C4_4  and  N1_6 
REMARK    3  A    between atoms: C4_4  and  C6_10 
REMARK    4  A    between atoms: C14_18  and  C15_19 
REMARK    5  A    between atoms: C15_19  and  C16_20 
REMARK    6  A    between atoms: C16_20  and  C18_22 
REMARK    7  A    between atoms: C18_22  and  C19_23 
REMARK    8  A    between atoms: C19_23  and  C20_24 
ROOT
HETATM    1  C1  UNL     1      -5.294   2.922   1.517  1.00  0.00     0.112 C 
HETATM    2  C2  UNL     1      -4.170   2.358   0.782  1.00  0.00    -0.108 C 
HETATM    3  C3  UNL     1      -3.253   1.877   0.164  1.00  0.00    -0.067 C 
ENDROOT
BRANCH   3   4
HETATM    4  C4  UNL     1      -2.126   1.262  -0.587  1.00  0.00     0.190 C 
HETATM    5  C5  UNL     1      -2.660   0.904  -1.919  1.00  0.00     0.061 C 
BRANCH   4   6
HETATM    6  N1  UNL     1      -1.146   2.307  -0.744  1.00  0.00    -0.059 N 
ATOM      7  H13 UNL     1      -1.515   3.152  -1.180  1.00  0.00     0.276 HD
ATOM      8  H12 UNL     1      -0.864   2.738   0.136  1.00  0.00     0.276 HD
ATOM      9  H11 UNL     1      -0.373   1.885  -1.259  1.00  0.00     0.276 HD
ENDBRANCH   4   6
BRANCH   4  10
HETATM   10  C6  UNL     1      -1.564   0.122   0.240  1.00  0.00     0.008 C 
HETATM   11  C7  UNL     1      -1.125   0.819   1.518  1.00  0.00     0.019 C 
HETATM   12  C8  UNL     1      -2.590  -0.888   0.616  1.00  0.00    -0.003 C 
HETATM   13  C9  UNL     1      -2.047  -1.708   1.780  1.00  0.00     0.006 C 
HETATM   14  C13 UNL     1      -2.884  -1.913  -0.454  1.00  0.00     0.006 C 
HETATM   15  C10 UNL     1      -0.765  -2.324   1.304  1.00  0.00     0.005 C 
HETATM   16  C11 UNL     1      -0.471  -2.041  -0.150  1.00  0.00    -0.010 C 
HETATM   17  C12 UNL     1      -1.626  -2.564  -0.964  1.00  0.00     0.005 C 
HETATM   18  C14 UNL     1      -0.385  -0.538  -0.413  1.00  0.00     0.002 C 
BRANCH  18  19
HETATM   19  C15 UNL     1       0.930  -0.079   0.109  1.00  0.00     0.010 C 
BRANCH  19  20
HETATM   20  C16 UNL     1       2.140  -0.694  -0.502  1.00  0.00    -0.018 C 
HETATM   21  C17 UNL     1       2.323  -0.506  -1.966  1.00  0.00     0.010 C 
BRANCH  20  22
HETATM   22  C18 UNL     1       3.331   0.008   0.187  1.00  0.00     0.004 C 
BRANCH  22  23
HETATM   23  C19 UNL     1       4.595  -0.559  -0.375  1.00  0.00     0.000 C 
BRANCH  23  24
HETATM   24  C20 UNL     1       5.806   0.068   0.241  1.00  0.00    -0.005 C 
HETATM   25  C21 UNL     1       5.852   1.548   0.012  1.00  0.00     0.005 C 
ENDBRANCH  23  24
ENDBRANCH  22  23
ENDBRANCH  20  22
ENDBRANCH  19  20
ENDBRANCH  18  19
ENDBRANCH   4  10
ENDBRANCH   3   4
TORSDOF 8
