REMARK  5 active torsions:
REMARK  status: ('A' for Active; 'I' for Inactive)
REMARK    1  A    between atoms: C1_2  and  C2_3 
REMARK       I    between atoms: C1_2  and  N1_12 
REMARK    2  A    between atoms: C2_3  and  C3_4 
REMARK    3  A    between atoms: C3_4  and  C4_5 
REMARK    4  A    between atoms: C4_5  and  C5_6 
REMARK    5  A    between atoms: N1_12  and  C11_14 
ROOT
HETATM    1  O1  UNL     1      -0.518   1.668   0.452  1.00  0.00    -0.274 OA
HETATM    2  C1  UNL     1      -0.306   0.666  -0.241  1.00  0.00     0.218 C 
HETATM    3  N1  UNL     1      -1.307  -0.285  -0.504  1.00  0.00    -0.351 N 
ATOM      4  H1  UNL     1      -1.010  -1.071  -1.082  1.00  0.00     0.163 HD
ENDROOT
BRANCH   3   5
HETATM    5  C11 UNL     1      -2.666  -0.326  -0.094  1.00  0.00     0.037 C 
HETATM    6  C12 UNL     1      -3.214  -1.672  -0.621  1.00  0.00     0.032 C 
HETATM    7  C13 UNL     1      -4.595  -1.944  -0.124  1.00  0.00     0.007 C 
HETATM    8  C14 UNL     1      -5.377  -0.626  -0.108  1.00  0.00    -0.014 C 
HETATM    9  C15 UNL     1      -5.365  -0.023   1.257  1.00  0.00     0.009 C 
HETATM   10  C19 UNL     1      -4.825   0.239  -1.193  1.00  0.00     0.011 C 
HETATM   11  C16 UNL     1      -4.053   0.688   1.553  1.00  0.00    -0.011 C 
HETATM   12  C17 UNL     1      -3.838   1.704   0.432  1.00  0.00     0.012 C 
HETATM   13  C20 UNL     1      -2.915  -0.259   1.369  1.00  0.00     0.036 C 
HETATM   14  C18 UNL     1      -3.464   0.802  -0.721  1.00  0.00     0.014 C 
ENDBRANCH   3   5
BRANCH   2  15
HETATM   15  C2  UNL     1       1.081   0.488  -0.806  1.00  0.00     0.103 C 
BRANCH  15  16
HETATM   16  C3  UNL     1       1.962   1.623  -0.390  1.00  0.00     0.010 C 
BRANCH  16  17
HETATM   17  C4  UNL     1       3.336   1.469  -0.943  1.00  0.00     0.005 C 
BRANCH  17  18
HETATM   18  C5  UNL     1       3.959   0.184  -0.444  1.00  0.00    -0.014 C 
HETATM   19  C6  UNL     1       5.351   0.129  -1.061  1.00  0.00     0.004 C 
HETATM   20  C7  UNL     1       6.004  -1.134  -0.531  1.00  0.00     0.000 C 
HETATM   21  C8  UNL     1       6.227  -0.909   0.956  1.00  0.00     0.000 C 
HETATM   22  C9  UNL     1       4.945  -0.708   1.690  1.00  0.00     0.000 C 
HETATM   23  C10 UNL     1       3.990   0.234   1.048  1.00  0.00     0.004 C 
ENDBRANCH  17  18
ENDBRANCH  16  17
ENDBRANCH  15  16
ENDBRANCH   2  15
TORSDOF 5
