REMARK  5 active torsions:
REMARK  status: ('A' for Active; 'I' for Inactive)
REMARK    1  A    between atoms: C2_2  and  C3_3 
REMARK    2  A    between atoms: C2_2  and  C7_9 
REMARK    3  A    between atoms: C3_3  and  C4_4 
REMARK    4  A    between atoms: C4_4  and  C5_5 
REMARK    5  A    between atoms: C5_5  and  O1_7 
ROOT
HETATM    1  C7  UNL     1       0.607   0.657  -1.043  1.00  0.00     0.022 C 
HETATM    2  C8  UNL     1       0.378   2.077  -0.579  1.00  0.00     0.010 C 
HETATM    3  C9  UNL     1      -1.159   2.049  -0.441  1.00  0.00     0.011 C 
HETATM    4  C10 UNL     1      -1.328   0.815   0.380  1.00  0.00    -0.032 C 
HETATM    5  C11 UNL     1      -0.820   1.272   1.773  1.00  0.00     0.016 C 
HETATM    6  C12 UNL     1      -0.351  -0.174  -0.168  1.00  0.00     0.025 C 
HETATM    7  C13 UNL     1      -0.786  -1.404  -0.793  1.00  0.00    -0.018 C 
HETATM    8  C14 UNL     1      -2.106  -1.668  -1.399  1.00  0.00    -0.083 C 
HETATM    9  C15 UNL     1      -3.114  -2.245  -0.427  1.00  0.00     0.034 C 
HETATM   10  C16 UNL     1      -4.280  -1.341  -0.129  1.00  0.00     0.014 C 
HETATM   11  C17 UNL     1      -3.685   0.072  -0.310  1.00  0.00    -0.035 A 
HETATM   12  C18 UNL     1      -3.678   0.281  -1.751  1.00  0.00     0.014 C 
HETATM   13  C19 UNL     1      -2.662  -0.674  -2.356  1.00  0.00     0.034 C 
HETATM   14  C20 UNL     1      -3.907   1.151   0.622  1.00  0.00     0.016 A 
HETATM   15  C21 UNL     1      -2.663   0.271   0.605  1.00  0.00     0.004 A 
ENDROOT
BRANCH   1  16
HETATM   16  C2  UNL     1       2.023   0.227  -0.920  1.00  0.00    -0.084 C 
HETATM   17  C1  UNL     1       2.673  -0.208  -1.989  1.00  0.00     0.014 C 
BRANCH  16  18
HETATM   18  C3  UNL     1       2.776   0.270   0.358  1.00  0.00     0.036 C 
BRANCH  18  19
HETATM   19  C4  UNL     1       4.215  -0.176   0.193  1.00  0.00     0.035 C 
BRANCH  19  20
HETATM   20  C5  UNL     1       4.844  -0.077   1.591  1.00  0.00     0.114 C 
HETATM   21  C6  UNL     1       6.286  -0.511   1.490  1.00  0.00     0.039 C 
BRANCH  20  22
HETATM   22  O1  UNL     1       4.201  -0.900   2.487  1.00  0.00    -0.396 OA
ATOM     23  H1  UNL     1       4.590  -0.839   3.352  1.00  0.00     0.210 HD
ENDBRANCH  20  22
ENDBRANCH  19  20
ENDBRANCH  18  19
ENDBRANCH  16  18
ENDBRANCH   1  16
TORSDOF 5
