REMARK  14 active torsions:
REMARK  status: ('A' for Active; 'I' for Inactive)
REMARK    1  A    between atoms: C2_2  and  C3_3 
REMARK    2  A    between atoms: C4_7  and  C5_8 
REMARK    3  A    between atoms: C5_8  and  C6_9 
REMARK    4  A    between atoms: C5_8  and  S2_11 
REMARK    5  A    between atoms: S2_11  and  C8_12 
REMARK    6  A    between atoms: C8_12  and  C9_13 
REMARK    7  A    between atoms: C9_13  and  O1_14 
REMARK    8  A    between atoms: C9_13  and  N2_16 
REMARK    9  A    between atoms: N2_16  and  C10_18 
REMARK   10  A    between atoms: C10_18  and  O2_19 
REMARK   11  A    between atoms: C10_18  and  N3_21 
REMARK   12  A    between atoms: N3_21  and  C11_23 
REMARK   13  A    between atoms: C13_28  and  N6_29 
REMARK   14  A    between atoms: C14_34  and  N8_35 
ROOT
HETATM    1  C10 UNL     1      -1.687   0.050   1.448  1.00  0.00     0.223 C 
ENDROOT
BRANCH   1   2
HETATM    2  N2  UNL     1      -0.395  -0.222   1.844  1.00  0.00    -0.306 N 
ATOM      3  H2  UNL     1      -0.111   0.341   2.646  1.00  0.00     0.171 HD
BRANCH   2   4
HETATM    4  C9  UNL     1       0.615  -1.077   1.417  1.00  0.00     0.127 C 
BRANCH   4   5
HETATM    5  C8  UNL     1       0.569  -2.007   0.285  1.00  0.00     0.158 C 
BRANCH   5   6
HETATM    6  S2  UNL     1       0.754  -1.315  -1.320  1.00  0.00    -0.149 SA
BRANCH   6   7
HETATM    7  C5  UNL     1       2.287  -0.616  -1.817  1.00  0.00     0.105 C 
BRANCH   7   8
HETATM    8  C4  UNL     1       2.695   0.658  -1.145  1.00  0.00     0.083 A 
HETATM    9  S1  UNL     1       2.257   2.277  -1.577  1.00  0.00     0.002 SA
HETATM   10  N1  UNL     1       3.134   3.091  -0.394  1.00  0.00    -0.315 N 
HETATM   11  C3  UNL     1       3.721   2.093   0.278  1.00  0.00     0.087 A 
ATOM     12  H1  UNL     1       3.202   4.095  -0.230  1.00  0.00     0.175 HD
HETATM   13  N9  UNL     1       3.490   0.881  -0.112  1.00  0.00    -0.341 N 
ATOM     14  H9  UNL     1       3.921   0.097   0.378  1.00  0.00     0.167 HD
BRANCH  11  15
HETATM   15  C2  UNL     1       4.620   2.450   1.454  1.00  0.00     0.072 C 
HETATM   16  C1  UNL     1       5.196   1.226   2.083  1.00  0.00     0.013 C 
ENDBRANCH  11  15
ENDBRANCH   7   8
BRANCH   7  17
HETATM   17  C6  UNL     1       3.457  -1.564  -1.794  1.00  0.00     0.017 C 
HETATM   18  C7  UNL     1       3.149  -2.877  -2.446  1.00  0.00     0.006 C 
ENDBRANCH   7  17
ENDBRANCH   6   7
ENDBRANCH   5   6
ENDBRANCH   4   5
BRANCH   4  19
HETATM   19  O1  UNL     1       1.743  -1.076   2.074  1.00  0.00    -0.349 OA
ATOM     20  H1  UNL     1       1.773  -0.473   2.808  1.00  0.00     0.219 HD
ENDBRANCH   4  19
ENDBRANCH   2   4
ENDBRANCH   1   2
BRANCH   1  21
HETATM   21  O2  UNL     1      -2.307   0.958   2.152  1.00  0.00    -0.332 OA
ATOM     22  H2  UNL     1      -3.197   1.145   1.879  1.00  0.00     0.221 HD
ENDBRANCH   1  21
BRANCH   1  23
HETATM   23  N3  UNL     1      -2.418  -0.496   0.422  1.00  0.00    -0.316 N 
ATOM     24  H3  UNL     1      -2.005  -1.216  -0.171  1.00  0.00     0.169 HD
BRANCH  23  25
HETATM   25  C11 UNL     1      -3.776  -0.050   0.180  1.00  0.00     0.122 A 
HETATM   26  C12 UNL     1      -3.984   0.995  -0.677  1.00  0.00     0.162 A 
HETATM   27  N4  UNL     1      -2.927   1.661  -1.341  1.00  0.00    -0.080 NA
HETATM   28  N5  UNL     1      -5.266   1.396  -0.891  1.00  0.00    -0.177 N 
HETATM   29  C13 UNL     1      -6.311   0.811  -0.300  1.00  0.00     0.678 A 
ATOM     30  H5  UNL     1      -5.436   2.174  -1.528  1.00  0.00     0.185 HD
HETATM   31  N7  UNL     1      -6.093  -0.214   0.540  1.00  0.00    -0.175 N 
HETATM   32  C14 UNL     1      -4.855  -0.643   0.782  1.00  0.00     0.145 A 
ATOM     33  H7  UNL     1      -6.883  -0.669   0.997  1.00  0.00     0.186 HD
BRANCH  29  34
HETATM   34  N6  UNL     1      -7.530   1.205  -0.515  1.00  0.00    -0.234 N 
ATOM     35  H62 UNL     1      -7.696   1.983  -1.153  1.00  0.00     0.174 HD
ATOM     36  H61 UNL     1      -8.328   0.758  -0.064  1.00  0.00     0.174 HD
ENDBRANCH  29  34
BRANCH  32  37
HETATM   37  N8  UNL     1      -4.632  -1.633   1.593  1.00  0.00    -0.383 N 
ATOM     38  H82 UNL     1      -3.684  -1.961   1.778  1.00  0.00     0.157 HD
ATOM     39  H81 UNL     1      -5.435  -2.074   2.041  1.00  0.00     0.157 HD
ENDBRANCH  32  37
ENDBRANCH  23  25
ENDBRANCH   1  23
TORSDOF 14
