REMARK  10 active torsions:
REMARK  status: ('A' for Active; 'I' for Inactive)
REMARK       I    between atoms: N1_2  and  C2_4 
REMARK    1  A    between atoms: C2_4  and  C3_6 
REMARK    2  A    between atoms: C6_9  and  N2_10 
REMARK    3  A    between atoms: N2_10  and  C7_12 
REMARK    4  A    between atoms: C8_15  and  O2_16 
REMARK    5  A    between atoms: O2_16  and  C9_17 
REMARK    6  A    between atoms: C9_17  and  N4_18 
REMARK    7  A    between atoms: C9_17  and  C13_25 
REMARK    8  A    between atoms: C10_20  and  N5_22 
REMARK    9  A    between atoms: C13_25  and  O3_26 
REMARK   10  A    between atoms: C16_34  and  O4_35 
ROOT
HETATM    1  C7  UNL     1       0.146  -0.725  -0.437  1.00  0.00     0.684 A 
HETATM    2  N3  UNL     1       1.462  -0.918  -0.224  1.00  0.00    -0.168 N 
ATOM      3  H3  UNL     1       1.985  -0.204   0.283  1.00  0.00     0.186 HD
HETATM    4  C8  UNL     1       2.115  -2.013  -0.652  1.00  0.00     0.183 A 
HETATM    5  C14 UNL     1       1.427  -3.002  -1.345  1.00  0.00     0.101 A 
HETATM    6 CL1  UNL     1       2.245  -4.451  -1.922  1.00  0.00    -0.078 Cl
HETATM    7  C15 UNL     1       0.081  -2.786  -1.553  1.00  0.00     0.134 A 
HETATM    8  N6  UNL     1      -0.520  -1.670  -1.102  1.00  0.00    -0.200 N 
ATOM      9  H6  UNL     1      -1.517  -1.542  -1.274  1.00  0.00     0.183 HD
ENDROOT
BRANCH   1  10
HETATM   10  N2  UNL     1      -0.392   0.355   0.010  1.00  0.00    -0.189 N 
ATOM     11  H2  UNL     1       0.221   1.004   0.503  1.00  0.00     0.184 HD
BRANCH  10  12
HETATM   12  C6  UNL     1      -1.720   0.724  -0.112  1.00  0.00     0.082 A 
HETATM   13  C5  UNL     1      -2.110   1.675  -1.022  1.00  0.00     0.034 A 
HETATM   14  C4  UNL     1      -3.404   2.080  -1.188  1.00  0.00     0.019 A 
HETATM   15  C3  UNL     1      -4.391   1.499  -0.392  1.00  0.00     0.034 A 
HETATM   16  C18 UNL     1      -4.039   0.547   0.527  1.00  0.00     0.056 A 
HETATM   17  C16 UNL     1      -2.707   0.166   0.662  1.00  0.00     0.096 A 
BRANCH  15  18
HETATM   18  C2  UNL     1      -5.777   1.895  -0.523  1.00  0.00     0.251 C 
HETATM   19  N1  UNL     1      -6.801   1.205   0.136  1.00  0.00    -0.361 N 
HETATM   20  C1  UNL     1      -8.179   1.668  -0.048  1.00  0.00     0.149 C 
ATOM     21  H1  UNL     1      -6.594   0.401   0.729  1.00  0.00     0.162 HD
HETATM   22  O1  UNL     1      -6.054   2.879  -1.247  1.00  0.00    -0.268 OA
ENDBRANCH  15  18
BRANCH  17  23
HETATM   23  O4  UNL     1      -2.376  -0.789   1.588  1.00  0.00    -0.354 OA
HETATM   24  C17 UNL     1      -3.367  -1.384   2.401  1.00  0.00     0.210 C 
ENDBRANCH  17  23
ENDBRANCH  10  12
ENDBRANCH   1  10
BRANCH   4  25
HETATM   25  O2  UNL     1       3.452  -2.211  -0.436  1.00  0.00    -0.302 OA
BRANCH  25  26
HETATM   26  C9  UNL     1       4.306  -1.326   0.242  1.00  0.00     0.290 C 
BRANCH  26  27
HETATM   27  N4  UNL     1       5.400  -0.875  -0.573  1.00  0.00    -0.349 N 
HETATM   28  C10 UNL     1       5.911   0.282  -0.480  1.00  0.00     0.070 C 
HETATM   29  C11 UNL     1       7.053   0.602  -1.406  1.00  0.00     0.088 C 
ATOM     30  H4  UNL     1       5.786  -1.519  -1.263  1.00  0.00     0.163 HD
BRANCH  28  31
HETATM   31  N5  UNL     1       5.512   1.298   0.408  1.00  0.00    -0.385 N 
HETATM   32  C12 UNL     1       4.383   2.175   0.192  1.00  0.00     0.147 C 
ATOM     33  H5  UNL     1       6.056   1.424   1.262  1.00  0.00     0.160 HD
ENDBRANCH  28  31
ENDBRANCH  26  27
BRANCH  26  34
HETATM   34  C13 UNL     1       4.780  -2.031   1.499  1.00  0.00     0.354 C 
HETATM   35  F1  UNL     1       3.638  -2.259   2.271  1.00  0.00    -0.215 F 
BRANCH  34  36
HETATM   36  O3  UNL     1       5.633  -1.260   2.260  1.00  0.00    -0.364 OA
ATOM     37  H3  UNL     1       5.930  -1.701   3.047  1.00  0.00     0.213 HD
ENDBRANCH  34  36
ENDBRANCH  26  34
ENDBRANCH  25  26
ENDBRANCH   4  25
TORSDOF 10
