REMARK  8 active torsions:
REMARK  status: ('A' for Active; 'I' for Inactive)
REMARK    1  A    between atoms: C1_4  and  N2_5 
REMARK    2  A    between atoms: C1_4  and  C8_18 
REMARK    3  A    between atoms: N3_7  and  C2_9 
REMARK    4  A    between atoms: C5_12  and  N4_13 
REMARK    5  A    between atoms: C12_22  and  N5_23 
REMARK    6  A    between atoms: N5_23  and  N6_25 
REMARK    7  A    between atoms: N6_25  and  C13_27 
REMARK    8  A    between atoms: C16_30  and  N7_31 
ROOT
HETATM    1  C8  UNL     1      -0.509  -0.164  -0.824  1.00  0.00     0.079 A 
HETATM    2  C9  UNL     1      -1.136   0.680  -1.707  1.00  0.00     0.033 A 
HETATM    3  C10 UNL     1      -0.450   1.227  -2.799  1.00  0.00     0.006 A 
HETATM    4  C11 UNL     1       0.874   0.877  -2.940  1.00  0.00     0.050 A 
HETATM    5  C12 UNL     1       1.498   0.021  -2.038  1.00  0.00     0.120 A 
HETATM    6  N8  UNL     1       0.810  -0.480  -1.010  1.00  0.00    -0.338 N 
ATOM      7  H8  UNL     1       1.274  -1.108  -0.353  1.00  0.00     0.167 HD
ENDROOT
BRANCH   1   8
HETATM    8  C1  UNL     1      -1.227  -0.729   0.294  1.00  0.00     0.140 C 
HETATM    9  N1  UNL     1      -0.538  -1.541   1.083  1.00  0.00    -0.383 N 
ATOM     10  H12 UNL     1      -1.045  -1.940   1.873  1.00  0.00     0.157 HD
ATOM     11  H11 UNL     1       0.427  -1.698   0.793  1.00  0.00     0.157 HD
BRANCH   8  12
HETATM   12  N2  UNL     1      -2.534  -0.516   0.686  1.00  0.00    -0.284 N 
HETATM   13  N3  UNL     1      -3.551  -0.575  -0.015  1.00  0.00    -0.299 N 
ATOM     14  H3  UNL     1      -3.467  -0.802  -1.006  1.00  0.00     0.187 HD
ATOM     15  H2  UNL     1      -2.677  -0.283   1.669  1.00  0.00     0.188 HD
BRANCH  13  16
HETATM   16  C2  UNL     1      -4.855  -0.326   0.552  1.00  0.00     0.048 A 
HETATM   17  C3  UNL     1      -5.320  -1.012   1.636  1.00  0.00     0.033 A 
HETATM   18  C4  UNL     1      -6.562  -0.705   2.157  1.00  0.00     0.038 A 
HETATM   19  C5  UNL     1      -7.345   0.301   1.584  1.00  0.00     0.103 A 
HETATM   20  C6  UNL     1      -6.856   0.974   0.497  1.00  0.00     0.038 A 
HETATM   21  C7  UNL     1      -5.610   0.664  -0.024  1.00  0.00     0.033 A 
BRANCH  19  22
HETATM   22  N4  UNL     1      -8.623   0.624   2.111  1.00  0.00    -0.116 N 
HETATM   23  O1  UNL     1      -9.325   1.508   1.625  1.00  0.00    -0.532 OA
HETATM   24  O2  UNL     1      -9.100  -0.074   3.221  1.00  0.00    -0.532 OA
ENDBRANCH  19  22
ENDBRANCH  13  16
ENDBRANCH   8  12
ENDBRANCH   1   8
BRANCH   5  25
HETATM   25  N5  UNL     1       2.894  -0.249  -2.273  1.00  0.00    -0.285 N 
ATOM     26  H5  UNL     1       3.189  -1.094  -2.762  1.00  0.00     0.188 HD
BRANCH  25  27
HETATM   27  N6  UNL     1       3.847   0.693  -1.806  1.00  0.00    -0.299 N 
ATOM     28  H6  UNL     1       3.821   1.643  -2.176  1.00  0.00     0.187 HD
BRANCH  27  29
HETATM   29  C13 UNL     1       4.833   0.362  -0.844  1.00  0.00     0.048 A 
HETATM   30  C14 UNL     1       4.540   0.403   0.510  1.00  0.00     0.033 A 
HETATM   31  C15 UNL     1       5.498   0.099   1.458  1.00  0.00     0.038 A 
HETATM   32  C16 UNL     1       6.784  -0.258   1.118  1.00  0.00     0.103 A 
HETATM   33  C17 UNL     1       7.080  -0.300  -0.236  1.00  0.00     0.038 A 
HETATM   34  C18 UNL     1       6.121   0.004  -1.182  1.00  0.00     0.033 A 
BRANCH  32  35
HETATM   35  N7  UNL     1       7.766  -0.564   2.102  1.00  0.00    -0.116 N 
HETATM   36  O3  UNL     1       7.423  -0.513   3.298  1.00  0.00    -0.532 OA
HETATM   37  O4  UNL     1       9.056  -0.914   1.800  1.00  0.00    -0.532 OA
ENDBRANCH  32  35
ENDBRANCH  27  29
ENDBRANCH  25  27
ENDBRANCH   5  25
TORSDOF 8
