REMARK  10 active torsions:
REMARK  status: ('A' for Active; 'I' for Inactive)
REMARK    1  A    between atoms: C4_5  and  N2_6 
REMARK    2  A    between atoms: N2_6  and  C5_8 
REMARK    3  A    between atoms: C5_8  and  O1_9 
REMARK    4  A    between atoms: C5_8  and  C6_11 
REMARK    5  A    between atoms: N4_15  and  C8_16 
REMARK    6  A    between atoms: N5_18  and  C10_19 
REMARK    7  A    between atoms: C10_19  and  C11_20 
REMARK    8  A    between atoms: C17_26  and  O2_27 
REMARK    9  A    between atoms: C18_29  and  N6_30 
REMARK   10  A    between atoms: N6_30  and  O3_32 
ROOT
HETATM    1  C8  UNL     1      -0.590   1.291  -0.105  1.00  0.00     0.104 A 
HETATM    2  C9  UNL     1      -1.191   0.253  -0.772  1.00  0.00     0.127 A 
HETATM    3  N5  UNL     1      -2.383   0.636  -1.308  1.00  0.00    -0.333 N 
HETATM    4  C17 UNL     1      -2.523   1.928  -0.970  1.00  0.00     0.174 A 
HETATM    5  C18 UNL     1      -1.446   2.370  -0.232  1.00  0.00     0.135 A 
ENDROOT
BRANCH   1   6
HETATM    6  N4  UNL     1       0.656   1.311   0.591  1.00  0.00    -0.264 N 
HETATM    7  N3  UNL     1       1.002   0.741   1.712  1.00  0.00    -0.305 N 
HETATM    8  C7  UNL     1       2.276   1.007   2.030  1.00  0.00     0.120 A 
ATOM      9  H3  UNL     1       0.379   0.164   2.277  1.00  0.00     0.186 HD
HETATM   10  C6  UNL     1       2.772   1.808   1.030  1.00  0.00     0.024 A 
HETATM   11  C19 UNL     1       1.724   1.987   0.128  1.00  0.00     0.129 A 
BRANCH  10  12
HETATM   12  C5  UNL     1       4.145   2.385   0.910  1.00  0.00     0.255 C 
BRANCH  12  13
HETATM   13  N2  UNL     1       5.157   1.429   1.216  1.00  0.00    -0.359 N 
ATOM     14  H2  UNL     1       5.713   1.570   2.060  1.00  0.00     0.162 HD
BRANCH  13  15
HETATM   15  C4  UNL     1       5.432   0.305   0.423  1.00  0.00     0.047 A 
HETATM   16  C3  UNL     1       4.825  -0.075  -0.762  1.00  0.00     0.048 A 
HETATM   17  C2  UNL     1       5.407  -1.249  -1.202  1.00  0.00     0.092 A 
HETATM   18  N1  UNL     1       6.346  -1.599  -0.332  1.00  0.00    -0.368 N 
HETATM   19  C1  UNL     1       7.207  -2.783  -0.418  1.00  0.00     0.154 C 
HETATM   20  C20 UNL     1       6.382  -0.691   0.646  1.00  0.00     0.119 A 
ENDBRANCH  13  15
ENDBRANCH  12  13
BRANCH  12  21
HETATM   21  O1  UNL     1       4.303   3.013  -0.312  1.00  0.00    -0.372 OA
ATOM     22  H1  UNL     1       3.629   3.650  -0.516  1.00  0.00     0.212 HD
ENDBRANCH  12  21
ENDBRANCH  10  12
ENDBRANCH   1   6
BRANCH   5  23
HETATM   23  N6  UNL     1      -1.200   3.660   0.320  1.00  0.00    -0.263 N 
ATOM     24  H6  UNL     1      -0.940   4.416  -0.314  1.00  0.00     0.194 HD
BRANCH  23  25
HETATM   25  O3  UNL     1      -1.286   3.913   1.535  1.00  0.00    -0.289 OA
ATOM     26  H3  UNL     1      -1.122   4.773   1.903  1.00  0.00     0.244 HD
ENDBRANCH  23  25
ENDBRANCH   5  23
BRANCH   3  27
HETATM   27  C10 UNL     1      -3.270  -0.218  -2.072  1.00  0.00     0.135 C 
BRANCH  27  28
HETATM   28  C11 UNL     1      -4.274  -0.951  -1.220  1.00  0.00     0.004 C 
HETATM   29  C12 UNL     1      -5.187  -0.069  -0.435  1.00  0.00     0.006 C 
HETATM   30  C13 UNL     1      -6.344  -0.955   0.048  1.00  0.00     0.000 C 
HETATM   31  C14 UNL     1      -5.820  -2.053   0.911  1.00  0.00     0.000 C 
HETATM   32  C15 UNL     1      -4.703  -2.835   0.262  1.00  0.00     0.000 C 
HETATM   33  C16 UNL     1      -3.616  -1.926  -0.272  1.00  0.00     0.006 C 
ENDBRANCH  27  28
ENDBRANCH   3  27
BRANCH   4  34
HETATM   34  O2  UNL     1      -3.615   2.704  -1.325  1.00  0.00    -0.344 OA
ATOM     35  H2  UNL     1      -3.714   3.618  -1.086  1.00  0.00     0.219 HD
ENDBRANCH   4  34
TORSDOF 10
