REMARK  14 active torsions:
REMARK  status: ('A' for Active; 'I' for Inactive)
REMARK    1  A    between atoms: C2_2  and  C3_3 
REMARK    2  A    between atoms: C3_3  and  C5_5 
REMARK       I    between atoms: C5_5  and  N1_7 
REMARK    3  A    between atoms: C9_12  and  C10_13 
REMARK    4  A    between atoms: C10_13  and  C11_14 
REMARK    5  A    between atoms: C11_14  and  C12_15 
REMARK    6  A    between atoms: C12_15  and  C13_16 
REMARK    7  A    between atoms: C13_16  and  C14_17 
REMARK    8  A    between atoms: C15_20  and  C16_21 
REMARK    9  A    between atoms: C16_21  and  C17_22 
REMARK   10  A    between atoms: C17_22  and  O2_23 
REMARK       I    between atoms: N4_28  and  C20_30 
REMARK   11  A    between atoms: C20_30  and  C21_32 
REMARK   12  A    between atoms: C21_32  and  N5_33 
REMARK       I    between atoms: N5_33  and  C22_35 
REMARK   13  A    between atoms: C22_35  and  O5_37 
REMARK   14  A    between atoms: O5_37  and  C23_38 
ROOT
HETATM    1  C14 UNL     1       0.140  -2.641  -0.953  1.00  0.00     0.055 A 
HETATM    2  N2  UNL     1      -0.907  -3.413  -0.626  1.00  0.00    -0.343 N 
ATOM      3  H2  UNL     1      -0.765  -4.422  -0.661  1.00  0.00     0.167 HD
HETATM    4  C15 UNL     1      -2.108  -2.990  -0.262  1.00  0.00     0.085 A 
HETATM    5  N3  UNL     1      -2.513  -1.718  -0.150  1.00  0.00    -0.326 N 
ATOM      6  H3  UNL     1      -3.478  -1.571   0.144  1.00  0.00     0.169 HD
HETATM    7  C19 UNL     1      -1.790  -0.629  -0.382  1.00  0.00     0.154 A 
HETATM    8  N4  UNL     1      -2.220   0.582  -0.264  1.00  0.00    -0.306 N 
ATOM      9  H4  UNL     1      -1.614   1.379  -0.458  1.00  0.00     0.171 HD
HETATM   10  C20 UNL     1      -3.560   0.765   0.143  1.00  0.00     0.241 C 
HETATM   11  O3  UNL     1      -3.799   1.181   1.288  1.00  0.00    -0.271 OA
HETATM   12  S1  UNL     1      -0.174  -0.972  -0.874  1.00  0.00    -0.041 SA
ENDROOT
BRANCH   1  13
HETATM   13  C13 UNL     1       1.437  -3.242  -1.347  1.00  0.00     0.065 C 
BRANCH  13  14
HETATM   14  C12 UNL     1       2.243  -3.413  -0.087  1.00  0.00     0.007 C 
BRANCH  14  15
HETATM   15  C11 UNL     1       3.596  -4.003  -0.294  1.00  0.00     0.006 C 
BRANCH  15  16
HETATM   16  C10 UNL     1       4.521  -3.210  -1.147  1.00  0.00     0.058 C 
BRANCH  16  17
HETATM   17  C9  UNL     1       4.862  -1.877  -0.653  1.00  0.00     0.026 A 
HETATM   18  C8  UNL     1       5.962  -1.662   0.188  1.00  0.00     0.030 A 
HETATM   19  C7  UNL     1       6.185  -0.361   0.586  1.00  0.00     0.052 A 
HETATM   20  C6  UNL     1       5.402   0.710   0.208  1.00  0.00     0.122 A 
HETATM   21  N1  UNL     1       5.621   1.925   0.588  1.00  0.00    -0.312 N 
HETATM   22  N7  UNL     1       4.359   0.406  -0.607  1.00  0.00    -0.285 N 
HETATM   23  C5  UNL     1       6.732   2.160   1.440  1.00  0.00     0.227 C 
ATOM     24  H1  UNL     1       5.017   2.689   0.286  1.00  0.00     0.170 HD
HETATM   25  O1  UNL     1       6.649   1.780   2.647  1.00  0.00    -0.273 OA
HETATM   26  N6  UNL     1       4.120  -0.820  -1.003  1.00  0.00    -0.303 N 
ATOM     27  H7  UNL     1       3.742   1.156  -0.921  1.00  0.00     0.188 HD
ATOM     28  H6  UNL     1       3.320  -0.978  -1.615  1.00  0.00     0.186 HD
BRANCH  23  29
HETATM   29  C3  UNL     1       7.971   2.830   0.964  1.00  0.00     0.074 C 
HETATM   30  C4  UNL     1       8.596   2.122  -0.213  1.00  0.00     0.020 C 
BRANCH  29  31
HETATM   31  C2  UNL     1       7.571   4.211   0.490  1.00  0.00     0.009 C 
HETATM   32  C1  UNL     1       8.818   4.925   0.018  1.00  0.00     0.006 C 
ENDBRANCH  29  31
ENDBRANCH  23  29
ENDBRANCH  16  17
ENDBRANCH  15  16
ENDBRANCH  14  15
ENDBRANCH  13  14
ENDBRANCH   1  13
BRANCH   4  33
HETATM   33  C16 UNL     1      -3.123  -4.076   0.061  1.00  0.00     0.102 C 
BRANCH  33  34
HETATM   34  C17 UNL     1      -3.804  -4.366  -1.246  1.00  0.00     0.174 C 
BRANCH  34  35
HETATM   35  O2  UNL     1      -4.785  -5.316  -1.149  1.00  0.00    -0.396 OA
HETATM   36  C18 UNL     1      -4.289  -6.520  -0.718  1.00  0.00     0.201 C 
ENDBRANCH  34  35
ENDBRANCH  33  34
ENDBRANCH   4  33
BRANCH  10  37
HETATM   37  C21 UNL     1      -4.649   0.459  -0.796  1.00  0.00     0.227 C 
BRANCH  37  38
HETATM   38  N5  UNL     1      -5.962   0.707  -0.265  1.00  0.00    -0.328 N 
HETATM   39  C22 UNL     1      -6.338   2.012   0.111  1.00  0.00     0.361 C 
HETATM   40  O4  UNL     1      -5.547   2.955  -0.017  1.00  0.00    -0.238 OA
ATOM     41  H5  UNL     1      -6.623  -0.063  -0.160  1.00  0.00     0.165 HD
BRANCH  39  42
HETATM   42  O5  UNL     1      -7.585   2.325   0.637  1.00  0.00    -0.294 OA
BRANCH  42  43
HETATM   43  C23 UNL     1      -8.005   3.584   1.022  1.00  0.00     0.061 C 
HETATM   44  C24 UNL     1      -9.442   3.456   1.540  1.00  0.00     0.046 C 
HETATM   45  C25 UNL     1      -7.205   4.215   2.126  1.00  0.00     0.046 C 
HETATM   46  C26 UNL     1      -8.070   4.584  -0.125  1.00  0.00     0.046 C 
ENDBRANCH  42  43
ENDBRANCH  39  42
ENDBRANCH  37  38
ENDBRANCH  10  37
TORSDOF 14
