REMARK  6 active torsions:
REMARK  status: ('A' for Active; 'I' for Inactive)
REMARK    1  A    between atoms: C1_4  and  N2_5 
REMARK    2  A    between atoms: N2_5  and  C2_7 
REMARK    3  A    between atoms: C2_7  and  C3_8 
REMARK    4  A    between atoms: C3_8  and  N3_9 
REMARK    5  A    between atoms: C4_11  and  N4_12 
REMARK    6  A    between atoms: N4_12  and  N5_14 
ROOT
HETATM    1  N3  UNL     1       0.998   0.155   0.243  1.00  0.00    -0.383 N 
ATOM      2  H3  UNL     1       0.584   1.005   0.626  1.00  0.00     0.160 HD
HETATM    3  C4  UNL     1       1.259  -0.813   1.000  1.00  0.00     0.196 C 
ENDROOT
BRANCH   1   4
HETATM    4  C3  UNL     1       1.280   0.067  -1.148  1.00  0.00     0.140 C 
BRANCH   4   5
HETATM    5  C2  UNL     1       0.095  -0.369  -1.970  1.00  0.00     0.140 C 
BRANCH   5   6
HETATM    6  N2  UNL     1      -1.025   0.502  -1.877  1.00  0.00    -0.385 N 
ATOM      7  H2  UNL     1      -0.967   1.348  -1.309  1.00  0.00     0.160 HD
BRANCH   6   8
HETATM    8  C1  UNL     1      -2.214   0.198  -2.568  1.00  0.00     0.168 C 
HETATM    9  N1  UNL     1      -2.179  -0.486  -3.643  1.00  0.00    -0.396 N 
ATOM     10  H12 UNL     1      -1.276  -0.808  -3.992  1.00  0.00     0.156 HD
ATOM     11  H11 UNL     1      -3.040  -0.706  -4.143  1.00  0.00     0.156 HD
ENDBRANCH   6   8
ENDBRANCH   5   6
ENDBRANCH   4   5
ENDBRANCH   1   4
BRANCH   3  12
HETATM   12  N4  UNL     1       0.984  -0.739   2.387  1.00  0.00    -0.260 N 
ATOM     13  H4  UNL     1       1.489  -1.267   3.098  1.00  0.00     0.191 HD
BRANCH  12  14
HETATM   14  N5  UNL     1      -0.068   0.149   2.667  1.00  0.00    -0.085 N 
HETATM   15  N6  UNL     1      -1.302   0.373   2.268  1.00  0.00    -0.149 N 
HETATM   16  O1  UNL     1      -1.396   1.362   3.105  1.00  0.00    -0.121 OA
ATOM     17  H6  UNL     1      -1.927  -0.054   1.584  1.00  0.00     0.221 HD
HETATM   18  N7  UNL     1      -0.193   1.170   3.518  1.00  0.00     0.090 NA
ENDBRANCH  12  14
ENDBRANCH   3  12
TORSDOF 6
