REMARK  5 active torsions:
REMARK  status: ('A' for Active; 'I' for Inactive)
REMARK    1  A    between atoms: C2_2  and  N1_5 
REMARK       I    between atoms: N1_5  and  C5_7 
REMARK    2  A    between atoms: C5_7  and  C6_9 
REMARK    3  A    between atoms: N2_10  and  C7_11 
REMARK    4  A    between atoms: C7_11  and  C8_12 
REMARK    5  A    between atoms: C7_11  and  C9_17 
ROOT
HETATM    1  C6  UNL     1      -0.514  -0.593   0.329  1.00  0.00     0.212 C 
HETATM    2  N2  UNL     1      -1.417   0.137  -0.575  1.00  0.00    -0.301 N 
HETATM    3  C10 UNL     1      -0.974  -0.294  -1.862  1.00  0.00     0.176 C 
HETATM    4  S1  UNL     1      -0.897   0.546  -3.260  1.00  0.00    -0.041 SA
HETATM    5  N6  UNL     1      -0.565  -1.675  -1.691  1.00  0.00    -0.356 N 
ATOM      6  H6  UNL     1      -0.222  -2.302  -2.418  1.00  0.00     0.162 HD
HETATM    7  C11 UNL     1      -0.738  -1.991  -0.288  1.00  0.00     0.054 C 
HETATM    8  C12 UNL     1      -2.149  -2.382   0.069  1.00  0.00     0.041 C 
HETATM    9  C13 UNL     1       0.197  -3.016   0.236  1.00  0.00     0.041 C 
ENDROOT
BRANCH   2  10
HETATM   10  C7  UNL     1      -2.471   1.037  -0.292  1.00  0.00     0.144 C 
BRANCH  10  11
HETATM   11  C8  UNL     1      -2.170   2.361   0.214  1.00  0.00     0.142 C 
HETATM   12  N3  UNL     1      -1.002   2.795   0.447  1.00  0.00    -0.386 N 
ATOM     13  H32 UNL     1      -0.235   2.152   0.251  1.00  0.00     0.157 HD
ATOM     14  H31 UNL     1      -0.790   3.727   0.803  1.00  0.00     0.157 HD
HETATM   15  N4  UNL     1      -3.239   3.258   0.487  1.00  0.00    -0.081 NA
ENDBRANCH  10  11
BRANCH  10  16
HETATM   16  C9  UNL     1      -3.545   0.998  -1.306  1.00  0.00     0.285 C 
HETATM   17  N5  UNL     1      -4.546   2.019  -1.305  1.00  0.00    -0.056 NA
HETATM   18  O2  UNL     1      -3.661   0.124  -2.193  1.00  0.00    -0.269 OA
ENDBRANCH  10  16
ENDBRANCH   2  10
BRANCH   1  19
HETATM   19  C5  UNL     1       0.856  -0.154   0.111  1.00  0.00     0.244 C 
HETATM   20  N1  UNL     1       1.939  -0.455   0.982  1.00  0.00    -0.351 N 
ATOM     21  H1  UNL     1       1.748  -1.014   1.814  1.00  0.00     0.163 HD
HETATM   22  O1  UNL     1       1.151   0.534  -0.890  1.00  0.00    -0.271 OA
BRANCH  20  23
HETATM   23  C2  UNL     1       3.288  -0.014   0.753  1.00  0.00     0.022 C 
HETATM   24  C1  UNL     1       4.217  -0.500   1.860  1.00  0.00     0.037 C 
HETATM   25  C3  UNL     1       3.386   1.505   0.712  1.00  0.00     0.037 C 
HETATM   26  C4  UNL     1       3.864  -0.538  -0.536  1.00  0.00     0.037 C 
ENDBRANCH  20  23
ENDBRANCH   1  19
TORSDOF 5
