REMARK  6 active torsions:
REMARK  status: ('A' for Active; 'I' for Inactive)
REMARK    1  A    between atoms: O1_1  and  C1_3 
REMARK    2  A    between atoms: C1_3  and  C2_4 
REMARK    3  A    between atoms: C5_7  and  O2_8 
REMARK    4  A    between atoms: C6_10  and  C7_11 
REMARK    5  A    between atoms: C8_12  and  C9_13 
REMARK    6  A    between atoms: C9_13  and  O3_14 
ROOT
HETATM    1  C2  UNL     1      -2.605  -0.269  -0.124  1.00  0.00     0.027 C 
HETATM    2  C3  UNL     1      -3.871   0.297   0.501  1.00  0.00     0.010 C 
HETATM    3  C4  UNL     1      -3.502   1.736   0.691  1.00  0.00     0.033 C 
HETATM    4  C5  UNL     1      -1.988   1.817   0.680  1.00  0.00     0.134 C 
HETATM    5  C6  UNL     1      -1.573   0.373   0.790  1.00  0.00     0.100 C 
ENDROOT
BRANCH   5   6
HETATM    6  C7  UNL     1      -0.222   0.212   0.317  1.00  0.00    -0.096 C 
HETATM    7  C8  UNL     1       0.910   0.071  -0.057  1.00  0.00    -0.068 C 
BRANCH   7   8
HETATM    8  C9  UNL     1       2.295  -0.111  -0.491  1.00  0.00     0.121 C 
HETATM    9  C10 UNL     1       2.887  -1.400   0.098  1.00  0.00     0.051 C 
HETATM   10  C11 UNL     1       4.337  -1.197  -0.363  1.00  0.00     0.004 C 
HETATM   11  C12 UNL     1       4.586   0.223   0.031  1.00  0.00     0.004 C 
HETATM   12  C13 UNL     1       3.228   0.902   0.132  1.00  0.00     0.051 C 
BRANCH   8  13
HETATM   13  O3  UNL     1       2.431  -0.199  -1.853  1.00  0.00    -0.378 OA
ATOM     14  H3  UNL     1       3.330  -0.317  -2.135  1.00  0.00     0.211 HD
ENDBRANCH   8  13
ENDBRANCH   7   8
ENDBRANCH   5   6
BRANCH   1  15
HETATM   15  C1  UNL     1      -2.565  -1.768  -0.060  1.00  0.00     0.170 C 
BRANCH  15  16
HETATM   16  O1  UNL     1      -3.677  -2.245  -0.758  1.00  0.00    -0.400 OA
ATOM     17  H1  UNL     1      -3.652  -3.194  -0.717  1.00  0.00     0.209 HD
ENDBRANCH  15  16
ENDBRANCH   1  15
BRANCH   4  18
HETATM   18  O2  UNL     1      -1.581   2.355  -0.562  1.00  0.00    -0.394 OA
ATOM     19  H2  UNL     1      -0.632   2.406  -0.569  1.00  0.00     0.210 HD
ENDBRANCH   4  18
TORSDOF 6
