REMARK  0 active torsions:
REMARK  status: ('A' for Active; 'I' for Inactive)
ROOT
HETATM    1  C1  UNL     1      -1.362  -0.843   1.311  1.00  0.00     0.051 C 
HETATM    2  C2  UNL     1      -0.768  -0.137   0.088  1.00  0.00     0.077 C 
HETATM    3  C3  UNL     1      -1.869   0.566  -0.656  1.00  0.00     0.051 C 
HETATM    4  N1  UNL     1       0.226   0.788   0.531  1.00  0.00    -0.404 N 
ATOM      5  H1  UNL     1       0.056   1.453   1.286  1.00  0.00     0.154 HD
HETATM    6  C4  UNL     1       1.473   0.715  -0.158  1.00  0.00     0.126 C 
HETATM    7  C5  UNL     1       2.440  -0.271   0.513  1.00  0.00     0.105 C 
HETATM    8  S1  UNL     1       1.850  -1.921  -0.044  1.00  0.00    -0.093 SA
HETATM    9  S2  UNL     1      -0.056  -1.469  -0.946  1.00  0.00    -0.067 SA
ENDROOT
TORSDOF 0
