REMARK  1 active torsions:
REMARK  status: ('A' for Active; 'I' for Inactive)
REMARK    1  A    between atoms: O1_1  and  N1_3 
ROOT
HETATM    1  N1  UNL     1       1.822  -0.438  -0.291  1.00  0.00    -0.200 NA
HETATM    2  C1  UNL     1       1.383   0.883  -0.027  1.00  0.00     0.120 C 
HETATM    3  C2  UNL     1       0.160   1.273  -0.826  1.00  0.00     0.017 C 
HETATM    4  C3  UNL     1      -0.970   1.462   0.137  1.00  0.00     0.001 C 
HETATM    5  C4  UNL     1      -2.021   0.425   0.027  1.00  0.00     0.000 C 
HETATM    6  C5  UNL     1      -1.558  -0.980   0.068  1.00  0.00     0.001 C 
HETATM    7  C6  UNL     1      -0.257  -1.196   0.791  1.00  0.00     0.017 C 
HETATM    8  C7  UNL     1       0.871  -1.470  -0.155  1.00  0.00     0.120 C 
ENDROOT
BRANCH   1   9
HETATM    9  O1  UNL     1       2.989  -0.647   0.358  1.00  0.00    -0.313 OA
ATOM     10  H1  UNL     1       3.283  -1.533   0.181  1.00  0.00     0.237 HD
ENDBRANCH   1   9
TORSDOF 1
