REMARK  4 active torsions:
REMARK  status: ('A' for Active; 'I' for Inactive)
REMARK    1  A    between atoms: C3_5  and  O1_6 
REMARK    2  A    between atoms: C4_8  and  C5_9 
REMARK    3  A    between atoms: C11_18  and  N3_19 
REMARK    4  A    between atoms: N3_19  and  O2_21 
ROOT
HETATM    1  C1  UNL     1       4.221   1.096  -0.415  1.00  0.00     0.070 C 
HETATM    2  C2  UNL     1       3.050   0.294   0.024  1.00  0.00     0.036 A 
HETATM    3  N1  UNL     1       2.925  -0.443   1.153  1.00  0.00    -0.338 N 
ATOM      4  H1  UNL     1       3.645  -0.557   1.866  1.00  0.00     0.168 HD
HETATM    5  C3  UNL     1       1.706  -0.999   1.185  1.00  0.00     0.151 A 
HETATM    6  C4  UNL     1       1.027  -0.598   0.022  1.00  0.00     0.054 A 
HETATM    7  C11 UNL     1       1.864   0.209  -0.711  1.00  0.00     0.089 A 
ENDROOT
BRANCH   6   8
HETATM    8  C5  UNL     1      -0.358  -1.007  -0.371  1.00  0.00     0.225 C 
HETATM    9  C6  UNL     1      -0.970  -0.098  -1.382  1.00  0.00     0.038 C 
HETATM   10  C7  UNL     1      -2.481  -0.244  -1.312  1.00  0.00     0.002 C 
HETATM   11  C8  UNL     1      -3.118   0.750  -0.407  1.00  0.00     0.002 C 
HETATM   12  C9  UNL     1      -2.943   0.489   1.060  1.00  0.00     0.027 C 
HETATM   13  C10 UNL     1      -1.559   0.053   1.420  1.00  0.00     0.233 C 
HETATM   14  N2  UNL     1      -1.166  -1.173   0.796  1.00  0.00    -0.067 N 
ATOM     15  H22 UNL     1      -1.985  -1.743   0.584  1.00  0.00     0.277 HD
ATOM     16  H21 UNL     1      -0.699  -1.781   1.469  1.00  0.00     0.277 HD
ENDBRANCH   6   8
BRANCH   5  17
HETATM   17  O1  UNL     1       1.193  -1.823   2.176  1.00  0.00    -0.346 OA
ATOM     18  H1  UNL     1       0.329  -2.217   2.199  1.00  0.00     0.219 HD
ENDBRANCH   5  17
BRANCH   7  19
HETATM   19  N3  UNL     1       1.647   0.853  -1.953  1.00  0.00    -0.267 N 
ATOM     20  H3  UNL     1       0.898   1.541  -2.036  1.00  0.00     0.194 HD
BRANCH  19  21
HETATM   21  O2  UNL     1       2.363   0.592  -2.959  1.00  0.00    -0.289 OA
ATOM     22  H2  UNL     1       2.217   1.024  -3.792  1.00  0.00     0.244 HD
ENDBRANCH  19  21
ENDBRANCH   7  19
TORSDOF 4
