REMARK  4 active torsions:
REMARK  status: ('A' for Active; 'I' for Inactive)
REMARK    1  A    between atoms: C4_5  and  C5_6 
REMARK    2  A    between atoms: C6_9  and  C7_10 
REMARK    3  A    between atoms: C7_10  and  N2_11 
REMARK    4  A    between atoms: N2_11  and  C8_13 
ROOT
HETATM    1  C5  UNL     1       3.843  -0.698  -0.053  1.00  0.00     0.084 A 
HETATM    2  N1  UNL     1       2.647  -0.416   0.428  1.00  0.00    -0.351 N 
ATOM      3  H1  UNL     1       2.511   0.426   0.988  1.00  0.00     0.166 HD
HETATM    4  C6  UNL     1       1.647  -1.199   0.194  1.00  0.00     0.034 A 
HETATM    5  C18 UNL     1       1.883  -2.320  -0.566  1.00  0.00     0.078 A 
HETATM    6  S1  UNL     1       3.560  -2.157  -0.892  1.00  0.00    -0.081 SA
ENDROOT
BRANCH   4   7
HETATM    7  C7  UNL     1       0.249  -0.929   0.712  1.00  0.00     0.172 C 
BRANCH   7   8
HETATM    8  N2  UNL     1      -0.504  -0.435  -0.375  1.00  0.00    -0.407 N 
ATOM      9  H2  UNL     1      -0.089  -0.321  -1.300  1.00  0.00     0.154 HD
BRANCH   8  10
HETATM   10  C8  UNL     1      -1.861  -0.103  -0.128  1.00  0.00     0.027 C 
HETATM   11  C9  UNL     1      -2.077   1.010   0.857  1.00  0.00     0.035 C 
HETATM   12  C10 UNL     1      -3.557   1.318   0.915  1.00  0.00    -0.012 C 
HETATM   13  C11 UNL     1      -4.133   1.705  -0.416  1.00  0.00     0.009 C 
HETATM   14  C15 UNL     1      -4.254   0.090   1.484  1.00  0.00     0.009 C 
HETATM   15  C12 UNL     1      -3.966   0.525  -1.342  1.00  0.00    -0.012 C 
HETATM   16  C13 UNL     1      -4.648  -0.710  -0.806  1.00  0.00     0.009 C 
HETATM   17  C17 UNL     1      -2.492   0.252  -1.454  1.00  0.00     0.035 C 
HETATM   18  C14 UNL     1      -4.047  -1.051   0.528  1.00  0.00    -0.012 C 
HETATM   19  C16 UNL     1      -2.575  -1.337   0.415  1.00  0.00     0.035 C 
ENDBRANCH   8  10
ENDBRANCH   7   8
ENDBRANCH   4   7
BRANCH   1  20
HETATM   20  C4  UNL     1       5.104   0.060   0.098  1.00  0.00    -0.002 A 
HETATM   21  C3  UNL     1       5.194   1.221   0.818  1.00  0.00     0.016 A 
HETATM   22  C2  UNL     1       6.400   1.912   0.942  1.00  0.00     0.024 A 
HETATM   23  C1  UNL     1       7.529   1.422   0.329  1.00  0.00     0.034 A 
HETATM   24 CL1  UNL     1       9.051   2.305   0.499  1.00  0.00    -0.084 Cl
HETATM   25  C20 UNL     1       7.455   0.251  -0.403  1.00  0.00     0.024 A 
HETATM   26  C19 UNL     1       6.234  -0.426  -0.513  1.00  0.00     0.016 A 
ENDBRANCH   1  20
TORSDOF 4
