REMARK  6 active torsions:
REMARK  status: ('A' for Active; 'I' for Inactive)
REMARK    1  A    between atoms: C4_5  and  N1_6 
REMARK    2  A    between atoms: N1_6  and  C5_7 
REMARK    3  A    between atoms: C5_7  and  C6_8 
REMARK    4  A    between atoms: C6_8  and  C8_11 
REMARK    5  A    between atoms: C9_12  and  C10_13 
REMARK    6  A    between atoms: C14_20  and  O2_21 
ROOT
HETATM    1  C1  UNL     1      -5.717  -0.327  -1.671  1.00  0.00     0.210 C 
HETATM    2  O1  UNL     1      -4.713  -0.265  -0.874  1.00  0.00    -0.353 OA
HETATM    3  C2  UNL     1      -3.700  -0.202  -0.069  1.00  0.00     0.106 A 
HETATM    4  C3  UNL     1      -2.393  -0.067  -0.464  1.00  0.00     0.084 A 
HETATM    5  C4  UNL     1      -1.293   0.001   0.404  1.00  0.00     0.110 A 
HETATM    6  C12 UNL     1      -1.609  -0.079   1.782  1.00  0.00     0.071 A 
HETATM    7  C13 UNL     1      -2.886  -0.213   2.210  1.00  0.00     0.073 A 
HETATM    8 CL3  UNL     1      -3.243  -0.310   3.943  1.00  0.00    -0.081 Cl
HETATM    9  C14 UNL     1      -3.909  -0.273   1.316  1.00  0.00     0.121 A 
ENDROOT
BRANCH   9  10
HETATM   10  O2  UNL     1      -5.221  -0.409   1.728  1.00  0.00    -0.356 OA
ATOM     11  H2  UNL     1      -5.363  -0.457   2.666  1.00  0.00     0.218 HD
ENDBRANCH   9  10
BRANCH   5  12
HETATM   12  N1  UNL     1      -0.030   0.132  -0.007  1.00  0.00    -0.420 NA
BRANCH  12  13
HETATM   13  C5  UNL     1       1.064   0.185  -0.390  1.00  0.00     0.187 C 
BRANCH  13  14
HETATM   14  C6  UNL     1       2.027   1.374  -0.236  1.00  0.00     0.223 C 
HETATM   15  C7  UNL     1       1.821   2.207  -1.398  1.00  0.00     0.083 C 
HETATM   16  N2  UNL     1       1.677   2.877  -2.334  1.00  0.00    -0.196 NA
BRANCH  14  17
HETATM   17  C8  UNL     1       3.412   0.906  -0.246  1.00  0.00    -0.077 C 
HETATM   18  C9  UNL     1       4.551   0.516  -0.276  1.00  0.00    -0.062 C 
BRANCH  18  19
HETATM   19  C10 UNL     1       5.936   0.047  -0.339  1.00  0.00     0.172 C 
HETATM   20  C11 UNL     1       5.996  -1.474  -0.194  1.00  0.00     0.065 C 
HETATM   21 CL1  UNL     1       6.535   0.444  -1.986  1.00  0.00    -0.088 Cl
HETATM   22 CL2  UNL     1       6.964   0.787   0.878  1.00  0.00    -0.088 Cl
ENDBRANCH  18  19
ENDBRANCH  14  17
ENDBRANCH  13  14
ENDBRANCH  12  13
ENDBRANCH   5  12
TORSDOF 6
