REMARK  10 active torsions:
REMARK  status: ('A' for Active; 'I' for Inactive)
REMARK    1  A    between atoms: C2_2  and  C3_3 
REMARK    2  A    between atoms: C3_3  and  N1_4 
REMARK    3  A    between atoms: C4_5  and  C5_6 
REMARK    4  A    between atoms: C10_19  and  N5_20 
REMARK    5  A    between atoms: C11_23  and  N6_24 
REMARK    6  A    between atoms: N7_27  and  C12_28 
REMARK    7  A    between atoms: C12_28  and  O3_29 
REMARK    8  A    between atoms: O3_29  and  C13_30 
REMARK    9  A    between atoms: C13_30  and  C14_31 
REMARK   10  A    between atoms: C14_31  and  O4_32 
ROOT
HETATM    1  N1  UNL     1      -1.171   0.263   0.814  1.00  0.00    -0.297 N 
HETATM    2  C4  UNL     1      -2.006   0.657  -0.143  1.00  0.00     0.102 A 
HETATM    3  N3  UNL     1      -1.510   0.944  -1.358  1.00  0.00    -0.329 N 
ATOM      4  H3  UNL     1      -2.141   1.247  -2.100  1.00  0.00     0.168 HD
HETATM    5  C9  UNL     1      -0.199   0.838  -1.608  1.00  0.00     0.141 A 
HETATM    6  N4  UNL     1       0.295   1.124  -2.830  1.00  0.00    -0.324 N 
ATOM      7  H4  UNL     1      -0.341   1.426  -3.568  1.00  0.00     0.169 HD
HETATM    8  C10 UNL     1       1.603   1.020  -3.094  1.00  0.00     0.145 A 
HETATM    9  C11 UNL     1       2.461   0.610  -2.092  1.00  0.00     0.152 A 
HETATM   10  N7  UNL     1       2.027   0.304  -0.827  1.00  0.00    -0.277 N 
HETATM   11  C15 UNL     1       0.706   0.425  -0.616  1.00  0.00     0.155 A 
HETATM   12  C16 UNL     1       0.171   0.137   0.618  1.00  0.00     0.280 A 
HETATM   13  O5  UNL     1       0.917  -0.235   1.538  1.00  0.00    -0.265 OA
ENDROOT
BRANCH   2  14
HETATM   14  C5  UNL     1      -3.453   0.777   0.138  1.00  0.00     0.154 C 
HETATM   15  C6  UNL     1      -4.264  -0.174  -0.753  1.00  0.00     0.125 C 
HETATM   16  C7  UNL     1      -5.615   0.443  -0.670  1.00  0.00     0.225 C 
HETATM   17  O1  UNL     1      -6.731  -0.147  -0.706  1.00  0.00    -0.273 OA
HETATM   18  N2  UNL     1      -5.382   1.856  -0.541  1.00  0.00    -0.297 N 
HETATM   19  C8  UNL     1      -3.992   2.091  -0.366  1.00  0.00     0.236 C 
ATOM     20  H2  UNL     1      -6.103   2.577  -0.571  1.00  0.00     0.171 HD
HETATM   21  O2  UNL     1      -3.400   3.169  -0.596  1.00  0.00    -0.272 OA
ENDBRANCH   2  14
BRANCH   1  22
HETATM   22  C3  UNL     1      -1.566  -0.091   2.176  1.00  0.00     0.160 C 
BRANCH  22  23
HETATM   23  C2  UNL     1      -1.865  -1.547   2.278  1.00  0.00    -0.017 C 
HETATM   24  C1  UNL     1      -3.031  -2.019   2.649  1.00  0.00     0.008 C 
ENDBRANCH  22  23
ENDBRANCH   1  22
BRANCH  10  25
HETATM   25  C12 UNL     1       2.957  -0.117   0.186  1.00  0.00     0.235 C 
BRANCH  25  26
HETATM   26  O3  UNL     1       3.173  -1.462   0.260  1.00  0.00    -0.344 OA
BRANCH  26  27
HETATM   27  C13 UNL     1       4.078  -1.789   1.246  1.00  0.00     0.202 C 
BRANCH  27  28
HETATM   28  C14 UNL     1       5.420  -1.141   1.021  1.00  0.00     0.191 C 
BRANCH  28  29
HETATM   29  O4  UNL     1       6.282  -1.540   2.069  1.00  0.00    -0.399 OA
ATOM     30  H4  UNL     1       7.128  -1.132   1.927  1.00  0.00     0.209 HD
ENDBRANCH  28  29
ENDBRANCH  27  28
ENDBRANCH  26  27
ENDBRANCH  25  26
ENDBRANCH  10  25
BRANCH   8  31
HETATM   31  N5  UNL     1       2.025   1.302  -4.270  1.00  0.00    -0.382 N 
ATOM     32  H52 UNL     1       1.391   1.605  -5.010  1.00  0.00     0.157 HD
ATOM     33  H51 UNL     1       3.022   1.223  -4.471  1.00  0.00     0.157 HD
ENDBRANCH   8  31
BRANCH   9  34
HETATM   34  N6  UNL     1       3.732   0.500  -2.329  1.00  0.00    -0.382 N 
ATOM     35  H62 UNL     1       4.055   0.728  -3.269  1.00  0.00     0.157 HD
ATOM     36  H61 UNL     1       4.366   0.197  -1.589  1.00  0.00     0.157 HD
ENDBRANCH   9  34
TORSDOF 10
