REMARK  3 active torsions:
REMARK  status: ('A' for Active; 'I' for Inactive)
REMARK    1  A    between atoms: C2_2  and  N1_3 
REMARK    2  A    between atoms: C2_2  and  C3_7 
REMARK    3  A    between atoms: C3_7  and  C4_8 
ROOT
HETATM    1  C4  UNL     1       0.262  -0.247  -1.039  1.00  0.00     0.188 C 
HETATM    2  C5  UNL     1      -0.742  -1.408  -1.046  1.00  0.00     0.033 C 
HETATM    3  C6  UNL     1      -1.659  -1.335   0.146  1.00  0.00     0.008 C 
HETATM    4  C7  UNL     1      -2.475  -0.050   0.082  1.00  0.00     0.007 C 
HETATM    5  C8  UNL     1      -2.492   0.556   1.462  1.00  0.00     0.011 C 
HETATM    6  C9  UNL     1      -1.789   0.865  -0.913  1.00  0.00     0.237 C 
HETATM    7  N2  UNL     1      -0.367   0.973  -0.664  1.00  0.00    -0.070 N 
ATOM      8  H21 UNL     1       0.048   1.782  -1.126  1.00  0.00     0.277 HD
ATOM      9  H22 UNL     1      -0.160   1.237   0.299  1.00  0.00     0.277 HD
ENDROOT
BRANCH   1  10
HETATM   10  C3  UNL     1       1.405  -0.693  -0.203  1.00  0.00     0.065 C 
BRANCH  10  11
HETATM   11  C2  UNL     1       2.533   0.257  -0.029  1.00  0.00     0.181 C 
HETATM   12  C1  UNL     1       2.178   1.569   0.615  1.00  0.00     0.039 C 
BRANCH  11  13
HETATM   13  N1  UNL     1       3.466  -0.397   0.910  1.00  0.00    -0.075 N 
ATOM     14  H13 UNL     1       4.275   0.175   1.152  1.00  0.00     0.274 HD
ATOM     15  H12 UNL     1       3.099  -0.489   1.857  1.00  0.00     0.274 HD
ATOM     16  H11 UNL     1       3.707  -1.287   0.473  1.00  0.00     0.274 HD
ENDBRANCH  11  13
ENDBRANCH  10  11
ENDBRANCH   1  10
TORSDOF 3
