REMARK  6 active torsions:
REMARK  status: ('A' for Active; 'I' for Inactive)
REMARK    1  A    between atoms: C4_4  and  C5_5 
REMARK    2  A    between atoms: C6_6  and  C7_7 
REMARK    3  A    between atoms: C9_10  and  C10_11 
REMARK    4  A    between atoms: N2_14  and  C13_15 
REMARK    5  A    between atoms: C13_15  and  S1_16 
REMARK    6  A    between atoms: S1_16  and  C14_17 
ROOT
HETATM    1  C7  UNL     1      -0.900  -1.010   0.167  1.00  0.00     0.100 C 
HETATM    2  C8  UNL     1      -0.164  -2.070   0.767  1.00  0.00     0.108 C 
HETATM    3  N1  UNL     1       0.423  -2.965   1.279  1.00  0.00    -0.191 NA
HETATM    4  C9  UNL     1      -0.333  -0.144  -0.625  1.00  0.00     0.061 C 
ENDROOT
BRANCH   1   5
HETATM    5  C6  UNL     1      -2.326  -0.919   0.460  1.00  0.00    -0.055 C 
HETATM    6  C5  UNL     1      -3.507  -0.856   0.677  1.00  0.00    -0.090 C 
BRANCH   6   7
HETATM    7  C4  UNL     1      -4.974  -0.799   0.923  1.00  0.00     0.106 C 
HETATM    8  C3  UNL     1      -5.433   0.615   0.950  1.00  0.00    -0.006 C 
HETATM    9  C2  UNL     1      -6.697   0.894   0.773  1.00  0.00    -0.086 C 
HETATM   10  C1  UNL     1      -7.152   2.299   0.800  1.00  0.00     0.043 C 
HETATM   11  C21 UNL     1      -7.619  -0.266   0.544  1.00  0.00     0.035 C 
HETATM   12  C20 UNL     1      -6.998  -1.071  -0.568  1.00  0.00     0.026 C 
HETATM   13  C19 UNL     1      -5.607  -1.515  -0.252  1.00  0.00     0.102 C 
HETATM   14 CL1  UNL     1      -4.600  -1.289  -1.724  1.00  0.00    -0.123 Cl
ENDBRANCH   6   7
ENDBRANCH   1   5
BRANCH   4  15
HETATM   15  C10 UNL     1       1.062  -0.124  -0.993  1.00  0.00     0.039 A 
HETATM   16  C11 UNL     1       1.540   0.944  -1.719  1.00  0.00     0.047 A 
HETATM   17  C12 UNL     1       2.859   0.986  -2.081  1.00  0.00     0.099 A 
HETATM   18  N2  UNL     1       3.655  -0.060  -1.693  1.00  0.00    -0.300 N 
HETATM   19  C18 UNL     1       3.176  -1.074  -0.996  1.00  0.00     0.327 A 
HETATM   20  O3  UNL     1       3.980  -2.017  -0.670  1.00  0.00    -0.246 OA
HETATM   21  N3  UNL     1       1.895  -1.110  -0.649  1.00  0.00    -0.308 N 
ATOM     22  H3  UNL     1       1.542  -1.902  -0.112  1.00  0.00     0.170 HD
BRANCH  18  23
HETATM   23  C13 UNL     1       5.035   0.048  -2.104  1.00  0.00     0.207 C 
BRANCH  23  24
HETATM   24  S1  UNL     1       6.008   0.979  -0.959  1.00  0.00    -0.134 SA
BRANCH  24  25
HETATM   25  C14 UNL     1       6.257   0.123   0.597  1.00  0.00     0.150 C 
HETATM   26  C15 UNL     1       7.074   1.089   1.480  1.00  0.00     0.052 C 
HETATM   27  C16 UNL     1       8.354   1.133   0.627  1.00  0.00     0.180 C 
HETATM   28  O1  UNL     1       8.536  -0.264   0.364  1.00  0.00    -0.321 OA
HETATM   29  C17 UNL     1       7.316  -0.926   0.409  1.00  0.00     0.272 C 
HETATM   30  O2  UNL     1       7.136  -2.146   0.314  1.00  0.00    -0.264 OA
ENDBRANCH  24  25
ENDBRANCH  23  24
ENDBRANCH  18  23
ENDBRANCH   4  15
TORSDOF 6
