REMARK  6 active torsions:
REMARK  status: ('A' for Active; 'I' for Inactive)
REMARK    1  A    between atoms: O1_1  and  C1_3 
REMARK    2  A    between atoms: C1_3  and  C2_4 
REMARK    3  A    between atoms: C5_8  and  C6_9 
REMARK    4  A    between atoms: C6_9  and  S1_10 
REMARK    5  A    between atoms: S1_10  and  C7_11 
REMARK    6  A    between atoms: C7_11  and  C8_12 
ROOT
HETATM    1  C2  UNL     1      -2.717  -0.744  -0.539  1.00  0.00     0.075 A 
HETATM    2  C3  UNL     1      -2.148   0.117   0.338  1.00  0.00     0.122 A 
HETATM    3  N1  UNL     1      -0.841   0.119   0.495  1.00  0.00    -0.310 N 
HETATM    4  C4  UNL     1       0.096   0.798   1.240  1.00  0.00     0.124 A 
HETATM    5  C5  UNL     1       1.358   0.324   0.944  1.00  0.00     0.036 A 
HETATM    6  N4  UNL     1       1.215  -0.627   0.037  1.00  0.00    -0.338 N 
ATOM      7  H4  UNL     1       1.959  -1.178  -0.391  1.00  0.00     0.168 HD
HETATM    8  C14 UNL     1      -0.117  -0.727  -0.213  1.00  0.00     0.156 A 
HETATM    9  S2  UNL     1      -1.259  -1.562  -1.131  1.00  0.00    -0.048 SA
ENDROOT
BRANCH   5  10
HETATM   10  C6  UNL     1       2.658   0.771   1.505  1.00  0.00     0.132 C 
BRANCH  10  11
HETATM   11  S1  UNL     1       3.267   2.093   0.414  1.00  0.00    -0.157 SA
BRANCH  11  12
HETATM   12  C7  UNL     1       3.657   1.458  -1.191  1.00  0.00     0.135 C 
BRANCH  12  13
HETATM   13  C8  UNL     1       4.909   0.673  -1.275  1.00  0.00     0.061 A 
HETATM   14  C9  UNL     1       5.235   0.062  -2.508  1.00  0.00     0.128 A 
HETATM   15 CL1  UNL     1       4.290   0.066  -3.981  1.00  0.00    -0.062 Cl
HETATM   16  N2  UNL     1       6.414  -0.520  -2.313  1.00  0.00    -0.335 N 
HETATM   17  C10 UNL     1       6.834  -0.313  -1.064  1.00  0.00     0.084 A 
ATOM     18  H2  UNL     1       6.925  -1.050  -3.019  1.00  0.00     0.168 HD
HETATM   19  N3  UNL     1       5.902   0.424  -0.429  1.00  0.00    -0.337 N 
HETATM   20  C13 UNL     1       7.969  -0.612  -0.128  1.00  0.00     0.078 C 
HETATM   21  C11 UNL     1       6.356   0.693   0.924  1.00  0.00     0.131 C 
HETATM   22  C12 UNL     1       7.307  -0.480   1.207  1.00  0.00     0.028 C 
ENDBRANCH  12  13
ENDBRANCH  11  12
ENDBRANCH  10  11
ENDBRANCH   5  10
BRANCH   1  23
HETATM   23  C1  UNL     1      -4.055  -1.037  -1.013  1.00  0.00     0.157 C 
HETATM   24  N5  UNL     1      -5.224  -0.428  -0.726  1.00  0.00    -0.361 N 
HETATM   25  C15 UNL     1      -5.460   0.719   0.102  1.00  0.00     0.125 C 
HETATM   26  C19 UNL     1      -6.461  -1.050  -1.313  1.00  0.00     0.125 C 
HETATM   27  C16 UNL     1      -6.190   0.168   1.347  1.00  0.00     0.020 C 
HETATM   28  C17 UNL     1      -7.552  -0.239   0.823  1.00  0.00     0.003 C 
HETATM   29  C18 UNL     1      -7.479  -1.263  -0.247  1.00  0.00     0.020 C 
BRANCH  23  30
HETATM   30  O1  UNL     1      -4.130  -2.051  -1.848  1.00  0.00    -0.345 OA
ATOM     31  H1  UNL     1      -5.007  -2.243  -2.159  1.00  0.00     0.219 HD
ENDBRANCH  23  30
ENDBRANCH   1  23
TORSDOF 6
