REMARK  3 active torsions:
REMARK  status: ('A' for Active; 'I' for Inactive)
REMARK    1  A    between atoms: C3_4  and  C4_5 
REMARK       I    between atoms: C4_5  and  N2_7 
REMARK    2  A    between atoms: N2_7  and  C5_9 
REMARK    3  A    between atoms: N3_10  and  N4_12 
REMARK       I    between atoms: N4_12  and  C6_14 
REMARK       I    between atoms: N7_21  and  C9_22 
ROOT
HETATM    1  C1  UNL     1      -1.915   2.597   0.973  1.00  0.00     0.224 C 
HETATM    2  N1  UNL     1      -2.078   1.721   0.205  1.00  0.00    -0.445 NA
HETATM    3  C2  UNL     1      -2.296   0.700  -0.721  1.00  0.00     0.277 C 
HETATM    4  C3  UNL     1      -1.041   0.162  -1.371  1.00  0.00     0.135 C 
HETATM    5  C7  UNL     1      -1.466  -1.310  -1.661  1.00  0.00     0.039 C 
HETATM    6  C8  UNL     1      -2.120  -1.594  -0.316  1.00  0.00     0.130 C 
HETATM    7  N7  UNL     1      -2.942  -0.437  -0.125  1.00  0.00    -0.319 N 
HETATM    8  C9  UNL     1      -4.189  -0.425   0.544  1.00  0.00     0.218 C 
HETATM    9  C10 UNL     1      -4.954   0.820   0.685  1.00  0.00     0.117 C 
HETATM   10  O2  UNL     1      -4.697  -1.478   1.048  1.00  0.00    -0.274 OA
ENDROOT
BRANCH   4  11
HETATM   11  C4  UNL     1       0.126   0.087  -0.477  1.00  0.00     0.231 C 
HETATM   12  O1  UNL     1       0.082   0.340   0.741  1.00  0.00    -0.273 OA
HETATM   13  N2  UNL     1       1.372  -0.298  -1.033  1.00  0.00    -0.322 N 
ATOM     14  H2  UNL     1       1.434  -0.511  -2.029  1.00  0.00     0.169 HD
BRANCH  13  15
HETATM   15  C5  UNL     1       2.546  -0.393  -0.217  1.00  0.00     0.200 C 
HETATM   16  N3  UNL     1       3.682  -0.741  -0.712  1.00  0.00    -0.294 N 
ATOM     17  H3  UNL     1       3.745  -0.953  -1.708  1.00  0.00     0.187 HD
BRANCH  16  18
HETATM   18  N4  UNL     1       4.821  -0.835   0.070  1.00  0.00    -0.273 N 
HETATM   19  C6  UNL     1       5.070   0.079   1.123  1.00  0.00     0.200 C 
HETATM   20  N5  UNL     1       4.938  -0.293   2.356  1.00  0.00    -0.372 N 
HETATM   21  N6  UNL     1       5.464   1.408   0.851  1.00  0.00    -0.062 NA
ATOM     22  H52 UNL     1       4.654  -1.253   2.552  1.00  0.00     0.158 HD
ATOM     23  H51 UNL     1       5.117   0.365   3.114  1.00  0.00     0.158 HD
ATOM     24  H4  UNL     1       5.495  -1.578  -0.116  1.00  0.00     0.189 HD
ENDBRANCH  16  18
ENDBRANCH  13  15
ENDBRANCH   4  11
TORSDOF 3
