REMARK  15 active torsions:
REMARK  status: ('A' for Active; 'I' for Inactive)
REMARK    1  A    between atoms: C2_2  and  C3_3 
REMARK    2  A    between atoms: C3_3  and  C4_4 
REMARK    3  A    between atoms: C4_4  and  C5_5 
REMARK    4  A    between atoms: C5_5  and  C6_6 
REMARK    5  A    between atoms: C6_6  and  C7_7 
REMARK    6  A    between atoms: C7_7  and  C8_8 
REMARK    7  A    between atoms: C8_8  and  C9_9 
REMARK    8  A    between atoms: C9_9  and  C10_10 
REMARK    9  A    between atoms: C11_11  and  O1_12 
REMARK   10  A    between atoms: C12_14  and  O2_15 
REMARK   11  A    between atoms: C13_17  and  O3_18 
REMARK   12  A    between atoms: N1_22  and  C16_23 
REMARK   13  A    between atoms: C16_23  and  N2_25 
REMARK   14  A    between atoms: N2_25  and  C17_27 
REMARK   15  A    between atoms: C17_27  and  C18_28 
ROOT
HETATM    1  C10 UNL     1       0.363   0.249   1.378  1.00  0.00     0.118 C 
HETATM    2  C11 UNL     1      -0.270  -0.767   2.390  1.00  0.00     0.172 C 
HETATM    3  C12 UNL     1       0.449  -0.482   3.672  1.00  0.00     0.179 C 
HETATM    4  C13 UNL     1       0.385   0.934   4.102  1.00  0.00     0.172 C 
HETATM    5  C14 UNL     1       0.488   1.978   3.050  1.00  0.00     0.114 C 
HETATM    6  C15 UNL     1       1.922   2.196   2.672  1.00  0.00     0.035 C 
HETATM    7  N1  UNL     1      -0.224   1.478   1.791  1.00  0.00    -0.344 N 
ENDROOT
BRANCH   1   8
HETATM    8  C9  UNL     1       0.172  -0.318   0.045  1.00  0.00     0.028 C 
BRANCH   8   9
HETATM    9  C8  UNL     1       0.704   0.394  -1.138  1.00  0.00     0.002 C 
BRANCH   9  10
HETATM   10  C7  UNL     1       2.146   0.596  -1.263  1.00  0.00     0.000 C 
BRANCH  10  11
HETATM   11  C6  UNL     1       3.121  -0.486  -1.411  1.00  0.00     0.000 C 
BRANCH  11  12
HETATM   12  C5  UNL     1       3.120  -1.340  -2.603  1.00  0.00     0.000 C 
BRANCH  12  13
HETATM   13  C4  UNL     1       2.027  -2.252  -2.937  1.00  0.00     0.000 C 
BRANCH  13  14
HETATM   14  C3  UNL     1       1.797  -3.397  -1.975  1.00  0.00    -0.000 C 
BRANCH  14  15
HETATM   15  C2  UNL     1       0.649  -4.263  -2.365  1.00  0.00    -0.005 C 
HETATM   16  C1  UNL     1       0.860  -4.881  -3.727  1.00  0.00     0.005 C 
ENDBRANCH  14  15
ENDBRANCH  13  14
ENDBRANCH  12  13
ENDBRANCH  11  12
ENDBRANCH  10  11
ENDBRANCH   9  10
ENDBRANCH   8   9
ENDBRANCH   1   8
BRANCH   2  17
HETATM   17  O1  UNL     1      -1.608  -0.489   2.502  1.00  0.00    -0.391 OA
ATOM     18  H1  UNL     1      -1.992  -1.105   3.115  1.00  0.00     0.210 HD
ENDBRANCH   2  17
BRANCH   7  19
HETATM   19  C16 UNL     1      -1.300   2.233   1.355  1.00  0.00     0.170 C 
HETATM   20  S1  UNL     1      -1.595   3.670   2.159  1.00  0.00    -0.041 SA
BRANCH  19  21
HETATM   21  N2  UNL     1      -2.191   1.965   0.317  1.00  0.00    -0.367 N 
ATOM     22  H2  UNL     1      -2.088   1.111  -0.231  1.00  0.00     0.161 HD
BRANCH  21  23
HETATM   23  C17 UNL     1      -3.294   2.919   0.003  1.00  0.00     0.126 C 
BRANCH  23  24
HETATM   24  C18 UNL     1      -4.127   2.430  -1.147  1.00  0.00     0.003 A 
HETATM   25  C19 UNL     1      -5.273   3.210  -1.634  1.00  0.00     0.007 A 
HETATM   26  C20 UNL     1      -3.994   3.236  -2.422  1.00  0.00     0.007 A 
ENDBRANCH  23  24
ENDBRANCH  21  23
ENDBRANCH  19  21
ENDBRANCH   7  19
BRANCH   3  27
HETATM   27  O2  UNL     1      -0.103  -1.298   4.656  1.00  0.00    -0.390 OA
ATOM     28  H2  UNL     1       0.353  -1.117   5.469  1.00  0.00     0.210 HD
ENDBRANCH   3  27
BRANCH   4  29
HETATM   29  O3  UNL     1      -0.773   1.114   4.876  1.00  0.00    -0.391 OA
ATOM     30  H3  UNL     1      -0.814   2.022   5.152  1.00  0.00     0.210 HD
ENDBRANCH   4  29
TORSDOF 15
