REMARK  9 active torsions:
REMARK  status: ('A' for Active; 'I' for Inactive)
REMARK    1  A    between atoms: O1_2  and  C2_3 
REMARK    2  A    between atoms: C2_3  and  C3_4 
REMARK    3  A    between atoms: C3_4  and  N1_5 
REMARK    4  A    between atoms: C3_4  and  C7_18 
REMARK       I    between atoms: N1_5  and  C4_7 
REMARK       I    between atoms: C4_7  and  N2_9 
REMARK    5  A    between atoms: N2_9  and  C5_11 
REMARK       I    between atoms: C7_18  and  N5_20 
REMARK    6  A    between atoms: N5_20  and  C8_22 
REMARK    7  A    between atoms: C11_25  and  C12_26 
REMARK    8  A    between atoms: C12_26  and  O4_27 
REMARK    9  A    between atoms: O4_27  and  C13_28 
ROOT
HETATM    1  C3  UNL     1      -2.541  -0.486  -1.258  1.00  0.00     0.202 C 
ENDROOT
BRANCH   1   2
HETATM    2  C2  UNL     1      -2.483  -1.940  -1.743  1.00  0.00     0.202 C 
BRANCH   2   3
HETATM    3  O1  UNL     1      -1.316  -2.106  -2.448  1.00  0.00    -0.393 OA
HETATM    4  C1  UNL     1      -1.164  -3.396  -2.932  1.00  0.00     0.201 C 
ENDBRANCH   2   3
ENDBRANCH   1   2
BRANCH   1   5
HETATM    5  N1  UNL     1      -3.789  -0.317  -0.525  1.00  0.00    -0.327 N 
HETATM    6  C4  UNL     1      -4.702   0.667  -0.945  1.00  0.00     0.323 C 
HETATM    7  O2  UNL     1      -4.483   1.419  -1.946  1.00  0.00    -0.247 OA
HETATM    8  N2  UNL     1      -5.918   0.837  -0.231  1.00  0.00    -0.288 N 
ATOM      9  H2  UNL     1      -6.633   0.111  -0.201  1.00  0.00     0.172 HD
ATOM     10  H1  UNL     1      -3.998  -0.905   0.282  1.00  0.00     0.165 HD
BRANCH   8  11
HETATM   11  C5  UNL     1      -6.066   1.987   0.389  1.00  0.00     0.168 A 
HETATM   12  N3  UNL     1      -5.243   3.032   0.455  1.00  0.00    -0.279 N 
HETATM   13  N4  UNL     1      -5.594   4.053   1.120  1.00  0.00    -0.303 N 
ATOM     14  H3  UNL     1      -4.342   3.011  -0.023  1.00  0.00     0.189 HD
HETATM   15  C6  UNL     1      -6.765   4.078   1.740  1.00  0.00     0.160 A 
ATOM     16  H4  UNL     1      -4.972   4.859   1.178  1.00  0.00     0.186 HD
HETATM   17  S1  UNL     1      -7.390   2.539   1.339  1.00  0.00    -0.046 SA
ENDBRANCH   8  11
ENDBRANCH   1   5
BRANCH   1  18
HETATM   18  C7  UNL     1      -1.412  -0.308  -0.311  1.00  0.00     0.242 C 
HETATM   19  O3  UNL     1      -1.724  -0.144   0.914  1.00  0.00    -0.271 OA
HETATM   20  N5  UNL     1      -0.043  -0.312  -0.713  1.00  0.00    -0.355 N 
ATOM     21  H5  UNL     1       0.219  -0.439  -1.691  1.00  0.00     0.162 HD
BRANCH  20  22
HETATM   22  C8  UNL     1       0.959  -0.131   0.310  1.00  0.00     0.084 C 
HETATM   23  C9  UNL     1       1.785   1.098   0.120  1.00  0.00     0.026 C 
HETATM   24  C10 UNL     1       3.274   0.865   0.149  1.00  0.00     0.009 C 
HETATM   25  C11 UNL     1       3.760   0.020   1.278  1.00  0.00     0.010 C 
HETATM   26  C14 UNL     1       2.736  -1.057   1.656  1.00  0.00     0.009 C 
HETATM   27  C15 UNL     1       1.915  -1.303   0.406  1.00  0.00     0.026 C 
BRANCH  25  28
HETATM   28  C12 UNL     1       5.004  -0.741   0.888  1.00  0.00     0.182 C 
BRANCH  28  29
HETATM   29  O4  UNL     1       6.096  -0.046   0.532  1.00  0.00    -0.297 OA
BRANCH  29  30
HETATM   30  C13 UNL     1       6.749   0.750   1.402  1.00  0.00     0.524 C 
HETATM   31  F1  UNL     1       6.018   1.773   1.907  1.00  0.00    -0.144 F 
HETATM   32  F2  UNL     1       7.848   1.357   0.755  1.00  0.00    -0.144 F 
HETATM   33  F3  UNL     1       7.371   0.018   2.435  1.00  0.00    -0.144 F 
ENDBRANCH  29  30
ENDBRANCH  28  29
ENDBRANCH  25  28
ENDBRANCH  20  22
ENDBRANCH   1  18
TORSDOF 9
