REMARK  9 active torsions:
REMARK  status: ('A' for Active; 'I' for Inactive)
REMARK    1  A    between atoms: N1_1  and  C1_4 
REMARK    2  A    between atoms: C2_5  and  C3_6 
REMARK    3  A    between atoms: C3_6  and  C4_8 
REMARK    4  A    between atoms: C3_6  and  C14_28 
REMARK    5  A    between atoms: N2_9  and  C5_11 
REMARK    6  A    between atoms: C5_11  and  C6_12 
REMARK    7  A    between atoms: C6_12  and  C7_13 
REMARK    8  A    between atoms: C7_13  and  N3_14 
REMARK       I    between atoms: C8_16  and  N5_18 
REMARK    9  A    between atoms: N5_18  and  C9_20 
ROOT
HETATM    1  C7  UNL     1       0.791   0.002   0.415  1.00  0.00     0.123 C 
ENDROOT
BRANCH   1   2
HETATM    2  C6  UNL     1      -0.727  -0.009   0.566  1.00  0.00     0.039 C 
BRANCH   2   3
HETATM    3  C5  UNL     1      -1.281   0.119  -0.858  1.00  0.00     0.120 C 
BRANCH   3   4
HETATM    4  N2  UNL     1      -2.708   0.111  -0.737  1.00  0.00    -0.400 N 
HETATM    5  C4  UNL     1      -3.318  -1.008  -0.744  1.00  0.00     0.090 C 
ATOM      6  H2  UNL     1      -3.227   0.985  -0.647  1.00  0.00     0.158 HD
BRANCH   5   7
HETATM    7  C3  UNL     1      -4.796  -0.966  -0.616  1.00  0.00     0.123 C 
HETATM    8 BR1  UNL     1      -5.489  -2.646   0.024  1.00  0.00    -0.064 Br
BRANCH   7   9
HETATM    9  C2  UNL     1      -5.154   0.063   0.356  1.00  0.00    -0.056 C 
HETATM   10  C1  UNL     1      -5.466   0.900   1.164  1.00  0.00     0.005 C 
BRANCH  10  11
HETATM   11  N1  UNL     1      -5.837   1.850   2.111  1.00  0.00    -0.359 N 
ATOM     12  H12 UNL     1      -5.928   0.845   1.965  1.00  0.00     0.166 HD
ATOM     13  H11 UNL     1      -6.101   2.559   2.795  1.00  0.00     0.166 HD
ENDBRANCH  10  11
ENDBRANCH   7   9
BRANCH   7  14
HETATM   14  C14 UNL     1      -5.361  -0.635  -1.985  1.00  0.00     0.125 C 
HETATM   15 BR3  UNL     1      -4.597   1.080  -2.508  1.00  0.00    -0.093 Br
ENDBRANCH   7  14
ENDBRANCH   5   7
ENDBRANCH   3   4
ENDBRANCH   2   3
ENDBRANCH   1   2
BRANCH   1  16
HETATM   16  N3  UNL     1       1.242  -1.094  -0.407  1.00  0.00    -0.364 N 
HETATM   17  C8  UNL     1       2.396  -1.610  -0.148  1.00  0.00     0.189 C 
HETATM   18  N4  UNL     1       2.807  -2.688  -0.978  1.00  0.00    -0.063 NA
HETATM   19  N5  UNL     1       3.207  -1.119   0.915  1.00  0.00    -0.317 N 
ATOM     20  H5  UNL     1       3.122  -1.551   1.835  1.00  0.00     0.170 HD
ATOM     21  H3  UNL     1       0.666  -1.450  -1.170  1.00  0.00     0.162 HD
BRANCH  19  22
HETATM   22  C9  UNL     1       4.043  -0.152   0.761  1.00  0.00     0.107 A 
HETATM   23  C10 UNL     1       4.804   0.291   1.806  1.00  0.00     0.050 A 
HETATM   24  C11 UNL     1       5.681   1.321   1.606  1.00  0.00     0.024 A 
HETATM   25  C12 UNL     1       5.802   1.913   0.359  1.00  0.00     0.026 A 
HETATM   26 BR2  UNL     1       7.035   3.333   0.153  1.00  0.00    -0.050 Br
HETATM   27  C13 UNL     1       5.010   1.429  -0.664  1.00  0.00     0.108 A 
HETATM   28  N6  UNL     1       4.157   0.426  -0.467  1.00  0.00    -0.351 N 
ATOM     29  H6  UNL     1       3.585   0.088  -1.241  1.00  0.00     0.166 HD
ENDBRANCH  19  22
ENDBRANCH   1  16
TORSDOF 9
