REMARK  13 active torsions:
REMARK  status: ('A' for Active; 'I' for Inactive)
REMARK    1  A    between atoms: C3_3  and  C4_4 
REMARK    2  A    between atoms: C4_4  and  O2_6 
REMARK    3  A    between atoms: O2_6  and  C5_7 
REMARK    4  A    between atoms: C5_7  and  O3_9 
REMARK    5  A    between atoms: O3_9  and  C7_10 
REMARK    6  A    between atoms: C7_10  and  C8_11 
REMARK    7  A    between atoms: C7_10  and  O4_17 
REMARK    8  A    between atoms: C8_11  and  C9_12 
REMARK    9  A    between atoms: C9_12  and  C10_13 
REMARK   10  A    between atoms: C10_13  and  C11_14 
REMARK   11  A    between atoms: C11_14  and  C12_15 
REMARK   12  A    between atoms: O4_17  and  C14_18 
REMARK   13  A    between atoms: C25_34  and  O8_35 
ROOT
HETATM    1  C1  UNL     1      -3.244  -1.376   0.130  1.00  0.00     0.016 C 
HETATM    2  C2  UNL     1      -3.056  -0.060   0.245  1.00  0.00    -0.062 C 
HETATM    3  C3  UNL     1      -1.700   0.322   0.666  1.00  0.00     0.142 C 
HETATM    4  C16 UNL     1      -1.148   1.460  -0.139  1.00  0.00     0.199 C 
HETATM    5 CL1  UNL     1       0.381   2.003   0.652  1.00  0.00    -0.113 Cl
HETATM    6  C17 UNL     1      -2.012   2.657  -0.190  1.00  0.00     0.279 C 
HETATM    7  O6  UNL     1      -1.682   3.691   0.483  1.00  0.00    -0.263 OA
HETATM    8  O7  UNL     1      -3.172   2.724  -0.936  1.00  0.00    -0.305 OA
HETATM    9  C18 UNL     1      -4.127   1.710  -1.180  1.00  0.00     0.105 C 
HETATM   10  C19 UNL     1      -3.798   0.899  -2.437  1.00  0.00     0.050 C 
HETATM   11  C20 UNL     1      -4.268   0.748  -0.055  1.00  0.00     0.080 C 
HETATM   12  C21 UNL     1      -4.810   1.450   1.146  1.00  0.00    -0.075 C 
HETATM   13  C22 UNL     1      -4.175   1.324   2.509  1.00  0.00     0.044 C 
HETATM   14  C23 UNL     1      -5.892   2.193   0.958  1.00  0.00    -0.001 C 
HETATM   15  C24 UNL     1      -6.471   2.267  -0.404  1.00  0.00     0.137 C 
HETATM   16 CL2  UNL     1      -7.597   0.932  -0.722  1.00  0.00    -0.118 Cl
HETATM   17  C25 UNL     1      -5.435   2.421  -1.455  1.00  0.00     0.176 C 
ENDROOT
BRANCH   3  18
HETATM   18  C4  UNL     1      -0.726  -0.798   0.572  1.00  0.00     0.271 C 
HETATM   19  O1  UNL     1      -0.186  -1.282   1.598  1.00  0.00    -0.264 OA
BRANCH  18  20
HETATM   20  O2  UNL     1      -0.351  -1.377  -0.642  1.00  0.00    -0.289 OA
BRANCH  20  21
HETATM   21  C5  UNL     1       0.563  -2.430  -0.741  1.00  0.00     0.268 C 
HETATM   22  C6  UNL     1      -0.161  -3.651  -1.287  1.00  0.00     0.071 C 
BRANCH  21  23
HETATM   23  O3  UNL     1       1.694  -2.131  -1.482  1.00  0.00    -0.331 OA
BRANCH  23  24
HETATM   24  C7  UNL     1       2.856  -2.237  -0.733  1.00  0.00     0.272 C 
BRANCH  24  25
HETATM   25  C8  UNL     1       3.557  -0.904  -0.625  1.00  0.00     0.061 C 
BRANCH  25  26
HETATM   26  C9  UNL     1       4.815  -1.061   0.195  1.00  0.00     0.005 C 
BRANCH  26  27
HETATM   27  C10 UNL     1       5.563   0.224   0.343  1.00  0.00     0.000 C 
BRANCH  27  28
HETATM   28  C11 UNL     1       4.729   1.299   1.030  1.00  0.00    -0.000 C 
BRANCH  28  29
HETATM   29  C12 UNL     1       5.636   2.534   1.101  1.00  0.00    -0.005 C 
HETATM   30  C13 UNL     1       4.852   3.628   1.775  1.00  0.00     0.005 C 
ENDBRANCH  28  29
ENDBRANCH  27  28
ENDBRANCH  26  27
ENDBRANCH  25  26
ENDBRANCH  24  25
BRANCH  24  31
HETATM   31  O4  UNL     1       3.701  -3.241  -1.255  1.00  0.00    -0.290 OA
BRANCH  31  32
HETATM   32  C14 UNL     1       4.044  -4.362  -0.529  1.00  0.00     0.257 C 
HETATM   33  C15 UNL     1       4.946  -5.407  -1.120  1.00  0.00     0.126 C 
HETATM   34  O5  UNL     1       3.609  -4.529   0.638  1.00  0.00    -0.266 OA
ENDBRANCH  31  32
ENDBRANCH  24  31
ENDBRANCH  23  24
ENDBRANCH  21  23
ENDBRANCH  20  21
ENDBRANCH  18  20
ENDBRANCH   3  18
BRANCH  17  35
HETATM   35  O8  UNL     1      -5.998   2.006  -2.686  1.00  0.00    -0.391 OA
ATOM     36  H8  UNL     1      -6.819   2.452  -2.859  1.00  0.00     0.210 HD
ENDBRANCH  17  35
TORSDOF 13
