REMARK  8 active torsions:
REMARK  status: ('A' for Active; 'I' for Inactive)
REMARK    1  A    between atoms: N1_5  and  C5_7 
REMARK    2  A    between atoms: C5_7  and  C6_8 
REMARK    3  A    between atoms: C6_8  and  C7_9 
REMARK    4  A    between atoms: C7_9  and  O1_10 
REMARK    5  A    between atoms: C8_14  and  N3_15 
REMARK    6  A    between atoms: N3_15  and  C9_17 
REMARK    7  A    between atoms: C9_17  and  C10_18 
REMARK    8  A    between atoms: C10_18  and  C11_19 
ROOT
HETATM    1  C1  UNL     1      -0.260  -1.503   2.660  1.00  0.00     0.069 C 
HETATM    2  C2  UNL     1      -0.646  -0.446   1.689  1.00  0.00     0.026 A 
HETATM    3  C3  UNL     1      -1.964  -0.064   1.620  1.00  0.00     0.073 A 
HETATM    4  C4  UNL     1      -2.356   0.910   0.735  1.00  0.00     0.118 A 
HETATM    5  N1  UNL     1      -3.575   1.274   0.661  1.00  0.00    -0.376 N 
ATOM      6  H1  UNL     1      -3.793   2.003  -0.018  1.00  0.00     0.161 HD
HETATM    7  N2  UNL     1      -1.402   1.478  -0.062  1.00  0.00    -0.177 N 
ATOM      8  H2  UNL     1      -1.677   2.203  -0.724  1.00  0.00     0.185 HD
HETATM    9  C8  UNL     1      -0.120   1.109   0.003  1.00  0.00     0.679 A 
HETATM   10  N5  UNL     1       0.235   0.158   0.873  1.00  0.00    -0.196 N 
ATOM     11  H5  UNL     1       1.215  -0.121   0.919  1.00  0.00     0.184 HD
ENDROOT
BRANCH   9  12
HETATM   12  N3  UNL     1       0.746   1.646  -0.742  1.00  0.00    -0.226 N 
ATOM     13  H3  UNL     1       0.413   2.365  -1.384  1.00  0.00     0.177 HD
BRANCH  12  14
HETATM   14  C9  UNL     1       2.146   1.351  -0.780  1.00  0.00     0.144 C 
BRANCH  14  15
HETATM   15  C10 UNL     1       2.477   0.125  -1.579  1.00  0.00     0.077 C 
BRANCH  15  16
HETATM   16  C11 UNL     1       3.950  -0.103  -1.560  1.00  0.00     0.010 A 
HETATM   17  C12 UNL     1       4.810   0.734  -0.881  1.00  0.00     0.025 A 
HETATM   18  C13 UNL     1       6.181   0.538  -0.853  1.00  0.00     0.003 A 
HETATM   19  C14 UNL     1       6.687  -0.531  -1.529  1.00  0.00     0.017 A 
HETATM   20  C15 UNL     1       5.812  -1.354  -2.201  1.00  0.00     0.088 A 
HETATM   21  N4  UNL     1       4.487  -1.164  -2.227  1.00  0.00    -0.369 N 
ATOM     22  H4  UNL     1       3.885  -1.807  -2.741  1.00  0.00     0.165 HD
ENDBRANCH  15  16
ENDBRANCH  14  15
ENDBRANCH  12  14
ENDBRANCH   9  12
BRANCH   5  23
HETATM   23  C5  UNL     1      -4.668   0.769   1.429  1.00  0.00     0.123 C 
BRANCH  23  24
HETATM   24  C6  UNL     1      -5.211  -0.536   0.851  1.00  0.00     0.045 C 
BRANCH  24  25
HETATM   25  C7  UNL     1      -5.696  -0.292  -0.572  1.00  0.00     0.165 C 
BRANCH  25  26
HETATM   26  O1  UNL     1      -4.656   0.160  -1.381  1.00  0.00    -0.401 OA
ATOM     27  H1  UNL     1      -4.959   0.312  -2.269  1.00  0.00     0.209 HD
ENDBRANCH  25  26
ENDBRANCH  24  25
ENDBRANCH  23  24
ENDBRANCH   5  23
TORSDOF 8
