REMARK  18 active torsions:
REMARK  status: ('A' for Active; 'I' for Inactive)
REMARK    1  A    between atoms: O1_2  and  C2_3 
REMARK    2  A    between atoms: C2_3  and  O3_21 
REMARK    3  A    between atoms: N1_4  and  N2_6 
REMARK    4  A    between atoms: C5_10  and  C6_11 
REMARK    5  A    between atoms: C7_17  and  N6_18 
REMARK    6  A    between atoms: O3_21  and  C8_22 
REMARK    7  A    between atoms: C8_22  and  C13_35 
REMARK    8  A    between atoms: C9_23  and  O4_24 
REMARK    9  A    between atoms: O4_24  and  C10_25 
REMARK   10  A    between atoms: C10_25  and  C11_27 
REMARK   11  A    between atoms: C11_27  and  O6_28 
REMARK   12  A    between atoms: C11_27  and  C12_30 
REMARK   13  A    between atoms: C12_30  and  O7_31 
REMARK   14  A    between atoms: C12_30  and  O8_33 
REMARK   15  A    between atoms: C13_35  and  O9_36 
REMARK   16  A    between atoms: O9_36  and  C14_37 
REMARK   17  A    between atoms: C17_43  and  N8_44 
REMARK   18  A    between atoms: C18_49  and  N10_50 
ROOT
HETATM    1  C8  UNL     1       0.605   0.552  -1.304  1.00  0.00     0.140 C 
HETATM    2  C9  UNL     1       1.136   1.675  -0.579  1.00  0.00     0.186 C 
ENDROOT
BRANCH   1   3
HETATM    3  O3  UNL     1      -0.262   0.918  -2.446  1.00  0.00    -0.268 OA
BRANCH   3   4
HETATM    4  C2  UNL     1      -1.657   0.979  -2.160  1.00  0.00     0.284 C 
HETATM    5  N1  UNL     1      -1.963   1.357  -1.032  1.00  0.00    -0.257 N 
ATOM      6  H1  UNL     1      -1.123   1.565  -0.493  1.00  0.00     0.191 HD
BRANCH   4   7
HETATM    7  O1  UNL     1      -2.587   0.630  -3.100  1.00  0.00    -0.320 OA
HETATM    8  C1  UNL     1      -3.704   1.418  -3.446  1.00  0.00     0.214 C 
ENDBRANCH   4   7
BRANCH   5   9
HETATM    9  N2  UNL     1      -3.066   1.584  -0.280  1.00  0.00    -0.257 N 
HETATM   10  C3  UNL     1      -3.695   2.825   0.214  1.00  0.00     0.420 C 
HETATM   11  N3  UNL     1      -4.259   2.025   1.290  1.00  0.00     0.133 N 
HETATM   12  C4  UNL     1      -3.353   2.036   2.413  1.00  0.00     0.315 C 
HETATM   13  C5  UNL     1      -4.132   0.879   0.415  1.00  0.00     0.398 C 
BRANCH  13  14
HETATM   14  C6  UNL     1      -3.741  -0.362   1.083  1.00  0.00     0.133 A 
HETATM   15  N4  UNL     1      -2.699  -0.670   1.852  1.00  0.00    -0.238 N 
HETATM   16  O2  UNL     1      -2.796  -1.914   2.207  1.00  0.00    -0.155 OA
ATOM     17  H4  UNL     1      -1.948  -0.033   2.118  1.00  0.00     0.196 HD
HETATM   18  N5  UNL     1      -3.853  -2.470   1.720  1.00  0.00    -0.224 N 
HETATM   19  C7  UNL     1      -4.486  -1.545   1.006  1.00  0.00     0.150 A 
ATOM     20  H5  UNL     1      -4.147  -3.437   1.857  1.00  0.00     0.198 HD
BRANCH  19  21
HETATM   21  N6  UNL     1      -5.596  -1.737   0.362  1.00  0.00    -0.382 N 
ATOM     22  H62 UNL     1      -6.082  -1.027  -0.186  1.00  0.00     0.157 HD
ATOM     23  H61 UNL     1      -6.139  -2.599   0.306  1.00  0.00     0.157 HD
ENDBRANCH  19  21
ENDBRANCH  13  14
ENDBRANCH   5   9
ENDBRANCH   3   4
ENDBRANCH   1   3
BRANCH   1  24
HETATM   24  C13 UNL     1       0.723  -0.711  -1.199  1.00  0.00     0.160 C 
HETATM   25  C16 UNL     1       1.432  -1.479  -0.215  1.00  0.00     0.173 A 
HETATM   26  N7  UNL     1       1.123  -1.357   1.123  1.00  0.00    -0.173 N 
HETATM   27  N11 UNL     1       2.413  -2.359  -0.467  1.00  0.00    -0.173 N 
HETATM   28  C17 UNL     1       1.732  -2.042   2.090  1.00  0.00     0.692 A 
ATOM     29  H7  UNL     1       0.385  -0.704   1.388  1.00  0.00     0.186 HD
HETATM   30  N9  UNL     1       2.694  -2.894   1.755  1.00  0.00    -0.023 N 
HETATM   31  C18 UNL     1       3.055  -3.072   0.479  1.00  0.00     0.692 A 
ATOM     32  H9  UNL     1       3.168  -3.424   2.486  1.00  0.00     0.203 HD
ATOM     33  H11 UNL     1       2.691  -2.497  -1.439  1.00  0.00     0.186 HD
BRANCH  24  34
HETATM   34  O9  UNL     1       0.044  -1.513  -2.171  1.00  0.00    -0.272 OA
BRANCH  34  35
HETATM   35  C14 UNL     1       0.548  -1.798  -3.401  1.00  0.00     0.260 C 
HETATM   36  C15 UNL     1      -0.309  -2.672  -4.283  1.00  0.00     0.126 C 
HETATM   37  O10 UNL     1       1.651  -1.369  -3.787  1.00  0.00    -0.265 OA
ENDBRANCH  34  35
ENDBRANCH  24  34
BRANCH  28  38
HETATM   38  N8  UNL     1       1.429  -1.914   3.343  1.00  0.00    -0.234 N 
ATOM     39  H82 UNL     1       0.690  -1.260   3.600  1.00  0.00     0.174 HD
ATOM     40  H81 UNL     1       1.895  -2.438   4.083  1.00  0.00     0.174 HD
ENDBRANCH  28  38
BRANCH  31  41
HETATM   41  N10 UNL     1       3.988  -3.899   0.157  1.00  0.00    -0.234 N 
ATOM     42 2H10 UNL     1       4.474  -4.439   0.873  1.00  0.00     0.174 HD
ATOM     43 1H10 UNL     1       4.263  -4.035  -0.816  1.00  0.00     0.174 HD
ENDBRANCH  31  41
ENDBRANCH   1  24
BRANCH   2  44
HETATM   44  O4  UNL     1       2.001   1.511   0.454  1.00  0.00    -0.286 OA
BRANCH  44  45
HETATM   45  C10 UNL     1       3.368   1.193   0.325  1.00  0.00     0.297 C 
HETATM   46  O5  UNL     1       3.820   1.062  -0.837  1.00  0.00    -0.262 OA
BRANCH  45  47
HETATM   47  C11 UNL     1       4.267   1.012   1.465  1.00  0.00     0.272 C 
BRANCH  47  48
HETATM   48  O6  UNL     1       3.667   1.178   2.688  1.00  0.00    -0.381 OA
ATOM     49  H6  UNL     1       4.251   1.060   3.428  1.00  0.00     0.210 HD
ENDBRANCH  47  48
BRANCH  47  50
HETATM   50  C12 UNL     1       5.455   1.972   1.330  1.00  0.00     0.292 C 
BRANCH  50  51
HETATM   51  O7  UNL     1       6.389   1.715   2.332  1.00  0.00    -0.368 OA
ATOM     52  H7  UNL     1       7.125   2.310   2.248  1.00  0.00     0.212 HD
ENDBRANCH  50  51
BRANCH  50  53
HETATM   53  O8  UNL     1       5.035   3.297   1.311  1.00  0.00    -0.368 OA
ATOM     54  H8  UNL     1       5.771   3.892   1.227  1.00  0.00     0.212 HD
ENDBRANCH  50  53
ENDBRANCH  47  50
ENDBRANCH  45  47
ENDBRANCH  44  45
ENDBRANCH   2  44
TORSDOF 18
