REMARK  3 active torsions:
REMARK  status: ('A' for Active; 'I' for Inactive)
REMARK    1  A    between atoms: O1_1  and  C1_3 
REMARK    2  A    between atoms: N1_7  and  C5_8 
REMARK    3  A    between atoms: C6_9  and  C7_10 
ROOT
HETATM    1  C5  UNL     1      -0.179   0.398   0.284  1.00  0.00     0.046 A 
HETATM    2  C6  UNL     1      -0.307   1.695  -0.217  1.00  0.00    -0.011 A 
HETATM    3  C10 UNL     1      -1.500   2.360  -0.313  1.00  0.00     0.097 A 
HETATM    4  N2  UNL     1      -2.629   1.749   0.083  1.00  0.00    -0.368 N 
ATOM      5  H2  UNL     1      -3.530   2.223   0.022  1.00  0.00     0.165 HD
HETATM    6  C11 UNL     1      -2.537   0.484   0.566  1.00  0.00     0.017 A 
HETATM    7  C12 UNL     1      -1.344  -0.173   0.661  1.00  0.00    -0.008 A 
HETATM    8  C13 UNL     1      -1.229  -1.615   1.059  1.00  0.00     0.043 C 
HETATM    9  C14 UNL     1      -1.884  -2.330  -0.118  1.00  0.00     0.005 C 
HETATM   10  C15 UNL     1      -3.367  -2.374   0.023  1.00  0.00     0.001 C 
HETATM   11  C16 UNL     1      -4.110  -1.120  -0.276  1.00  0.00     0.006 C 
HETATM   12  C17 UNL     1      -3.924  -0.080   0.860  1.00  0.00     0.057 C 
ENDROOT
BRANCH   1  13
HETATM   13  N1  UNL     1       1.069  -0.275   0.379  1.00  0.00    -0.377 N 
HETATM   14  C4  UNL     1       1.801  -0.011   1.614  1.00  0.00     0.123 C 
HETATM   15  C3  UNL     1       3.264  -0.136   1.484  1.00  0.00     0.022 C 
HETATM   16  C2  UNL     1       3.757  -1.197   0.544  1.00  0.00     0.035 C 
HETATM   17  C1  UNL     1       3.064  -1.171  -0.790  1.00  0.00     0.136 C 
HETATM   18  C18 UNL     1       1.584  -1.178  -0.640  1.00  0.00     0.154 C 
BRANCH  17  19
HETATM   19  O1  UNL     1       3.552  -0.209  -1.652  1.00  0.00    -0.394 OA
ATOM     20  H1  UNL     1       3.114  -0.193  -2.495  1.00  0.00     0.210 HD
ENDBRANCH  17  19
ENDBRANCH   1  13
BRANCH   2  21
HETATM   21  C7  UNL     1       0.940   2.342  -0.708  1.00  0.00     0.022 A 
HETATM   22  C8  UNL     1       0.613   3.208  -1.965  1.00  0.00     0.010 A 
HETATM   23  C9  UNL     1       1.005   3.847  -0.712  1.00  0.00     0.010 A 
ENDBRANCH   2  21
TORSDOF 3
