REMARK  10 active torsions:
REMARK  status: ('A' for Active; 'I' for Inactive)
REMARK    1  A    between atoms: C4_4  and  C5_5 
REMARK    2  A    between atoms: C5_5  and  C6_6 
REMARK    3  A    between atoms: C7_7  and  O1_8 
REMARK    4  A    between atoms: C8_10  and  C9_11 
REMARK    5  A    between atoms: C10_12  and  C11_13 
REMARK       I    between atoms: C11_13  and  N1_15 
REMARK    6  A    between atoms: N1_15  and  C12_17 
REMARK    7  A    between atoms: C12_17  and  C14_19 
REMARK    8  A    between atoms: C21_28  and  C22_29 
REMARK    9  A    between atoms: C23_33  and  C24_34 
REMARK   10  A    between atoms: C34_45  and  O5_46 
ROOT
HETATM    1  C6  UNL     1      -0.066   2.834  -0.579  1.00  0.00     0.013 A 
HETATM    2  C7  UNL     1       0.825   1.921  -0.035  1.00  0.00     0.085 A 
HETATM    3  C8  UNL     1       0.447   0.782   0.632  1.00  0.00    -0.001 A 
HETATM    4  C20 UNL     1      -0.963   0.616   0.725  1.00  0.00     0.033 A 
HETATM    5  C21 UNL     1      -1.861   1.490   0.206  1.00  0.00     0.051 A 
HETATM    6  C34 UNL     1      -1.435   2.592  -0.443  1.00  0.00     0.089 A 
ENDROOT
BRANCH   3   7
HETATM    7  C9  UNL     1       1.282  -0.286   1.100  1.00  0.00     0.020 C 
HETATM    8  C10 UNL     1       2.332  -0.932   0.830  1.00  0.00     0.075 C 
BRANCH   8   9
HETATM    9  C11 UNL     1       3.327  -0.949  -0.190  1.00  0.00     0.241 C 
HETATM   10  O2  UNL     1       3.329  -0.236  -1.200  1.00  0.00    -0.269 OA
HETATM   11  N1  UNL     1       4.464  -1.860  -0.094  1.00  0.00    -0.353 N 
ATOM     12  H1  UNL     1       4.532  -2.480   0.713  1.00  0.00     0.163 HD
BRANCH  11  13
HETATM   13  C12 UNL     1       5.481  -1.911  -1.090  1.00  0.00     0.084 C 
HETATM   14  C13 UNL     1       5.564  -3.296  -1.684  1.00  0.00     0.032 C 
BRANCH  13  15
HETATM   15  C14 UNL     1       6.806  -1.524  -0.495  1.00  0.00     0.008 C 
HETATM   16  C15 UNL     1       7.921  -1.563  -1.511  1.00  0.00     0.012 C 
HETATM   17  C16 UNL     1       9.139  -0.896  -0.907  1.00  0.00     0.079 C 
HETATM   18  C17 UNL     1       9.569  -1.712   0.293  1.00  0.00     0.243 C 
HETATM   19  F1  UNL     1      10.067  -2.930  -0.162  1.00  0.00    -0.206 F 
HETATM   20  F2  UNL     1      10.616  -1.068   0.953  1.00  0.00    -0.206 F 
HETATM   21  C18 UNL     1       8.465  -1.901   1.280  1.00  0.00     0.079 C 
HETATM   22  C19 UNL     1       7.172  -2.367   0.688  1.00  0.00     0.012 C 
ENDBRANCH  13  15
ENDBRANCH  11  13
ENDBRANCH   8   9
ENDBRANCH   3   7
BRANCH   2  23
HETATM   23  O1  UNL     1       2.175   2.207  -0.179  1.00  0.00    -0.359 OA
ATOM     24  H1  UNL     1       2.785   1.582   0.194  1.00  0.00     0.217 HD
ENDBRANCH   2  23
BRANCH   1  25
HETATM   25  C5  UNL     1       0.435   4.050  -1.263  1.00  0.00     0.072 C 
BRANCH  25  26
HETATM   26  C4  UNL     1       0.857   5.099  -0.290  1.00  0.00    -0.020 C 
HETATM   27  C2  UNL     1       0.407   6.342  -0.295  1.00  0.00    -0.091 C 
HETATM   28  C1  UNL     1       0.959   7.258   0.782  1.00  0.00     0.042 C 
HETATM   29  C3  UNL     1      -0.564   6.885  -1.276  1.00  0.00     0.042 C 
ENDBRANCH  25  26
ENDBRANCH   1  25
BRANCH   5  30
HETATM   30  C22 UNL     1      -3.296   1.188   0.380  1.00  0.00     0.178 C 
HETATM   31  N2  UNL     1      -4.306   1.841  -0.003  1.00  0.00    -0.241 N 
HETATM   32  O3  UNL     1      -5.493   1.255   0.339  1.00  0.00    -0.244 OA
ATOM     33  H2  UNL     1      -4.243   2.720  -0.517  1.00  0.00     0.196 HD
HETATM   34  C23 UNL     1      -5.159   0.186   1.193  1.00  0.00     0.305 C 
HETATM   35  O4  UNL     1      -3.790   0.051   1.043  1.00  0.00    -0.299 OA
BRANCH  34  36
HETATM   36  C24 UNL     1      -5.941  -1.021   0.732  1.00  0.00     0.013 C 
HETATM   37  C25 UNL     1      -5.573  -2.175   1.641  1.00  0.00     0.019 C 
HETATM   38  C26 UNL     1      -6.365  -3.419   1.294  1.00  0.00    -0.013 C 
HETATM   39  C27 UNL     1      -7.840  -3.104   1.480  1.00  0.00     0.009 C 
HETATM   40  C31 UNL     1      -6.158  -3.797  -0.145  1.00  0.00     0.009 C 
HETATM   41  C28 UNL     1      -8.232  -1.983   0.560  1.00  0.00    -0.013 C 
HETATM   42  C29 UNL     1      -7.954  -2.314  -0.886  1.00  0.00     0.009 C 
HETATM   43  C33 UNL     1      -7.423  -0.763   0.927  1.00  0.00     0.019 C 
HETATM   44  C30 UNL     1      -6.484  -2.619  -1.019  1.00  0.00    -0.013 C 
HETATM   45  C32 UNL     1      -5.638  -1.409  -0.675  1.00  0.00     0.019 C 
ENDBRANCH  34  36
ENDBRANCH   5  30
BRANCH   6  46
HETATM   46  O5  UNL     1      -2.240   3.546  -1.014  1.00  0.00    -0.359 OA
ATOM     47  H5  UNL     1      -3.171   3.381  -0.922  1.00  0.00     0.217 HD
ENDBRANCH   6  46
TORSDOF 10
