REMARK  11 active torsions:
REMARK  status: ('A' for Active; 'I' for Inactive)
REMARK    1  A    between atoms: C5_5  and  C6_6 
REMARK    2  A    between atoms: C6_6  and  C7_7 
REMARK    3  A    between atoms: C10_10  and  N1_11 
REMARK    4  A    between atoms: N1_11  and  C11_13 
REMARK    5  A    between atoms: C12_14  and  O1_15 
REMARK    6  A    between atoms: C12_14  and  C13_17 
REMARK    7  A    between atoms: C13_17  and  N2_18 
REMARK    8  A    between atoms: C14_19  and  N3_20 
REMARK    9  A    between atoms: N3_20  and  C15_21 
REMARK   10  A    between atoms: C22_29  and  C23_30 
REMARK   11  A    between atoms: C25_32  and  O2_33 
ROOT
HETATM    1  N2  UNL     1      -3.624   0.360   1.642  1.00  0.00    -0.296 N 
HETATM    2  C14 UNL     1      -3.903  -0.365   2.769  1.00  0.00     0.260 A 
HETATM    3  N4  UNL     1      -4.370  -1.575   2.295  1.00  0.00    -0.309 N 
HETATM    4  C18 UNL     1      -4.793  -2.691   3.143  1.00  0.00     0.161 C 
HETATM    5  C19 UNL     1      -4.385  -1.590   0.972  1.00  0.00     0.068 A 
HETATM    6  C20 UNL     1      -4.801  -2.539   0.040  1.00  0.00     0.033 A 
HETATM    7  C21 UNL     1      -4.754  -2.258  -1.306  1.00  0.00     0.018 A 
HETATM    8  C22 UNL     1      -4.300  -1.043  -1.762  1.00  0.00     0.017 A 
HETATM    9  C29 UNL     1      -3.892  -0.123  -0.820  1.00  0.00     0.156 A 
HETATM   10  F1  UNL     1      -3.515   1.073  -1.299  1.00  0.00    -0.203 F 
HETATM   11  C30 UNL     1      -3.919  -0.373   0.561  1.00  0.00     0.105 A 
ENDROOT
BRANCH   1  12
HETATM   12  C13 UNL     1      -3.116   1.691   1.659  1.00  0.00     0.199 C 
BRANCH  12  13
HETATM   13  C12 UNL     1      -1.721   1.976   1.962  1.00  0.00     0.076 C 
HETATM   14  C11 UNL     1      -0.528   1.484   1.327  1.00  0.00     0.117 C 
BRANCH  14  15
HETATM   15  N1  UNL     1      -0.392   1.297  -0.073  1.00  0.00    -0.392 N 
ATOM     16  H1  UNL     1      -1.144   1.434  -0.748  1.00  0.00     0.159 HD
BRANCH  15  17
HETATM   17  C10 UNL     1       0.975   0.879  -0.424  1.00  0.00     0.081 C 
HETATM   18  C9  UNL     1       1.304  -0.448   0.223  1.00  0.00     0.025 C 
HETATM   19  C8  UNL     1       2.019  -1.367  -0.725  1.00  0.00     0.006 C 
HETATM   20  C7  UNL     1       3.134  -0.649  -1.469  1.00  0.00    -0.014 C 
HETATM   21  C32 UNL     1       2.586   0.539  -2.231  1.00  0.00     0.006 C 
HETATM   22  C31 UNL     1       1.113   0.685  -1.907  1.00  0.00     0.025 C 
BRANCH  20  23
HETATM   23  C6  UNL     1       4.219  -0.222  -0.511  1.00  0.00     0.009 C 
BRANCH  23  24
HETATM   24  C5  UNL     1       5.363   0.450  -1.213  1.00  0.00    -0.014 C 
HETATM   25  C4  UNL     1       6.082  -0.418  -2.203  1.00  0.00     0.005 C 
HETATM   26  C3  UNL     1       7.441  -0.861  -1.680  1.00  0.00     0.004 C 
HETATM   27  C2  UNL     1       8.397   0.286  -1.487  1.00  0.00    -0.019 C 
HETATM   28  C1  UNL     1       9.140   0.630  -2.767  1.00  0.00     0.010 C 
HETATM   29  C34 UNL     1       7.596   1.464  -0.958  1.00  0.00     0.004 C 
HETATM   30  C33 UNL     1       6.376   0.959  -0.193  1.00  0.00     0.005 C 
ENDBRANCH  23  24
ENDBRANCH  20  23
ENDBRANCH  15  17
ENDBRANCH  14  15
BRANCH  13  31
HETATM   31  O1  UNL     1      -1.451   2.024   3.381  1.00  0.00    -0.362 OA
ATOM     32  H1  UNL     1      -2.239   2.349   3.800  1.00  0.00     0.217 HD
ENDBRANCH  13  31
ENDBRANCH  12  13
ENDBRANCH   1  12
BRANCH   2  33
HETATM   33  N3  UNL     1      -3.866  -0.087   3.943  1.00  0.00    -0.410 NA
BRANCH  33  34
HETATM   34  C15 UNL     1      -3.823   0.223   5.223  1.00  0.00     0.158 C 
HETATM   35  C16 UNL     1      -5.135   0.827   5.798  1.00  0.00     0.047 C 
HETATM   36  C17 UNL     1      -3.519  -0.913   6.212  1.00  0.00     0.047 C 
ENDBRANCH  33  34
ENDBRANCH   2  33
BRANCH   8  37
HETATM   37  C23 UNL     1      -4.275  -0.716  -3.197  1.00  0.00     0.002 A 
HETATM   38  C24 UNL     1      -4.869   0.454  -3.633  1.00  0.00     0.050 A 
HETATM   39  C25 UNL     1      -4.898   0.816  -4.961  1.00  0.00     0.066 A 
HETATM   40  C26 UNL     1      -4.329   0.015  -5.916  1.00  0.00     0.038 A 
HETATM   41  C27 UNL     1      -3.728  -1.167  -5.493  1.00  0.00     0.027 A 
HETATM   42  C28 UNL     1      -3.708  -1.518  -4.143  1.00  0.00     0.045 A 
HETATM   43 CL1  UNL     1      -2.930  -3.014  -3.644  1.00  0.00    -0.083 Cl
BRANCH  39  44
HETATM   44  O2  UNL     1      -5.516   2.008  -5.301  1.00  0.00    -0.361 OA
ATOM     45  H2  UNL     1      -5.536   2.258  -6.217  1.00  0.00     0.217 HD
ENDBRANCH  39  44
ENDBRANCH   8  37
TORSDOF 11
