REMARK  9 active torsions:
REMARK  status: ('A' for Active; 'I' for Inactive)
REMARK    1  A    between atoms: C2_3  and  C3_4 
REMARK    2  A    between atoms: C3_4  and  O1_5 
REMARK    3  A    between atoms: C4_7  and  C5_8 
REMARK       I    between atoms: C5_8  and  N2_10 
REMARK    4  A    between atoms: N2_10  and  N3_12 
REMARK    5  A    between atoms: N3_12  and  C6_13 
REMARK    6  A    between atoms: C6_13  and  O3_14 
REMARK    7  A    between atoms: C7_16  and  N4_17 
REMARK    8  A    between atoms: N4_17  and  C8_19 
REMARK    9  A    between atoms: C11_22  and  C12_23 
ROOT
HETATM    1  N3  UNL     1       0.252  -1.737   0.968  1.00  0.00    -0.295 NA
ENDROOT
BRANCH   1   2
HETATM    2  N2  UNL     1      -1.023  -1.940   0.474  1.00  0.00    -0.196 N 
HETATM    3  C5  UNL     1      -1.813  -0.818   0.198  1.00  0.00     0.287 C 
HETATM    4  O2  UNL     1      -1.153   0.298   0.228  1.00  0.00    -0.265 OA
ATOM      5  H2  UNL     1      -1.379  -2.883   0.315  1.00  0.00     0.205 HD
BRANCH   3   6
HETATM    6  C4  UNL     1      -3.213  -0.651  -0.052  1.00  0.00     0.127 A 
HETATM    7  C2  UNL     1      -3.759   0.290  -0.935  1.00  0.00     0.060 A 
HETATM    8  N1  UNL     1      -5.040   0.718  -0.747  1.00  0.00    -0.304 N 
HETATM    9  C1  UNL     1      -5.690   1.808  -1.467  1.00  0.00     0.161 C 
HETATM   10  C15 UNL     1      -5.814   0.241   0.273  1.00  0.00     0.331 A 
HETATM   11  N8  UNL     1      -5.316  -0.693   1.138  1.00  0.00    -0.270 N 
HETATM   12  O6  UNL     1      -6.988   0.672   0.448  1.00  0.00    -0.246 OA
HETATM   13  C13 UNL     1      -4.073  -1.119   0.989  1.00  0.00     0.269 A 
HETATM   14  C14 UNL     1      -6.139  -1.124   2.268  1.00  0.00     0.164 C 
HETATM   15  O5  UNL     1      -3.559  -1.966   1.749  1.00  0.00    -0.267 OA
BRANCH   7  16
HETATM   16  C3  UNL     1      -3.000   0.565  -2.144  1.00  0.00     0.222 C 
BRANCH  16  17
HETATM   17  O1  UNL     1      -3.478   1.468  -3.025  1.00  0.00    -0.395 OA
ATOM     18  H1  UNL     1      -2.982   1.648  -3.815  1.00  0.00     0.209 HD
ENDBRANCH  16  17
ENDBRANCH   7  16
ENDBRANCH   3   6
ENDBRANCH   1   2
BRANCH   1  19
HETATM   19  C6  UNL     1       1.432  -1.557   1.437  1.00  0.00     0.254 C 
HETATM   20  C7  UNL     1       2.636  -0.855   1.180  1.00  0.00     0.163 C 
BRANCH  19  21
HETATM   21  O3  UNL     1       1.707  -2.301   2.619  1.00  0.00    -0.333 OA
ATOM     22  H3  UNL     1       2.581  -2.168   2.966  1.00  0.00     0.220 HD
ENDBRANCH  19  21
BRANCH  20  23
HETATM   23  N4  UNL     1       2.794   0.168   0.198  1.00  0.00    -0.346 N 
ATOM     24  H4  UNL     1       2.001   0.725  -0.120  1.00  0.00     0.167 HD
BRANCH  23  25
HETATM   25  C8  UNL     1       4.005   0.365  -0.281  1.00  0.00     0.119 A 
HETATM   26  C9  UNL     1       5.086  -0.393   0.099  1.00  0.00     0.052 A 
HETATM   27  C10 UNL     1       6.398   0.045  -0.034  1.00  0.00     0.040 A 
HETATM   28  C11 UNL     1       6.627   1.291  -0.599  1.00  0.00     0.113 A 
HETATM   29  N6  UNL     1       5.573   1.970  -0.974  1.00  0.00    -0.294 N 
HETATM   30  N7  UNL     1       4.291   1.584  -0.848  1.00  0.00    -0.285 N 
ATOM     31  H6  UNL     1       5.740   2.880  -1.403  1.00  0.00     0.187 HD
ATOM     32  H7  UNL     1       3.537   2.191  -1.170  1.00  0.00     0.188 HD
BRANCH  28  33
HETATM   33  C12 UNL     1       8.037   1.761  -0.660  1.00  0.00     0.282 C 
HETATM   34  N5  UNL     1       9.050   0.734  -0.386  1.00  0.00    -0.056 NA
HETATM   35  O4  UNL     1       8.377   2.892  -0.910  1.00  0.00    -0.269 OA
ENDBRANCH  28  33
ENDBRANCH  23  25
ENDBRANCH  20  23
ENDBRANCH   1  19
TORSDOF 9
