REMARK  8 active torsions:
REMARK  status: ('A' for Active; 'I' for Inactive)
REMARK    1  A    between atoms: N2_5  and  C3_6 
REMARK    2  A    between atoms: C3_6  and  C4_7 
REMARK    3  A    between atoms: C7_16  and  N5_17 
REMARK       I    between atoms: N5_17  and  C8_19 
REMARK    4  A    between atoms: N7_21  and  C9_23 
REMARK    5  A    between atoms: C9_23  and  C10_24 
REMARK    6  A    between atoms: N8_25  and  O4_26 
REMARK    7  A    between atoms: N9_28  and  C11_29 
REMARK    8  A    between atoms: C11_29  and  O5_30 
ROOT
HETATM    1  N5  UNL     1      -0.246  -0.480  -0.439  1.00  0.00    -0.314 N 
ATOM      2  H5  UNL     1      -0.136  -0.895   0.486  1.00  0.00     0.170 HD
HETATM    3  C8  UNL     1       0.924  -0.265  -1.190  1.00  0.00     0.190 C 
HETATM    4  N6  UNL     1       1.405  -1.294  -2.022  1.00  0.00    -0.063 NA
HETATM    5  N7  UNL     1       1.540   0.849  -1.117  1.00  0.00    -0.357 N 
ATOM      6  H7  UNL     1       1.142   1.554  -0.497  1.00  0.00     0.162 HD
ENDROOT
BRANCH   1   7
HETATM    7  C7  UNL     1      -1.428  -0.202  -0.814  1.00  0.00     0.152 A 
HETATM    8  N4  UNL     1      -1.726   0.346  -2.004  1.00  0.00    -0.281 N 
HETATM    9  N3  UNL     1      -2.976   0.620  -2.356  1.00  0.00    -0.263 N 
ATOM     10  H4  UNL     1      -0.970   0.557  -2.655  1.00  0.00     0.188 HD
HETATM   11  C6  UNL     1      -4.036   0.377  -1.564  1.00  0.00     0.289 A 
ATOM     12  H3  UNL     1      -3.141   1.036  -3.273  1.00  0.00     0.190 HD
HETATM   13  C5  UNL     1      -3.798  -0.186  -0.328  1.00  0.00     0.140 A 
HETATM   14  O3  UNL     1      -5.223   0.658  -1.947  1.00  0.00    -0.264 OA
HETATM   15  N2  UNL     1      -4.621  -0.538   0.660  1.00  0.00    -0.286 N 
HETATM   16  C12 UNL     1      -2.482  -0.470   0.034  1.00  0.00     0.117 A 
HETATM   17  C2  UNL     1      -3.839  -1.038   1.634  1.00  0.00     0.330 A 
HETATM   18  N1  UNL     1      -2.548  -1.001   1.263  1.00  0.00    -0.298 N 
HETATM   19  O1  UNL     1      -4.222  -1.487   2.747  1.00  0.00    -0.246 OA
HETATM   20  C1  UNL     1      -1.381  -1.439   2.010  1.00  0.00     0.161 C 
BRANCH  15  21
HETATM   21  C3  UNL     1      -6.065  -0.426   0.723  1.00  0.00     0.203 C 
BRANCH  21  22
HETATM   22  C4  UNL     1      -6.441   0.884   1.299  1.00  0.00     0.251 C 
HETATM   23  O2  UNL     1      -7.623   1.144   1.424  1.00  0.00    -0.305 OA
ENDBRANCH  21  22
ENDBRANCH  15  21
ENDBRANCH   1   7
BRANCH   5  24
HETATM   24  C9  UNL     1       2.733   1.207  -1.818  1.00  0.00     0.204 C 
BRANCH  24  25
HETATM   25  C10 UNL     1       3.928   1.093  -0.933  1.00  0.00     0.160 C 
HETATM   26  N8  UNL     1       4.013   0.739   0.297  1.00  0.00    -0.131 N 
HETATM   27  N9  UNL     1       5.332   0.767   0.757  1.00  0.00    -0.166 N 
HETATM   28  N10 UNL     1       6.052   1.543  -0.157  1.00  0.00     0.001 NA
HETATM   29  N11 UNL     1       5.269   1.379  -1.328  1.00  0.00    -0.267 N 
ATOM     30  H11 UNL     1       5.606   1.453  -2.288  1.00  0.00     0.185 HD
BRANCH  26  31
HETATM   31  O4  UNL     1       2.935   0.370   1.086  1.00  0.00    -0.265 OA
ATOM     32  H4  UNL     1       2.998   0.108   1.997  1.00  0.00     0.247 HD
ENDBRANCH  26  31
BRANCH  27  33
HETATM   33  C11 UNL     1       5.868   0.114   1.960  1.00  0.00     0.334 C 
BRANCH  33  34
HETATM   34  O5  UNL     1       5.666  -1.279   1.858  1.00  0.00    -0.379 OA
ATOM     35  H5  UNL     1       6.012  -1.701   2.635  1.00  0.00     0.211 HD
ENDBRANCH  33  34
ENDBRANCH  27  33
ENDBRANCH  24  25
ENDBRANCH   5  24
TORSDOF 8
