REMARK  5 active torsions:
REMARK  status: ('A' for Active; 'I' for Inactive)
REMARK    1  A    between atoms: C2_2  and  C3_3 
REMARK    2  A    between atoms: C5_8  and  C6_9 
REMARK    3  A    between atoms: C6_9  and  C7_10 
REMARK    4  A    between atoms: C7_10  and  O1_11 
REMARK    5  A    between atoms: C11_16  and  N2_17 
ROOT
HETATM    1  N2  UNL     1       0.542   3.007  -1.360  1.00  0.00    -0.363 N 
ATOM      2  H2  UNL     1       0.887   2.835  -2.304  1.00  0.00     0.161 HD
HETATM    3  C12 UNL     1       0.340   4.220  -0.968  1.00  0.00     0.179 C 
HETATM    4  C13 UNL     1      -0.141   4.457   0.350  1.00  0.00     0.104 C 
HETATM    5  N3  UNL     1      -0.513   4.645   1.425  1.00  0.00    -0.191 NA
ENDROOT
BRANCH   1   6
HETATM    6  C11 UNL     1       0.286   1.887  -0.480  1.00  0.00     0.285 C 
HETATM    7  C10 UNL     1      -1.181   1.455  -0.564  1.00  0.00     0.061 C 
HETATM    8  C9  UNL     1      -1.311   0.032  -0.021  1.00  0.00     0.022 C 
HETATM    9  C3  UNL     1      -1.225  -0.996  -1.113  1.00  0.00     0.190 C 
HETATM   10  C8  UNL     1      -0.163  -0.145   0.952  1.00  0.00     0.047 C 
HETATM   11  N1  UNL     1      -0.310  -2.065  -0.827  1.00  0.00    -0.068 N 
HETATM   12  C4  UNL     1       1.037  -1.634  -0.548  1.00  0.00     0.271 C 
ATOM     13  H12 UNL     1      -0.664  -2.643  -0.065  1.00  0.00     0.277 HD
ATOM     14  H11 UNL     1      -0.316  -2.750  -1.582  1.00  0.00     0.277 HD
HETATM   15  C5  UNL     1       1.096  -0.282   0.128  1.00  0.00     0.154 C 
HETATM   16  N4  UNL     1       1.072   0.765  -0.906  1.00  0.00    -0.044 N 
ATOM     17  H42 UNL     1       2.014   1.046  -1.179  1.00  0.00     0.280 HD
ATOM     18  H41 UNL     1       0.753   0.401  -1.804  1.00  0.00     0.280 HD
BRANCH   9  19
HETATM   19  C2  UNL     1      -2.560  -1.608  -1.453  1.00  0.00     0.029 C 
HETATM   20  C1  UNL     1      -3.143  -2.434  -0.361  1.00  0.00     0.007 C 
ENDBRANCH   9  19
BRANCH  15  21
HETATM   21  C6  UNL     1       2.337  -0.064   0.928  1.00  0.00     0.067 C 
BRANCH  21  22
HETATM   22  C7  UNL     1       2.555  -1.032   2.038  1.00  0.00     0.166 C 
BRANCH  22  23
HETATM   23  O1  UNL     1       3.766  -0.662   2.669  1.00  0.00    -0.401 OA
ATOM     24  H1  UNL     1       3.905  -1.280   3.377  1.00  0.00     0.209 HD
ENDBRANCH  22  23
ENDBRANCH  21  22
ENDBRANCH  15  21
ENDBRANCH   1   6
TORSDOF 5
