REMARK  4 active torsions:
REMARK  status: ('A' for Active; 'I' for Inactive)
REMARK       I    between atoms: C1_2  and  N2_4 
REMARK    1  A    between atoms: N2_4  and  N3_6 
REMARK    2  A    between atoms: N4_8  and  C2_10 
REMARK    3  A    between atoms: C4_15  and  N7_16 
REMARK       I    between atoms: N7_16  and  C5_18 
REMARK       I    between atoms: C5_18  and  N8_19 
REMARK       I    between atoms: C5_18  and  N9_23 
REMARK    4  A    between atoms: N10_27  and  N11_28 
ROOT
HETATM    1  C2  UNL     1       0.742   1.423   0.362  1.00  0.00     0.162 A 
HETATM    2  C3  UNL     1      -0.263   1.493  -0.576  1.00  0.00     0.165 A 
HETATM    3  N5  UNL     1      -0.217   2.450  -1.620  1.00  0.00    -0.079 NA
HETATM    4  N6  UNL     1      -1.299   0.613  -0.469  1.00  0.00    -0.175 N 
ATOM      5  H6  UNL     1      -2.053   0.649  -1.155  1.00  0.00     0.185 HD
HETATM    6  C4  UNL     1      -1.355  -0.296   0.510  1.00  0.00     0.706 A 
HETATM    7  N10 UNL     1      -0.363  -0.340   1.409  1.00  0.00    -0.052 N 
HETATM    8  C6  UNL     1       0.699   0.503   1.366  1.00  0.00     0.313 A 
HETATM    9  O2  UNL     1       1.623   0.427   2.242  1.00  0.00    -0.263 OA
ENDROOT
BRANCH   6  10
HETATM   10  N7  UNL     1      -2.329  -1.116   0.602  1.00  0.00    -0.172 N 
HETATM   11  C5  UNL     1      -3.466  -1.235  -0.237  1.00  0.00     0.494 C 
HETATM   12  N8  UNL     1      -4.330  -0.071  -0.248  1.00  0.00    -0.032 N 
HETATM   13  N9  UNL     1      -3.190  -1.596  -1.599  1.00  0.00    -0.032 N 
ATOM     14  H83 UNL     1      -4.613   0.170   0.702  1.00  0.00     0.278 HD
ATOM     15  H82 UNL     1      -3.797   0.765  -0.489  1.00  0.00     0.278 HD
ATOM     16  H81 UNL     1      -5.148  -0.157  -0.851  1.00  0.00     0.278 HD
ATOM     17  H93 UNL     1      -2.522  -0.942  -2.006  1.00  0.00     0.278 HD
ATOM     18  H92 UNL     1      -2.641  -2.455  -1.629  1.00  0.00     0.278 HD
ATOM     19  H91 UNL     1      -4.008  -1.682  -2.202  1.00  0.00     0.278 HD
ATOM     20  H7  UNL     1      -2.283  -1.772   1.382  1.00  0.00     0.181 HD
ENDBRANCH   6  10
BRANCH   7  21
HETATM   21  N11 UNL     1      -0.435  -1.282   2.412  1.00  0.00    -0.321 N 
ATOM     22 2H11 UNL     1      -1.234  -1.916   2.444  1.00  0.00     0.178 HD
ATOM     23 1H11 UNL     1       0.320  -1.316   3.097  1.00  0.00     0.178 HD
ENDBRANCH   7  21
BRANCH   1  24
HETATM   24  N4  UNL     1       1.836   2.345   0.258  1.00  0.00    -0.278 N 
HETATM   25  N3  UNL     1       3.015   1.969  -0.018  1.00  0.00    -0.238 N 
ATOM     26  H3  UNL     1       3.753   2.671  -0.079  1.00  0.00     0.208 HD
ATOM     27  H4  UNL     1       1.659   3.338   0.411  1.00  0.00     0.189 HD
BRANCH  25  28
HETATM   28  N2  UNL     1       3.343   0.623  -0.243  1.00  0.00    -0.239 N 
HETATM   29  C1  UNL     1       4.678   0.160  -0.079  1.00  0.00     0.348 C 
HETATM   30  N1  UNL     1       5.002  -1.203  -0.308  1.00  0.00    -0.038 NA
HETATM   31  O1  UNL     1       5.571   0.976   0.274  1.00  0.00    -0.249 OA
ATOM     32  H2  UNL     1       2.615  -0.032  -0.528  1.00  0.00     0.193 HD
ENDBRANCH  25  28
ENDBRANCH   1  24
TORSDOF 4
