REMARK  14 active torsions:
REMARK  status: ('A' for Active; 'I' for Inactive)
REMARK    1  A    between atoms: C3_4  and  O2_5 
REMARK    2  A    between atoms: O2_5  and  C4_6 
REMARK    3  A    between atoms: C5_7  and  O3_8 
REMARK    4  A    between atoms: C6_10  and  N1_11 
REMARK    5  A    between atoms: C8_16  and  N2_17 
REMARK    6  A    between atoms: C9_21  and  O4_22 
REMARK    7  A    between atoms: O4_22  and  C10_23 
REMARK    8  A    between atoms: C11_25  and  C12_26 
REMARK    9  A    between atoms: C12_26  and  N3_27 
REMARK   10  A    between atoms: C13_31  and  O6_32 
REMARK   11  A    between atoms: C15_35  and  N4_36 
REMARK   12  A    between atoms: C16_41  and  C17_42 
REMARK   13  A    between atoms: C17_42  and  O8_43 
REMARK   14  A    between atoms: C18_45  and  N5_46 
ROOT
HETATM    1  C4  UNL     1      -0.644  -0.608   1.168  1.00  0.00     0.188 C 
HETATM    2  C5  UNL     1      -1.276  -1.087   2.451  1.00  0.00     0.180 C 
HETATM    3  C6  UNL     1      -0.178  -1.789   3.231  1.00  0.00     0.216 C 
HETATM    4  C7  UNL     1       0.704  -0.698   3.767  1.00  0.00     0.071 C 
HETATM    5  C8  UNL     1       1.089   0.322   2.749  1.00  0.00     0.217 C 
HETATM    6  C9  UNL     1       0.681   0.046   1.358  1.00  0.00     0.186 C 
ENDROOT
BRANCH   6   7
HETATM    7  O4  UNL     1       1.667  -0.698   0.697  1.00  0.00    -0.349 OA
BRANCH   7   8
HETATM    8  C10 UNL     1       2.254  -0.035  -0.351  1.00  0.00     0.291 C 
HETATM    9  O5  UNL     1       3.581   0.159  -0.095  1.00  0.00    -0.350 OA
HETATM   10  C11 UNL     1       4.248   0.765  -1.179  1.00  0.00     0.178 C 
HETATM   11  C13 UNL     1       4.342  -0.323  -2.235  1.00  0.00     0.151 C 
HETATM   12  C14 UNL     1       2.933  -0.574  -2.715  1.00  0.00     0.072 C 
HETATM   13  C15 UNL     1       1.956  -0.795  -1.611  1.00  0.00     0.240 C 
BRANCH  10  14
HETATM   14  C12 UNL     1       5.611   1.251  -0.739  1.00  0.00     0.264 C 
BRANCH  14  15
HETATM   15  N3  UNL     1       6.299   1.870  -1.829  1.00  0.00    -0.077 N 
ATOM     16  H33 UNL     1       6.360   1.252  -2.638  1.00  0.00     0.274 HD
ATOM     17  H32 UNL     1       5.748   2.618  -2.249  1.00  0.00     0.274 HD
ATOM     18  H31 UNL     1       7.218   2.198  -1.532  1.00  0.00     0.274 HD
ENDBRANCH  14  15
ENDBRANCH  10  14
BRANCH  11  19
HETATM   19  O6  UNL     1       4.752  -1.481  -1.577  1.00  0.00    -0.393 OA
ATOM     20  H6  UNL     1       4.811  -2.161  -2.237  1.00  0.00     0.210 HD
ENDBRANCH  11  19
BRANCH  13  21
HETATM   21  N4  UNL     1       1.835  -2.223  -1.334  1.00  0.00    -0.070 N 
ATOM     22  H43 UNL     1       2.660  -2.588  -0.858  1.00  0.00     0.274 HD
ATOM     23  H42 UNL     1       1.145  -2.410  -0.607  1.00  0.00     0.274 HD
ATOM     24  H41 UNL     1       1.633  -2.739  -2.190  1.00  0.00     0.274 HD
ENDBRANCH  13  21
ENDBRANCH   7   8
ENDBRANCH   6   7
BRANCH   1  25
HETATM   25  O2  UNL     1      -1.559   0.242   0.559  1.00  0.00    -0.328 OA
BRANCH  25  26
HETATM   26  C3  UNL     1      -2.064  -0.294  -0.647  1.00  0.00     0.414 C 
HETATM   27  O1  UNL     1      -1.751   0.569  -1.635  1.00  0.00    -0.332 OA
HETATM   28  C2  UNL     1      -2.703   1.036  -2.476  1.00  0.00     0.156 C 
HETATM   29  C1  UNL     1      -2.894   0.009  -3.585  1.00  0.00     0.042 C 
HETATM   30  C18 UNL     1      -4.012   1.382  -1.806  1.00  0.00     0.243 C 
HETATM   31  C16 UNL     1      -4.117   0.696  -0.451  1.00  0.00     0.183 C 
HETATM   32  O7  UNL     1      -3.405  -0.476  -0.422  1.00  0.00    -0.329 OA
BRANCH  30  33
HETATM   33  N5  UNL     1      -5.176   1.066  -2.590  1.00  0.00    -0.070 N 
ATOM     34  H53 UNL     1      -5.118   1.505  -3.509  1.00  0.00     0.274 HD
ATOM     35  H52 UNL     1      -5.165   0.084  -2.866  1.00  0.00     0.274 HD
ATOM     36  H51 UNL     1      -6.060   1.300  -2.138  1.00  0.00     0.274 HD
ENDBRANCH  30  33
BRANCH  31  37
HETATM   37  C17 UNL     1      -5.563   0.462  -0.080  1.00  0.00     0.198 C 
BRANCH  37  38
HETATM   38  O8  UNL     1      -5.585  -0.062   1.210  1.00  0.00    -0.398 OA
ATOM     39  H8  UNL     1      -6.494  -0.209   1.443  1.00  0.00     0.209 HD
ENDBRANCH  37  38
ENDBRANCH  31  37
ENDBRANCH  25  26
ENDBRANCH   1  25
BRANCH   5  40
HETATM   40  N2  UNL     1       0.651   1.637   3.207  1.00  0.00    -0.072 N 
ATOM     41  H23 UNL     1      -0.345   1.661   3.424  1.00  0.00     0.274 HD
ATOM     42  H22 UNL     1       1.005   1.863   4.137  1.00  0.00     0.274 HD
ATOM     43  H21 UNL     1       0.914   2.334   2.511  1.00  0.00     0.274 HD
ENDBRANCH   5  40
BRANCH   2  44
HETATM   44  O3  UNL     1      -1.822  -0.085   3.213  1.00  0.00    -0.391 OA
ATOM     45  H3  UNL     1      -2.220  -0.387   4.021  1.00  0.00     0.210 HD
ENDBRANCH   2  44
BRANCH   3  46
HETATM   46  N1  UNL     1      -0.803  -2.477   4.334  1.00  0.00    -0.072 N 
ATOM     47  H13 UNL     1      -1.373  -1.862   4.915  1.00  0.00     0.274 HD
ATOM     48  H12 UNL     1      -1.547  -3.109   4.039  1.00  0.00     0.274 HD
ATOM     49  H11 UNL     1      -0.066  -2.948   4.858  1.00  0.00     0.274 HD
ENDBRANCH   3  46
TORSDOF 14
