REMARK  2 active torsions:
REMARK  status: ('A' for Active; 'I' for Inactive)
REMARK    1  A    between atoms: N2_7  and  C6_8 
REMARK    2  A    between atoms: C6_8  and  O1_12 
ROOT
HETATM    1  C1  UNL     1      -3.965   0.122   0.291  1.00  0.00     0.148 C 
HETATM    2  N1  UNL     1      -2.621   0.236  -0.138  1.00  0.00    -0.397 N 
HETATM    3  C2  UNL     1      -2.049   1.519  -0.138  1.00  0.00     0.058 C 
HETATM    4  C3  UNL     1      -0.756   1.673   0.582  1.00  0.00     0.051 C 
HETATM    5  C4  UNL     1       0.195   0.537   0.414  1.00  0.00     0.014 C 
HETATM    6  C5  UNL     1       1.538   0.946  -0.141  1.00  0.00     0.131 C 
HETATM    7  N2  UNL     1       2.346  -0.256  -0.226  1.00  0.00    -0.347 N 
HETATM    8  C7  UNL     1       1.738  -1.516   0.145  1.00  0.00     0.127 C 
HETATM    9  C8  UNL     1       0.448  -1.737  -0.622  1.00  0.00     0.026 C 
HETATM   10  C9  UNL     1      -0.406  -0.525  -0.455  1.00  0.00     0.011 C 
HETATM   11  C10 UNL     1      -1.767  -0.854   0.169  1.00  0.00     0.126 C 
ENDROOT
BRANCH   7  12
HETATM   12  C6  UNL     1       3.696  -0.186  -0.662  1.00  0.00     0.212 C 
HETATM   13  N3  UNL     1       4.284   0.962  -0.667  1.00  0.00    -0.365 N 
ATOM     14  H32 UNL     1       3.751   1.775  -0.357  1.00  0.00     0.159 HD
ATOM     15  H31 UNL     1       5.253   1.012  -0.980  1.00  0.00     0.159 HD
BRANCH  12  16
HETATM   16  O1  UNL     1       4.414  -1.281  -1.080  1.00  0.00    -0.333 OA
ATOM     17  H1  UNL     1       5.317  -1.234  -1.372  1.00  0.00     0.220 HD
ENDBRANCH  12  16
ENDBRANCH   7  12
TORSDOF 2
