REMARK  6 active torsions:
REMARK  status: ('A' for Active; 'I' for Inactive)
REMARK    1  A    between atoms: C2_2  and  C3_4 
REMARK    2  A    between atoms: C3_4  and  C12_21 
REMARK    3  A    between atoms: N1_5  and  N2_7 
REMARK    4  A    between atoms: N2_7  and  C4_9 
REMARK    5  A    between atoms: C5_12  and  C6_13 
REMARK    6  A    between atoms: C12_21  and  C14_24 
ROOT
HETATM    1  C12 UNL     1       3.611  -1.343   0.334  1.00  0.00     0.204 C 
HETATM    2  C13 UNL     1       3.593  -1.834   1.729  1.00  0.00     0.077 C 
HETATM    3  N4  UNL     1       3.590  -2.202   2.839  1.00  0.00    -0.196 NA
ENDROOT
BRANCH   1   4
HETATM    4  C3  UNL     1       2.259  -1.465  -0.240  1.00  0.00     0.095 C 
HETATM    5  N1  UNL     1       1.632  -0.403  -0.580  1.00  0.00    -0.297 N 
ATOM      6  H1  UNL     1       2.088   0.500  -0.448  1.00  0.00     0.187 HD
BRANCH   4   7
HETATM    7  C2  UNL     1       1.643  -2.753  -0.411  1.00  0.00     0.171 C 
HETATM    8  C1  UNL     1       2.413  -3.977  -0.008  1.00  0.00     0.098 C 
HETATM    9  O1  UNL     1       0.480  -2.883  -0.891  1.00  0.00    -0.291 OA
ENDBRANCH   4   7
BRANCH   5  10
HETATM   10  N2  UNL     1       0.370  -0.432  -1.115  1.00  0.00    -0.279 N 
ATOM     11  H2  UNL     1       0.209  -0.745  -2.073  1.00  0.00     0.189 HD
BRANCH  10  12
HETATM   12  C4  UNL     1      -0.627  -0.042  -0.349  1.00  0.00     0.163 A 
HETATM   13  N3  UNL     1      -1.918   0.004  -0.679  1.00  0.00    -0.334 N 
HETATM   14  C5  UNL     1      -2.775   0.416   0.203  1.00  0.00     0.058 A 
ATOM     15  H3  UNL     1      -2.226  -0.280  -1.609  1.00  0.00     0.168 HD
HETATM   16  C11 UNL     1      -2.293   0.784   1.438  1.00  0.00     0.084 A 
HETATM   17  S2  UNL     1      -0.620   0.515   1.260  1.00  0.00    -0.062 SA
BRANCH  14  18
HETATM   18  C6  UNL     1      -4.246   0.503  -0.073  1.00  0.00     0.032 A 
HETATM   19  C7  UNL     1      -4.919   0.187  -1.223  1.00  0.00     0.022 A 
HETATM   20  C8  UNL     1      -6.249   0.354  -1.220  1.00  0.00     0.015 A 
HETATM   21  C9  UNL     1      -6.822   0.823  -0.071  1.00  0.00    -0.021 A 
HETATM   22  C10 UNL     1      -8.292   1.084   0.154  1.00  0.00     0.056 C 
HETATM   23  S1  UNL     1      -5.486   1.019   0.971  1.00  0.00    -0.093 SA
ENDBRANCH  14  18
ENDBRANCH  10  12
ENDBRANCH   5  10
ENDBRANCH   1   4
BRANCH   1  24
HETATM   24  C14 UNL     1       4.064   0.079   0.370  1.00  0.00     0.077 A 
HETATM   25  C15 UNL     1       3.407   1.111   0.998  1.00  0.00     0.037 A 
HETATM   26  C16 UNL     1       4.159   2.266   0.792  1.00  0.00     0.035 A 
HETATM   27  C17 UNL     1       5.240   1.835   0.035  1.00  0.00     0.049 A 
HETATM   28  C18 UNL     1       6.325   2.763  -0.425  1.00  0.00     0.076 C 
HETATM   29  O2  UNL     1       5.144   0.566  -0.185  1.00  0.00    -0.318 OA
ENDBRANCH   1  24
TORSDOF 6
