REMARK  3 active torsions:
REMARK  status: ('A' for Active; 'I' for Inactive)
REMARK    1  A    between atoms: C3_4  and  C5_6 
REMARK    2  A    between atoms: C6_7  and  C7_8 
REMARK    3  A    between atoms: C8_9  and  C9_10 
ROOT
HETATM    1  C5  UNL     1       0.047  -1.322  -0.021  1.00  0.00     0.018 C 
HETATM    2  C6  UNL     1       1.141  -0.604   0.035  1.00  0.00    -0.001 C 
ENDROOT
BRANCH   1   3
HETATM    3  C3  UNL     1      -1.297  -0.786  -0.299  1.00  0.00     0.139 C 
HETATM    4  O1  UNL     1      -1.336   0.376  -1.056  1.00  0.00    -0.356 OA
HETATM    5  C2  UNL     1      -1.642   1.184   0.013  1.00  0.00     0.192 C 
HETATM    6  C1  UNL     1      -2.957   1.948  -0.104  1.00  0.00     0.048 C 
HETATM    7  C10 UNL     1      -1.825  -0.011   0.848  1.00  0.00     0.193 C 
HETATM    8  O2  UNL     1      -2.241  -0.183   1.983  1.00  0.00    -0.291 OA
HETATM    9  C4  UNL     1      -2.237  -1.825  -0.865  1.00  0.00     0.059 C 
ENDBRANCH   1   3
BRANCH   2  10
HETATM   10  C7  UNL     1       2.426  -1.215   0.315  1.00  0.00     0.001 C 
HETATM   11  C8  UNL     1       3.556  -0.547   0.384  1.00  0.00     0.016 C 
BRANCH  11  12
HETATM   12  C9  UNL     1       3.663   0.890   0.189  1.00  0.00     0.080 C 
HETATM   13  N1  UNL     1       4.808   1.476   0.273  1.00  0.00    -0.408 N 
ATOM     14  H12 UNL     1       5.634   0.914   0.478  1.00  0.00     0.155 HD
ATOM     15  H11 UNL     1       4.883   2.484   0.136  1.00  0.00     0.155 HD
ENDBRANCH  11  12
ENDBRANCH   2  10
TORSDOF 3
