REMARK  6 active torsions:
REMARK  status: ('A' for Active; 'I' for Inactive)
REMARK    1  A    between atoms: N1_1  and  N2_4 
REMARK    2  A    between atoms: N2_4  and  N3_5 
REMARK    3  A    between atoms: N3_5  and  C1_7 
REMARK    4  A    between atoms: C1_7  and  C2_8 
REMARK    5  A    between atoms: C2_8  and  N4_9 
REMARK    6  A    between atoms: C6_13  and  O1_14 
ROOT
HETATM    1  N4  UNL     1       0.403  -0.214  -0.461  1.00  0.00    -0.392 N 
HETATM    2  C3  UNL     1      -0.326  -1.405  -0.699  1.00  0.00     0.122 C 
HETATM    3  C4  UNL     1      -1.114  -1.692   0.556  1.00  0.00     0.022 C 
HETATM    4  C5  UNL     1      -2.136  -0.733   0.935  1.00  0.00     0.033 C 
HETATM    5  C6  UNL     1      -2.361   0.496   0.153  1.00  0.00     0.119 C 
HETATM    6  C7  UNL     1      -1.216   1.403  -0.072  1.00  0.00     0.051 C 
HETATM    7  C8  UNL     1      -0.232   0.876  -1.128  1.00  0.00     0.124 C 
ENDROOT
BRANCH   1   8
HETATM    8  C2  UNL     1       1.796  -0.252  -0.459  1.00  0.00     0.080 C 
BRANCH   8   9
HETATM    9  C1  UNL     1       2.383   0.987   0.216  1.00  0.00     0.199 C 
BRANCH   9  10
HETATM   10  N3  UNL     1       3.837   0.958   0.163  1.00  0.00    -0.248 N 
ATOM     11  H3  UNL     1       4.350   1.838   0.108  1.00  0.00     0.197 HD
BRANCH  10  12
HETATM   12  N2  UNL     1       4.471  -0.113   0.183  1.00  0.00    -0.248 NA
BRANCH  12  13
HETATM   13  N1  UNL     1       5.148  -1.087  -0.169  1.00  0.00    -0.261 N 
ATOM     14  H12 UNL     1       5.237  -0.795  -1.142  1.00  0.00     0.193 HD
ATOM     15  H11 UNL     1       5.668  -1.965  -0.153  1.00  0.00     0.193 HD
ENDBRANCH  12  13
ENDBRANCH  10  12
ENDBRANCH   9  10
ENDBRANCH   8   9
ENDBRANCH   1   8
BRANCH   5  16
HETATM   16  O1  UNL     1      -3.300   1.261   0.898  1.00  0.00    -0.396 OA
ATOM     17  H1  UNL     1      -3.445   2.053   0.394  1.00  0.00     0.210 HD
ENDBRANCH   5  16
TORSDOF 6
