REMARK  4 active torsions:
REMARK  status: ('A' for Active; 'I' for Inactive)
REMARK    1  A    between atoms: O1_1  and  C1_3 
REMARK    2  A    between atoms: C2_4  and  C3_5 
REMARK    3  A    between atoms: N1_6  and  C4_8 
REMARK    4  A    between atoms: N2_17  and  C11_18 
ROOT
HETATM    1  C1  UNL     1       1.860  -0.155  -0.437  1.00  0.00     0.186 A 
HETATM    2  C2  UNL     1       0.618  -0.239   0.145  1.00  0.00     0.145 A 
HETATM    3  O2  UNL     1       0.852  -0.333   1.450  1.00  0.00    -0.278 OA
HETATM    4  C10 UNL     1       2.157  -0.308   1.670  1.00  0.00     0.229 A 
HETATM    5  S1  UNL     1       2.911  -0.396   3.124  1.00  0.00    -0.032 SA
HETATM    6  N2  UNL     1       2.822  -0.197   0.508  1.00  0.00    -0.260 N 
ENDROOT
BRANCH   2   7
HETATM    7  C3  UNL     1      -0.692  -0.232  -0.499  1.00  0.00     0.125 C 
HETATM    8  N1  UNL     1      -1.774  -0.320   0.199  1.00  0.00    -0.392 N 
ATOM      9  H1  UNL     1      -1.727  -0.396   1.215  1.00  0.00     0.159 HD
BRANCH   8  10
HETATM   10  C4  UNL     1      -3.056  -0.310  -0.476  1.00  0.00     0.081 C 
HETATM   11  C5  UNL     1      -4.059  -1.204   0.213  1.00  0.00     0.025 C 
HETATM   12  C6  UNL     1      -4.979  -0.427   1.130  1.00  0.00     0.002 C 
HETATM   13  C7  UNL     1      -5.773   0.613   0.390  1.00  0.00     0.000 C 
HETATM   14  C8  UNL     1      -4.997   1.141  -0.795  1.00  0.00     0.002 C 
HETATM   15  C9  UNL     1      -3.518   1.121  -0.541  1.00  0.00     0.025 C 
ENDBRANCH   8  10
ENDBRANCH   2   7
BRANCH   1  16
HETATM   16  O1  UNL     1       2.057  -0.042  -1.816  1.00  0.00    -0.344 OA
ATOM     17  H1  UNL     1       2.916   0.016  -2.218  1.00  0.00     0.219 HD
ENDBRANCH   1  16
BRANCH   6  18
HETATM   18  C11 UNL     1       4.223  -0.134   0.278  1.00  0.00     0.044 A 
HETATM   19  C12 UNL     1       5.060  -1.202   0.405  1.00  0.00     0.031 A 
HETATM   20  C13 UNL     1       6.417  -1.102   0.174  1.00  0.00     0.021 A 
HETATM   21  C14 UNL     1       6.933   0.116  -0.196  1.00  0.00     0.011 A 
HETATM   22 BR1  UNL     1       8.804   0.280  -0.522  1.00  0.00    -0.051 Br
HETATM   23  C15 UNL     1       6.130   1.213  -0.335  1.00  0.00     0.021 A 
HETATM   24  C16 UNL     1       4.795   1.082  -0.100  1.00  0.00     0.031 A 
ENDBRANCH   6  18
TORSDOF 4
