REMARK  8 active torsions:
REMARK  status: ('A' for Active; 'I' for Inactive)
REMARK    1  A    between atoms: N1_1  and  C1_4 
REMARK    2  A    between atoms: N3_8  and  C3_10 
REMARK    3  A    between atoms: C3_10  and  C4_11 
REMARK    4  A    between atoms: C4_11  and  C5_13 
REMARK    5  A    between atoms: C6_18  and  C7_19 
REMARK    6  A    between atoms: C7_19  and  N6_20 
REMARK    7  A    between atoms: N6_20  and  C8_22 
REMARK    8  A    between atoms: C9_25  and  C10_26 
ROOT
HETATM    1  C1  UNL     1      -2.060  -2.772  -1.466  1.00  0.00     0.159 A 
HETATM    2  N2  UNL     1      -2.691  -1.741  -0.880  1.00  0.00    -0.171 N 
ATOM      3  H2  UNL     1      -3.693  -1.835  -0.716  1.00  0.00     0.186 HD
HETATM    4  C2  UNL     1      -2.106  -0.596  -0.493  1.00  0.00     0.681 A 
HETATM    5  N3  UNL     1      -2.847   0.333   0.069  1.00  0.00    -0.218 N 
ATOM      6  H3  UNL     1      -2.412   1.207   0.366  1.00  0.00     0.178 HD
HETATM    7  N5  UNL     1      -0.819  -0.281  -0.616  1.00  0.00    -0.188 N 
ATOM      8  H5  UNL     1      -0.548   0.637  -0.265  1.00  0.00     0.184 HD
HETATM    9  C6  UNL     1       0.153  -1.013  -1.138  1.00  0.00     0.089 A 
HETATM   10  S1  UNL     1      -0.392  -2.540  -1.703  1.00  0.00    -0.038 SA
ENDROOT
BRANCH   9  11
HETATM   11  C7  UNL     1       1.537  -0.502  -1.195  1.00  0.00     0.203 C 
BRANCH  11  12
HETATM   12  N6  UNL     1       2.310  -0.820  -0.038  1.00  0.00    -0.219 N 
ATOM     13  H6  UNL     1       1.931  -1.428   0.688  1.00  0.00     0.178 HD
BRANCH  12  14
HETATM   14  C8  UNL     1       3.490  -0.327   0.073  1.00  0.00     0.694 A 
HETATM   15  N7  UNL     1       4.384  -0.498   1.078  1.00  0.00    -0.169 N 
HETATM   16  C9  UNL     1       5.517   0.203   0.799  1.00  0.00     0.201 A 
ATOM     17  H7  UNL     1       4.231  -1.064   1.913  1.00  0.00     0.186 HD
HETATM   18  N9  UNL     1       5.311   0.800  -0.376  1.00  0.00    -0.267 N 
HETATM   19  N10 UNL     1       4.111   0.482  -0.800  1.00  0.00    -0.131 N 
ATOM     20  H9  UNL     1       5.975   1.402  -0.863  1.00  0.00     0.189 HD
ATOM     21  H10 UNL     1       3.704   0.807  -1.677  1.00  0.00     0.205 HD
BRANCH  16  22
HETATM   22  C10 UNL     1       6.703   0.269   1.637  1.00  0.00     0.300 C 
HETATM   23  N8  UNL     1       7.826   1.035   1.239  1.00  0.00    -0.054 NA
HETATM   24  O3  UNL     1       6.742  -0.356   2.728  1.00  0.00    -0.268 OA
ENDBRANCH  16  22
ENDBRANCH  12  14
ENDBRANCH  11  12
ENDBRANCH   9  11
BRANCH   1  25
HETATM   25  N1  UNL     1      -2.737  -3.816  -1.790  1.00  0.00    -0.379 N 
ATOM     26  H12 UNL     1      -3.737  -3.955  -1.648  1.00  0.00     0.158 HD
ATOM     27  H11 UNL     1      -2.258  -4.599  -2.235  1.00  0.00     0.158 HD
ENDBRANCH   1  25
BRANCH   5  28
HETATM   28  C3  UNL     1      -4.264   0.142   0.274  1.00  0.00     0.226 C 
BRANCH  28  29
HETATM   29  C4  UNL     1      -4.855   1.355   0.897  1.00  0.00     0.231 C 
HETATM   30  O1  UNL     1      -4.153   2.350   1.171  1.00  0.00    -0.286 OA
BRANCH  29  31
HETATM   31  C5  UNL     1      -6.275   1.392   1.197  1.00  0.00     0.302 C 
HETATM   32  N4  UNL     1      -6.835   2.552   1.792  1.00  0.00    -0.054 NA
HETATM   33  O2  UNL     1      -7.008   0.401   0.931  1.00  0.00    -0.268 OA
ENDBRANCH  29  31
ENDBRANCH  28  29
ENDBRANCH   5  28
TORSDOF 8
