REMARK  11 active torsions:
REMARK  status: ('A' for Active; 'I' for Inactive)
REMARK    1  A    between atoms: C3_4  and  O2_5 
REMARK    2  A    between atoms: O2_5  and  C4_6 
REMARK    3  A    between atoms: C5_8  and  O4_9 
REMARK    4  A    between atoms: O4_9  and  O5_10 
REMARK    5  A    between atoms: C6_12  and  O6_13 
REMARK    6  A    between atoms: C7_15  and  O7_16 
REMARK    7  A    between atoms: O7_16  and  C8_17 
REMARK    8  A    between atoms: C8_17  and  O8_20 
REMARK    9  A    between atoms: C11_22  and  O9_23 
REMARK   10  A    between atoms: C12_25  and  O10_26 
REMARK   11  A    between atoms: C13_28  and  O11_29 
ROOT
HETATM    1  C4  UNL     1      -0.944   0.143  -1.275  1.00  0.00     0.298 C 
HETATM    2  O3  UNL     1      -1.342  -0.013  -2.593  1.00  0.00    -0.323 OA
HETATM    3  C5  UNL     1      -1.774   1.306  -2.876  1.00  0.00     0.330 C 
HETATM    4  C6  UNL     1      -2.648   1.664  -1.692  1.00  0.00     0.210 C 
HETATM    5  C7  UNL     1      -2.243   0.595  -0.664  1.00  0.00     0.214 C 
ENDROOT
BRANCH   1   6
HETATM    6  O2  UNL     1      -0.278  -0.846  -0.700  1.00  0.00    -0.326 OA
BRANCH   6   7
HETATM    7  C3  UNL     1       1.008  -0.647  -0.274  1.00  0.00     0.294 C 
HETATM    8  O1  UNL     1       1.794  -1.524  -1.035  1.00  0.00    -0.351 OA
HETATM    9  C2  UNL     1       3.127  -1.243  -1.058  1.00  0.00     0.152 C 
HETATM   10  C1  UNL     1       3.869  -2.587  -1.022  1.00  0.00     0.042 C 
HETATM   11  C13 UNL     1       3.495  -0.413   0.147  1.00  0.00     0.178 C 
HETATM   12  C12 UNL     1       2.786  -0.909   1.386  1.00  0.00     0.183 C 
HETATM   13  C11 UNL     1       1.284  -1.004   1.166  1.00  0.00     0.204 C 
BRANCH  11  14
HETATM   14  O11 UNL     1       4.871  -0.629   0.379  1.00  0.00    -0.390 OA
ATOM     15  H11 UNL     1       5.103  -0.106   1.138  1.00  0.00     0.210 HD
ENDBRANCH  11  14
BRANCH  12  16
HETATM   16  O10 UNL     1       3.112  -0.020   2.420  1.00  0.00    -0.390 OA
ATOM     17  H10 UNL     1       4.050   0.039   2.557  1.00  0.00     0.210 HD
ENDBRANCH  12  16
BRANCH  13  18
HETATM   18  O9  UNL     1       0.915  -2.321   1.451  1.00  0.00    -0.388 OA
ATOM     19  H9  UNL     1       1.089  -2.546   2.358  1.00  0.00     0.210 HD
ENDBRANCH  13  18
ENDBRANCH   6   7
ENDBRANCH   1   6
BRANCH   5  20
HETATM   20  O7  UNL     1      -2.038   1.130   0.572  1.00  0.00    -0.343 OA
BRANCH  20  21
HETATM   21  C8  UNL     1      -2.803   0.552   1.578  1.00  0.00     0.155 C 
HETATM   22  C9  UNL     1      -2.543  -0.905   1.797  1.00  0.00     0.078 C 
HETATM   23  C10 UNL     1      -2.489   1.286   2.863  1.00  0.00     0.078 C 
BRANCH  21  24
HETATM   24  O8  UNL     1      -4.157   0.717   1.279  1.00  0.00    -0.366 OA
ATOM     25  H8  UNL     1      -4.680   0.322   1.967  1.00  0.00     0.213 HD
ENDBRANCH  21  24
ENDBRANCH  20  21
ENDBRANCH   5  20
BRANCH   3  26
HETATM   26  O4  UNL     1      -0.676   2.153  -2.959  1.00  0.00    -0.207 OA
BRANCH  26  27
HETATM   27  O5  UNL     1      -0.612   2.728  -4.121  1.00  0.00    -0.248 OA
ATOM     28  H5  UNL     1       0.139   3.307  -4.178  1.00  0.00     0.253 HD
ENDBRANCH  26  27
ENDBRANCH   3  26
BRANCH   4  29
HETATM   29  O6  UNL     1      -2.366   2.910  -1.177  1.00  0.00    -0.388 OA
ATOM     30  H6  UNL     1      -2.914   3.135  -0.434  1.00  0.00     0.210 HD
ENDBRANCH   4  29
TORSDOF 11
