REMARK  9 active torsions:
REMARK  status: ('A' for Active; 'I' for Inactive)
REMARK    1  A    between atoms: C3_3  and  C4_4 
REMARK    2  A    between atoms: C4_4  and  O1_5 
REMARK    3  A    between atoms: C5_8  and  C6_9 
REMARK    4  A    between atoms: C5_8  and  C7_15 
REMARK    5  A    between atoms: C6_9  and  O3_10 
REMARK    6  A    between atoms: O3_10  and  S1_11 
REMARK    7  A    between atoms: C9_19  and  O9_20 
REMARK    8  A    between atoms: C10_22  and  O10_23 
REMARK    9  A    between atoms: C10_22  and  C11_25 
ROOT
HETATM    1  C1  UNL     1      -4.285   2.861  -1.096  1.00  0.00     0.112 C 
HETATM    2  C2  UNL     1      -3.245   1.988  -0.530  1.00  0.00    -0.105 C 
HETATM    3  C3  UNL     1      -2.391   1.274  -0.060  1.00  0.00    -0.035 C 
ENDROOT
BRANCH   3   4
HETATM    4  C4  UNL     1      -1.347   0.397   0.514  1.00  0.00     0.277 C 
HETATM    5  O2  UNL     1      -0.135   0.962   0.256  1.00  0.00    -0.317 OA
HETATM    6  C5  UNL     1       0.981   0.219   0.578  1.00  0.00     0.178 C 
HETATM    7  C8  UNL     1       0.888  -1.231   0.265  1.00  0.00     0.087 C 
HETATM    8  C9  UNL     1      -0.476  -1.843   0.496  1.00  0.00     0.173 C 
HETATM    9  C10 UNL     1      -1.458  -0.914  -0.233  1.00  0.00     0.241 C 
BRANCH   4  10
HETATM   10  O1  UNL     1      -1.613   0.124   1.847  1.00  0.00    -0.353 OA
ATOM     11  H1  UNL     1      -0.943  -0.439   2.216  1.00  0.00     0.214 HD
ENDBRANCH   4  10
BRANCH   6  12
HETATM   12  C6  UNL     1       2.090   0.787  -0.329  1.00  0.00     0.242 C 
BRANCH  12  13
HETATM   13  O3  UNL     1       3.283   0.124  -0.109  1.00  0.00    -0.253 OA
BRANCH  13  14
HETATM   14  S1  UNL     1       4.497   0.716  -1.073  1.00  0.00     0.251 S 
HETATM   15  O4  UNL     1       4.068   0.601  -2.506  1.00  0.00    -0.572 OA
HETATM   16  O5  UNL     1       4.775   2.180  -0.803  1.00  0.00    -0.572 OA
HETATM   17  O6  UNL     1       5.884  -0.193  -0.778  1.00  0.00    -0.572 OA
ENDBRANCH  13  14
ENDBRANCH  12  13
ENDBRANCH   6  12
BRANCH   6  18
HETATM   18  C7  UNL     1       1.445   0.492   1.963  1.00  0.00     0.211 C 
HETATM   19  O7  UNL     1       0.861   1.309   2.724  1.00  0.00    -0.646 OA
HETATM   20  O8  UNL     1       2.553  -0.153   2.475  1.00  0.00    -0.646 OA
ENDBRANCH   6  18
BRANCH   8  21
HETATM   21  O9  UNL     1      -0.476  -3.106  -0.048  1.00  0.00    -0.392 OA
ATOM     22  H9  UNL     1      -1.333  -3.490   0.097  1.00  0.00     0.210 HD
ENDBRANCH   8  21
BRANCH   9  23
HETATM   23  O10 UNL     1      -0.978  -0.751  -1.520  1.00  0.00    -0.372 OA
ATOM     24  H10 UNL     1      -1.048  -1.574  -1.989  1.00  0.00     0.211 HD
ENDBRANCH   9  23
BRANCH   9  25
HETATM   25  C11 UNL     1      -2.816  -1.463  -0.250  1.00  0.00     0.218 C 
HETATM   26  O11 UNL     1      -3.398  -1.723  -1.334  1.00  0.00    -0.645 OA
HETATM   27  O12 UNL     1      -3.513  -1.717   0.923  1.00  0.00    -0.645 OA
ENDBRANCH   9  25
ENDBRANCH   3   4
TORSDOF 9
