REMARK  10 active torsions:
REMARK  status: ('A' for Active; 'I' for Inactive)
REMARK    1  A    between atoms: C2_2  and  C3_3 
REMARK    2  A    between atoms: C3_3  and  C4_4 
REMARK    3  A    between atoms: C4_4  and  C5_5 
REMARK    4  A    between atoms: C5_5  and  C6_6 
REMARK    5  A    between atoms: C6_6  and  C7_7 
REMARK    6  A    between atoms: C9_9  and  C10_10 
REMARK    7  A    between atoms: C10_10  and  N1_11 
REMARK    8  A    between atoms: N1_11  and  C11_14 
REMARK    9  A    between atoms: C11_14  and  C12_15 
REMARK   10  A    between atoms: C12_15  and  C13_16 
ROOT
HETATM    1  C7  UNL     1       0.903   1.000   0.685  1.00  0.00    -0.014 C 
HETATM    2  C8  UNL     1       0.478  -0.241   0.032  1.00  0.00     0.011 C 
HETATM    3  C9  UNL     1      -0.658   0.509  -0.633  1.00  0.00     0.012 C 
HETATM    4  C15 UNL     1       0.077   1.787  -0.337  1.00  0.00     0.011 C 
ENDROOT
BRANCH   3   5
HETATM    5  C10 UNL     1      -1.979   0.333   0.094  1.00  0.00     0.237 C 
BRANCH   5   6
HETATM    6  N1  UNL     1      -2.297  -1.075   0.104  1.00  0.00    -0.075 N 
ATOM      7  H12 UNL     1      -2.314  -1.463  -0.839  1.00  0.00     0.277 HD
ATOM      8  H11 UNL     1      -1.532  -1.630   0.487  1.00  0.00     0.277 HD
BRANCH   6   9
HETATM    9  C11 UNL     1      -3.531  -1.321   0.800  1.00  0.00     0.232 C 
BRANCH   9  10
HETATM   10  C12 UNL     1      -4.688  -0.772   0.030  1.00  0.00     0.027 C 
BRANCH  10  11
HETATM   11  C13 UNL     1      -6.012  -1.034   0.736  1.00  0.00    -0.003 C 
HETATM   12  C14 UNL     1      -7.091  -0.424  -0.151  1.00  0.00     0.005 C 
ENDBRANCH  10  11
ENDBRANCH   9  10
ENDBRANCH   6   9
ENDBRANCH   5   6
ENDBRANCH   3   5
BRANCH   1  13
HETATM   13  C6  UNL     1       2.287   1.448   0.832  1.00  0.00     0.005 C 
BRANCH  13  14
HETATM   14  C5  UNL     1       3.154   1.744  -0.306  1.00  0.00     0.000 C 
BRANCH  14  15
HETATM   15  C4  UNL     1       3.480   0.676  -1.276  1.00  0.00     0.000 C 
BRANCH  15  16
HETATM   16  C3  UNL     1       4.161  -0.533  -0.719  1.00  0.00    -0.000 C 
BRANCH  16  17
HETATM   17  C2  UNL     1       5.487  -0.153  -0.081  1.00  0.00    -0.005 C 
HETATM   18  C1  UNL     1       6.104  -1.439   0.451  1.00  0.00     0.005 C 
ENDBRANCH  16  17
ENDBRANCH  15  16
ENDBRANCH  14  15
ENDBRANCH  13  14
ENDBRANCH   1  13
TORSDOF 10
