REMARK  18 active torsions:
REMARK  status: ('A' for Active; 'I' for Inactive)
REMARK    1  A    between atoms: C2_2  and  C3_3 
REMARK    2  A    between atoms: C3_3  and  N1_4 
REMARK       I    between atoms: N1_4  and  C4_6 
REMARK    3  A    between atoms: C4_6  and  C5_8 
REMARK    4  A    between atoms: C5_8  and  C6_9 
REMARK    5  A    between atoms: C6_9  and  C7_10 
REMARK    6  A    between atoms: C12_18  and  C13_19 
REMARK    7  A    between atoms: C13_19  and  C14_20 
REMARK    8  A    between atoms: C14_20  and  C15_21 
REMARK    9  A    between atoms: C15_21  and  C16_22 
REMARK   10  A    between atoms: C16_22  and  C17_23 
REMARK   11  A    between atoms: C17_23  and  C18_24 
REMARK   12  A    between atoms: C18_24  and  O3_25 
REMARK   13  A    between atoms: N3_27  and  O4_29 
REMARK   14  A    between atoms: C19_31  and  O5_32 
REMARK   15  A    between atoms: C20_36  and  C21_37 
REMARK   16  A    between atoms: C21_37  and  C22_38 
REMARK   17  A    between atoms: C22_38  and  S1_39 
REMARK   18  A    between atoms: C24_41  and  O6_42 
ROOT
HETATM    1  C7  UNL     1       2.148   0.450  -0.535  1.00  0.00     0.084 C 
HETATM    2  C8  UNL     1       1.940   1.295   0.724  1.00  0.00     0.026 C 
HETATM    3  C9  UNL     1       1.275   2.580   0.467  1.00  0.00     0.011 C 
HETATM    4  C10 UNL     1      -0.196   2.678   0.653  1.00  0.00     0.103 C 
HETATM    5  C11 UNL     1      -0.733   2.005   1.856  1.00  0.00     0.218 C 
HETATM    6  O2  UNL     1       0.067   2.031   2.860  1.00  0.00    -0.274 OA
HETATM    7  N2  UNL     1      -1.965   1.367   2.030  1.00  0.00    -0.349 N 
ATOM      8  H2  UNL     1      -2.536   1.726   2.795  1.00  0.00     0.163 HD
HETATM    9  C12 UNL     1      -2.556   0.260   1.277  1.00  0.00     0.159 C 
HETATM   10  C19 UNL     1      -1.592  -0.803   0.970  1.00  0.00     0.139 C 
HETATM   11  N4  UNL     1      -1.266  -1.648  -0.036  1.00  0.00    -0.339 N 
ATOM     12  H4  UNL     1      -1.607  -2.581   0.196  1.00  0.00     0.167 HD
HETATM   13  C20 UNL     1      -0.619  -1.701  -1.299  1.00  0.00     0.062 C 
HETATM   14  C24 UNL     1       0.174  -0.627  -1.843  1.00  0.00     0.159 C 
HETATM   15  N5  UNL     1       0.977   0.376  -1.351  1.00  0.00    -0.365 N 
ATOM     16  H5  UNL     1       0.656   1.299  -1.642  1.00  0.00     0.162 HD
ENDROOT
BRANCH   9  17
HETATM   17  C13 UNL     1      -3.425   0.826   0.245  1.00  0.00     0.033 C 
BRANCH  17  18
HETATM   18  C14 UNL     1      -4.177  -0.140  -0.631  1.00  0.00     0.002 C 
BRANCH  18  19
HETATM   19  C15 UNL     1      -5.022   0.633  -1.629  1.00  0.00     0.001 C 
BRANCH  19  20
HETATM   20  C16 UNL     1      -6.036   1.525  -0.995  1.00  0.00     0.008 C 
BRANCH  20  21
HETATM   21  C17 UNL     1      -7.012   0.763  -0.139  1.00  0.00     0.086 C 
BRANCH  21  22
HETATM   22  C18 UNL     1      -7.999   1.689   0.458  1.00  0.00     0.135 C 
HETATM   23  N3  UNL     1      -9.259   1.528   0.244  1.00  0.00    -0.251 N 
ATOM     24  H3  UNL     1      -9.566   0.753  -0.344  1.00  0.00     0.196 HD
BRANCH  22  25
HETATM   25  O3  UNL     1      -7.593   2.744   1.255  1.00  0.00    -0.348 OA
ATOM     26  H3  UNL     1      -8.227   3.339   1.638  1.00  0.00     0.219 HD
ENDBRANCH  22  25
BRANCH  23  27
HETATM   27  O4  UNL     1     -10.201   2.368   0.783  1.00  0.00    -0.288 OA
ATOM     28  H4  UNL     1     -11.130   2.249   0.625  1.00  0.00     0.244 HD
ENDBRANCH  23  27
ENDBRANCH  21  22
ENDBRANCH  20  21
ENDBRANCH  19  20
ENDBRANCH  18  19
ENDBRANCH  17  18
ENDBRANCH   9  17
BRANCH  10  29
HETATM   29  O5  UNL     1      -0.833  -0.944   2.040  1.00  0.00    -0.348 OA
ATOM     30  H5  UNL     1      -0.209  -1.632   1.841  1.00  0.00     0.219 HD
ENDBRANCH  10  29
BRANCH  13  31
HETATM   31  C21 UNL     1       0.135  -2.998  -1.577  1.00  0.00     0.072 C 
BRANCH  31  32
HETATM   32  C22 UNL     1      -0.754  -4.209  -1.585  1.00  0.00     0.079 C 
BRANCH  32  33
HETATM   33  S1  UNL     1       0.310  -5.668  -1.963  1.00  0.00    -0.173 SA
HETATM   34  C23 UNL     1       1.453  -5.879  -0.558  1.00  0.00     0.089 C 
ENDBRANCH  32  33
ENDBRANCH  31  32
ENDBRANCH  13  31
BRANCH  14  35
HETATM   35  O6  UNL     1       0.109  -0.605  -3.165  1.00  0.00    -0.345 OA
ATOM     36  H6  UNL     1       0.632   0.103  -3.523  1.00  0.00     0.219 HD
ENDBRANCH  14  35
BRANCH   1  37
HETATM   37  C6  UNL     1       2.762  -0.833  -0.145  1.00  0.00     0.034 C 
BRANCH  37  38
HETATM   38  C5  UNL     1       4.089  -0.751   0.537  1.00  0.00     0.105 C 
BRANCH  38  39
HETATM   39  C4  UNL     1       5.189  -0.164  -0.211  1.00  0.00     0.217 C 
HETATM   40  N1  UNL     1       6.446   0.055   0.416  1.00  0.00    -0.361 N 
ATOM     41  H1  UNL     1       6.561  -0.209   1.394  1.00  0.00     0.162 HD
HETATM   42  O1  UNL     1       5.111   0.178  -1.415  1.00  0.00    -0.274 OA
BRANCH  40  43
HETATM   43  C3  UNL     1       7.574   0.643  -0.290  1.00  0.00     0.122 C 
BRANCH  43  44
HETATM   44  C2  UNL     1       8.750   0.726   0.682  1.00  0.00     0.015 C 
HETATM   45  C1  UNL     1       8.426   1.572   1.887  1.00  0.00     0.006 C 
ENDBRANCH  43  44
ENDBRANCH  40  43
ENDBRANCH  38  39
ENDBRANCH  37  38
ENDBRANCH   1  37
TORSDOF 18
