REMARK  15 active torsions:
REMARK  status: ('A' for Active; 'I' for Inactive)
REMARK    1  A    between atoms: C2_2  and  C3_6 
REMARK    2  A    between atoms: C4_7  and  C5_8 
REMARK    3  A    between atoms: C9_12  and  C10_13 
REMARK    4  A    between atoms: C11_14  and  C12_15 
REMARK    5  A    between atoms: C12_15  and  O1_16 
REMARK    6  A    between atoms: C12_15  and  C13_18 
REMARK    7  A    between atoms: C15_20  and  O2_21 
REMARK    8  A    between atoms: C15_20  and  C16_23 
REMARK    9  A    between atoms: C18_27  and  C19_28 
REMARK   10  A    between atoms: C20_32  and  C21_33 
REMARK   11  A    between atoms: C21_33  and  C22_34 
REMARK   12  A    between atoms: C23_35  and  C24_36 
REMARK   13  A    between atoms: C24_36  and  C25_37 
REMARK   14  A    between atoms: C25_37  and  C26_38 
REMARK   15  A    between atoms: C26_38  and  C27_39 
ROOT
HETATM    1  C5  UNL     1       1.221  -2.213  -0.614  1.00  0.00     0.017 C 
HETATM    2  C6  UNL     1       0.588  -1.910  -1.979  1.00  0.00    -0.010 C 
HETATM    3  C7  UNL     1       1.586  -1.417  -2.976  1.00  0.00     0.010 C 
HETATM    4  C8  UNL     1      -0.402  -0.792  -1.701  1.00  0.00     0.013 C 
HETATM    5  C9  UNL     1       0.391   0.055  -0.682  1.00  0.00     0.013 C 
HETATM    6  C20 UNL     1       1.019  -0.954   0.218  1.00  0.00     0.004 C 
ENDROOT
BRANCH   5   7
HETATM    7  C10 UNL     1      -0.573   0.966  -0.046  1.00  0.00    -0.023 C 
HETATM    8  C11 UNL     1      -1.825   1.065  -0.424  1.00  0.00     0.003 C 
BRANCH   8   9
HETATM    9  C12 UNL     1      -2.762   2.022   0.275  1.00  0.00     0.169 C 
BRANCH   9  10
HETATM   10  O1  UNL     1      -2.787   3.176  -0.501  1.00  0.00    -0.389 OA
ATOM     11  H1  UNL     1      -3.376   3.778  -0.061  1.00  0.00     0.210 HD
ENDBRANCH   9  10
BRANCH   9  12
HETATM   12  C13 UNL     1      -4.135   1.447   0.434  1.00  0.00     0.158 C 
HETATM   13  C14 UNL     1      -4.066   0.169   1.240  1.00  0.00     0.084 C 
HETATM   14  C15 UNL     1      -5.509  -0.129   1.625  1.00  0.00     0.150 C 
HETATM   15  C17 UNL     1      -6.489   0.385   0.607  1.00  0.00     0.092 C 
HETATM   16  C18 UNL     1      -5.926   0.594  -0.754  1.00  0.00     0.226 C 
HETATM   17  O7  UNL     1      -4.660   1.124  -0.800  1.00  0.00    -0.367 OA
BRANCH  14  18
HETATM   18  O2  UNL     1      -5.666  -1.517   1.787  1.00  0.00    -0.379 OA
ATOM     19  H2  UNL     1      -6.566  -1.703   2.027  1.00  0.00     0.211 HD
ENDBRANCH  14  18
BRANCH  14  20
HETATM   20  C16 UNL     1      -5.740   0.496   2.945  1.00  0.00     0.209 C 
HETATM   21  O3  UNL     1      -5.679   1.737   3.158  1.00  0.00    -0.646 OA
HETATM   22  O4  UNL     1      -6.043  -0.295   4.032  1.00  0.00    -0.646 OA
ENDBRANCH  14  20
BRANCH  16  23
HETATM   23  C19 UNL     1      -6.833   1.514  -1.494  1.00  0.00     0.203 C 
HETATM   24  O5  UNL     1      -8.075   1.261  -1.607  1.00  0.00    -0.646 OA
HETATM   25  O6  UNL     1      -6.393   2.684  -2.097  1.00  0.00    -0.646 OA
ENDBRANCH  16  23
ENDBRANCH   9  12
ENDBRANCH   8   9
ENDBRANCH   5   7
BRANCH   6  26
HETATM   26  C21 UNL     1       2.381  -0.477   0.667  1.00  0.00     0.033 C 
BRANCH  26  27
HETATM   27  C22 UNL     1       2.291   0.740   1.493  1.00  0.00    -0.030 C 
HETATM   28  C23 UNL     1       2.827   1.898   1.247  1.00  0.00    -0.031 C 
BRANCH  28  29
HETATM   29  C24 UNL     1       3.642   2.220   0.069  1.00  0.00     0.027 C 
BRANCH  29  30
HETATM   30  C25 UNL     1       5.014   2.650   0.578  1.00  0.00     0.014 C 
BRANCH  30  31
HETATM   31  C26 UNL     1       5.914   3.000  -0.588  1.00  0.00     0.113 C 
BRANCH  31  32
HETATM   32  C27 UNL     1       7.233   3.412  -0.074  1.00  0.00     0.172 C 
HETATM   33  O8  UNL     1       7.454   3.427   1.152  1.00  0.00    -0.648 OA
HETATM   34  O9  UNL     1       8.232   3.784  -0.950  1.00  0.00    -0.648 OA
ENDBRANCH  31  32
ENDBRANCH  30  31
ENDBRANCH  29  30
ENDBRANCH  28  29
ENDBRANCH  26  27
ENDBRANCH   6  26
BRANCH   1  35
HETATM   35  C4  UNL     1       2.603  -2.567  -0.865  1.00  0.00    -0.019 C 
HETATM   36  C3  UNL     1       3.283  -3.621  -0.543  1.00  0.00     0.020 C 
BRANCH  36  37
HETATM   37  C2  UNL     1       2.892  -4.809   0.180  1.00  0.00    -0.002 C 
HETATM   38  C1  UNL     1       3.908  -5.914   0.419  1.00  0.00     0.067 C 
HETATM   39  N1  UNL     1       1.725  -5.009   0.647  1.00  0.00    -0.403 N 
ATOM     40  H12 UNL     1       1.449  -5.848   1.157  1.00  0.00     0.156 HD
ATOM     41  H11 UNL     1       1.043  -4.267   0.487  1.00  0.00     0.156 HD
ENDBRANCH  36  37
ENDBRANCH   1  35
TORSDOF 15
