REMARK  16 active torsions:
REMARK  status: ('A' for Active; 'I' for Inactive)
REMARK    1  A    between atoms: C2_2  and  C3_3 
REMARK    2  A    between atoms: C4_4  and  C5_5 
REMARK    3  A    between atoms: C5_5  and  N1_6 
REMARK    4  A    between atoms: N1_6  and  C6_8 
REMARK    5  A    between atoms: C9_11  and  O1_12 
REMARK    6  A    between atoms: O1_12  and  C10_13 
REMARK    7  A    between atoms: C10_13  and  C11_14 
REMARK    8  A    between atoms: C11_14  and  C12_15 
REMARK    9  A    between atoms: C12_15  and  N2_16 
REMARK   10  A    between atoms: N2_16  and  C13_19 
REMARK   11  A    between atoms: C13_19  and  C14_20 
REMARK   12  A    between atoms: C14_20  and  C15_21 
REMARK   13  A    between atoms: C15_21  and  N3_22 
REMARK   14  A    between atoms: C24_34  and  O2_35 
REMARK   15  A    between atoms: C29_41  and  O3_42 
REMARK   16  A    between atoms: C30_44  and  O4_45 
ROOT
HETATM    1  C6  UNL     1       3.545   0.479   0.733  1.00  0.00     0.108 C 
HETATM    2  C7  UNL     1       2.098   0.669   0.469  1.00  0.00     0.030 C 
HETATM    3  C8  UNL     1       1.183  -0.226   1.245  1.00  0.00     0.035 C 
HETATM    4  C9  UNL     1       0.997  -1.598   0.628  1.00  0.00     0.133 C 
HETATM    5  C20 UNL     1       2.114  -2.541   0.822  1.00  0.00     0.085 C 
HETATM    6  C21 UNL     1       2.372  -3.487  -0.281  1.00  0.00    -0.042 A 
HETATM    7  C22 UNL     1       1.789  -3.499  -1.518  1.00  0.00     0.011 A 
HETATM    8  C23 UNL     1       2.096  -4.437  -2.494  1.00  0.00     0.037 A 
HETATM    9  C24 UNL     1       3.025  -5.403  -2.223  1.00  0.00     0.066 A 
HETATM   10  C25 UNL     1       3.635  -5.408  -0.959  1.00  0.00     0.044 A 
HETATM   11  C26 UNL     1       3.308  -4.467  -0.018  1.00  0.00    -0.049 A 
HETATM   12  C27 UNL     1       3.942  -4.452   1.314  1.00  0.00     0.042 C 
HETATM   13  C28 UNL     1       4.474  -3.041   1.455  1.00  0.00     0.046 C 
HETATM   14  C29 UNL     1       3.425  -1.976   1.285  1.00  0.00     0.096 C 
HETATM   15  C30 UNL     1       3.995  -0.933   0.368  1.00  0.00     0.175 C 
ENDROOT
BRANCH   4  16
HETATM   16  O1  UNL     1      -0.150  -2.141   1.214  1.00  0.00    -0.385 OA
BRANCH  16  17
HETATM   17  C10 UNL     1      -1.243  -2.262   0.424  1.00  0.00     0.169 C 
BRANCH  17  18
HETATM   18  C11 UNL     1      -1.827  -1.001  -0.135  1.00  0.00     0.054 C 
BRANCH  18  19
HETATM   19  C12 UNL     1      -3.031  -1.414  -0.994  1.00  0.00     0.234 C 
BRANCH  19  20
HETATM   20  N2  UNL     1      -3.677  -0.298  -1.592  1.00  0.00    -0.075 N 
ATOM     21  H22 UNL     1      -3.020   0.263  -2.134  1.00  0.00     0.277 HD
ATOM     22  H21 UNL     1      -4.299  -0.590  -2.346  1.00  0.00     0.277 HD
BRANCH  20  23
HETATM   23  C13 UNL     1      -4.364   0.494  -0.633  1.00  0.00     0.234 C 
BRANCH  23  24
HETATM   24  C14 UNL     1      -5.601  -0.180  -0.070  1.00  0.00     0.047 C 
BRANCH  24  25
HETATM   25  C15 UNL     1      -6.275   0.699   0.959  1.00  0.00     0.122 C 
BRANCH  25  26
HETATM   26  N3  UNL     1      -6.680   1.975   0.484  1.00  0.00    -0.380 N 
HETATM   27  C16 UNL     1      -7.854   2.464   0.410  1.00  0.00     0.072 C 
HETATM   28  C17 UNL     1      -8.172   3.823  -0.103  1.00  0.00     0.077 C 
HETATM   29  N4  UNL     1      -9.083   1.836   0.782  1.00  0.00    -0.380 N 
HETATM   30  C18 UNL     1      -9.640   4.001   0.165  1.00  0.00     0.027 C 
HETATM   31  C19 UNL     1     -10.176   2.586   0.215  1.00  0.00     0.121 C 
ATOM     32  H4  UNL     1      -9.172   0.996   1.354  1.00  0.00     0.160 HD
ATOM     33  H3  UNL     1      -5.928   2.582   0.158  1.00  0.00     0.160 HD
ENDBRANCH  25  26
ENDBRANCH  24  25
ENDBRANCH  23  24
ENDBRANCH  20  23
ENDBRANCH  19  20
ENDBRANCH  18  19
ENDBRANCH  17  18
ENDBRANCH  16  17
ENDBRANCH   4  16
BRANCH  14  34
HETATM   34  O3  UNL     1       3.343  -1.390   2.573  1.00  0.00    -0.386 OA
ATOM     35  H3  UNL     1       4.173  -1.032   2.866  1.00  0.00     0.210 HD
ENDBRANCH  14  34
BRANCH   1  36
HETATM   36  N1  UNL     1       4.351   1.365  -0.050  1.00  0.00    -0.411 N 
ATOM     37  H1  UNL     1       5.013   1.027  -0.749  1.00  0.00     0.153 HD
BRANCH  36  38
HETATM   38  C5  UNL     1       4.162   2.771   0.219  1.00  0.00     0.141 C 
BRANCH  38  39
HETATM   39  C4  UNL     1       5.054   3.512  -0.701  1.00  0.00    -0.012 C 
HETATM   40  C3  UNL     1       6.026   4.327  -0.336  1.00  0.00    -0.029 C 
BRANCH  40  41
HETATM   41  C2  UNL     1       6.416   4.660   1.038  1.00  0.00     0.022 C 
HETATM   42  C1  UNL     1       6.257   6.175   1.203  1.00  0.00     0.009 C 
ENDBRANCH  40  41
ENDBRANCH  38  39
ENDBRANCH  36  38
ENDBRANCH   1  36
BRANCH  15  43
HETATM   43  O4  UNL     1       3.829  -1.222  -0.974  1.00  0.00    -0.390 OA
ATOM     44  H4  UNL     1       4.109  -2.101  -1.201  1.00  0.00     0.210 HD
ENDBRANCH  15  43
BRANCH   9  45
HETATM   45  O2  UNL     1       3.333  -6.340  -3.193  1.00  0.00    -0.361 OA
ATOM     46  H2  UNL     1       3.978  -7.011  -3.005  1.00  0.00     0.217 HD
ENDBRANCH   9  45
TORSDOF 16
