REMARK  9 active torsions:
REMARK  status: ('A' for Active; 'I' for Inactive)
REMARK    1  A    between atoms: O1_2  and  C2_3 
REMARK    2  A    between atoms: C4_5  and  N1_6 
REMARK    3  A    between atoms: C5_7  and  O2_8 
REMARK    4  A    between atoms: C7_11  and  S1_12 
REMARK    5  A    between atoms: S1_12  and  C8_13 
REMARK    6  A    between atoms: C12_18  and  C13_19 
REMARK    7  A    between atoms: C17_24  and  O3_25 
REMARK    8  A    between atoms: C19_28  and  O4_29 
REMARK    9  A    between atoms: C21_31  and  O5_32 
ROOT
HETATM    1  N1  UNL     1      -1.300   0.181  -0.500  1.00  0.00    -0.271 N 
HETATM    2  C5  UNL     1      -0.421   0.415   0.491  1.00  0.00     0.150 A 
HETATM    3  C6  UNL     1       0.849   0.175   0.012  1.00  0.00     0.079 A 
HETATM    4  C7  UNL     1       0.756  -0.213  -1.299  1.00  0.00     0.061 A 
HETATM    5  C17 UNL     1      -0.588  -0.196  -1.578  1.00  0.00     0.166 A 
ENDROOT
BRANCH   1   6
HETATM    6  C4  UNL     1      -2.720   0.261  -0.296  1.00  0.00     0.049 A 
HETATM    7  C3  UNL     1      -3.367   1.161   0.479  1.00  0.00     0.070 A 
HETATM    8  C2  UNL     1      -4.723   1.213   0.649  1.00  0.00     0.106 A 
HETATM    9  C21 UNL     1      -5.437   0.241  -0.064  1.00  0.00     0.135 A 
HETATM   10  C19 UNL     1      -4.853  -0.702  -0.870  1.00  0.00     0.106 A 
HETATM   11  C18 UNL     1      -3.482  -0.670  -0.968  1.00  0.00     0.070 A 
BRANCH   8  12
HETATM   12  O1  UNL     1      -5.362   2.124   1.448  1.00  0.00    -0.353 OA
HETATM   13  C1  UNL     1      -4.660   3.075   2.219  1.00  0.00     0.210 C 
ENDBRANCH   8  12
BRANCH   9  14
HETATM   14  O5  UNL     1      -6.832   0.231   0.060  1.00  0.00    -0.351 OA
HETATM   15  C22 UNL     1      -7.340  -0.631   1.083  1.00  0.00     0.210 C 
ENDBRANCH   9  14
BRANCH  10  16
HETATM   16  O4  UNL     1      -5.573  -1.662  -1.562  1.00  0.00    -0.353 OA
HETATM   17  C20 UNL     1      -4.869  -2.631  -2.323  1.00  0.00     0.210 C 
ENDBRANCH  10  16
ENDBRANCH   1   6
BRANCH   2  18
HETATM   18  O2  UNL     1      -0.711   0.832   1.805  1.00  0.00    -0.346 OA
ATOM     19  H2  UNL     1      -0.090   0.997   2.505  1.00  0.00     0.219 HD
ENDBRANCH   2  18
BRANCH   5  20
HETATM   20  O3  UNL     1      -1.116  -0.525  -2.818  1.00  0.00    -0.345 OA
ATOM     21  H3  UNL     1      -0.613  -0.791  -3.579  1.00  0.00     0.219 HD
ENDBRANCH   5  20
BRANCH   4  22
HETATM   22  S1  UNL     1       2.097  -0.811  -2.380  1.00  0.00    -0.080 SA
BRANCH  22  23
HETATM   23  C8  UNL     1       3.521  -0.958  -1.269  1.00  0.00     0.083 A 
HETATM   24  C9  UNL     1       3.637  -2.123  -0.490  1.00  0.00     0.136 A 
HETATM   25  F1  UNL     1       2.764  -3.115  -0.738  1.00  0.00    -0.205 F 
HETATM   26  C10 UNL     1       4.627  -2.165   0.459  1.00  0.00     0.044 A 
HETATM   27  C11 UNL     1       5.520  -1.157   0.710  1.00  0.00     0.013 A 
HETATM   28  C12 UNL     1       5.377  -0.023  -0.088  1.00  0.00    -0.015 A 
HETATM   29  C16 UNL     1       4.406   0.054  -1.040  1.00  0.00     0.143 A 
HETATM   30  F2  UNL     1       4.280   1.189  -1.820  1.00  0.00    -0.204 F 
BRANCH  28  31
HETATM   31  C13 UNL     1       6.378   1.054  -0.034  1.00  0.00     0.013 C 
HETATM   32  C14 UNL     1       6.337   1.603   1.396  1.00  0.00     0.015 C 
HETATM   33  C15 UNL     1       7.796   0.368  -0.160  1.00  0.00     0.015 C 
ENDBRANCH  28  31
ENDBRANCH  22  23
ENDBRANCH   4  22
TORSDOF 9
