REMARK  10 active torsions:
REMARK  status: ('A' for Active; 'I' for Inactive)
REMARK    1  A    between atoms: C2_2  and  C3_3 
REMARK    2  A    between atoms: C3_3  and  C4_4 
REMARK    3  A    between atoms: C4_4  and  N1_5 
REMARK    4  A    between atoms: C5_6  and  C6_7 
REMARK    5  A    between atoms: C6_7  and  N2_8 
REMARK    6  A    between atoms: C15_17  and  C17_19 
REMARK    7  A    between atoms: C18_26  and  C19_27 
REMARK    8  A    between atoms: C19_27  and  N5_28 
REMARK    9  A    between atoms: C20_29  and  O1_30 
REMARK   10  A    between atoms: C23_34  and  O2_35 
ROOT
HETATM    1  N1  UNL     1      -2.131   0.086   0.035  1.00  0.00    -0.319 N 
HETATM    2  C5  UNL     1      -0.860   0.529   0.012  1.00  0.00     0.134 A 
HETATM    3  N3  UNL     1      -0.816   1.675  -0.705  1.00  0.00    -0.283 N 
ATOM      4  H3  UNL     1       0.015   2.236  -0.893  1.00  0.00     0.188 HD
HETATM    5  N4  UNL     1      -2.021   1.932  -1.110  1.00  0.00    -0.286 N 
ATOM      6  H4  UNL     1      -2.292   2.737  -1.674  1.00  0.00     0.188 HD
HETATM    7  C18 UNL     1      -2.871   0.961  -0.666  1.00  0.00     0.118 A 
ENDROOT
BRANCH   2   8
HETATM    8  C6  UNL     1       0.320  -0.061   0.689  1.00  0.00     0.111 C 
BRANCH   8   9
HETATM    9  N2  UNL     1       1.559   0.098   0.051  1.00  0.00    -0.274 NA
HETATM   10  C7  UNL     1       2.592  -0.125   1.093  1.00  0.00     0.101 C 
HETATM   11  C8  UNL     1       3.843   0.599   0.719  1.00  0.00     0.003 C 
HETATM   12  C9  UNL     1       5.035  -0.252   0.994  1.00  0.00     0.006 C 
HETATM   13  C13 UNL     1       3.811   0.995  -0.715  1.00  0.00    -0.007 C 
HETATM   14  C10 UNL     1       6.334   0.503   0.803  1.00  0.00     0.000 C 
HETATM   15  C11 UNL     1       6.199   1.612  -0.205  1.00  0.00     0.000 C 
HETATM   16  C12 UNL     1       5.170   1.347  -1.267  1.00  0.00     0.005 C 
HETATM   17  C14 UNL     1       3.227  -0.046  -1.630  1.00  0.00     0.036 C 
HETATM   18  C15 UNL     1       1.907  -0.632  -1.100  1.00  0.00     0.072 C 
HETATM   19  C16 UNL     1       0.936  -0.516  -2.238  1.00  0.00     0.038 C 
BRANCH  18  20
HETATM   20  C17 UNL     1       2.161  -2.121  -0.906  1.00  0.00     0.375 C 
HETATM   21  F1  UNL     1       2.483  -2.687  -2.162  1.00  0.00    -0.212 F 
HETATM   22  F2  UNL     1       1.077  -2.824  -0.468  1.00  0.00    -0.212 F 
ENDBRANCH  18  20
ENDBRANCH   8   9
ENDBRANCH   2   8
BRANCH   1  23
HETATM   23  C4  UNL     1      -2.601  -1.110   0.662  1.00  0.00     0.132 C 
BRANCH  23  24
HETATM   24  C3  UNL     1      -2.667  -2.310  -0.253  1.00  0.00     0.020 C 
BRANCH  24  25
HETATM   25  C2  UNL     1      -3.163  -3.496   0.531  1.00  0.00    -0.003 C 
HETATM   26  C1  UNL     1      -2.236  -3.819   1.697  1.00  0.00     0.005 C 
ENDBRANCH  24  25
ENDBRANCH  23  24
ENDBRANCH   1  23
BRANCH   7  27
HETATM   27  C19 UNL     1      -4.323   0.896  -0.892  1.00  0.00     0.211 C 
BRANCH  27  28
HETATM   28  N5  UNL     1      -5.054   1.916  -0.143  1.00  0.00    -0.301 N 
HETATM   29  C20 UNL     1      -5.605   1.895   1.055  1.00  0.00     0.144 A 
HETATM   30  C21 UNL     1      -6.167   3.109   1.316  1.00  0.00     0.060 A 
HETATM   31  C22 UNL     1      -5.946   3.909   0.220  1.00  0.00     0.060 A 
HETATM   32  C23 UNL     1      -5.249   3.147  -0.682  1.00  0.00     0.144 A 
BRANCH  29  33
HETATM   33  O1  UNL     1      -5.627   0.808   1.943  1.00  0.00    -0.346 OA
ATOM     34  H1  UNL     1      -6.024   0.793   2.806  1.00  0.00     0.219 HD
ENDBRANCH  29  33
BRANCH  32  35
HETATM   35  O2  UNL     1      -4.823   3.599  -1.947  1.00  0.00    -0.346 OA
ATOM     36  H2  UNL     1      -4.959   4.460  -2.324  1.00  0.00     0.219 HD
ENDBRANCH  32  35
ENDBRANCH  27  28
ENDBRANCH   7  27
TORSDOF 10
