REMARK  7 active torsions:
REMARK  status: ('A' for Active; 'I' for Inactive)
REMARK    1  A    between atoms: C2_2  and  C4_4 
REMARK    2  A    between atoms: C5_5  and  O1_7 
REMARK    3  A    between atoms: C7_9  and  O2_10 
REMARK    4  A    between atoms: C14_19  and  C15_20 
REMARK    5  A    between atoms: C14_19  and  C17_22 
REMARK    6  A    between atoms: C17_22  and  C18_23 
REMARK    7  A    between atoms: C22_27  and  O5_28 
ROOT
HETATM    1  C4  UNL     1      -1.160   0.150  -0.642  1.00  0.00    -0.017 C 
HETATM    2  C5  UNL     1      -2.241   1.077  -0.183  1.00  0.00     0.105 C 
HETATM    3  C6  UNL     1      -1.683   2.381   0.420  1.00  0.00     0.053 C 
HETATM    4  C7  UNL     1      -3.154   0.501   0.845  1.00  0.00     0.159 C 
HETATM    5  C9  UNL     1      -2.347  -0.080   1.983  1.00  0.00     0.041 C 
HETATM    6  C10 UNL     1      -1.401  -1.105   1.524  1.00  0.00     0.009 C 
HETATM    7  C11 UNL     1      -2.153  -2.375   1.222  1.00  0.00     0.011 C 
HETATM    8  C12 UNL     1      -0.494  -0.645   0.412  1.00  0.00     0.107 C 
HETATM    9  C13 UNL     1       0.289  -1.748  -0.149  1.00  0.00     0.276 C 
HETATM   10  O3  UNL     1      -0.099  -2.893  -0.571  1.00  0.00    -0.264 OA
HETATM   11  O4  UNL     1       1.629  -1.416  -0.188  1.00  0.00    -0.306 OA
HETATM   12  C14 UNL     1       1.902  -0.545   0.861  1.00  0.00     0.101 C 
HETATM   13  C22 UNL     1       0.613   0.159   1.099  1.00  0.00     0.176 C 
ENDROOT
BRANCH   1  14
HETATM   14  C2  UNL     1      -1.407  -0.502  -1.954  1.00  0.00    -0.065 C 
HETATM   15  C1  UNL     1      -2.605  -0.780  -2.445  1.00  0.00     0.019 C 
HETATM   16  C3  UNL     1      -0.285  -0.841  -2.916  1.00  0.00     0.047 C 
ENDBRANCH   1  14
BRANCH  13  17
HETATM   17  O5  UNL     1       0.448   0.249   2.474  1.00  0.00    -0.391 OA
ATOM     18  H5  UNL     1       1.135   0.748   2.900  1.00  0.00     0.210 HD
ENDBRANCH  13  17
BRANCH   2  19
HETATM   19  O1  UNL     1      -2.967   1.517  -1.279  1.00  0.00    -0.383 OA
ATOM     20  H1  UNL     1      -3.653   2.106  -0.988  1.00  0.00     0.211 HD
ENDBRANCH   2  19
BRANCH  12  21
HETATM   21  C15 UNL     1       2.371  -1.306   2.111  1.00  0.00     0.037 C 
HETATM   22  C16 UNL     1       3.638  -2.069   1.746  1.00  0.00     0.008 C 
ENDBRANCH  12  21
BRANCH  12  23
HETATM   23  C17 UNL     1       3.053   0.364   0.488  1.00  0.00     0.069 C 
BRANCH  23  24
HETATM   24  C18 UNL     1       2.809   1.191  -0.696  1.00  0.00    -0.022 C 
HETATM   25  C19 UNL     1       3.585   1.089  -1.749  1.00  0.00    -0.091 C 
HETATM   26  C20 UNL     1       4.730   0.142  -1.786  1.00  0.00     0.042 C 
HETATM   27  C21 UNL     1       3.312   1.941  -2.936  1.00  0.00     0.042 C 
ENDBRANCH  23  24
ENDBRANCH  12  23
BRANCH   4  28
HETATM   28  O2  UNL     1      -3.916   1.538   1.382  1.00  0.00    -0.387 OA
HETATM   29  C8  UNL     1      -5.269   1.294   1.254  1.00  0.00     0.202 C 
ENDBRANCH   4  28
TORSDOF 7
