REMARK  10 active torsions:
REMARK  status: ('A' for Active; 'I' for Inactive)
REMARK    1  A    between atoms: C2_2  and  C3_3 
REMARK    2  A    between atoms: C3_3  and  C4_4 
REMARK    3  A    between atoms: C5_7  and  C6_8 
REMARK    4  A    between atoms: C6_8  and  C8_10 
REMARK    5  A    between atoms: C10_12  and  O1_13 
REMARK    6  A    between atoms: C13_17  and  C14_18 
REMARK    7  A    between atoms: C14_18  and  N2_19 
REMARK       I    between atoms: N2_19  and  C15_20 
REMARK    8  A    between atoms: C15_20  and  C16_22 
REMARK    9  A    between atoms: C16_22  and  C17_23 
REMARK   10  A    between atoms: C17_23  and  N3_24 
ROOT
HETATM    1  C4  UNL     1      -3.953   0.919  -0.238  1.00  0.00     0.169 C 
HETATM    2  N1  UNL     1      -4.378  -0.072  -1.132  1.00  0.00    -0.402 N 
ATOM      3  H1  UNL     1      -4.141   0.027  -2.119  1.00  0.00     0.154 HD
HETATM    4  C5  UNL     1      -5.111  -1.188  -0.730  1.00  0.00     0.109 C 
HETATM    5  C10 UNL     1      -4.196  -2.356  -0.409  1.00  0.00     0.140 C 
HETATM    6  C11 UNL     1      -2.850  -2.201  -1.053  1.00  0.00     0.036 C 
HETATM    7  C12 UNL     1      -1.777  -2.111  -0.031  1.00  0.00     0.034 C 
HETATM    8  C13 UNL     1      -1.066  -0.730  -0.227  1.00  0.00     0.137 C 
HETATM    9  N4  UNL     1      -1.654   0.182   0.702  1.00  0.00    -0.349 N 
ATOM     10  H4  UNL     1      -1.015   0.608   1.373  1.00  0.00     0.163 HD
HETATM   11  C25 UNL     1      -3.007   0.569   0.809  1.00  0.00     0.240 C 
HETATM   12  O3  UNL     1      -3.444   0.609   2.021  1.00  0.00    -0.271 OA
ENDROOT
BRANCH   8  13
HETATM   13  C14 UNL     1       0.376  -1.066   0.078  1.00  0.00     0.184 C 
BRANCH  13  14
HETATM   14  N2  UNL     1       1.370  -0.148  -0.031  1.00  0.00    -0.386 NA
HETATM   15  C15 UNL     1       2.387   0.790  -0.143  1.00  0.00     0.292 C 
HETATM   16  O2  UNL     1       2.441   1.856   0.482  1.00  0.00    -0.257 OA
BRANCH  15  17
HETATM   17  C16 UNL     1       3.515   0.477  -1.088  1.00  0.00     0.147 C 
BRANCH  17  18
HETATM   18  C17 UNL     1       4.800   0.061  -0.561  1.00  0.00     0.247 C 
BRANCH  18  19
HETATM   19  N3  UNL     1       5.719   0.722   0.250  1.00  0.00    -0.070 N 
HETATM   20  C18 UNL     1       5.257   1.448   1.401  1.00  0.00     0.272 C 
HETATM   21  C19 UNL     1       6.563  -0.359   0.883  1.00  0.00     0.237 C 
HETATM   22  C20 UNL     1       7.109  -1.314  -0.107  1.00  0.00     0.028 C 
HETATM   23  C21 UNL     1       8.191  -0.658  -0.942  1.00  0.00     0.002 C 
HETATM   24  C22 UNL     1       8.880   0.406  -0.114  1.00  0.00     0.002 C 
HETATM   25  C23 UNL     1       8.021   1.622   0.074  1.00  0.00     0.028 C 
HETATM   26  C24 UNL     1       6.660   1.540  -0.532  1.00  0.00     0.237 C 
ENDBRANCH  18  19
ENDBRANCH  17  18
ENDBRANCH  15  17
ENDBRANCH  13  14
ENDBRANCH   8  13
BRANCH   5  27
HETATM   27  O1  UNL     1      -4.076  -2.549   0.968  1.00  0.00    -0.394 OA
ATOM     28  H1  UNL     1      -3.503  -3.280   1.169  1.00  0.00     0.210 HD
ENDBRANCH   5  27
BRANCH   1  29
HETATM   29  C3  UNL     1      -3.311   2.044  -1.074  1.00  0.00     0.034 C 
BRANCH  29  30
HETATM   30  C2  UNL     1      -2.845   3.138  -0.137  1.00  0.00    -0.002 C 
HETATM   31  C1  UNL     1      -3.995   3.723   0.655  1.00  0.00     0.005 C 
ENDBRANCH  29  30
ENDBRANCH   1  29
BRANCH   4  32
HETATM   32  C6  UNL     1      -6.202  -1.011   0.278  1.00  0.00     0.006 C 
HETATM   33  C7  UNL     1      -6.849  -2.370   0.591  1.00  0.00     0.012 C 
BRANCH  32  34
HETATM   34  C8  UNL     1      -7.321  -0.197  -0.364  1.00  0.00     0.002 C 
HETATM   35  C9  UNL     1      -7.850  -0.949  -1.574  1.00  0.00     0.005 C 
ENDBRANCH  32  34
ENDBRANCH   4  32
TORSDOF 10
