REMARK  5 active torsions:
REMARK  status: ('A' for Active; 'I' for Inactive)
REMARK    1  A    between atoms: N1_1  and  N2_4 
REMARK       I    between atoms: N2_4  and  C1_6 
REMARK    2  A    between atoms: C1_6  and  C2_8 
REMARK    3  A    between atoms: C3_11  and  N4_12 
REMARK       I    between atoms: N4_12  and  C4_14 
REMARK       I    between atoms: C4_14  and  N5_15 
REMARK       I    between atoms: C4_14  and  N6_19 
REMARK    4  A    between atoms: C6_27  and  N8_28 
REMARK    5  A    between atoms: N9_30  and  N10_32 
ROOT
HETATM    1  C2  UNL     1       0.927   1.005  -0.049  1.00  0.00     0.152 A 
HETATM    2  N3  UNL     1       2.222   0.646  -0.064  1.00  0.00    -0.184 N 
ATOM      3  H3  UNL     1       2.913   1.357  -0.305  1.00  0.00     0.184 HD
HETATM    4  C3  UNL     1       2.659  -0.581   0.216  1.00  0.00     0.684 A 
HETATM    5  N7  UNL     1       1.769  -1.531   0.533  1.00  0.00    -0.154 N 
ATOM      6  H7  UNL     1       2.099  -2.472   0.748  1.00  0.00     0.187 HD
HETATM    7  C5  UNL     1       0.432  -1.267   0.575  1.00  0.00     0.290 A 
HETATM    8  O2  UNL     1      -0.366  -2.196   0.879  1.00  0.00    -0.265 OA
HETATM    9  C6  UNL     1       0.027   0.008   0.281  1.00  0.00     0.151 A 
ENDROOT
BRANCH   4  10
HETATM   10  N4  UNL     1       3.904  -0.885   0.192  1.00  0.00    -0.173 N 
HETATM   11  C4  UNL     1       4.455  -2.164   0.475  1.00  0.00     0.494 C 
HETATM   12  N5  UNL     1       5.876  -2.022   0.729  1.00  0.00    -0.032 N 
HETATM   13  N6  UNL     1       4.228  -3.158  -0.540  1.00  0.00    -0.032 N 
ATOM     14  H53 UNL     1       6.361  -1.551  -0.034  1.00  0.00     0.278 HD
ATOM     15  H52 UNL     1       6.073  -1.343   1.465  1.00  0.00     0.278 HD
ATOM     16  H51 UNL     1       6.271  -2.940   0.932  1.00  0.00     0.278 HD
ATOM     17  H63 UNL     1       3.231  -3.239  -0.738  1.00  0.00     0.278 HD
ATOM     18  H62 UNL     1       4.561  -2.822  -1.444  1.00  0.00     0.278 HD
ATOM     19  H61 UNL     1       4.623  -4.076  -0.337  1.00  0.00     0.278 HD
ATOM     20  H4  UNL     1       4.558  -0.142  -0.052  1.00  0.00     0.181 HD
ENDBRANCH   4  10
BRANCH   1  21
HETATM   21  C1  UNL     1       0.456   2.353  -0.357  1.00  0.00     0.289 C 
HETATM   22  N2  UNL     1       1.343   3.406  -0.700  1.00  0.00    -0.271 N 
ATOM     23  H2  UNL     1       2.347   3.230  -0.737  1.00  0.00     0.189 HD
HETATM   24  O1  UNL     1      -0.789   2.568  -0.310  1.00  0.00    -0.264 OA
BRANCH  22  25
HETATM   25  N1  UNL     1       0.857   4.667  -0.984  1.00  0.00    -0.342 N 
ATOM     26  H12 UNL     1      -0.150   4.826  -0.942  1.00  0.00     0.176 HD
ATOM     27  H11 UNL     1       1.495   5.424  -1.231  1.00  0.00     0.176 HD
ENDBRANCH  22  25
ENDBRANCH   1  21
BRANCH   9  28
HETATM   28  N8  UNL     1      -1.383   0.319   0.317  1.00  0.00    -0.279 N 
HETATM   29  N9  UNL     1      -2.149  -0.549  -0.203  1.00  0.00    -0.243 N 
ATOM     30  H9  UNL     1      -1.767  -1.401  -0.613  1.00  0.00     0.208 HD
ATOM     31  H8  UNL     1      -1.740   1.179   0.733  1.00  0.00     0.189 HD
BRANCH  29  32
HETATM   32  N10 UNL     1      -3.523  -0.314  -0.203  1.00  0.00    -0.286 N 
HETATM   33  C7  UNL     1      -4.237   0.358   0.866  1.00  0.00     0.173 C 
HETATM   34  C8  UNL     1      -5.593   0.597   0.236  1.00  0.00     0.255 C 
HETATM   35  N11 UNL     1      -5.777  -0.623  -0.538  1.00  0.00    -0.056 N 
HETATM   36  C9  UNL     1      -4.487  -0.684  -1.244  1.00  0.00     0.375 C 
ATOM     37 2H11 UNL     1      -6.028  -1.454  -0.002  1.00  0.00     0.279 HD
ATOM     38 1H11 UNL     1      -6.607  -0.651  -1.130  1.00  0.00     0.279 HD
ENDBRANCH  29  32
ENDBRANCH   9  28
TORSDOF 5
