REMARK  6 active torsions:
REMARK  status: ('A' for Active; 'I' for Inactive)
REMARK    1  A    between atoms: C2_2  and  C3_3 
REMARK    2  A    between atoms: C3_3  and  N1_4 
REMARK    3  A    between atoms: N1_4  and  C4_7 
REMARK    4  A    between atoms: C4_7  and  C5_8 
REMARK    5  A    between atoms: C5_8  and  N2_9 
REMARK       I    between atoms: N2_9  and  C6_11 
REMARK    6  A    between atoms: C6_11  and  C7_13 
ROOT
HETATM    1  N2  UNL     1       0.185  -0.450   0.340  1.00  0.00    -0.355 N 
ATOM      2  H2  UNL     1       0.186  -1.315  -0.201  1.00  0.00     0.162 HD
HETATM    3  C6  UNL     1       1.353   0.321   0.477  1.00  0.00     0.253 C 
HETATM    4  O1  UNL     1       1.314   1.394   1.158  1.00  0.00    -0.268 OA
ENDROOT
BRANCH   1   5
HETATM    5  C5  UNL     1      -1.029   0.027   0.996  1.00  0.00     0.150 C 
BRANCH   5   6
HETATM    6  C4  UNL     1      -2.147  -0.926   0.727  1.00  0.00     0.252 C 
BRANCH   6   7
HETATM    7  N1  UNL     1      -3.376  -0.543   1.337  1.00  0.00    -0.071 N 
ATOM      8  H12 UNL     1      -3.273  -0.437   2.346  1.00  0.00     0.277 HD
ATOM      9  H11 UNL     1      -4.051  -1.308   1.325  1.00  0.00     0.277 HD
BRANCH   7  10
HETATM   10  C3  UNL     1      -3.916   0.636   0.744  1.00  0.00     0.259 C 
BRANCH  10  11
HETATM   11  C2  UNL     1      -4.360   0.333  -0.656  1.00  0.00    -0.010 C 
HETATM   12  C1  UNL     1      -5.619   0.484  -1.032  1.00  0.00     0.008 C 
ENDBRANCH  10  11
ENDBRANCH   7  10
ENDBRANCH   6   7
ENDBRANCH   5   6
ENDBRANCH   1   5
BRANCH   3  13
HETATM   13  C7  UNL     1       2.630  -0.084  -0.150  1.00  0.00     0.056 A 
HETATM   14  C8  UNL     1       2.732  -1.230  -0.890  1.00  0.00     0.019 A 
HETATM   15  C9  UNL     1       3.947  -1.591  -1.471  1.00  0.00     0.001 A 
HETATM   16  C10 UNL     1       5.021  -0.761  -1.273  1.00  0.00     0.002 A 
HETATM   17  C11 UNL     1       4.965   0.393  -0.542  1.00  0.00     0.027 A 
HETATM   18  C12 UNL     1       3.756   0.729   0.022  1.00  0.00     0.062 A 
HETATM   19  N3  UNL     1       3.616   1.922   0.801  1.00  0.00    -0.101 NA
ENDBRANCH   3  13
TORSDOF 6
