REMARK  6 active torsions:
REMARK  status: ('A' for Active; 'I' for Inactive)
REMARK    1  A    between atoms: N3_4  and  N4_6 
REMARK    2  A    between atoms: N4_6  and  C2_8 
REMARK    3  A    between atoms: C5_11  and  C6_12 
REMARK    4  A    between atoms: C6_12  and  C7_13 
REMARK    5  A    between atoms: C7_13  and  N5_14 
REMARK    6  A    between atoms: N5_14  and  C8_16 
ROOT
HETATM    1  C2  UNL     1       1.159  -0.765  -0.038  1.00  0.00     0.048 A 
HETATM    2  C3  UNL     1       0.491  -0.054  -1.013  1.00  0.00     0.031 A 
HETATM    3  C4  UNL     1      -0.683   0.614  -0.731  1.00  0.00     0.009 A 
HETATM    4  C5  UNL     1      -1.250   0.610   0.525  1.00  0.00    -0.057 A 
HETATM    5  C9  UNL     1      -0.582  -0.100   1.500  1.00  0.00     0.009 A 
HETATM    6  C10 UNL     1       0.591  -0.768   1.219  1.00  0.00     0.031 A 
ENDROOT
BRANCH   1   7
HETATM    7  N4  UNL     1       2.373  -1.455  -0.325  1.00  0.00    -0.299 N 
ATOM      8  H4  UNL     1       2.347  -2.422  -0.650  1.00  0.00     0.187 HD
BRANCH   7   9
HETATM    9  N3  UNL     1       3.583  -0.814  -0.163  1.00  0.00    -0.276 N 
HETATM   10  C1  UNL     1       4.721  -1.226  -0.533  1.00  0.00     0.215 C 
HETATM   11  N1  UNL     1       4.868  -2.479  -1.199  1.00  0.00    -0.065 NA
HETATM   12  N2  UNL     1       5.856  -0.395  -0.261  1.00  0.00    -0.065 NA
ATOM     13  H3  UNL     1       3.558   0.091   0.306  1.00  0.00     0.189 HD
ENDBRANCH   7   9
ENDBRANCH   1   7
BRANCH   4  14
HETATM   14  C6  UNL     1      -2.528   1.339   0.821  1.00  0.00     0.058 C 
BRANCH  14  15
HETATM   15  C7  UNL     1      -3.729   0.480   0.608  1.00  0.00     0.126 C 
BRANCH  15  16
HETATM   16  N5  UNL     1      -4.915   1.214   0.911  1.00  0.00    -0.368 N 
ATOM     17  H5  UNL     1      -5.501   0.873   1.673  1.00  0.00     0.161 HD
BRANCH  16  18
HETATM   18  C8  UNL     1      -5.332   2.371   0.235  1.00  0.00     0.348 C 
HETATM   19  O1  UNL     1      -4.698   2.880  -0.720  1.00  0.00    -0.284 OA
ENDBRANCH  16  18
ENDBRANCH  15  16
ENDBRANCH  14  15
ENDBRANCH   4  14
TORSDOF 6
