REMARK  3 active torsions:
REMARK  status: ('A' for Active; 'I' for Inactive)
REMARK    1  A    between atoms: N3_4  and  N4_6 
REMARK       I    between atoms: N4_6  and  C2_8 
REMARK       I    between atoms: C2_8  and  N5_10 
REMARK    2  A    between atoms: N5_10  and  N6_12 
REMARK    3  A    between atoms: C3_14  and  C4_15 
ROOT
HETATM    1  N4  UNL     1      -2.229   1.549   0.260  1.00  0.00    -0.248 N 
ATOM      2  H4  UNL     1      -2.162   2.420   0.786  1.00  0.00     0.192 HD
HETATM    3  C2  UNL     1      -1.095   0.731   0.088  1.00  0.00     0.353 C 
HETATM    4  O1  UNL     1      -1.131  -0.359  -0.556  1.00  0.00    -0.244 OA
HETATM    5  N5  UNL     1       0.138   1.130   0.652  1.00  0.00    -0.251 N 
ATOM      6  H5  UNL     1       0.206   2.001   1.178  1.00  0.00     0.191 HD
ENDROOT
BRANCH   5   7
HETATM    7  N6  UNL     1       1.257   0.323   0.482  1.00  0.00    -0.307 N 
HETATM    8  C3  UNL     1       2.259   0.672  -0.240  1.00  0.00     0.120 C 
ATOM      9  H6  UNL     1       1.283  -0.583   0.950  1.00  0.00     0.186 HD
BRANCH   8  10
HETATM   10  C4  UNL     1       3.395  -0.235  -0.366  1.00  0.00     0.005 A 
HETATM   11  C5  UNL     1       4.562  -0.064  -1.082  1.00  0.00     0.039 A 
HETATM   12  C6  UNL     1       5.347  -1.197  -0.899  1.00  0.00     0.142 A 
HETATM   13  O2  UNL     1       4.686  -2.000  -0.118  1.00  0.00    -0.334 OA
HETATM   14  C7  UNL     1       3.532  -1.491   0.230  1.00  0.00     0.154 A 
ENDBRANCH   8  10
ENDBRANCH   5   7
BRANCH   1  15
HETATM   15  N3  UNL     1      -3.443   1.153  -0.297  1.00  0.00    -0.272 N 
HETATM   16  C1  UNL     1      -4.078   0.091   0.060  1.00  0.00     0.215 C 
HETATM   17  N1  UNL     1      -5.308  -0.199  -0.588  1.00  0.00    -0.065 NA
HETATM   18  N2  UNL     1      -3.640  -0.816   1.058  1.00  0.00    -0.065 NA
ATOM     19  H3  UNL     1      -3.851   1.736  -1.028  1.00  0.00     0.189 HD
ENDBRANCH   1  15
TORSDOF 3
