REMARK  3 active torsions:
REMARK  status: ('A' for Active; 'I' for Inactive)
REMARK    1  A    between atoms: C4_6  and  C5_7 
REMARK    2  A    between atoms: C5_7  and  C6_11 
REMARK       I    between atoms: C6_11  and  N3_13 
REMARK    3  A    between atoms: N3_13  and  C7_15 
ROOT
HETATM    1  C6  UNL     1       1.004  -0.798   0.533  1.00  0.00     0.288 C 
HETATM    2  O1  UNL     1       1.196  -1.272  -0.615  1.00  0.00    -0.265 OA
HETATM    3  N3  UNL     1       2.113  -0.784   1.477  1.00  0.00    -0.153 N 
ATOM      4  H3  UNL     1       2.006  -1.107   2.439  1.00  0.00     0.187 HD
ENDROOT
BRANCH   1   5
HETATM    5  C5  UNL     1      -0.239  -0.255   1.009  1.00  0.00     0.122 C 
HETATM    6  N2  UNL     1      -0.335   0.209   2.205  1.00  0.00    -0.393 N 
ATOM      7  H22 UNL     1      -1.217   0.594   2.543  1.00  0.00     0.156 HD
ATOM      8  H21 UNL     1       0.492   0.180   2.802  1.00  0.00     0.156 HD
BRANCH   5   9
HETATM    9  C4  UNL     1      -1.420  -0.213   0.157  1.00  0.00     0.064 A 
HETATM   10  N1  UNL     1      -1.615  -0.615  -1.107  1.00  0.00    -0.363 N 
HETATM   11  C3  UNL     1      -2.878  -0.389  -1.518  1.00  0.00     0.095 A 
ATOM     12  H1  UNL     1      -0.893  -1.041  -1.688  1.00  0.00     0.165 HD
HETATM   13  C2  UNL     1      -3.567   0.190  -0.489  1.00  0.00    -0.044 A 
HETATM   14  C1  UNL     1      -4.987   0.612  -0.491  1.00  0.00     0.049 C 
HETATM   15  C9  UNL     1      -2.678   0.303   0.548  1.00  0.00     0.040 A 
ENDBRANCH   5   9
ENDBRANCH   1   5
BRANCH   3  16
HETATM   16  C7  UNL     1       3.257  -0.333   1.022  1.00  0.00     0.700 A 
HETATM   17  N4  UNL     1       3.535   0.121  -0.213  1.00  0.00    -0.185 N 
HETATM   18  C8  UNL     1       4.841   0.481  -0.227  1.00  0.00     0.215 A 
ATOM     19  H4  UNL     1       2.883   0.183  -0.995  1.00  0.00     0.185 HD
HETATM   20  N5  UNL     1       5.375   0.256   0.982  1.00  0.00    -0.281 N 
HETATM   21  N6  UNL     1       4.394  -0.235   1.715  1.00  0.00    -0.131 N 
ATOM     22  H5  UNL     1       6.337   0.428   1.274  1.00  0.00     0.188 HD
ATOM     23  H6  UNL     1       4.492  -0.507   2.693  1.00  0.00     0.205 HD
ENDBRANCH   3  16
TORSDOF 3
