REMARK  2 active torsions:
REMARK  status: ('A' for Active; 'I' for Inactive)
REMARK    1  A    between atoms: N3_4  and  N4_6 
REMARK    2  A    between atoms: C2_8  and  C3_9 
ROOT
HETATM    1  C3  UNL     1      -1.098  -0.542  -0.011  1.00  0.00     0.090 A 
HETATM    2  C4  UNL     1      -1.820   0.453   0.616  1.00  0.00     0.137 A 
HETATM    3  N5  UNL     1      -1.119   1.384   1.421  1.00  0.00    -0.081 NA
HETATM    4  N6  UNL     1      -3.142   0.481   0.429  1.00  0.00    -0.296 N 
ATOM      5  H6  UNL     1      -3.701   1.205   0.881  1.00  0.00     0.171 HD
HETATM    6  C5  UNL     1      -3.744  -0.436  -0.350  1.00  0.00     0.328 A 
HETATM    7  O1  UNL     1      -5.011  -0.380  -0.508  1.00  0.00    -0.247 OA
HETATM    8  N7  UNL     1      -3.075  -1.421  -0.978  1.00  0.00    -0.275 N 
ATOM      9  H7  UNL     1      -3.558  -2.104  -1.562  1.00  0.00     0.173 HD
HETATM   10  C6  UNL     1      -1.741  -1.466  -0.801  1.00  0.00     0.264 A 
HETATM   11  O2  UNL     1      -1.089  -2.376  -1.377  1.00  0.00    -0.267 OA
ENDROOT
BRANCH   1  12
HETATM   12  C2  UNL     1       0.346  -0.611   0.164  1.00  0.00     0.127 C 
HETATM   13  N4  UNL     1       0.992   0.217   0.884  1.00  0.00    -0.309 N 
ATOM     14  H4  UNL     1       0.481   0.961   1.359  1.00  0.00     0.186 HD
BRANCH  13  15
HETATM   15  N3  UNL     1       2.376   0.141   1.045  1.00  0.00    -0.276 N 
HETATM   16  C1  UNL     1       3.213   0.362   0.098  1.00  0.00     0.215 C 
HETATM   17  N1  UNL     1       2.809   0.710  -1.219  1.00  0.00    -0.065 NA
HETATM   18  N2  UNL     1       4.603   0.247   0.413  1.00  0.00    -0.065 NA
ATOM     19  H3  UNL     1       2.742  -0.103   1.965  1.00  0.00     0.189 HD
ENDBRANCH  13  15
ENDBRANCH   1  12
TORSDOF 2
