REMARK  7 active torsions:
REMARK  status: ('A' for Active; 'I' for Inactive)
REMARK    1  A    between atoms: N1_2  and  C2_4 
REMARK    2  A    between atoms: C3_7  and  N3_8 
REMARK    3  A    between atoms: N3_8  and  N4_10 
REMARK    4  A    between atoms: C4_15  and  N6_16 
REMARK    5  A    between atoms: N6_16  and  C5_18 
REMARK    6  A    between atoms: C5_18  and  C7_20 
REMARK    7  A    between atoms: C7_20  and  N7_21 
ROOT
HETATM    1  C2  UNL     1      -2.098  -1.079   0.427  1.00  0.00     0.706 A 
HETATM    2  N2  UNL     1      -2.387   0.209   0.211  1.00  0.00    -0.020 N 
ATOM      3  H2  UNL     1      -3.362   0.500   0.143  1.00  0.00     0.203 HD
HETATM    4  C3  UNL     1      -1.410   1.129   0.082  1.00  0.00     0.725 A 
HETATM    5  N5  UNL     1      -0.128   0.728   0.173  1.00  0.00    -0.020 N 
ATOM      6  H5  UNL     1       0.619   1.416   0.077  1.00  0.00     0.203 HD
HETATM    7  C4  UNL     1       0.186  -0.562   0.388  1.00  0.00     0.707 A 
HETATM    8  N8  UNL     1      -0.812  -1.453   0.513  1.00  0.00    -0.022 N 
ATOM      9  H8  UNL     1      -0.587  -2.434   0.677  1.00  0.00     0.203 HD
ENDROOT
BRANCH   7  10
HETATM   10  N6  UNL     1       1.388  -0.978   0.480  1.00  0.00    -0.219 N 
ATOM     11  H6  UNL     1       1.516  -1.976   0.645  1.00  0.00     0.178 HD
BRANCH  10  12
HETATM   12  C5  UNL     1       2.571  -0.188   0.376  1.00  0.00     0.120 C 
HETATM   13  C6  UNL     1       3.684  -0.948   1.109  1.00  0.00     0.034 C 
BRANCH  12  14
HETATM   14  C7  UNL     1       3.037  -0.012  -1.058  1.00  0.00     0.254 C 
BRANCH  14  15
HETATM   15  N7  UNL     1       4.243   0.806  -1.039  1.00  0.00    -0.077 N 
ATOM     16  H73 UNL     1       4.111   1.694  -0.554  1.00  0.00     0.274 HD
ATOM     17  H72 UNL     1       4.969   0.426  -0.431  1.00  0.00     0.274 HD
ATOM     18  H71 UNL     1       4.556   0.924  -2.003  1.00  0.00     0.274 HD
ENDBRANCH  14  15
ENDBRANCH  12  14
ENDBRANCH  10  12
ENDBRANCH   7  10
BRANCH   4  19
HETATM   19  N3  UNL     1      -1.713   2.372  -0.126  1.00  0.00    -0.138 N 
ATOM     20  H3  UNL     1      -0.973   3.067  -0.223  1.00  0.00     0.205 HD
BRANCH  19  21
HETATM   21  N4  UNL     1      -3.036   2.758  -0.216  1.00  0.00    -0.331 N 
ATOM     22  H42 UNL     1      -3.764   2.051  -0.116  1.00  0.00     0.177 HD
ATOM     23  H41 UNL     1      -3.274   3.736  -0.380  1.00  0.00     0.177 HD
ENDBRANCH  19  21
ENDBRANCH   4  19
BRANCH   1  24
HETATM   24  N1  UNL     1      -3.018  -1.947   0.549  1.00  0.00    -0.229 N 
HETATM   25  C1  UNL     1      -4.399  -1.526   0.453  1.00  0.00     0.165 C 
ATOM     26  H1  UNL     1      -2.786  -2.927   0.712  1.00  0.00     0.177 HD
ENDBRANCH   1  24
TORSDOF 7
