REMARK  4 active torsions:
REMARK  status: ('A' for Active; 'I' for Inactive)
REMARK    1  A    between atoms: N1_1  and  N2_4 
REMARK    2  A    between atoms: N2_4  and  C1_6 
REMARK    3  A    between atoms: C1_6  and  N3_8 
REMARK    4  A    between atoms: C2_10  and  C3_11 
ROOT
HETATM    1  C1  UNL     1       1.335   0.901   0.176  1.00  0.00     0.190 C 
HETATM    2  S1  UNL     1       2.202   2.038   0.939  1.00  0.00    -0.039 SA
ENDROOT
BRANCH   1   3
HETATM    3  N2  UNL     1       1.932  -0.325  -0.163  1.00  0.00    -0.283 N 
ATOM      4  H2  UNL     1       1.383  -1.038  -0.643  1.00  0.00     0.188 HD
BRANCH   3   5
HETATM    5  N1  UNL     1       3.273  -0.579   0.151  1.00  0.00    -0.343 N 
ATOM      6  H12 UNL     1       3.808   0.144   0.631  1.00  0.00     0.176 HD
ATOM      7  H11 UNL     1       3.706  -1.469  -0.095  1.00  0.00     0.176 HD
ENDBRANCH   3   5
ENDBRANCH   1   3
BRANCH   1   8
HETATM    8  N3  UNL     1      -0.015   1.152  -0.142  1.00  0.00    -0.337 N 
HETATM    9  C2  UNL     1      -0.956   0.282   0.026  1.00  0.00     0.161 C 
ATOM     10  H3  UNL     1      -0.262   2.065  -0.524  1.00  0.00     0.167 HD
BRANCH   9  11
HETATM   11  C3  UNL     1      -2.340   0.546  -0.302  1.00  0.00     0.270 C 
HETATM   12  N4  UNL     1      -3.335  -0.428  -0.104  1.00  0.00    -0.057 NA
HETATM   13  O1  UNL     1      -2.666   1.652  -0.768  1.00  0.00    -0.270 OA
ENDBRANCH   9  11
ENDBRANCH   1   8
TORSDOF 4
