REMARK  3 active torsions:
REMARK  status: ('A' for Active; 'I' for Inactive)
REMARK    1  A    between atoms: N1_2  and  N2_3 
REMARK    2  A    between atoms: N1_2  and  C2_6 
REMARK    3  A    between atoms: N3_7  and  N4_9 
ROOT
HETATM    1  C2  UNL     1      -0.651  -0.431   0.322  1.00  0.00     0.215 C 
HETATM    2  N3  UNL     1       0.190   0.254   1.021  1.00  0.00    -0.293 N 
ATOM      3  H3  UNL     1      -0.125   1.119   1.460  1.00  0.00     0.187 HD
ENDROOT
BRANCH   2   4
HETATM    4  N4  UNL     1       1.497  -0.140   1.195  1.00  0.00    -0.275 N 
HETATM    5  C3  UNL     1       2.429  -0.037   0.336  1.00  0.00     0.215 C 
HETATM    6  N5  UNL     1       2.162   0.523  -0.930  1.00  0.00    -0.065 NA
HETATM    7  N6  UNL     1       3.736  -0.478   0.631  1.00  0.00    -0.065 NA
ATOM      8  H4  UNL     1       1.741  -0.552   2.096  1.00  0.00     0.189 HD
ENDBRANCH   2   4
BRANCH   1   9
HETATM    9  N1  UNL     1      -1.967   0.074   0.215  1.00  0.00    -0.297 N 
HETATM   10  C1  UNL     1      -3.076  -0.758   0.612  1.00  0.00     0.178 C 
BRANCH   9  11
HETATM   11  N2  UNL     1      -2.163   1.349  -0.265  1.00  0.00    -0.342 N 
ATOM     12  H22 UNL     1      -3.113   1.713  -0.342  1.00  0.00     0.177 HD
ATOM     13  H21 UNL     1      -1.379   1.937  -0.546  1.00  0.00     0.177 HD
ENDBRANCH   9  11
ENDBRANCH   1   9
TORSDOF 3
