REMARK  2 active torsions:
REMARK  status: ('A' for Active; 'I' for Inactive)
REMARK    1  A    between atoms: N1_2  and  C2_4 
REMARK    2  A    between atoms: C2_4  and  C3_8 
ROOT
HETATM    1  C3  UNL     1       0.299   0.198  -0.344  1.00  0.00     0.091 A 
HETATM    2  C4  UNL     1       0.832   0.074   0.929  1.00  0.00     0.113 A 
HETATM    3  N3  UNL     1       2.127  -0.258   1.013  1.00  0.00    -0.318 N 
ATOM      4  H3  UNL     1       2.545  -0.356   1.938  1.00  0.00     0.170 HD
HETATM    5  C5  UNL     1       2.905  -0.469  -0.069  1.00  0.00     0.327 A 
HETATM    6  O1  UNL     1       4.119  -0.780   0.055  1.00  0.00    -0.247 OA
HETATM    7  N4  UNL     1       2.389  -0.349  -1.317  1.00  0.00    -0.275 N 
ATOM      8  H4  UNL     1       2.978  -0.508  -2.135  1.00  0.00     0.173 HD
HETATM    9  C6  UNL     1       1.097  -0.019  -1.467  1.00  0.00     0.264 A 
HETATM   10  O2  UNL     1       0.625   0.090  -2.617  1.00  0.00    -0.267 OA
ENDROOT
BRANCH   1  11
HETATM   11  C2  UNL     1      -1.100   0.555  -0.546  1.00  0.00     0.111 C 
HETATM   12  N2  UNL     1      -1.569   0.663  -1.740  1.00  0.00    -0.385 N 
ATOM     13  H22 UNL     1      -2.548   0.913  -1.881  1.00  0.00     0.157 HD
ATOM     14  H21 UNL     1      -0.999   0.507  -2.571  1.00  0.00     0.157 HD
BRANCH  11  15
HETATM   15  N1  UNL     1      -1.895   0.772   0.613  1.00  0.00    -0.380 N 
HETATM   16  C1  UNL     1      -2.671  -0.362   1.097  1.00  0.00     0.147 C 
ATOM     17  H1  UNL     1      -1.921   1.677   1.082  1.00  0.00     0.160 HD
ENDBRANCH  11  15
ENDBRANCH   1  11
TORSDOF 2
