REMARK  4 active torsions:
REMARK  status: ('A' for Active; 'I' for Inactive)
REMARK       I    between atoms: N1_4  and  C4_5 
REMARK    1  A    between atoms: C4_5  and  C5_7 
REMARK    2  A    between atoms: C7_9  and  O2_10 
REMARK    3  A    between atoms: C11_15  and  C12_16 
REMARK    4  A    between atoms: C14_20  and  C15_22 
ROOT
HETATM    1  C5  UNL     1      -0.515  -0.481   0.245  1.00  0.00     0.067 C 
HETATM    2  C6  UNL     1      -0.564  -0.884  -1.205  1.00  0.00     0.060 C 
HETATM    3  C7  UNL     1      -2.045  -1.266  -1.357  1.00  0.00     0.075 C 
HETATM    4  C8  UNL     1      -2.773   0.072  -1.346  1.00  0.00     0.045 C 
HETATM    5  C9  UNL     1      -2.847   0.287   0.152  1.00  0.00     0.015 C 
HETATM    6  C10 UNL     1      -3.391  -1.047   0.607  1.00  0.00     0.028 C 
HETATM    7  C11 UNL     1      -2.354  -1.953  -0.077  1.00  0.00     0.071 C 
HETATM    8  C13 UNL     1      -1.130  -1.838   0.783  1.00  0.00     0.043 C 
HETATM    9  C14 UNL     1      -1.430   0.543   0.716  1.00  0.00     0.061 C 
HETATM   10 CL1  UNL     1      -1.675   0.192   2.495  1.00  0.00    -0.117 Cl
ENDROOT
BRANCH   1  11
HETATM   11  C4  UNL     1       0.813  -0.563   0.856  1.00  0.00     0.233 C 
HETATM   12  N1  UNL     1       2.029  -0.268   0.207  1.00  0.00    -0.317 N 
HETATM   13  C3  UNL     1       2.203   0.181  -1.160  1.00  0.00     0.160 C 
HETATM   14  C19 UNL     1       3.378  -0.360   0.744  1.00  0.00     0.139 A 
HETATM   15  C2  UNL     1       3.640   0.648  -1.198  1.00  0.00     0.138 C 
HETATM   16  C1  UNL     1       3.722   2.003  -1.846  1.00  0.00     0.041 C 
HETATM   17  O4  UNL     1       4.098   0.658   0.116  1.00  0.00    -0.354 OA
HETATM   18  C20 UNL     1       3.739  -0.819   2.070  1.00  0.00     0.066 A 
HETATM   19  C21 UNL     1       3.947  -1.717   0.858  1.00  0.00     0.066 A 
HETATM   20  O1  UNL     1       0.871  -0.929   2.072  1.00  0.00    -0.272 OA
ENDBRANCH   1  11
BRANCH   9  21
HETATM   21  C15 UNL     1      -1.219   1.981   0.658  1.00  0.00     0.015 A 
HETATM   22  C16 UNL     1      -0.952   2.782  -0.548  1.00  0.00     0.011 A 
HETATM   23  C17 UNL     1      -0.018   2.803   0.674  1.00  0.00    -0.012 A 
HETATM   24  C18 UNL     1      -0.039   4.193   1.358  1.00  0.00     0.010 C 
ENDBRANCH   9  21
BRANCH   3  25
HETATM   25  O2  UNL     1      -2.270  -1.979  -2.505  1.00  0.00    -0.389 OA
ATOM     26  H2  UNL     1      -3.185  -2.215  -2.599  1.00  0.00     0.210 HD
ENDBRANCH   3  25
BRANCH   7  27
HETATM   27  C12 UNL     1      -2.851  -3.328  -0.193  1.00  0.00     0.242 C 
HETATM   28  N2  UNL     1      -3.170  -4.054   0.982  1.00  0.00    -0.061 NA
HETATM   29  O3  UNL     1      -2.994  -3.858  -1.296  1.00  0.00    -0.276 OA
ENDBRANCH   7  27
TORSDOF 4
