REMARK  3 active torsions:
REMARK  status: ('A' for Active; 'I' for Inactive)
REMARK    1  A    between atoms: C3_6  and  C4_7 
REMARK    2  A    between atoms: C4_7  and  C5_8 
REMARK    3  A    between atoms: C5_8  and  N2_9 
ROOT
HETATM    1  N1  UNL     1      -0.747  -2.448   0.621  1.00  0.00    -0.395 N 
ATOM      2  H11 UNL     1      -1.420  -3.207   0.728  1.00  0.00     0.156 HD
ATOM      3  H12 UNL     1       0.258  -2.619   0.644  1.00  0.00     0.156 HD
HETATM    4  C1  UNL     1      -1.133  -1.246   0.452  1.00  0.00     0.094 A 
HETATM    5  C2  UNL     1      -0.180  -0.171   0.300  1.00  0.00     0.060 A 
HETATM    6  C3  UNL     1       1.134  -0.300   0.318  1.00  0.00     0.007 C 
HETATM    7  N3  UNL     1      -0.758   1.140   0.116  1.00  0.00    -0.329 N 
ATOM      8  H3  UNL     1      -0.140   1.943   0.003  1.00  0.00     0.168 HD
HETATM    9  C6  UNL     1      -2.050   1.324   0.091  1.00  0.00     0.194 A 
HETATM   10  N4  UNL     1      -2.566   2.631  -0.093  1.00  0.00    -0.063 NA
HETATM   11  N5  UNL     1      -2.943   0.219   0.247  1.00  0.00    -0.317 N 
ATOM     12  H5  UNL     1      -3.943   0.418   0.220  1.00  0.00     0.169 HD
HETATM   13  C7  UNL     1      -2.592  -0.998   0.418  1.00  0.00     0.147 A 
HETATM   14  N6  UNL     1      -3.509  -2.068   0.569  1.00  0.00    -0.080 NA
ENDROOT
BRANCH   6  15
HETATM   15  C4  UNL     1       2.050   0.858   0.154  1.00  0.00     0.056 C 
BRANCH  15  16
HETATM   16  C5  UNL     1       2.950   0.703  -1.050  1.00  0.00     0.233 C 
BRANCH  16  17
HETATM   17  N2  UNL     1       3.786  -0.451  -0.995  1.00  0.00    -0.079 N 
ATOM     18  H23 UNL     1       4.332  -0.459  -0.134  1.00  0.00     0.274 HD
ATOM     19  H22 UNL     1       3.229  -1.293  -0.851  1.00  0.00     0.274 HD
ATOM     20  H21 UNL     1       4.393  -0.556  -1.808  1.00  0.00     0.274 HD
ENDBRANCH  16  17
ENDBRANCH  15  16
ENDBRANCH   6  15
TORSDOF 3
