REMARK  11 active torsions:
REMARK  status: ('A' for Active; 'I' for Inactive)
REMARK    1  A    between atoms: C2_3  and  N2_4 
REMARK    2  A    between atoms: C2_3  and  C10_28 
REMARK    3  A    between atoms: N2_4  and  N3_6 
REMARK    4  A    between atoms: N4_8  and  C3_10 
REMARK    5  A    between atoms: C4_13  and  N6_14 
REMARK    6  A    between atoms: C5_19  and  N8_20 
REMARK    7  A    between atoms: C10_28  and  C11_30 
REMARK    8  A    between atoms: C12_33  and  O3_34 
REMARK    9  A    between atoms: C13_36  and  O4_37 
REMARK   10  A    between atoms: C14_41  and  N12_42 
REMARK   11  A    between atoms: N12_42  and  N13_44 
ROOT
HETATM    1  N1  UNL     1      -1.588  -0.227   2.728  1.00  0.00    -0.195 NA
HETATM    2  C1  UNL     1      -1.646  -0.236   1.569  1.00  0.00     0.094 C 
HETATM    3  C2  UNL     1      -1.736  -0.238   0.109  1.00  0.00     0.283 C 
ENDROOT
BRANCH   3   4
HETATM    4  N2  UNL     1      -0.560   0.329  -0.476  1.00  0.00    -0.295 N 
ATOM      5  H2  UNL     1       0.178   0.658   0.146  1.00  0.00     0.183 HD
BRANCH   4   6
HETATM    6  N3  UNL     1      -0.372   0.454  -1.839  1.00  0.00    -0.231 N 
HETATM    7  N4  UNL     1       0.634   0.015  -2.443  1.00  0.00    -0.117 N 
ATOM      8  H4  UNL     1       0.685   0.156  -3.452  1.00  0.00     0.207 HD
ATOM      9  H3  UNL     1      -1.092   0.930  -2.383  1.00  0.00     0.208 HD
BRANCH   7  10
HETATM   10  C3  UNL     1       1.710  -0.668  -1.811  1.00  0.00     0.727 A 
HETATM   11  N5  UNL     1       1.723  -2.018  -1.711  1.00  0.00    -0.020 N 
HETATM   12  C4  UNL     1       2.709  -2.701  -1.127  1.00  0.00     0.705 A 
ATOM     13  H5  UNL     1       0.939  -2.540  -2.102  1.00  0.00     0.203 HD
HETATM   14  N7  UNL     1       3.743  -1.991  -0.615  1.00  0.00    -0.022 N 
HETATM   15  C5  UNL     1       3.787  -0.641  -0.684  1.00  0.00     0.709 A 
ATOM     16  H7  UNL     1       4.511  -2.489  -0.164  1.00  0.00     0.203 HD
HETATM   17  N9  UNL     1       2.765  -0.020  -1.282  1.00  0.00    -0.020 N 
ATOM     18  H9  UNL     1       2.786   0.998  -1.341  1.00  0.00     0.203 HD
BRANCH  12  19
HETATM   19  N6  UNL     1       2.729  -3.992  -1.028  1.00  0.00    -0.234 N 
ATOM     20  H62 UNL     1       1.951  -4.527  -1.413  1.00  0.00     0.174 HD
ATOM     21  H61 UNL     1       3.483  -4.514  -0.581  1.00  0.00     0.174 HD
ENDBRANCH  12  19
BRANCH  15  22
HETATM   22  N8  UNL     1       4.907   0.028  -0.121  1.00  0.00    -0.213 N 
HETATM   23  C6  UNL     1       6.048   0.275  -0.950  1.00  0.00     0.167 C 
HETATM   24  C7  UNL     1       7.070   1.171  -0.332  1.00  0.00     0.188 C 
HETATM   25  O1  UNL     1       7.078   1.159   1.046  1.00  0.00    -0.388 OA
HETATM   26  C8  UNL     1       5.840   1.512   1.561  1.00  0.00     0.188 C 
HETATM   27  C9  UNL     1       4.838   0.425   1.262  1.00  0.00     0.167 C 
ENDBRANCH  15  22
ENDBRANCH   7  10
ENDBRANCH   4   6
ENDBRANCH   3   4
BRANCH   3  28
HETATM   28  C10 UNL     1      -2.954   0.483  -0.326  1.00  0.00     0.217 C 
HETATM   29  O2  UNL     1      -2.830   1.451  -1.109  1.00  0.00    -0.287 OA
BRANCH  28  30
HETATM   30  C11 UNL     1      -4.284   0.119   0.116  1.00  0.00     0.130 A 
HETATM   31  N10 UNL     1      -4.505  -0.917   0.964  1.00  0.00    -0.327 N 
HETATM   32  C12 UNL     1      -5.750  -1.223   1.350  1.00  0.00     0.193 A 
ATOM     33  H10 UNL     1      -3.718  -1.466   1.309  1.00  0.00     0.168 HD
HETATM   34  C13 UNL     1      -6.864  -0.532   0.927  1.00  0.00     0.194 A 
HETATM   35  N11 UNL     1      -6.634   0.493   0.086  1.00  0.00    -0.317 N 
HETATM   36  C14 UNL     1      -5.392   0.819  -0.315  1.00  0.00     0.152 A 
ATOM     37  H11 UNL     1      -7.424   1.039  -0.257  1.00  0.00     0.169 HD
BRANCH  32  38
HETATM   38  O3  UNL     1      -5.978  -2.293   2.226  1.00  0.00    -0.343 OA
ATOM     39  H3  UNL     1      -6.861  -2.510   2.500  1.00  0.00     0.219 HD
ENDBRANCH  32  38
BRANCH  34  40
HETATM   40  O4  UNL     1      -8.144  -0.871   1.342  1.00  0.00    -0.343 OA
ATOM     41  H4  UNL     1      -8.912  -0.394   1.050  1.00  0.00     0.219 HD
ENDBRANCH  34  40
BRANCH  36  42
HETATM   42  N12 UNL     1      -5.233   1.830  -1.137  1.00  0.00    -0.290 N 
ATOM     43  H12 UNL     1      -4.294   2.082  -1.445  1.00  0.00     0.188 HD
BRANCH  42  44
HETATM   44  N13 UNL     1      -6.316   2.561  -1.594  1.00  0.00    -0.344 N 
ATOM     45 2H13 UNL     1      -7.248   2.296  -1.276  1.00  0.00     0.176 HD
ATOM     46 1H13 UNL     1      -6.192   3.347  -2.233  1.00  0.00     0.176 HD
ENDBRANCH  42  44
ENDBRANCH  36  42
ENDBRANCH  28  30
ENDBRANCH   3  28
TORSDOF 11
