REMARK  1 active torsions:
REMARK  status: ('A' for Active; 'I' for Inactive)
REMARK    1  A    between atoms: C5_5  and  O1_6 
ROOT
HETATM    1  C1  UNL     1      -1.797   1.234   2.965  1.00  0.00     0.049 C 
HETATM    2  C2  UNL     1      -2.411   0.981   1.629  1.00  0.00     0.085 C 
HETATM    3  C3  UNL     1      -3.717   0.211   1.787  1.00  0.00     0.043 C 
HETATM    4  C4  UNL     1      -4.435   0.299   0.481  1.00  0.00     0.044 C 
HETATM    5  C5  UNL     1      -3.443   0.567  -0.654  1.00  0.00     0.089 C 
HETATM    6  C6  UNL     1      -2.970   2.002  -0.353  1.00  0.00     0.207 C 
HETATM    7  O2  UNL     1      -2.856   2.196   1.036  1.00  0.00    -0.375 OA
HETATM    8  C7  UNL     1      -2.235  -0.304  -0.443  1.00  0.00     0.019 C 
HETATM    9  C8  UNL     1      -2.597  -1.718  -0.056  1.00  0.00     0.021 C 
HETATM   10  C9  UNL     1      -1.415  -0.479  -1.748  1.00  0.00     0.016 C 
HETATM   11  C10 UNL     1      -0.067  -0.930  -1.454  1.00  0.00     0.024 C 
HETATM   12  C11 UNL     1       1.089  -1.138  -0.607  1.00  0.00     0.081 C 
HETATM   13  C12 UNL     1       1.707  -2.507  -0.852  1.00  0.00     0.192 C 
HETATM   14  O3  UNL     1       2.726  -2.273  -1.767  1.00  0.00    -0.359 OA
HETATM   15  C13 UNL     1       3.422  -1.287  -1.070  1.00  0.00     0.278 C 
HETATM   16  O4  UNL     1       4.519  -0.761  -1.739  1.00  0.00    -0.289 OA
HETATM   17  C14 UNL     1       5.352   0.236  -1.269  1.00  0.00     0.261 C 
HETATM   18  O5  UNL     1       6.461   0.325  -1.842  1.00  0.00    -0.265 OA
HETATM   19  C15 UNL     1       5.115   1.209  -0.187  1.00  0.00     0.111 C 
HETATM   20  C16 UNL     1       4.002   0.712   0.686  1.00  0.00     0.011 C 
HETATM   21  C17 UNL     1       2.649   0.763   0.057  1.00  0.00     0.016 C 
HETATM   22  C18 UNL     1       2.311  -0.263  -0.926  1.00  0.00     0.025 C 
HETATM   23  C19 UNL     1       1.986   0.369  -2.264  1.00  0.00     0.022 C 
HETATM   24  C20 UNL     1       0.711  -1.009   0.851  1.00  0.00     0.271 C 
HETATM   25  O6  UNL     1       1.500  -1.399   1.707  1.00  0.00    -0.264 OA
HETATM   26  O7  UNL     1      -0.484  -0.474   1.299  1.00  0.00    -0.311 OA
HETATM   27  C21 UNL     1      -1.448   0.346   0.653  1.00  0.00     0.177 C 
ENDROOT
BRANCH   5  28
HETATM   28  O1  UNL     1      -4.007   0.480  -1.894  1.00  0.00    -0.387 OA
ATOM     29  H1  UNL     1      -3.391   0.646  -2.598  1.00  0.00     0.210 HD
ENDBRANCH   5  28
TORSDOF 1
