REMARK  5 active torsions:
REMARK  status: ('A' for Active; 'I' for Inactive)
REMARK    1  A    between atoms: C2_2  and  O1_3 
REMARK    2  A    between atoms: O1_3  and  C3_4 
REMARK    3  A    between atoms: C13_15  and  O2_16 
REMARK    4  A    between atoms: C18_22  and  C19_23 
REMARK    5  A    between atoms: C24_28  and  O3_29 
ROOT
HETATM    1  C3  UNL     1      -2.840   0.168  -0.220  1.00  0.00     0.076 C 
HETATM    2  C4  UNL     1      -4.102   0.584   0.384  1.00  0.00     0.041 C 
HETATM    3  C5  UNL     1      -4.215   2.107   0.363  1.00  0.00     0.024 C 
HETATM    4  C6  UNL     1      -3.122   2.580  -0.550  1.00  0.00     0.093 C 
HETATM    5 CL1  UNL     1      -3.783   3.660  -1.837  1.00  0.00    -0.124 Cl
HETATM    6  C7  UNL     1      -2.729   1.326  -1.227  1.00  0.00     0.004 C 
HETATM    7  C8  UNL     1      -3.853   1.071  -2.255  1.00  0.00     0.020 C 
HETATM    8  C9  UNL     1      -1.470   1.290  -1.938  1.00  0.00     0.014 C 
HETATM    9  C10 UNL     1      -0.217   1.066  -1.125  1.00  0.00     0.007 C 
HETATM   10  C11 UNL     1      -0.363  -0.070  -0.147  1.00  0.00     0.004 C 
HETATM   11  C12 UNL     1      -1.645   0.025   0.670  1.00  0.00     0.054 C 
HETATM   12  C13 UNL     1      -1.545   0.900   1.855  1.00  0.00     0.126 C 
HETATM   13  C14 UNL     1      -0.406   0.383   2.724  1.00  0.00     0.037 C 
HETATM   14  C15 UNL     1       0.814   0.526   1.936  1.00  0.00    -0.003 C 
HETATM   15  C16 UNL     1       2.052   0.155   2.660  1.00  0.00     0.006 C 
HETATM   16  C17 UNL     1       3.013   0.015   1.507  1.00  0.00     0.006 C 
HETATM   17  C18 UNL     1       2.165   0.032   0.245  1.00  0.00     0.001 C 
HETATM   18  C25 UNL     1       0.852  -0.359   0.673  1.00  0.00    -0.032 C 
HETATM   19  C26 UNL     1       0.709  -1.765   1.221  1.00  0.00     0.016 C 
ENDROOT
BRANCH  17  20
HETATM   20  C19 UNL     1       2.992  -0.521  -0.837  1.00  0.00     0.019 C 
HETATM   21  C20 UNL     1       3.574  -1.871  -0.722  1.00  0.00     0.007 C 
HETATM   22  C21 UNL     1       5.030  -2.004  -0.469  1.00  0.00     0.001 C 
HETATM   23  C22 UNL     1       5.832  -1.002  -1.216  1.00  0.00     0.002 C 
HETATM   24  C23 UNL     1       5.350   0.407  -0.953  1.00  0.00     0.032 C 
HETATM   25  C24 UNL     1       3.924   0.551  -1.370  1.00  0.00     0.122 C 
BRANCH  25  26
HETATM   26  O3  UNL     1       3.929   0.643  -2.767  1.00  0.00    -0.395 OA
ATOM     27  H3  UNL     1       4.513   1.314  -3.101  1.00  0.00     0.210 HD
ENDBRANCH  25  26
ENDBRANCH  17  20
BRANCH   1  28
HETATM   28  O1  UNL     1      -2.939  -0.915  -1.035  1.00  0.00    -0.379 OA
BRANCH  28  29
HETATM   29  C2  UNL     1      -3.323  -2.123  -0.668  1.00  0.00     0.164 C 
HETATM   30  C1  UNL     1      -4.679  -2.374  -0.107  1.00  0.00     0.033 C 
ENDBRANCH  28  29
ENDBRANCH   1  28
BRANCH  12  31
HETATM   31  O2  UNL     1      -2.584   0.720   2.772  1.00  0.00    -0.395 OA
ATOM     32  H2  UNL     1      -2.520   1.283   3.534  1.00  0.00     0.210 HD
ENDBRANCH  12  31
TORSDOF 5
