REMARK  6 active torsions:
REMARK  status: ('A' for Active; 'I' for Inactive)
REMARK    1  A    between atoms: C9_9  and  C10_10 
REMARK    2  A    between atoms: C15_15  and  N1_16 
REMARK       I    between atoms: N1_16  and  C16_18 
REMARK    3  A    between atoms: C16_18  and  O2_20 
REMARK    4  A    between atoms: O2_20  and  C17_21 
REMARK    5  A    between atoms: C17_21  and  C18_22 
REMARK    6  A    between atoms: C21_26  and  O3_27 
ROOT
HETATM    1  C1  UNL     1      -7.430  -0.330   1.056  1.00  0.00     0.044 C 
HETATM    2  C2  UNL     1      -5.958  -0.190   1.280  1.00  0.00    -0.079 C 
HETATM    3  C3  UNL     1      -5.428  -0.197   2.493  1.00  0.00    -0.024 C 
HETATM    4  C4  UNL     1      -3.971  -0.059   2.735  1.00  0.00     0.028 C 
HETATM    5  C5  UNL     1      -3.149  -0.703   1.657  1.00  0.00     0.010 C 
HETATM    6  C6  UNL     1      -3.849  -0.906   0.368  1.00  0.00     0.002 C 
HETATM    7  C7  UNL     1      -2.877  -0.859  -0.831  1.00  0.00     0.042 C 
HETATM    8  C8  UNL     1      -1.935   0.236  -0.719  1.00  0.00    -0.051 C 
HETATM    9  C9  UNL     1      -0.646   0.193  -0.567  1.00  0.00     0.012 C 
HETATM   10  C21 UNL     1      -2.410   1.699  -0.742  1.00  0.00     0.147 C 
HETATM   11  C22 UNL     1      -3.847   1.807  -1.169  1.00  0.00     0.037 C 
HETATM   12  C23 UNL     1      -4.772   1.400  -0.083  1.00  0.00     0.017 C 
HETATM   13  C24 UNL     1      -5.037  -0.032   0.125  1.00  0.00    -0.017 C 
HETATM   14  C25 UNL     1      -5.736  -0.582  -1.128  1.00  0.00     0.020 C 
ENDROOT
BRANCH   9  15
HETATM   15  C10 UNL     1       0.292  -0.895  -0.451  1.00  0.00    -0.059 C 
HETATM   16  C11 UNL     1      -0.029  -2.338  -0.393  1.00  0.00     0.048 C 
HETATM   17  C12 UNL     1       1.603  -0.621  -0.315  1.00  0.00    -0.074 C 
HETATM   18  C13 UNL     1       2.677  -1.612  -0.197  1.00  0.00     0.037 C 
HETATM   19  C20 UNL     1       2.011   0.811  -0.223  1.00  0.00     0.037 C 
HETATM   20  C14 UNL     1       3.837  -1.080  -1.066  1.00  0.00     0.029 C 
HETATM   21  C15 UNL     1       4.442   0.167  -0.518  1.00  0.00     0.087 C 
HETATM   22  C19 UNL     1       3.450   0.968   0.249  1.00  0.00     0.029 C 
BRANCH  21  23
HETATM   23  N1  UNL     1       5.634  -0.109   0.261  1.00  0.00    -0.332 N 
HETATM   24  C16 UNL     1       6.884   0.380  -0.176  1.00  0.00     0.360 C 
HETATM   25  O1  UNL     1       6.965   1.062  -1.251  1.00  0.00    -0.239 OA
ATOM     26  H1  UNL     1       5.569  -0.654   1.121  1.00  0.00     0.165 HD
BRANCH  24  27
HETATM   27  O2  UNL     1       8.050   0.134   0.547  1.00  0.00    -0.303 OA
BRANCH  27  28
HETATM   28  C17 UNL     1       9.259   0.659   0.040  1.00  0.00     0.195 C 
BRANCH  28  29
HETATM   29  C18 UNL     1      10.388   0.268   0.986  1.00  0.00     0.141 C 
HETATM   30 CL1  UNL     1      11.917   0.902   0.393  1.00  0.00    -0.128 Cl
ENDBRANCH  28  29
ENDBRANCH  27  28
ENDBRANCH  24  27
ENDBRANCH  21  23
ENDBRANCH   9  15
BRANCH  10  31
HETATM   31  O3  UNL     1      -1.643   2.369  -1.702  1.00  0.00    -0.391 OA
ATOM     32  H3  UNL     1      -1.936   3.272  -1.716  1.00  0.00     0.210 HD
ENDBRANCH  10  31
TORSDOF 6
