REMARK  7 active torsions:
REMARK  status: ('A' for Active; 'I' for Inactive)
REMARK    1  A    between atoms: O1_2  and  C2_3 
REMARK    2  A    between atoms: C6_7  and  O2_8 
REMARK    3  A    between atoms: C8_10  and  O3_11 
REMARK    4  A    between atoms: C14_18  and  C15_19 
REMARK    5  A    between atoms: C15_19  and  C16_20 
REMARK    6  A    between atoms: C18_22  and  O4_23 
REMARK    7  A    between atoms: C19_25  and  O5_26 
ROOT
HETATM    1  C2  UNL     1      -2.619   0.680   1.758  1.00  0.00     0.105 A 
HETATM    2  C3  UNL     1      -1.284   0.641   1.290  1.00  0.00     0.054 A 
HETATM    3  C4  UNL     1      -1.034   0.298  -0.010  1.00  0.00     0.011 A 
HETATM    4  C5  UNL     1      -2.093  -0.001  -0.830  1.00  0.00    -0.008 A 
HETATM    5  C6  UNL     1      -3.390   0.037  -0.375  1.00  0.00     0.111 A 
HETATM    6  C8  UNL     1      -3.677   0.378   0.928  1.00  0.00     0.135 A 
HETATM    7  C10 UNL     1      -1.793  -0.379  -2.234  1.00  0.00     0.070 C 
HETATM    8  C11 UNL     1      -0.525  -1.182  -2.156  1.00  0.00     0.248 C 
HETATM    9  N1  UNL     1       0.602  -0.353  -1.704  1.00  0.00    -0.044 N 
HETATM   10  C12 UNL     1       0.670   0.668  -2.821  1.00  0.00     0.279 C 
HETATM   11  C13 UNL     1       1.747  -1.160  -2.012  1.00  0.00     0.279 C 
HETATM   12  C14 UNL     1       0.409   0.279  -0.497  1.00  0.00     0.147 C 
ENDROOT
BRANCH  12  13
HETATM   13  C15 UNL     1       1.269   0.309   0.670  1.00  0.00     0.050 C 
BRANCH  13  14
HETATM   14  C16 UNL     1       2.708   0.230   0.636  1.00  0.00    -0.025 A 
HETATM   15  C17 UNL     1       3.515   1.314   0.257  1.00  0.00     0.051 A 
HETATM   16  C18 UNL     1       4.863   1.267   0.137  1.00  0.00     0.099 A 
HETATM   17  C19 UNL     1       5.510   0.084   0.400  1.00  0.00     0.099 A 
HETATM   18  C20 UNL     1       4.758  -1.001   0.775  1.00  0.00     0.047 A 
HETATM   19  C21 UNL     1       3.370  -0.936   0.896  1.00  0.00    -0.049 A 
HETATM   20  C22 UNL     1       2.740  -2.199   1.402  1.00  0.00     0.049 C 
BRANCH  16  21
HETATM   21  O4  UNL     1       5.545   2.420  -0.249  1.00  0.00    -0.358 OA
ATOM     22  H4  UNL     1       6.491   2.387  -0.333  1.00  0.00     0.217 HD
ENDBRANCH  16  21
BRANCH  17  23
HETATM   23  O5  UNL     1       6.890   0.050   0.271  1.00  0.00    -0.358 OA
ATOM     24  H5  UNL     1       7.337  -0.768   0.453  1.00  0.00     0.217 HD
ENDBRANCH  17  23
ENDBRANCH  13  14
ENDBRANCH  12  13
BRANCH   1  25
HETATM   25  O1  UNL     1      -2.944   1.016   3.054  1.00  0.00    -0.353 OA
HETATM   26  C1  UNL     1      -2.074   1.360   4.082  1.00  0.00     0.210 C 
ENDBRANCH   1  25
BRANCH   5  27
HETATM   27  O2  UNL     1      -4.414  -0.273  -1.239  1.00  0.00    -0.352 OA
HETATM   28  C7  UNL     1      -4.826  -1.643  -1.296  1.00  0.00     0.210 C 
ENDBRANCH   5  27
BRANCH   6  29
HETATM   29  O3  UNL     1      -5.009   0.393   1.307  1.00  0.00    -0.351 OA
HETATM   30  C9  UNL     1      -5.769   1.584   1.173  1.00  0.00     0.210 C 
ENDBRANCH   6  29
TORSDOF 7
