REMARK  5 active torsions:
REMARK  status: ('A' for Active; 'I' for Inactive)
REMARK    1  A    between atoms: O1_2  and  C2_3 
REMARK    2  A    between atoms: C5_6  and  S1_7 
REMARK    3  A    between atoms: S1_7  and  N1_10 
REMARK    4  A    between atoms: N1_10  and  C7_12 
REMARK    5  A    between atoms: N3_18  and  C11_20 
ROOT
HETATM    1  C7  UNL     1       0.265  -0.167   1.073  1.00  0.00     0.049 A 
HETATM    2  C8  UNL     1      -0.359  -0.611   2.224  1.00  0.00     0.047 A 
HETATM    3  C9  UNL     1       0.376  -1.299   3.168  1.00  0.00     0.092 A 
HETATM    4  N2  UNL     1       1.704  -1.564   3.019  1.00  0.00    -0.352 N 
ATOM      5  H2  UNL     1       2.218  -2.075   3.737  1.00  0.00     0.166 HD
HETATM    6  C10 UNL     1       2.320  -1.137   1.906  1.00  0.00     0.107 A 
HETATM    7  N3  UNL     1       3.573  -1.394   1.779  1.00  0.00    -0.342 N 
ATOM      8  H3  UNL     1       4.031  -1.908   2.531  1.00  0.00     0.167 HD
HETATM    9  C18 UNL     1       1.604  -0.451   0.953  1.00  0.00     0.078 A 
ENDROOT
BRANCH   1  10
HETATM   10  N1  UNL     1      -0.504   0.540   0.110  1.00  0.00    -0.276 N 
HETATM   11  C6  UNL     1      -0.575   1.982   0.246  1.00  0.00     0.170 C 
BRANCH  10  12
HETATM   12  S1  UNL     1      -1.337  -0.228  -1.185  1.00  0.00     0.264 S 
HETATM   13  O2  UNL     1      -0.827   0.262  -2.530  1.00  0.00    -0.200 OA
HETATM   14  O3  UNL     1      -1.023  -1.697  -1.112  1.00  0.00    -0.200 OA
BRANCH  12  15
HETATM   15  C5  UNL     1      -3.053   0.073  -1.035  1.00  0.00     0.080 A 
HETATM   16  C4  UNL     1      -3.891  -0.781  -0.321  1.00  0.00     0.028 A 
HETATM   17  C3  UNL     1      -5.248  -0.544  -0.200  1.00  0.00     0.038 A 
HETATM   18  C2  UNL     1      -5.819   0.571  -0.798  1.00  0.00     0.068 A 
HETATM   19  C20 UNL     1      -4.975   1.413  -1.505  1.00  0.00     0.038 A 
HETATM   20  C19 UNL     1      -3.627   1.173  -1.622  1.00  0.00     0.028 A 
BRANCH  18  21
HETATM   21  O1  UNL     1      -7.154   0.879  -0.727  1.00  0.00    -0.356 OA
HETATM   22  C1  UNL     1      -8.135   0.142  -0.058  1.00  0.00     0.210 C 
ENDBRANCH  18  21
ENDBRANCH  12  15
ENDBRANCH  10  12
ENDBRANCH   1  10
BRANCH   7  23
HETATM   23  C11 UNL     1       4.360  -1.013   0.669  1.00  0.00     0.034 A 
HETATM   24  C12 UNL     1       4.579  -1.854  -0.375  1.00  0.00     0.032 A 
HETATM   25  C13 UNL     1       5.357  -1.462  -1.459  1.00  0.00     0.034 A 
HETATM   26  C14 UNL     1       5.933  -0.199  -1.508  1.00  0.00     0.059 A 
HETATM   27  N4  UNL     1       6.710   0.436  -2.400  1.00  0.00    -0.300 N 
HETATM   28  C16 UNL     1       5.701   0.642  -0.442  1.00  0.00     0.011 A 
HETATM   29  N5  UNL     1       6.967   1.638  -1.926  1.00  0.00    -0.311 N 
ATOM     30  H4  UNL     1       7.042   0.056  -3.286  1.00  0.00     0.187 HD
HETATM   31  C15 UNL     1       6.370   1.816  -0.722  1.00  0.00     0.120 A 
ATOM     32  H5  UNL     1       7.537   2.339  -2.400  1.00  0.00     0.186 HD
HETATM   33  C17 UNL     1       4.919   0.251   0.651  1.00  0.00     0.044 A 
ENDBRANCH   7  23
TORSDOF 5
