REMARK  10 active torsions:
REMARK  status: ('A' for Active; 'I' for Inactive)
REMARK    1  A    between atoms: C2_2  and  C3_3 
REMARK    2  A    between atoms: C3_3  and  C5_5 
REMARK    3  A    between atoms: C7_10  and  C8_11 
REMARK    4  A    between atoms: C8_11  and  C10_13 
REMARK    5  A    between atoms: C13_18  and  C14_19 
REMARK    6  A    between atoms: C14_19  and  C15_20 
REMARK    7  A    between atoms: C19_27  and  C20_28 
REMARK    8  A    between atoms: C20_28  and  C21_29 
REMARK    9  A    between atoms: C25_36  and  C26_37 
REMARK   10  A    between atoms: C26_37  and  C27_38 
ROOT
HETATM    1  C5  UNL     1      -3.361  -2.242   0.116  1.00  0.00     0.164 C 
HETATM    2  N1  UNL     1      -3.473  -1.321  -0.971  1.00  0.00    -0.347 N 
ATOM      3  H1  UNL     1      -4.335  -1.447  -1.501  1.00  0.00     0.163 HD
HETATM    4  C6  UNL     1      -2.692  -0.304  -1.471  1.00  0.00     0.248 C 
HETATM    5  O1  UNL     1      -2.135  -0.511  -2.627  1.00  0.00    -0.271 OA
HETATM    6  C7  UNL     1      -2.347   1.037  -0.930  1.00  0.00     0.227 C 
HETATM    7  O2  UNL     1      -0.996   1.219  -1.133  1.00  0.00    -0.304 OA
HETATM    8  C12 UNL     1      -0.107   2.199  -1.021  1.00  0.00     0.282 C 
HETATM    9  O3  UNL     1       0.445   2.671  -2.087  1.00  0.00    -0.263 OA
HETATM   10  C13 UNL     1       0.390   2.883   0.202  1.00  0.00     0.184 C 
HETATM   11  N2  UNL     1       1.774   3.286   0.076  1.00  0.00    -0.345 N 
ATOM     12  H2  UNL     1       2.020   4.197   0.462  1.00  0.00     0.163 HD
HETATM   13  C18 UNL     1       2.820   2.551  -0.525  1.00  0.00     0.241 C 
HETATM   14  O4  UNL     1       3.577   3.094  -1.408  1.00  0.00    -0.271 OA
HETATM   15  C19 UNL     1       3.160   1.122  -0.223  1.00  0.00     0.177 C 
HETATM   16  N3  UNL     1       3.176   0.329  -1.407  1.00  0.00    -0.346 N 
ATOM     17  H3  UNL     1       3.872   0.570  -2.113  1.00  0.00     0.163 HD
HETATM   18  C24 UNL     1       2.319  -0.762  -1.700  1.00  0.00     0.241 C 
HETATM   19  O5  UNL     1       2.036  -0.922  -2.938  1.00  0.00    -0.271 OA
HETATM   20  C25 UNL     1       1.731  -1.706  -0.752  1.00  0.00     0.178 C 
HETATM   21  N4  UNL     1       0.560  -2.369  -1.343  1.00  0.00    -0.330 N 
ATOM     22  H4  UNL     1       0.278  -2.128  -2.293  1.00  0.00     0.165 HD
HETATM   23  C30 UNL     1      -0.202  -3.354  -0.610  1.00  0.00     0.321 C 
HETATM   24  O6  UNL     1      -0.612  -4.302  -1.335  1.00  0.00    -0.247 OA
HETATM   25  N5  UNL     1      -0.458  -3.282   0.737  1.00  0.00    -0.309 N 
ATOM     26  H5  UNL     1       0.252  -3.810   1.244  1.00  0.00     0.170 HD
HETATM   27  C31 UNL     1      -1.256  -2.795   1.542  1.00  0.00     0.057 C 
HETATM   28  C32 UNL     1      -1.001  -3.083   3.023  1.00  0.00     0.072 C 
HETATM   29  C33 UNL     1      -2.420  -1.982   1.189  1.00  0.00     0.194 C 
HETATM   30  O7  UNL     1      -2.582  -0.968   1.918  1.00  0.00    -0.289 OA
ENDROOT
BRANCH   1  31
HETATM   31  C3  UNL     1      -4.783  -2.503   0.650  1.00  0.00     0.012 C 
HETATM   32  C4  UNL     1      -5.554  -3.062  -0.534  1.00  0.00     0.012 C 
BRANCH  31  33
HETATM   33  C2  UNL     1      -5.468  -1.266   1.124  1.00  0.00     0.002 C 
HETATM   34  C1  UNL     1      -6.893  -1.686   1.523  1.00  0.00     0.005 C 
ENDBRANCH  31  33
ENDBRANCH   1  31
BRANCH   6  35
HETATM   35  C8  UNL     1      -3.246   2.054  -1.608  1.00  0.00     0.020 C 
HETATM   36  C9  UNL     1      -3.013   3.464  -1.162  1.00  0.00     0.013 C 
BRANCH  35  37
HETATM   37  C10 UNL     1      -3.304   1.963  -3.090  1.00  0.00     0.003 C 
HETATM   38  C11 UNL     1      -4.250   3.078  -3.573  1.00  0.00     0.005 C 
ENDBRANCH  35  37
ENDBRANCH   6  35
BRANCH  10  39
HETATM   39  C14 UNL     1       0.051   2.205   1.482  1.00  0.00     0.039 C 
BRANCH  39  40
HETATM   40  C15 UNL     1       0.639   3.037   2.605  1.00  0.00    -0.020 C 
HETATM   41  C16 UNL     1       0.324   2.389   3.933  1.00  0.00     0.009 C 
HETATM   42  C17 UNL     1      -0.089   4.373   2.585  1.00  0.00     0.009 C 
ENDBRANCH  39  40
ENDBRANCH  10  39
BRANCH  20  43
HETATM   43  C26 UNL     1       2.701  -2.691  -0.220  1.00  0.00     0.038 C 
BRANCH  43  44
HETATM   44  C27 UNL     1       3.394  -3.624  -1.129  1.00  0.00    -0.020 C 
HETATM   45  C28 UNL     1       4.273  -4.514  -0.186  1.00  0.00     0.009 C 
HETATM   46  C29 UNL     1       4.401  -3.015  -2.065  1.00  0.00     0.009 C 
ENDBRANCH  43  44
ENDBRANCH  20  43
BRANCH  15  47
HETATM   47  C20 UNL     1       4.301   0.987   0.704  1.00  0.00     0.038 C 
BRANCH  47  48
HETATM   48  C21 UNL     1       5.613   1.544   0.323  1.00  0.00    -0.020 C 
HETATM   49  C22 UNL     1       6.235   0.972  -0.928  1.00  0.00     0.009 C 
HETATM   50  C23 UNL     1       6.587   1.180   1.460  1.00  0.00     0.009 C 
ENDBRANCH  47  48
ENDBRANCH  15  47
TORSDOF 10
