REMARK  2 active torsions:
REMARK  status: ('A' for Active; 'I' for Inactive)
REMARK    1  A    between atoms: C2_2  and  N2_6 
REMARK    2  A    between atoms: N2_6  and  N3_8 
ROOT
HETATM    1  N2  UNL     1       0.344  -0.050   0.283  1.00  0.00    -0.289 N 
ATOM      2  H2  UNL     1       0.426   0.927   0.565  1.00  0.00     0.188 HD
ENDROOT
BRANCH   1   3
HETATM    3  C2  UNL     1       1.191  -0.513  -0.741  1.00  0.00     0.085 C 
HETATM    4  C1  UNL     1       2.606  -0.116  -0.751  1.00  0.00     0.090 C 
HETATM    5  N1  UNL     1       0.735  -1.271  -1.655  1.00  0.00    -0.388 N 
ATOM      6  H12 UNL     1       1.349  -1.607  -2.397  1.00  0.00     0.157 HD
ATOM      7  H11 UNL     1      -0.247  -1.547  -1.648  1.00  0.00     0.157 HD
ENDBRANCH   1   3
BRANCH   1   8
HETATM    8  N3  UNL     1      -0.599  -0.840   0.936  1.00  0.00    -0.292 N 
HETATM    9  C3  UNL     1      -1.761  -0.366   1.136  1.00  0.00     0.091 C 
HETATM   10  C4  UNL     1      -2.101   0.991   0.683  1.00  0.00     0.083 C 
HETATM   11 CL1  UNL     1      -2.965  -1.324   1.949  1.00  0.00    -0.068 Cl
ATOM     12  H3  UNL     1      -0.361  -1.782   1.248  1.00  0.00     0.187 HD
ENDBRANCH   1   8
TORSDOF 2
