REMARK  15 active torsions:
REMARK  status: ('A' for Active; 'I' for Inactive)
REMARK       I    between atoms: C2_2  and  N1_4 
REMARK    1  A    between atoms: N1_4  and  C3_6 
REMARK    2  A    between atoms: C3_6  and  C4_7 
REMARK    3  A    between atoms: C3_6  and  C17_38 
REMARK    4  A    between atoms: C6_11  and  N3_12 
REMARK    5  A    between atoms: N3_12  and  N4_14 
REMARK    6  A    between atoms: N4_14  and  C7_16 
REMARK    7  A    between atoms: C7_16  and  O2_17 
REMARK    8  A    between atoms: C7_16  and  C8_19 
REMARK    9  A    between atoms: C8_19  and  O3_20 
REMARK   10  A    between atoms: C11_24  and  O4_25 
REMARK   11  A    between atoms: C14_31  and  O7_32 
REMARK   12  A    between atoms: C17_38  and  O10_39 
REMARK   13  A    between atoms: C17_38  and  C18_41 
REMARK   14  A    between atoms: C18_41  and  O11_42 
REMARK   15  A    between atoms: C18_41  and  O12_44 
ROOT
HETATM    1  C4  UNL     1       1.962  -0.136   0.206  1.00  0.00     0.154 A 
HETATM    2  N2  UNL     1       0.699  -0.041  -0.275  1.00  0.00    -0.335 N 
ATOM      3  H2  UNL     1       0.440   0.681  -0.948  1.00  0.00     0.168 HD
HETATM    4  C5  UNL     1      -0.210  -0.947   0.175  1.00  0.00     0.082 A 
HETATM    5  C6  UNL     1      -1.512  -1.004  -0.333  1.00  0.00     0.088 A 
HETATM    6  C9  UNL     1      -2.379  -1.990   0.047  1.00  0.00     0.034 A 
HETATM    7  C10 UNL     1      -3.649  -2.094  -0.474  1.00  0.00     0.059 A 
HETATM    8  C11 UNL     1      -4.484  -3.102  -0.082  1.00  0.00     0.142 A 
HETATM    9  C12 UNL     1      -3.965  -3.987   0.863  1.00  0.00     0.322 A 
HETATM   10  O5  UNL     1      -4.766  -4.893   1.217  1.00  0.00    -0.257 OA
HETATM   11  O6  UNL     1      -2.793  -3.903   1.337  1.00  0.00    -0.270 OA
HETATM   12  C13 UNL     1      -1.965  -2.954   0.968  1.00  0.00     0.126 A 
HETATM   13  C14 UNL     1      -0.693  -2.923   1.483  1.00  0.00     0.119 A 
HETATM   14  C15 UNL     1       0.134  -1.930   1.073  1.00  0.00     0.104 A 
HETATM   15  C16 UNL     1       1.440  -1.952   1.514  1.00  0.00     0.304 A 
HETATM   16  O8  UNL     1       1.790  -2.829   2.324  1.00  0.00    -0.259 OA
HETATM   17  O9  UNL     1       2.286  -1.037   1.046  1.00  0.00    -0.259 OA
ENDROOT
BRANCH   1  18
HETATM   18  C3  UNL     1       3.051   0.848  -0.247  1.00  0.00     0.193 C 
BRANCH  18  19
HETATM   19  N1  UNL     1       2.378   1.932  -0.796  1.00  0.00    -0.347 N 
HETATM   20  C2  UNL     1       2.527   2.702  -2.010  1.00  0.00     0.214 C 
HETATM   21  C1  UNL     1       4.045   1.755  -2.437  1.00  0.00     0.117 C 
HETATM   22  O1  UNL     1       2.653   3.269  -2.924  1.00  0.00    -0.274 OA
ATOM     23  H1  UNL     1       1.607   2.257  -0.213  1.00  0.00     0.163 HD
ENDBRANCH  18  19
BRANCH  18  24
HETATM   24  C17 UNL     1       3.861   1.184   0.961  1.00  0.00     0.203 C 
BRANCH  24  25
HETATM   25  O10 UNL     1       3.162   1.609   2.064  1.00  0.00    -0.388 OA
ATOM     26  H10 UNL     1       3.677   1.823   2.833  1.00  0.00     0.210 HD
ENDBRANCH  24  25
BRANCH  24  27
HETATM   27  C18 UNL     1       4.993   0.310   1.331  1.00  0.00     0.284 C 
BRANCH  27  28
HETATM   28  O11 UNL     1       4.773  -0.834   2.016  1.00  0.00    -0.369 OA
ATOM     29  H11 UNL     1       5.501  -1.396   2.254  1.00  0.00     0.212 HD
ENDBRANCH  27  28
BRANCH  27  30
HETATM   30  O12 UNL     1       5.957   1.042   2.052  1.00  0.00    -0.369 OA
ATOM     31  H12 UNL     1       6.685   0.480   2.290  1.00  0.00     0.212 HD
ENDBRANCH  27  30
ENDBRANCH  24  27
ENDBRANCH  18  24
ENDBRANCH   1  18
BRANCH   5  32
HETATM   32  N3  UNL     1      -1.966   0.019  -1.226  1.00  0.00    -0.300 N 
ATOM     33  H3  UNL     1      -1.930  -0.248  -2.210  1.00  0.00     0.186 HD
BRANCH  32  34
HETATM   34  N4  UNL     1      -2.426   1.252  -1.019  1.00  0.00    -0.305 N 
ATOM     35  H4  UNL     1      -1.891   1.989  -1.478  1.00  0.00     0.183 HD
BRANCH  34  36
HETATM   36  C7  UNL     1      -3.484   1.685  -0.301  1.00  0.00     0.256 C 
BRANCH  36  37
HETATM   37  O2  UNL     1      -4.770   1.201  -0.603  1.00  0.00    -0.373 OA
ATOM     38  H2  UNL     1      -5.515   1.506  -0.098  1.00  0.00     0.212 HD
ENDBRANCH  36  37
BRANCH  36  39
HETATM   39  C8  UNL     1      -3.736   3.218  -0.389  1.00  0.00     0.218 C 
BRANCH  39  40
HETATM   40  O3  UNL     1      -2.706   3.968   0.084  1.00  0.00    -0.397 OA
ATOM     41  H3  UNL     1      -2.860   4.904   0.030  1.00  0.00     0.209 HD
ENDBRANCH  39  40
ENDBRANCH  36  39
ENDBRANCH  34  36
ENDBRANCH  32  34
ENDBRANCH   5  32
BRANCH  13  42
HETATM   42  O7  UNL     1      -0.244  -3.896   2.392  1.00  0.00    -0.357 OA
ATOM     43  H7  UNL     1       0.636  -3.875   2.748  1.00  0.00     0.218 HD
ENDBRANCH  13  42
BRANCH   8  44
HETATM   44  O4  UNL     1      -5.736  -3.226  -0.603  1.00  0.00    -0.355 OA
ATOM     45  H4  UNL     1      -6.317  -3.927  -0.330  1.00  0.00     0.218 HD
ENDBRANCH   8  44
TORSDOF 15
