REMARK  15 active torsions:
REMARK  status: ('A' for Active; 'I' for Inactive)
REMARK    1  A    between atoms: C2_2  and  N1_3 
REMARK    2  A    between atoms: C2_2  and  C15_44 
REMARK       I    between atoms: N1_3  and  C3_5 
REMARK    3  A    between atoms: C3_5  and  C4_7 
REMARK    4  A    between atoms: C4_7  and  N2_8 
REMARK    5  A    between atoms: C6_12  and  N4_13 
REMARK    6  A    between atoms: C7_18  and  C8_19 
REMARK    7  A    between atoms: C9_23  and  C10_24 
REMARK    8  A    between atoms: C10_24  and  O3_25 
REMARK    9  A    between atoms: C13_33  and  N9_34 
REMARK   10  A    between atoms: C14_39  and  N11_40 
REMARK   11  A    between atoms: C15_44  and  O4_45 
REMARK   12  A    between atoms: C15_44  and  C16_47 
REMARK   13  A    between atoms: C16_47  and  O5_48 
REMARK   14  A    between atoms: C16_47  and  C17_50 
REMARK   15  A    between atoms: C17_50  and  O6_51 
ROOT
HETATM    1  N2  UNL     1       0.667  -1.112   0.122  1.00  0.00    -0.243 N 
HETATM    2  C5  UNL     1       1.544  -0.615   1.046  1.00  0.00     0.155 A 
HETATM    3  N3  UNL     1       1.570  -0.724   2.389  1.00  0.00    -0.174 N 
ATOM      4  H3  UNL     1       0.835  -1.258   2.852  1.00  0.00     0.186 HD
HETATM    5  C6  UNL     1       2.522  -0.159   3.137  1.00  0.00     0.678 A 
HETATM    6  N5  UNL     1       3.482   0.541   2.513  1.00  0.00    -0.187 N 
ATOM      7  H5  UNL     1       4.209   0.974   3.083  1.00  0.00     0.184 HD
HETATM    8  C7  UNL     1       3.540   0.706   1.167  1.00  0.00     0.113 A 
HETATM    9  C11 UNL     1       2.541   0.109   0.424  1.00  0.00     0.088 A 
HETATM   10  C12 UNL     1       2.213   0.018  -0.917  1.00  0.00     0.177 A 
HETATM   11  N8  UNL     1       2.804   0.516  -2.004  1.00  0.00    -0.173 N 
ATOM     12  H8  UNL     1       3.652   1.069  -1.882  1.00  0.00     0.186 HD
HETATM   13  C13 UNL     1       2.345   0.330  -3.243  1.00  0.00     0.692 A 
HETATM   14  N10 UNL     1       1.241  -0.392  -3.372  1.00  0.00    -0.021 N 
ATOM     15  H10 UNL     1       0.872  -0.546  -4.310  1.00  0.00     0.203 HD
HETATM   16  C14 UNL     1       0.565  -0.945  -2.308  1.00  0.00     0.713 A 
HETATM   17  N12 UNL     1       1.077  -0.725  -1.068  1.00  0.00    -0.064 N 
ENDROOT
BRANCH   1  18
HETATM   18  C4  UNL     1      -0.479  -1.905   0.487  1.00  0.00     0.254 C 
BRANCH  18  19
HETATM   19  C3  UNL     1      -1.689  -1.070   0.698  1.00  0.00     0.237 C 
HETATM   20  N1  UNL     1      -2.948  -1.548   1.069  1.00  0.00    -0.353 N 
ATOM     21  H1  UNL     1      -3.032  -2.556   1.197  1.00  0.00     0.163 HD
HETATM   22  O1  UNL     1      -1.565   0.179   0.529  1.00  0.00    -0.272 OA
BRANCH  20  23
HETATM   23  C2  UNL     1      -4.121  -0.783   1.287  1.00  0.00     0.111 C 
HETATM   24  C1  UNL     1      -4.684  -0.909   2.682  1.00  0.00     0.035 C 
BRANCH  23  25
HETATM   25  C15 UNL     1      -5.249  -0.991   0.325  1.00  0.00     0.171 C 
BRANCH  25  26
HETATM   26  O4  UNL     1      -6.283  -0.134   0.755  1.00  0.00    -0.391 OA
ATOM     27  H4  UNL     1      -6.999  -0.266   0.145  1.00  0.00     0.210 HD
ENDBRANCH  25  26
BRANCH  25  28
HETATM   28  C16 UNL     1      -4.891  -0.598  -1.089  1.00  0.00     0.172 C 
BRANCH  28  29
HETATM   29  O5  UNL     1      -3.891  -1.457  -1.521  1.00  0.00    -0.391 OA
ATOM     30  H5  UNL     1      -3.666  -1.210  -2.410  1.00  0.00     0.210 HD
ENDBRANCH  28  29
BRANCH  28  31
HETATM   31  C17 UNL     1      -6.095  -0.798  -1.975  1.00  0.00     0.198 C 
BRANCH  31  32
HETATM   32  O6  UNL     1      -5.805  -0.524  -3.312  1.00  0.00    -0.398 OA
ATOM     33  H6  UNL     1      -6.563  -0.650  -3.870  1.00  0.00     0.209 HD
ENDBRANCH  31  32
ENDBRANCH  28  31
ENDBRANCH  25  28
ENDBRANCH  23  25
ENDBRANCH  20  23
ENDBRANCH  18  19
ENDBRANCH   1  18
BRANCH  16  34
HETATM   34  N11 UNL     1      -0.455  -1.581  -2.584  1.00  0.00    -0.232 N 
ATOM     35 2H11 UNL     1      -0.839  -1.746  -3.514  1.00  0.00     0.174 HD
ATOM     36 1H11 UNL     1      -0.956  -1.991  -1.796  1.00  0.00     0.174 HD
ENDBRANCH  16  34
BRANCH   5  37
HETATM   37  N4  UNL     1       2.516  -0.284   4.413  1.00  0.00    -0.234 N 
ATOM     38  H42 UNL     1       1.786  -0.816   4.887  1.00  0.00     0.174 HD
ATOM     39  H41 UNL     1       3.243   0.147   4.984  1.00  0.00     0.174 HD
ENDBRANCH   5  37
BRANCH   8  40
HETATM   40  C8  UNL     1       4.592   1.473   0.540  1.00  0.00     0.156 A 
HETATM   41  N6  UNL     1       4.919   1.808  -0.698  1.00  0.00    -0.241 N 
HETATM   42  O2  UNL     1       5.989   2.535  -0.701  1.00  0.00    -0.220 OA
ATOM     43  H6  UNL     1       4.401   1.532  -1.532  1.00  0.00     0.196 HD
HETATM   44  C9  UNL     1       6.411   2.710   0.517  1.00  0.00     0.172 A 
HETATM   45  N7  UNL     1       5.563   2.061   1.317  1.00  0.00    -0.320 N 
ATOM     46  H7  UNL     1       5.624   2.010   2.334  1.00  0.00     0.169 HD
BRANCH  44  47
HETATM   47  C10 UNL     1       7.592   3.467   1.011  1.00  0.00     0.250 C 
BRANCH  47  48
HETATM   48  O3  UNL     1       8.333   3.976  -0.053  1.00  0.00    -0.393 OA
ATOM     49  H3  UNL     1       9.087   4.460   0.263  1.00  0.00     0.210 HD
ENDBRANCH  47  48
ENDBRANCH  44  47
ENDBRANCH   8  40
BRANCH  13  50
HETATM   50  N9  UNL     1       2.917   0.813  -4.280  1.00  0.00    -0.234 N 
ATOM     51  H92 UNL     1       3.767   1.369  -4.181  1.00  0.00     0.174 HD
ATOM     52  H91 UNL     1       2.566   0.671  -5.227  1.00  0.00     0.174 HD
ENDBRANCH  13  50
TORSDOF 15
