REMARK  7 active torsions:
REMARK  status: ('A' for Active; 'I' for Inactive)
REMARK    1  A    between atoms: C2_2  and  C3_3 
REMARK    2  A    between atoms: C3_3  and  C4_4 
REMARK    3  A    between atoms: C4_4  and  C5_5 
REMARK    4  A    between atoms: C9_9  and  C10_10 
REMARK       I    between atoms: C10_10  and  N1_12 
REMARK    5  A    between atoms: N1_12  and  C11_14 
REMARK    6  A    between atoms: C12_21  and  C13_22 
REMARK    7  A    between atoms: C13_22  and  O3_24 
ROOT
HETATM    1  C4  UNL     1      -1.552   0.040  -0.509  1.00  0.00     0.011 C 
HETATM    2  C8  UNL     1      -0.300  -0.841  -0.769  1.00  0.00     0.002 C 
HETATM    3  C9  UNL     1       1.052  -0.495  -0.442  1.00  0.00     0.026 C 
HETATM    4  C12 UNL     1       1.421   0.894  -0.268  1.00  0.00     0.160 C 
HETATM    5  C15 UNL     1       0.319   1.736  -0.871  1.00  0.00     0.010 A 
HETATM    6  C16 UNL     1       0.764   3.015  -1.285  1.00  0.00     0.146 A 
HETATM    7  F1  UNL     1       2.094   3.297  -1.302  1.00  0.00    -0.204 F 
HETATM    8  C17 UNL     1      -0.114   3.967  -1.667  1.00  0.00     0.074 A 
HETATM    9 CL1  UNL     1       0.479   5.544  -2.182  1.00  0.00    -0.081 Cl
HETATM   10  C18 UNL     1      -1.440   3.678  -1.644  1.00  0.00     0.051 A 
HETATM   11  C19 UNL     1      -1.842   2.421  -1.235  1.00  0.00     0.043 A 
HETATM   12 CL2  UNL     1      -3.559   2.287  -1.012  1.00  0.00    -0.084 Cl
HETATM   13  C20 UNL     1      -1.030   1.371  -0.835  1.00  0.00    -0.013 A 
ENDROOT
BRANCH   3  14
HETATM   14  C10 UNL     1       1.771  -1.477   0.431  1.00  0.00     0.266 C 
HETATM   15  O1  UNL     1       1.124  -2.294   1.076  1.00  0.00    -0.267 OA
HETATM   16  N1  UNL     1       3.155  -1.462   0.509  1.00  0.00    -0.153 N 
ATOM     17  H1  UNL     1       3.572  -0.857   1.217  1.00  0.00     0.187 HD
BRANCH  16  18
HETATM   18  C11 UNL     1       3.966  -2.142  -0.230  1.00  0.00     0.710 A 
HETATM   19  N2  UNL     1       3.723  -3.000  -1.218  1.00  0.00    -0.117 N 
HETATM   20  N3  UNL     1       4.877  -3.476  -1.710  1.00  0.00     0.006 NA
ATOM     21  H2  UNL     1       2.795  -3.258  -1.552  1.00  0.00     0.202 HD
HETATM   22  N4  UNL     1       5.844  -2.904  -1.017  1.00  0.00     0.006 NA
HETATM   23  N5  UNL     1       5.309  -2.084  -0.106  1.00  0.00    -0.117 N 
ATOM     24  H5  UNL     1       5.825  -1.515   0.565  1.00  0.00     0.202 HD
ENDBRANCH  16  18
ENDBRANCH   3  14
BRANCH   4  25
HETATM   25  C13 UNL     1       1.710   1.402   1.104  1.00  0.00     0.271 C 
HETATM   26  O2  UNL     1       0.993   2.350   1.523  1.00  0.00    -0.264 OA
BRANCH  25  27
HETATM   27  O3  UNL     1       2.671   0.959   1.968  1.00  0.00    -0.326 OA
HETATM   28  C14 UNL     1       2.842   1.533   3.250  1.00  0.00     0.213 C 
ENDBRANCH  25  27
ENDBRANCH   4  25
BRANCH   1  29
HETATM   29  C3  UNL     1      -1.841  -0.242   0.910  1.00  0.00     0.018 C 
BRANCH  29  30
HETATM   30  C2  UNL     1      -3.124   0.008   1.578  1.00  0.00    -0.003 C 
HETATM   31  C1  UNL     1      -2.984  -0.471   3.055  1.00  0.00     0.005 C 
ENDBRANCH  29  30
ENDBRANCH   1  29
BRANCH   1  32
HETATM   32  C5  UNL     1      -2.438  -0.694  -1.477  1.00  0.00    -0.006 C 
HETATM   33  C6  UNL     1      -2.248  -2.232  -1.241  1.00  0.00     0.011 C 
HETATM   34  C7  UNL     1      -3.809  -0.545  -1.833  1.00  0.00     0.011 C 
ENDBRANCH   1  32
TORSDOF 7
