REMARK  11 active torsions:
REMARK  status: ('A' for Active; 'I' for Inactive)
REMARK    1  A    between atoms: C3_3  and  C4_4 
REMARK    2  A    between atoms: C4_4  and  O2_6 
REMARK    3  A    between atoms: O2_6  and  C5_7 
REMARK    4  A    between atoms: C5_7  and  C6_8 
REMARK    5  A    between atoms: C6_8  and  C7_11 
REMARK    6  A    between atoms: C7_11  and  O3_12 
REMARK    7  A    between atoms: C7_11  and  C8_14 
REMARK    8  A    between atoms: C8_14  and  O4_17 
REMARK    9  A    between atoms: C11_19  and  O5_20 
REMARK   10  A    between atoms: C25_36  and  C26_37 
REMARK   11  A    between atoms: C26_37  and  C27_38 
ROOT
HETATM    1  C1  UNL     1       0.759  -3.131   0.612  1.00  0.00     0.050 C 
HETATM    2  C2  UNL     1       0.284  -1.802   0.861  1.00  0.00    -0.031 C 
HETATM    3  C3  UNL     1       1.167  -0.730   0.840  1.00  0.00     0.075 C 
HETATM    4  C11 UNL     1       0.822   0.678   1.019  1.00  0.00     0.060 C 
HETATM    5  C12 UNL     1      -0.204   1.355   1.788  1.00  0.00     0.070 C 
HETATM    6  C13 UNL     1      -1.547   1.486   1.198  1.00  0.00    -0.004 C 
HETATM    7  C14 UNL     1      -1.841   2.925   0.629  1.00  0.00     0.006 C 
HETATM    8  C15 UNL     1      -2.557   2.593  -0.707  1.00  0.00     0.010 C 
HETATM    9  C16 UNL     1      -3.680   1.703  -0.411  1.00  0.00    -0.034 C 
HETATM   10  C17 UNL     1      -4.884   2.651  -0.778  1.00  0.00     0.016 C 
HETATM   11  C18 UNL     1      -3.951   1.569   1.111  1.00  0.00    -0.001 C 
HETATM   12  C19 UNL     1      -5.180   0.767   1.059  1.00  0.00     0.006 C 
HETATM   13  C20 UNL     1      -5.205   0.009  -0.278  1.00  0.00     0.009 C 
HETATM   14  C21 UNL     1      -3.979   0.442  -1.057  1.00  0.00     0.028 C 
HETATM   15  C22 UNL     1      -3.093  -0.565  -1.610  1.00  0.00     0.064 C 
HETATM   16  C23 UNL     1      -2.359   0.063  -2.834  1.00  0.00     0.046 C 
HETATM   17  C24 UNL     1      -3.995  -1.599  -2.314  1.00  0.00     0.046 C 
HETATM   18  O6  UNL     1      -2.096  -1.231  -1.024  1.00  0.00    -0.343 OA
HETATM   19  C25 UNL     1      -2.178  -1.870   0.169  1.00  0.00     0.068 C 
HETATM   20  C28 UNL     1      -1.141  -1.388   1.136  1.00  0.00    -0.003 C 
HETATM   21  C29 UNL     1      -1.461  -0.783   2.261  1.00  0.00    -0.012 C 
HETATM   22  C30 UNL     1      -2.895  -0.282   2.497  1.00  0.00     0.033 C 
HETATM   23  C31 UNL     1      -2.803   1.159   1.930  1.00  0.00    -0.002 C 
ENDROOT
BRANCH   3  24
HETATM   24  C4  UNL     1       2.545  -1.037   0.566  1.00  0.00     0.296 C 
HETATM   25  O1  UNL     1       3.105  -2.108   0.340  1.00  0.00    -0.259 OA
BRANCH  24  26
HETATM   26  O2  UNL     1       3.436   0.076   0.549  1.00  0.00    -0.311 OA
BRANCH  26  27
HETATM   27  C5  UNL     1       4.824  -0.105   0.289  1.00  0.00     0.261 C 
BRANCH  27  28
HETATM   28  C6  UNL     1       5.543   1.202   0.326  1.00  0.00     0.293 C 
HETATM   29  F1  UNL     1       4.995   2.013  -0.645  1.00  0.00    -0.201 F 
HETATM   30  F2  UNL     1       5.209   1.831   1.540  1.00  0.00    -0.201 F 
BRANCH  28  31
HETATM   31  C7  UNL     1       7.023   1.144   0.289  1.00  0.00     0.226 C 
BRANCH  31  32
HETATM   32  O3  UNL     1       7.554   0.430   1.359  1.00  0.00    -0.386 OA
ATOM     33  H3  UNL     1       8.503   0.393   1.335  1.00  0.00     0.210 HD
ENDBRANCH  31  32
BRANCH  31  34
HETATM   34  C8  UNL     1       7.659   0.676  -0.972  1.00  0.00     0.082 C 
HETATM   35  C9  UNL     1       7.547  -0.804  -1.108  1.00  0.00     0.048 C 
HETATM   36  C10 UNL     1       7.215   1.422  -2.202  1.00  0.00     0.048 C 
BRANCH  34  37
HETATM   37  O4  UNL     1       9.046   0.954  -0.830  1.00  0.00    -0.388 OA
ATOM     38  H4  UNL     1       9.452   0.655  -1.635  1.00  0.00     0.210 HD
ENDBRANCH  34  37
ENDBRANCH  31  34
ENDBRANCH  28  31
ENDBRANCH  27  28
ENDBRANCH  26  27
ENDBRANCH  24  26
ENDBRANCH   3  24
BRANCH   4  39
HETATM   39  O5  UNL     1       0.816   1.330  -0.274  1.00  0.00    -0.364 OA
ATOM     40  H5  UNL     1       0.592   2.246  -0.158  1.00  0.00     0.217 HD
ENDBRANCH   4  39
BRANCH  19  41
HETATM   41  C26 UNL     1      -2.519  -3.316   0.106  1.00  0.00     0.178 C 
BRANCH  41  42
HETATM   42  C27 UNL     1      -2.644  -4.122   1.317  1.00  0.00     0.178 C 
HETATM   43  O7  UNL     1      -2.394  -3.712   2.461  1.00  0.00    -0.648 OA
HETATM   44  O8  UNL     1      -3.074  -5.468   1.252  1.00  0.00    -0.648 OA
ENDBRANCH  41  42
ENDBRANCH  19  41
TORSDOF 11
