REMARK  4 active torsions:
REMARK  status: ('A' for Active; 'I' for Inactive)
REMARK    1  A    between atoms: C2_2  and  C12_20 
REMARK    2  A    between atoms: N1_3  and  N2_5 
REMARK    3  A    between atoms: N2_5  and  C3_7 
REMARK    4  A    between atoms: C4_10  and  C5_11 
ROOT
HETATM    1  C1  UNL     1      -2.099  -3.039   0.622  1.00  0.00     0.070 C 
HETATM    2  C2  UNL     1      -1.584  -1.672   0.431  1.00  0.00     0.032 C 
HETATM    3  N1  UNL     1      -0.341  -1.436   0.585  1.00  0.00    -0.302 N 
ATOM      4  H1  UNL     1       0.026  -0.493   0.455  1.00  0.00     0.186 HD
ENDROOT
BRANCH   3   5
HETATM    5  N2  UNL     1       0.505  -2.478   0.932  1.00  0.00    -0.279 N 
ATOM      6  H2  UNL     1       0.138  -3.384   1.224  1.00  0.00     0.189 HD
BRANCH   5   7
HETATM    7  C3  UNL     1       1.801  -2.252   0.870  1.00  0.00     0.163 A 
HETATM    8  N3  UNL     1       2.418  -1.125   0.508  1.00  0.00    -0.334 N 
HETATM    9  C4  UNL     1       3.724  -1.093   0.509  1.00  0.00     0.051 A 
ATOM     10  H3  UNL     1       1.879  -0.303   0.235  1.00  0.00     0.168 HD
HETATM   11  C11 UNL     1       4.378  -2.241   0.889  1.00  0.00     0.083 A 
HETATM   12  S1  UNL     1       3.091  -3.306   1.225  1.00  0.00    -0.062 SA
BRANCH   9  13
HETATM   13  C5  UNL     1       4.513   0.108   0.125  1.00  0.00    -0.009 A 
HETATM   14  C6  UNL     1       5.878   0.086   0.144  1.00  0.00     0.015 A 
HETATM   15  C7  UNL     1       6.602   1.194  -0.210  1.00  0.00     0.020 A 
HETATM   16  C8  UNL     1       6.010   2.351  -0.592  1.00  0.00     0.011 A 
HETATM   17 BR1  UNL     1       7.076   3.879  -1.080  1.00  0.00    -0.051 Br
HETATM   18  C9  UNL     1       4.636   2.411  -0.624  1.00  0.00     0.020 A 
HETATM   19  C10 UNL     1       3.910   1.283  -0.263  1.00  0.00     0.015 A 
ENDBRANCH   9  13
ENDBRANCH   5   7
ENDBRANCH   3   5
BRANCH   2  20
HETATM   20  C12 UNL     1      -2.454  -0.568   0.068  1.00  0.00    -0.012 A 
HETATM   21  C13 UNL     1      -1.951   0.702  -0.104  1.00  0.00     0.016 A 
HETATM   22  C14 UNL     1      -2.773   1.757  -0.450  1.00  0.00     0.031 A 
HETATM   23  C15 UNL     1      -4.130   1.593  -0.639  1.00  0.00     0.042 A 
HETATM   24  N4  UNL     1      -4.911   2.645  -0.978  1.00  0.00    -0.365 N 
HETATM   25  C19 UNL     1      -4.648   0.326  -0.470  1.00  0.00    -0.009 A 
HETATM   26  C16 UNL     1      -6.238   2.500  -1.165  1.00  0.00     0.088 A 
ATOM     27  H4  UNL     1      -4.487   3.565  -1.094  1.00  0.00     0.165 HD
HETATM   28  C17 UNL     1      -6.818   1.247  -1.009  1.00  0.00     0.018 A 
HETATM   29  C18 UNL     1      -6.005   0.179  -0.662  1.00  0.00     0.015 A 
HETATM   30  C20 UNL     1      -3.814  -0.716  -0.125  1.00  0.00     0.027 A 
ENDBRANCH   2  20
TORSDOF 4
