REMARK  12 active torsions:
REMARK  status: ('A' for Active; 'I' for Inactive)
REMARK       I    between atoms: C1_2  and  N1_3 
REMARK    1  A    between atoms: C1_2  and  O2_8 
REMARK    2  A    between atoms: N1_3  and  C2_5 
REMARK    3  A    between atoms: O2_8  and  C5_9 
REMARK    4  A    between atoms: C5_9  and  C6_10 
REMARK    5  A    between atoms: C14_18  and  C15_19 
REMARK    6  A    between atoms: C16_20  and  O3_21 
REMARK    7  A    between atoms: O3_21  and  C17_22 
REMARK    8  A    between atoms: C18_24  and  C19_25 
REMARK    9  A    between atoms: C19_25  and  O5_26 
REMARK   10  A    between atoms: C20_28  and  O6_29 
REMARK   11  A    between atoms: C21_31  and  O7_32 
REMARK   12  A    between atoms: C22_36  and  O8_37 
ROOT
HETATM    1  C6  UNL     1       0.732  -1.215   1.624  1.00  0.00     0.035 C 
HETATM    2  C7  UNL     1       1.419  -2.085   2.606  1.00  0.00     0.021 C 
HETATM    3  C8  UNL     1       2.885  -2.251   2.373  1.00  0.00    -0.009 A 
HETATM    4  C9  UNL     1       3.370  -3.694   2.451  1.00  0.00     0.010 A 
HETATM    5  C10 UNL     1       3.294  -2.952   1.168  1.00  0.00    -0.010 A 
HETATM    6  C11 UNL     1       2.266  -3.384   0.211  1.00  0.00     0.006 C 
HETATM    7  C12 UNL     1       1.556  -2.236  -0.529  1.00  0.00     0.012 C 
HETATM    8  C13 UNL     1       0.405  -1.867   0.306  1.00  0.00     0.050 C 
HETATM    9  C14 UNL     1      -0.525  -0.824  -0.287  1.00  0.00     0.014 C 
HETATM   10  N2  UNL     1      -1.175  -0.312   0.857  1.00  0.00    -0.366 N 
ATOM     11  H2  UNL     1      -1.846   0.456   0.851  1.00  0.00     0.162 HD
HETATM   12  C22 UNL     1      -0.741  -1.053   2.075  1.00  0.00     0.229 C 
ENDROOT
BRANCH   9  13
HETATM   13  C15 UNL     1      -0.602  -0.471  -1.515  1.00  0.00     0.049 C 
HETATM   14  C16 UNL     1      -1.356   0.431  -2.311  1.00  0.00     0.140 C 
BRANCH  14  15
HETATM   15  O3  UNL     1      -2.332   1.219  -1.871  1.00  0.00    -0.330 OA
BRANCH  15  16
HETATM   16  C17 UNL     1      -3.520   0.574  -1.571  1.00  0.00     0.297 C 
HETATM   17  O4  UNL     1      -4.308   0.861  -2.764  1.00  0.00    -0.348 OA
HETATM   18  C18 UNL     1      -5.601   0.717  -2.353  1.00  0.00     0.179 C 
HETATM   19  C20 UNL     1      -5.697   1.245  -0.948  1.00  0.00     0.182 C 
HETATM   20  C21 UNL     1      -4.262   1.231  -0.494  1.00  0.00     0.205 C 
BRANCH  18  21
HETATM   21  C19 UNL     1      -6.568   1.522  -3.197  1.00  0.00     0.198 C 
BRANCH  21  22
HETATM   22  O5  UNL     1      -6.469   1.085  -4.509  1.00  0.00    -0.398 OA
ATOM     23  H5  UNL     1      -7.075   1.590  -5.038  1.00  0.00     0.209 HD
ENDBRANCH  21  22
ENDBRANCH  18  21
BRANCH  19  24
HETATM   24  O6  UNL     1      -6.443   0.402  -0.122  1.00  0.00    -0.390 OA
ATOM     25  H6  UNL     1      -6.504   0.736   0.765  1.00  0.00     0.210 HD
ENDBRANCH  19  24
BRANCH  20  26
HETATM   26  O7  UNL     1      -3.831   2.544  -0.280  1.00  0.00    -0.388 OA
ATOM     27  H7  UNL     1      -4.313   2.970   0.419  1.00  0.00     0.210 HD
ENDBRANCH  20  26
ENDBRANCH  15  16
ENDBRANCH  14  15
ENDBRANCH   9  13
BRANCH   1  28
HETATM   28  C5  UNL     1       1.289   0.165   1.497  1.00  0.00     0.195 C 
BRANCH  28  29
HETATM   29  O2  UNL     1       2.621   0.226   1.104  1.00  0.00    -0.303 OA
BRANCH  29  30
HETATM   30  C1  UNL     1       3.254   1.450   0.948  1.00  0.00     0.360 C 
HETATM   31  O1  UNL     1       2.547   2.465   1.184  1.00  0.00    -0.239 OA
HETATM   32  N1  UNL     1       4.620   1.564   0.546  1.00  0.00    -0.332 N 
ATOM     33  H1  UNL     1       5.187   0.738   0.357  1.00  0.00     0.165 HD
BRANCH  32  34
HETATM   34  C2  UNL     1       5.168   2.896   0.417  1.00  0.00     0.086 A 
HETATM   35  C3  UNL     1       6.191   3.168  -0.637  1.00  0.00     0.027 A 
HETATM   36  C4  UNL     1       6.583   3.158   0.818  1.00  0.00     0.027 A 
ENDBRANCH  32  34
ENDBRANCH  29  30
ENDBRANCH  28  29
ENDBRANCH   1  28
BRANCH  12  37
HETATM   37  O8  UNL     1      -0.867  -0.312   3.211  1.00  0.00    -0.376 OA
ATOM     38  H8  UNL     1      -1.770  -0.213   3.488  1.00  0.00     0.212 HD
ENDBRANCH  12  37
TORSDOF 12
