REMARK  2 active torsions:
REMARK  status: ('A' for Active; 'I' for Inactive)
REMARK    1  A    between atoms: C3_4  and  C4_5 
REMARK    2  A    between atoms: C19_21  and  O1_22 
ROOT
HETATM    1  C1  UNL     1       0.065  -4.005  -0.860  1.00  0.00     0.150 C 
HETATM    2  N1  UNL     1      -0.397  -2.605  -0.516  1.00  0.00    -0.373 N 
HETATM    3  C2  UNL     1      -0.183  -1.282  -0.461  1.00  0.00     0.054 C 
HETATM    4  C3  UNL     1       0.508  -0.196  -0.123  1.00  0.00     0.022 C 
HETATM    5  C16 UNL     1      -0.330   1.127  -0.230  1.00  0.00     0.022 A 
HETATM    6  C17 UNL     1      -1.685   1.118   0.225  1.00  0.00     0.084 A 
HETATM    7  C18 UNL     1      -2.169   2.413   0.275  1.00  0.00     0.075 A 
HETATM    8  C19 UNL     1      -1.526   3.577  -0.050  1.00  0.00     0.080 A 
HETATM    9  C20 UNL     1      -0.248   3.519  -0.488  1.00  0.00     0.019 A 
HETATM   10  C21 UNL     1       0.370   2.234  -0.582  1.00  0.00    -0.008 A 
HETATM   11  C22 UNL     1       1.637   2.170  -1.137  1.00  0.00     0.014 A 
HETATM   12  C23 UNL     1       2.277   3.301  -1.565  1.00  0.00     0.013 A 
HETATM   13  C24 UNL     1       1.672   4.530  -1.456  1.00  0.00    -0.025 A 
HETATM   14  C25 UNL     1       2.326   5.661  -1.887  1.00  0.00     0.012 A 
HETATM   15  C26 UNL     1       1.732   6.894  -1.786  1.00  0.00     0.001 A 
HETATM   16  C27 UNL     1       0.468   6.999  -1.246  1.00  0.00     0.001 A 
HETATM   17  C28 UNL     1      -0.214   5.870  -0.802  1.00  0.00     0.013 A 
HETATM   18  C29 UNL     1       0.402   4.650  -0.917  1.00  0.00    -0.012 A 
HETATM   19  O2  UNL     1      -2.528   0.138   0.574  1.00  0.00    -0.340 OA
HETATM   20  C30 UNL     1      -3.357  -0.963   0.466  1.00  0.00     0.183 C 
HETATM   21  C31 UNL     1      -2.500  -2.071   1.044  1.00  0.00     0.133 C 
HETATM   22  C32 UNL     1      -1.726  -2.404   0.021  1.00  0.00     0.143 C 
HETATM   23  C33 UNL     1      -1.412  -1.015  -1.045  1.00  0.00     0.020 C 
HETATM   24  C34 UNL     1      -2.493  -0.798  -1.800  1.00  0.00     0.039 C 
HETATM   25  C35 UNL     1      -2.068  -1.083  -3.162  1.00  0.00     0.030 C 
HETATM   26  C36 UNL     1      -2.948  -2.004  -3.732  1.00  0.00     0.002 C 
HETATM   27  C37 UNL     1      -4.125  -2.574  -2.943  1.00  0.00    -0.001 C 
HETATM   28  C38 UNL     1      -4.582  -2.219  -1.699  1.00  0.00     0.007 C 
HETATM   29  C39 UNL     1      -4.305  -1.291  -0.617  1.00  0.00     0.091 C 
HETATM   30  C40 UNL     1      -5.595  -1.248   0.100  1.00  0.00     0.195 C 
HETATM   31  S2  UNL     1      -5.180  -2.514   1.348  1.00  0.00     0.214 S 
HETATM   32  O3  UNL     1      -5.803  -2.082   2.675  1.00  0.00    -0.211 OA
HETATM   33  O4  UNL     1      -5.986  -3.771   1.018  1.00  0.00    -0.211 OA
HETATM   34  N2  UNL     1      -3.579  -2.968   1.489  1.00  0.00    -0.205 NA
HETATM   35  C41 UNL     1      -3.293  -3.252   2.897  1.00  0.00     0.130 C 
HETATM   36  N3  UNL     1      -3.772  -0.184  -1.397  1.00  0.00    -0.373 N 
ATOM     37  H3  UNL     1      -4.163   0.735  -1.602  1.00  0.00     0.161 HD
ENDROOT
BRANCH   4  38
HETATM   38  C4  UNL     1       1.797  -0.101   0.581  1.00  0.00     0.020 A 
HETATM   39  C5  UNL     1       2.944  -0.839   0.462  1.00  0.00     0.033 A 
HETATM   40  C6  UNL     1       3.972  -0.541   1.260  1.00  0.00    -0.007 A 
HETATM   41  C7  UNL     1       3.812   0.480   2.145  1.00  0.00     0.016 A 
HETATM   42  C15 UNL     1       5.235  -1.170   1.294  1.00  0.00    -0.014 A 
HETATM   43  C8  UNL     1       4.791   0.916   3.042  1.00  0.00     0.021 A 
HETATM   44  S1  UNL     1       2.223   0.998   1.834  1.00  0.00    -0.089 SA
HETATM   45  C9  UNL     1       6.017   0.293   3.064  1.00  0.00     0.013 A 
HETATM   46  C10 UNL     1       6.189  -0.742   2.172  1.00  0.00    -0.025 A 
HETATM   47  C11 UNL     1       7.429  -1.351   2.208  1.00  0.00     0.012 A 
HETATM   48  C12 UNL     1       7.728  -2.396   1.365  1.00  0.00     0.001 A 
HETATM   49  C13 UNL     1       6.763  -2.819   0.486  1.00  0.00     0.001 A 
HETATM   50  C14 UNL     1       5.526  -2.219   0.443  1.00  0.00     0.013 A 
ENDBRANCH   4  38
BRANCH   8  51
HETATM   51  O1  UNL     1      -2.200   4.774   0.080  1.00  0.00    -0.360 OA
ATOM     52  H1  UNL     1      -1.754   5.582  -0.146  1.00  0.00     0.217 HD
ENDBRANCH   8  51
TORSDOF 2
