REMARK  2 active torsions:
REMARK  status: ('A' for Active; 'I' for Inactive)
REMARK    1  A    between atoms: C6_10  and  S1_11 
REMARK    2  A    between atoms: S1_11  and  C7_12 
ROOT
HETATM    1  C1  UNL     1       3.487   1.628  -0.716  1.00  0.00     0.070 C 
HETATM    2  C2  UNL     1       2.958   0.340  -0.190  1.00  0.00     0.029 A 
HETATM    3  N1  UNL     1       3.789  -0.566   0.329  1.00  0.00    -0.348 N 
ATOM      4  H1  UNL     1       4.786  -0.354   0.355  1.00  0.00     0.166 HD
HETATM    5  C3  UNL     1       3.371  -1.747   0.820  1.00  0.00     0.126 A 
HETATM    6 CL1  UNL     1       4.538  -2.886   1.488  1.00  0.00    -0.063 Cl
HETATM    7  C4  UNL     1       2.038  -2.005   0.773  1.00  0.00     0.102 A 
HETATM    8  C5  UNL     1       1.590  -3.282   1.304  1.00  0.00     0.104 C 
HETATM    9  N2  UNL     1       1.247  -4.308   1.719  1.00  0.00    -0.191 NA
HETATM   10  C6  UNL     1       1.106  -1.121   0.252  1.00  0.00     0.053 A 
HETATM   11  C12 UNL     1       1.579   0.062  -0.233  1.00  0.00     0.074 A 
HETATM   12 CL2  UNL     1       0.563   1.283  -0.930  1.00  0.00    -0.081 Cl
ENDROOT
BRANCH  10  13
HETATM   13  S1  UNL     1      -0.565  -1.573   0.246  1.00  0.00    -0.080 SA
BRANCH  13  14
HETATM   14  C7  UNL     1      -1.736  -0.445  -0.391  1.00  0.00     0.096 A 
HETATM   15  C8  UNL     1      -2.339   0.472   0.437  1.00  0.00     0.032 A 
HETATM   16  C9  UNL     1      -1.980   0.484   1.886  1.00  0.00     0.070 C 
HETATM   17  N3  UNL     1      -3.241   1.333  -0.050  1.00  0.00    -0.311 N 
HETATM   18  C10 UNL     1      -3.608   1.357  -1.345  1.00  0.00     0.327 A 
ATOM     19  H3  UNL     1      -3.670   2.002   0.590  1.00  0.00     0.170 HD
HETATM   20  O1  UNL     1      -4.465   2.183  -1.781  1.00  0.00    -0.247 OA
HETATM   21  N4  UNL     1      -3.024   0.463  -2.163  1.00  0.00    -0.274 N 
HETATM   22  C11 UNL     1      -2.111  -0.424  -1.727  1.00  0.00     0.268 A 
ATOM     23  H4  UNL     1      -3.283   0.457  -3.150  1.00  0.00     0.173 HD
HETATM   24  O2  UNL     1      -1.610  -1.232  -2.562  1.00  0.00    -0.267 OA
ENDBRANCH  13  14
ENDBRANCH  10  13
TORSDOF 2
