REMARK  3 active torsions:
REMARK  status: ('A' for Active; 'I' for Inactive)
REMARK    1  A    between atoms: C4_5  and  C5_6 
REMARK    2  A    between atoms: C9_15  and  C10_16 
REMARK       I    between atoms: C10_16  and  N2_18 
REMARK    3  A    between atoms: N2_18  and  C11_20 
ROOT
HETATM    1  C1  UNL     1       0.095   1.672  -2.444  1.00  0.00     0.059 C 
HETATM    2  C2  UNL     1       0.999   0.913  -1.504  1.00  0.00     0.014 A 
HETATM    3  S1  UNL     1       2.659   0.578  -1.674  1.00  0.00    -0.073 SA
HETATM    4  C3  UNL     1       2.896  -0.263  -0.215  1.00  0.00     0.103 A 
HETATM    5  C4  UNL     1       4.030  -0.870   0.346  1.00  0.00     0.097 A 
HETATM    6  C6  UNL     1       3.948  -1.515   1.556  1.00  0.00     0.059 A 
HETATM    7 CL1  UNL     1       5.331  -2.280   2.289  1.00  0.00    -0.083 Cl
HETATM    8  C7  UNL     1       2.703  -1.511   2.139  1.00  0.00     0.100 A 
HETATM    9  C8  UNL     1       1.638  -0.911   1.558  1.00  0.00     0.255 A 
HETATM   10  O3  UNL     1       0.557  -1.007   2.234  1.00  0.00    -0.268 OA
HETATM   11  N1  UNL     1       1.697  -0.261   0.354  1.00  0.00    -0.265 N 
HETATM   12  C9  UNL     1       0.701   0.337  -0.284  1.00  0.00     0.123 A 
ENDROOT
BRANCH  12  13
HETATM   13  C10 UNL     1      -0.729   0.434   0.137  1.00  0.00     0.270 C 
HETATM   14  O4  UNL     1      -0.978   0.815   1.289  1.00  0.00    -0.266 OA
HETATM   15  N2  UNL     1      -1.784   0.096  -0.753  1.00  0.00    -0.348 N 
ATOM     16  H2  UNL     1      -1.559  -0.221  -1.696  1.00  0.00     0.163 HD
BRANCH  15  17
HETATM   17  C11 UNL     1      -3.167   0.192  -0.350  1.00  0.00     0.022 C 
HETATM   18  C12 UNL     1      -3.577   1.577   0.052  1.00  0.00     0.037 C 
HETATM   19  C13 UNL     1      -4.046  -0.255  -1.489  1.00  0.00     0.037 C 
HETATM   20  C14 UNL     1      -3.448  -0.722   0.835  1.00  0.00     0.037 C 
ENDBRANCH  15  17
ENDBRANCH  12  13
BRANCH   5  21
HETATM   21  C5  UNL     1       5.276  -0.794  -0.383  1.00  0.00     0.214 C 
HETATM   22  O1  UNL     1       5.625  -1.663  -1.226  1.00  0.00    -0.644 OA
HETATM   23  O2  UNL     1       6.147   0.286  -0.159  1.00  0.00    -0.644 OA
ENDBRANCH   5  21
TORSDOF 3
