REMARK  16 active torsions:
REMARK  status: ('A' for Active; 'I' for Inactive)
REMARK    1  A    between atoms: C2_2  and  C4_4 
REMARK    2  A    between atoms: C7_7  and  O1_8 
REMARK    3  A    between atoms: C8_10  and  O2_11 
REMARK    4  A    between atoms: O2_11  and  C9_12 
REMARK    5  A    between atoms: C9_12  and  C10_14 
REMARK    6  A    between atoms: C12_16  and  C13_17 
REMARK    7  A    between atoms: C14_18  and  C15_19 
REMARK    8  A    between atoms: C15_19  and  O4_22 
REMARK    9  A    between atoms: C18_24  and  C19_25 
REMARK   10  A    between atoms: C18_24  and  O7_37 
REMARK   11  A    between atoms: C19_25  and  O5_26 
REMARK   12  A    between atoms: O5_26  and  C20_27 
REMARK   13  A    between atoms: C22_29  and  N1_30 
REMARK   14  A    between atoms: C23_34  and  O6_35 
REMARK   15  A    between atoms: C25_39  and  C26_40 
REMARK   16  A    between atoms: C26_40  and  O8_41 
ROOT
HETATM    1  C4  UNL     1      -3.989   1.981   0.572  1.00  0.00     0.111 A 
HETATM    2  C5  UNL     1      -2.843   2.608   1.374  1.00  0.00     0.054 C 
HETATM    3  C6  UNL     1      -1.807   1.598   1.251  1.00  0.00     0.037 C 
HETATM    4  C7  UNL     1      -0.389   1.868   1.322  1.00  0.00     0.156 C 
HETATM    5  C8  UNL     1       0.162   0.584   0.725  1.00  0.00     0.199 C 
HETATM    6  C18 UNL     1      -0.967  -0.040  -0.123  1.00  0.00     0.123 C 
HETATM    7  C25 UNL     1      -1.916   1.109  -0.193  1.00  0.00     0.053 C 
HETATM    8  C28 UNL     1      -3.351   0.895  -0.284  1.00  0.00     0.176 A 
HETATM    9  O9  UNL     1      -4.015   2.097  -0.799  1.00  0.00    -0.363 OA
ENDROOT
BRANCH   6  10
HETATM   10  C19 UNL     1      -1.470  -1.264   0.560  1.00  0.00     0.210 C 
BRANCH  10  11
HETATM   11  O5  UNL     1      -2.427  -1.983  -0.122  1.00  0.00    -0.380 OA
BRANCH  11  12
HETATM   12  C20 UNL     1      -2.835  -3.090   0.571  1.00  0.00     0.154 C 
HETATM   13  C21 UNL     1      -4.310  -3.267   0.792  1.00  0.00     0.070 C 
HETATM   14  C22 UNL     1      -4.219  -4.698   0.366  1.00  0.00     0.217 C 
HETATM   15  C23 UNL     1      -2.820  -4.382  -0.176  1.00  0.00     0.177 C 
BRANCH  14  16
HETATM   16  N1  UNL     1      -4.129  -5.676   1.419  1.00  0.00    -0.072 N 
ATOM     17  H13 UNL     1      -3.346  -5.450   2.032  1.00  0.00     0.274 HD
ATOM     18  H12 UNL     1      -4.910  -5.559   2.064  1.00  0.00     0.274 HD
ATOM     19  H11 UNL     1      -4.067  -6.652   1.129  1.00  0.00     0.274 HD
ENDBRANCH  14  16
BRANCH  15  20
HETATM   20  O6  UNL     1      -2.847  -4.303  -1.564  1.00  0.00    -0.391 OA
ATOM     21  H6  UNL     1      -2.837  -5.125  -2.039  1.00  0.00     0.210 HD
ENDBRANCH  15  20
ENDBRANCH  11  12
ENDBRANCH  10  11
ENDBRANCH   6  10
BRANCH   6  22
HETATM   22  O7  UNL     1      -0.361  -0.340  -1.312  1.00  0.00    -0.379 OA
HETATM   23  C24 UNL     1      -1.029  -0.974  -2.289  1.00  0.00     0.202 C 
ENDBRANCH   6  22
BRANCH   5  24
HETATM   24  O2  UNL     1       1.302   0.888  -0.017  1.00  0.00    -0.306 OA
BRANCH  24  25
HETATM   25  C9  UNL     1       2.589   0.359   0.281  1.00  0.00     0.289 C 
HETATM   26  O3  UNL     1       2.574  -0.400   1.277  1.00  0.00    -0.260 OA
BRANCH  25  27
HETATM   27  C10 UNL     1       3.711   0.721  -0.532  1.00  0.00     0.013 C 
HETATM   28  C11 UNL     1       3.434   1.667  -1.682  1.00  0.00     0.054 C 
HETATM   29  C12 UNL     1       4.931   0.314  -0.370  1.00  0.00     0.012 C 
BRANCH  29  30
HETATM   30  C13 UNL     1       5.474  -0.571   0.621  1.00  0.00    -0.000 C 
HETATM   31  C14 UNL     1       6.732  -0.938   0.718  1.00  0.00     0.010 C 
BRANCH  31  32
HETATM   32  C15 UNL     1       7.768  -0.467  -0.212  1.00  0.00     0.068 C 
HETATM   33  C16 UNL     1       9.051  -1.232   0.138  1.00  0.00     0.050 C 
HETATM   34  C17 UNL     1       8.043   1.005  -0.091  1.00  0.00     0.050 C 
BRANCH  32  35
HETATM   35  O4  UNL     1       7.420  -0.857  -1.502  1.00  0.00    -0.387 OA
ATOM     36  H4  UNL     1       8.090  -0.553  -2.103  1.00  0.00     0.211 HD
ENDBRANCH  32  35
ENDBRANCH  31  32
ENDBRANCH  29  30
ENDBRANCH  25  27
ENDBRANCH  24  25
ENDBRANCH   5  24
BRANCH   7  37
HETATM   37  C26 UNL     1      -1.406   2.097  -1.181  1.00  0.00     0.183 C 
BRANCH  37  38
HETATM   38  O8  UNL     1      -2.044   3.327  -1.182  1.00  0.00    -0.395 OA
HETATM   39  C27 UNL     1      -1.504   4.170  -2.127  1.00  0.00     0.201 C 
ENDBRANCH  37  38
ENDBRANCH   7  37
BRANCH   4  40
HETATM   40  O1  UNL     1       0.116   1.983   2.639  1.00  0.00    -0.392 OA
ATOM     41  H1  UNL     1       1.048   2.160   2.686  1.00  0.00     0.210 HD
ENDBRANCH   4  40
BRANCH   1  42
HETATM   42  C2  UNL     1      -5.286   1.775   1.209  1.00  0.00    -0.056 C 
HETATM   43  C1  UNL     1      -5.806   0.578   1.321  1.00  0.00     0.017 C 
HETATM   44  C3  UNL     1      -6.034   2.940   1.743  1.00  0.00     0.046 C 
ENDBRANCH   1  42
TORSDOF 16
