REMARK  16 active torsions:
REMARK  status: ('A' for Active; 'I' for Inactive)
REMARK    1  A    between atoms: O1_2  and  C2_3 
REMARK    2  A    between atoms: C3_4  and  O2_5 
REMARK    3  A    between atoms: C4_7  and  O3_8 
REMARK    4  A    between atoms: O3_8  and  C5_9 
REMARK    5  A    between atoms: C8_13  and  S1_14 
REMARK    6  A    between atoms: C10_16  and  O5_17 
REMARK    7  A    between atoms: C11_19  and  O6_20 
REMARK    8  A    between atoms: O6_20  and  C12_21 
REMARK    9  A    between atoms: C17_26  and  C18_27 
REMARK   10  A    between atoms: C18_27  and  O7_28 
REMARK   11  A    between atoms: O7_28  and  C19_29 
REMARK   12  A    between atoms: C22_33  and  O9_34 
REMARK   13  A    between atoms: C23_36  and  O10_37 
REMARK   14  A    between atoms: C24_39  and  O11_40 
REMARK   15  A    between atoms: O11_40  and  C25_41 
REMARK   16  A    between atoms: C25_41  and  C26_43 
ROOT
HETATM    1  C2  UNL     1      -0.179   1.282  -1.558  1.00  0.00     0.158 C 
HETATM    2  C3  UNL     1       1.276   0.755  -1.641  1.00  0.00     0.176 C 
HETATM    3  C4  UNL     1       1.229  -0.453  -0.737  1.00  0.00     0.160 C 
HETATM    4  C15 UNL     1      -0.138  -1.038  -1.003  1.00  0.00     0.022 C 
HETATM    5  C16 UNL     1      -0.681  -1.768   0.199  1.00  0.00     0.013 C 
HETATM    6  C17 UNL     1      -1.042   0.057  -1.435  1.00  0.00     0.047 C 
ENDROOT
BRANCH   6   7
HETATM    7  C18 UNL     1      -2.171   0.295  -0.428  1.00  0.00     0.178 C 
BRANCH   7   8
HETATM    8  O7  UNL     1      -2.972   1.363  -0.853  1.00  0.00    -0.358 OA
BRANCH   8   9
HETATM    9  C19 UNL     1      -4.023   1.572   0.073  1.00  0.00     0.292 C 
HETATM   10  O8  UNL     1      -3.827   2.786   0.626  1.00  0.00    -0.351 OA
HETATM   11  C20 UNL     1      -4.839   3.308   1.392  1.00  0.00     0.152 C 
HETATM   12  C21 UNL     1      -4.678   2.817   2.815  1.00  0.00     0.042 C 
HETATM   13  C22 UNL     1      -6.213   3.074   0.835  1.00  0.00     0.178 C 
HETATM   14  C23 UNL     1      -6.186   2.484  -0.549  1.00  0.00     0.183 C 
HETATM   15  C24 UNL     1      -5.305   1.282  -0.602  1.00  0.00     0.218 C 
BRANCH  13  16
HETATM   16  O9  UNL     1      -6.866   2.166   1.666  1.00  0.00    -0.390 OA
ATOM     17  H9  UNL     1      -7.736   2.018   1.313  1.00  0.00     0.210 HD
ENDBRANCH  13  16
BRANCH  14  18
HETATM   18  O10 UNL     1      -7.461   2.210  -1.031  1.00  0.00    -0.390 OA
ATOM     19  H10 UNL     1      -7.444   1.838  -1.905  1.00  0.00     0.210 HD
ENDBRANCH  14  18
BRANCH  15  20
HETATM   20  O11 UNL     1      -5.946   0.110  -0.127  1.00  0.00    -0.303 OA
BRANCH  20  21
HETATM   21  C25 UNL     1      -6.228  -0.971  -0.916  1.00  0.00     0.321 C 
HETATM   22  O12 UNL     1      -5.901  -0.918  -2.128  1.00  0.00    -0.257 OA
BRANCH  21  23
HETATM   23  C26 UNL     1      -6.884  -2.165  -0.419  1.00  0.00     0.340 C 
HETATM   24  O13 UNL     1      -7.218  -2.245   0.788  1.00  0.00    -0.296 OA
ENDBRANCH  21  23
ENDBRANCH  20  21
ENDBRANCH  15  20
ENDBRANCH   8   9
ENDBRANCH   7   8
ENDBRANCH   6   7
BRANCH   1  25
HETATM   25  O1  UNL     1      -0.408   1.958  -2.749  1.00  0.00    -0.388 OA
HETATM   26  C1  UNL     1      -0.641   3.302  -2.601  1.00  0.00     0.202 C 
ENDBRANCH   1  25
BRANCH   2  27
HETATM   27  O2  UNL     1       1.491   0.430  -2.959  1.00  0.00    -0.390 OA
ATOM     28  H2  UNL     1       2.383   0.107  -3.010  1.00  0.00     0.210 HD
ENDBRANCH   2  27
BRANCH   3  29
HETATM   29  O3  UNL     1       2.188  -1.368  -1.062  1.00  0.00    -0.350 OA
BRANCH  29  30
HETATM   30  C5  UNL     1       3.000  -1.739  -0.008  1.00  0.00     0.292 C 
HETATM   31  O4  UNL     1       2.845  -3.032   0.399  1.00  0.00    -0.352 OA
HETATM   32  C6  UNL     1       3.779  -3.585   1.212  1.00  0.00     0.137 C 
HETATM   33  C7  UNL     1       2.979  -4.267   2.343  1.00  0.00     0.041 C 
HETATM   34  C8  UNL     1       4.809  -2.738   1.838  1.00  0.00     0.107 C 
HETATM   35  C10 UNL     1       4.951  -1.328   1.297  1.00  0.00     0.168 C 
HETATM   36  C11 UNL     1       4.454  -1.409  -0.164  1.00  0.00     0.207 C 
BRANCH  34  37
HETATM   37  S1  UNL     1       4.821  -2.734   3.652  1.00  0.00    -0.163 SA
HETATM   38  C9  UNL     1       3.395  -1.974   4.405  1.00  0.00     0.090 C 
ENDBRANCH  34  37
BRANCH  35  39
HETATM   39  O5  UNL     1       6.219  -0.815   1.391  1.00  0.00    -0.392 OA
ATOM     40  H5  UNL     1       6.308   0.068   1.052  1.00  0.00     0.210 HD
ENDBRANCH  35  39
BRANCH  36  41
HETATM   41  O6  UNL     1       4.764  -0.233  -0.760  1.00  0.00    -0.374 OA
BRANCH  41  42
HETATM   42  C12 UNL     1       5.737  -0.267  -1.737  1.00  0.00     0.114 C 
HETATM   43  C13 UNL     1       6.894   0.664  -1.450  1.00  0.00     0.039 C 
HETATM   44  C14 UNL     1       5.113   0.192  -3.037  1.00  0.00     0.039 C 
ENDBRANCH  41  42
ENDBRANCH  36  41
ENDBRANCH  29  30
ENDBRANCH   3  29
TORSDOF 16
