REMARK  16 active torsions:
REMARK  status: ('A' for Active; 'I' for Inactive)
REMARK    1  A    between atoms: C2_2  and  O1_3 
REMARK    2  A    between atoms: O1_3  and  C3_4 
REMARK    3  A    between atoms: C4_5  and  O2_6 
REMARK    4  A    between atoms: C5_8  and  C6_9 
REMARK    5  A    between atoms: C6_9  and  O3_10 
REMARK    6  A    between atoms: O3_10  and  C7_11 
REMARK    7  A    between atoms: C8_13  and  C9_14 
REMARK    8  A    between atoms: C9_14  and  O5_15 
REMARK    9  A    between atoms: C10_17  and  O6_18 
REMARK   10  A    between atoms: C11_20  and  O7_21 
REMARK   11  A    between atoms: C12_23  and  O8_24 
REMARK   12  A    between atoms: C13_27  and  O10_28 
REMARK   13  A    between atoms: O10_28  and  C14_29 
REMARK   14  A    between atoms: C17_32  and  O11_33 
REMARK   15  A    between atoms: O11_33  and  C18_34 
REMARK   16  A    between atoms: C27_45  and  O14_46 
ROOT
HETATM    1  C3  UNL     1      -1.720   2.239   0.803  1.00  0.00     0.186 C 
HETATM    2  C4  UNL     1      -2.793   1.273   0.342  1.00  0.00     0.180 C 
HETATM    3  C5  UNL     1      -2.411  -0.174   0.521  1.00  0.00     0.180 C 
HETATM    4  O9  UNL     1      -1.050  -0.299   0.372  1.00  0.00    -0.348 OA
HETATM    5  C13 UNL     1      -0.298   0.281   1.379  1.00  0.00     0.292 C 
HETATM    6  C27 UNL     1      -0.820   1.605   1.833  1.00  0.00     0.204 C 
ENDROOT
BRANCH   3   7
HETATM    7  C6  UNL     1      -3.051  -0.969  -0.594  1.00  0.00     0.205 C 
BRANCH   7   8
HETATM    8  O3  UNL     1      -4.440  -0.921  -0.564  1.00  0.00    -0.356 OA
BRANCH   8   9
HETATM    9  C7  UNL     1      -4.975  -1.679  -1.602  1.00  0.00     0.291 C 
HETATM   10  O4  UNL     1      -5.665  -0.963  -2.535  1.00  0.00    -0.348 OA
HETATM   11  C8  UNL     1      -6.945  -0.601  -2.260  1.00  0.00     0.179 C 
HETATM   12  C10 UNL     1      -7.564  -1.290  -1.065  1.00  0.00     0.180 C 
HETATM   13  C11 UNL     1      -7.182  -2.752  -1.010  1.00  0.00     0.183 C 
HETATM   14  C12 UNL     1      -5.696  -2.897  -1.064  1.00  0.00     0.204 C 
BRANCH  11  15
HETATM   15  C9  UNL     1      -7.170   0.886  -2.190  1.00  0.00     0.198 C 
BRANCH  15  16
HETATM   16  O5  UNL     1      -6.424   1.525  -1.227  1.00  0.00    -0.398 OA
ATOM     17  H5  UNL     1      -6.566   2.463  -1.183  1.00  0.00     0.209 HD
ENDBRANCH  15  16
ENDBRANCH  11  15
BRANCH  12  18
HETATM   18  O6  UNL     1      -8.961  -1.247  -1.116  1.00  0.00    -0.390 OA
ATOM     19  H6  UNL     1      -9.350  -1.680  -0.365  1.00  0.00     0.210 HD
ENDBRANCH  12  18
BRANCH  13  20
HETATM   20  O7  UNL     1      -7.707  -3.293   0.145  1.00  0.00    -0.390 OA
ATOM     21  H7  UNL     1      -7.467  -4.212   0.180  1.00  0.00     0.210 HD
ENDBRANCH  13  20
BRANCH  14  22
HETATM   22  O8  UNL     1      -5.272  -3.171   0.260  1.00  0.00    -0.388 OA
ATOM     23  H8  UNL     1      -5.724  -3.935   0.598  1.00  0.00     0.210 HD
ENDBRANCH  14  22
ENDBRANCH   8   9
ENDBRANCH   7   8
ENDBRANCH   3   7
BRANCH   2  24
HETATM   24  O2  UNL     1      -3.969   1.443   1.114  1.00  0.00    -0.390 OA
ATOM     25  H2  UNL     1      -4.642   0.837   0.825  1.00  0.00     0.210 HD
ENDBRANCH   2  24
BRANCH   1  26
HETATM   26  O1  UNL     1      -2.311   3.388   1.200  1.00  0.00    -0.381 OA
BRANCH  26  27
HETATM   27  C2  UNL     1      -2.041   4.522   0.520  1.00  0.00     0.164 C 
HETATM   28  C1  UNL     1      -2.831   5.665   1.172  1.00  0.00     0.033 C 
ENDBRANCH  26  27
ENDBRANCH   1  26
BRANCH   5  29
HETATM   29  O10 UNL     1       0.991   0.451   0.844  1.00  0.00    -0.351 OA
BRANCH  29  30
HETATM   30  C14 UNL     1       1.947  -0.281   1.508  1.00  0.00     0.156 C 
HETATM   31  C15 UNL     1       2.995   0.705   2.027  1.00  0.00     0.037 C 
HETATM   32  C16 UNL     1       4.396   0.090   1.955  1.00  0.00     0.037 C 
HETATM   33  C17 UNL     1       4.826  -0.063   0.491  1.00  0.00     0.153 C 
HETATM   34  C24 UNL     1       3.564  -0.205  -0.307  1.00  0.00     0.184 C 
HETATM   35  O12 UNL     1       3.718  -0.932  -1.475  1.00  0.00    -0.356 OA
HETATM   36  C26 UNL     1       2.652  -1.149   0.491  1.00  0.00     0.184 C 
HETATM   37  C25 UNL     1       2.407  -1.355  -1.718  1.00  0.00     0.339 C 
HETATM   38  O13 UNL     1       1.829  -1.628  -0.496  1.00  0.00    -0.356 OA
BRANCH  33  39
HETATM   39  O11 UNL     1       5.627  -1.160   0.290  1.00  0.00    -0.378 OA
BRANCH  39  40
HETATM   40  C18 UNL     1       6.887  -0.812  -0.150  1.00  0.00     0.122 C 
HETATM   41  C19 UNL     1       7.250  -1.445  -1.481  1.00  0.00     0.032 C 
HETATM   42  C20 UNL     1       8.533  -0.805  -1.953  1.00  0.00     0.002 C 
HETATM   43  C21 UNL     1       9.660  -0.929  -0.974  1.00  0.00     0.000 C 
HETATM   44  C22 UNL     1       9.254  -0.614   0.433  1.00  0.00     0.002 C 
HETATM   45  C23 UNL     1       7.962  -1.284   0.838  1.00  0.00     0.032 C 
ENDBRANCH  39  40
ENDBRANCH  33  39
ENDBRANCH  29  30
ENDBRANCH   5  29
BRANCH   6  46
HETATM   46  O14 UNL     1      -1.511   1.408   3.041  1.00  0.00    -0.388 OA
ATOM     47  H14 UNL     1      -0.944   1.008   3.690  1.00  0.00     0.210 HD
ENDBRANCH   6  46
TORSDOF 16
