REMARK  8 active torsions:
REMARK  status: ('A' for Active; 'I' for Inactive)
REMARK    1  A    between atoms: C2_2  and  C3_3 
REMARK    2  A    between atoms: C3_3  and  O1_4 
REMARK    3  A    between atoms: O1_4  and  C4_5 
REMARK    4  A    between atoms: C4_5  and  C5_6 
REMARK    5  A    between atoms: C5_6  and  O2_7 
REMARK    6  A    between atoms: O2_7  and  C6_8 
REMARK    7  A    between atoms: N2_17  and  C10_18 
REMARK    8  A    between atoms: C14_25  and  C15_26 
ROOT
HETATM    1  C6  UNL     1       0.241  -1.739   0.218  1.00  0.00     0.174 A 
HETATM    2  C7  UNL     1       0.352  -3.104   0.202  1.00  0.00     0.130 A 
HETATM    3 BR1  UNL     1       1.644  -4.015  -0.860  1.00  0.00    -0.041 Br
HETATM    4  C8  UNL     1      -0.509  -3.897   0.915  1.00  0.00     0.269 A 
HETATM    5  O3  UNL     1      -0.407  -5.162   0.903  1.00  0.00    -0.266 OA
HETATM    6  N1  UNL     1      -1.456  -3.294   1.619  1.00  0.00    -0.298 N 
ATOM      7  H1  UNL     1      -2.116  -3.850   2.162  1.00  0.00     0.171 HD
HETATM    8  C9  UNL     1      -1.552  -1.940   1.621  1.00  0.00     0.187 A 
HETATM    9  S1  UNL     1      -2.748  -1.348   2.524  1.00  0.00    -0.040 SA
HETATM   10  N2  UNL     1      -0.748  -1.116   0.950  1.00  0.00    -0.272 N 
ENDROOT
BRANCH  10  11
HETATM   11  C10 UNL     1      -0.883   0.303   0.907  1.00  0.00     0.026 C 
HETATM   12  C11 UNL     1      -1.423   1.024   2.073  1.00  0.00     0.176 C 
HETATM   13  N3  UNL     1      -0.920   2.425   1.965  1.00  0.00    -0.356 N 
HETATM   14  C12 UNL     1      -1.030   2.997   0.692  1.00  0.00     0.218 C 
ATOM     15  H3  UNL     1      -0.525   2.928   2.760  1.00  0.00     0.162 HD
HETATM   16  O4  UNL     1      -1.011   4.273   0.606  1.00  0.00    -0.274 OA
HETATM   17  C13 UNL     1      -1.166   2.265  -0.576  1.00  0.00     0.118 C 
HETATM   18  C14 UNL     1      -1.487   0.814  -0.417  1.00  0.00     0.075 C 
BRANCH  18  19
HETATM   19  C15 UNL     1      -2.881   0.480  -0.621  1.00  0.00    -0.048 A 
HETATM   20  C16 UNL     1      -3.236  -0.660  -1.305  1.00  0.00     0.009 A 
HETATM   21  C17 UNL     1      -4.555  -1.002  -1.537  1.00  0.00     0.024 A 
HETATM   22  C18 UNL     1      -5.547  -0.188  -1.078  1.00  0.00     0.034 A 
HETATM   23 CL1  UNL     1      -7.242  -0.620  -1.373  1.00  0.00    -0.084 Cl
HETATM   24  C19 UNL     1      -5.238   0.960  -0.391  1.00  0.00     0.024 A 
HETATM   25  C20 UNL     1      -3.902   1.277  -0.172  1.00  0.00     0.009 A 
ENDBRANCH  18  19
ENDBRANCH  10  11
BRANCH   1  26
HETATM   26  O2  UNL     1       1.140  -1.014  -0.510  1.00  0.00    -0.332 OA
BRANCH  26  27
HETATM   27  C5  UNL     1       2.327  -0.390  -0.230  1.00  0.00     0.203 C 
BRANCH  27  28
HETATM   28  C4  UNL     1       3.475  -1.221   0.262  1.00  0.00     0.194 C 
BRANCH  28  29
HETATM   29  O1  UNL     1       4.613  -0.472   0.553  1.00  0.00    -0.385 OA
BRANCH  29  30
HETATM   30  C3  UNL     1       5.135   0.220  -0.520  1.00  0.00     0.194 C 
BRANCH  30  31
HETATM   31  C2  UNL     1       6.386   0.952  -0.124  1.00  0.00    -0.011 C 
HETATM   32  C1  UNL     1       6.485   2.268  -0.220  1.00  0.00     0.009 C 
ENDBRANCH  30  31
ENDBRANCH  29  30
ENDBRANCH  28  29
ENDBRANCH  27  28
ENDBRANCH  26  27
ENDBRANCH   1  26
TORSDOF 8
