REMARK  10 active torsions:
REMARK  status: ('A' for Active; 'I' for Inactive)
REMARK    1  A    between atoms: N2_3  and  C2_5 
REMARK    2  A    between atoms: C3_9  and  C4_10 
REMARK       I    between atoms: C4_10  and  N4_12 
REMARK    3  A    between atoms: N4_12  and  C5_14 
REMARK    4  A    between atoms: C5_14  and  C6_15 
REMARK    5  A    between atoms: C7_19  and  O2_20 
REMARK    6  A    between atoms: C8_22  and  N6_23 
REMARK    7  A    between atoms: C11_28  and  N8_29 
REMARK    8  A    between atoms: C14_39  and  C15_40 
REMARK    9  A    between atoms: C15_40  and  O4_41 
REMARK   10  A    between atoms: C15_40  and  O5_43 
ROOT
HETATM    1  N1  UNL     1      -6.985   4.008  -1.730  1.00  0.00    -0.172 NA
HETATM    2  C1  UNL     1      -6.692   3.195  -0.959  1.00  0.00     0.180 C 
HETATM    3  N2  UNL     1      -6.361   2.213  -0.017  1.00  0.00    -0.277 N 
ATOM      4  H2  UNL     1      -7.015   1.988   0.733  1.00  0.00     0.175 HD
ENDROOT
BRANCH   3   5
HETATM    5  C2  UNL     1      -5.108   1.522  -0.102  1.00  0.00     0.495 C 
HETATM    6  N3  UNL     1      -4.929   0.803  -1.326  1.00  0.00    -0.013 N 
HETATM    7  C3  UNL     1      -3.938  -0.195  -1.007  1.00  0.00     0.317 C 
ATOM      8  H32 UNL     1      -5.791   0.426  -1.720  1.00  0.00     0.282 HD
ATOM      9  H31 UNL     1      -4.690   1.390  -2.125  1.00  0.00     0.282 HD
HETATM   10  C14 UNL     1      -4.226  -0.550   0.419  1.00  0.00     0.284 C 
HETATM   11  N11 UNL     1      -5.064   0.497   0.912  1.00  0.00    -0.017 N 
ATOM     12 2H11 UNL     1      -4.769   0.849   1.823  1.00  0.00     0.282 HD
ATOM     13 1H11 UNL     1      -5.989   0.170   1.190  1.00  0.00     0.282 HD
BRANCH   7  14
HETATM   14  C4  UNL     1      -2.576   0.391  -1.097  1.00  0.00     0.251 C 
HETATM   15  O1  UNL     1      -2.416   1.610  -1.425  1.00  0.00    -0.271 OA
HETATM   16  N4  UNL     1      -1.417  -0.376  -0.824  1.00  0.00    -0.355 N 
ATOM     17  H4  UNL     1      -1.509  -1.357  -0.559  1.00  0.00     0.162 HD
BRANCH  16  18
HETATM   18  C5  UNL     1      -0.120   0.215  -0.918  1.00  0.00     0.184 C 
BRANCH  18  19
HETATM   19  C6  UNL     1       0.998  -0.734  -0.597  1.00  0.00     0.344 C 
HETATM   20  N5  UNL     1       0.897  -1.213   0.773  1.00  0.00    -0.017 N 
HETATM   21  C7  UNL     1       2.300  -1.220   1.173  1.00  0.00     0.371 C 
ATOM     22  H52 UNL     1       0.272  -0.680   1.378  1.00  0.00     0.283 HD
ATOM     23  H51 UNL     1       0.404  -2.098   0.892  1.00  0.00     0.283 HD
HETATM   24  C8  UNL     1       2.671   0.108   0.568  1.00  0.00     0.289 C 
HETATM   25  O3  UNL     1       2.207  -0.073  -0.716  1.00  0.00    -0.328 OA
BRANCH  21  26
HETATM   26  O2  UNL     1       2.840  -2.301   0.500  1.00  0.00    -0.366 OA
ATOM     27  H2  UNL     1       3.754  -2.306   0.760  1.00  0.00     0.212 HD
ENDBRANCH  21  26
BRANCH  24  28
HETATM   28  N6  UNL     1       4.014   0.500   0.702  1.00  0.00    -0.295 N 
HETATM   29  C9  UNL     1       4.476   1.391   1.616  1.00  0.00     0.188 A 
HETATM   30  N7  UNL     1       5.786   1.559   1.502  1.00  0.00    -0.346 N 
HETATM   31  C10 UNL     1       6.227   0.781   0.506  1.00  0.00     0.122 A 
ATOM     32  H7  UNL     1       6.360   2.176   2.076  1.00  0.00     0.167 HD
HETATM   33  C11 UNL     1       7.449   0.521  -0.080  1.00  0.00     0.131 A 
HETATM   34  C13 UNL     1       5.115   0.127   0.016  1.00  0.00     0.142 A 
HETATM   35  N9  UNL     1       7.584  -0.338  -1.098  1.00  0.00    -0.337 N 
HETATM   36  C12 UNL     1       6.484  -0.955  -1.548  1.00  0.00     0.183 A 
ATOM     37  H9  UNL     1       8.496  -0.517  -1.518  1.00  0.00     0.168 HD
HETATM   38  N10 UNL     1       5.290  -0.718  -0.995  1.00  0.00    -0.336 N 
ATOM     39  H10 UNL     1       4.476  -1.208  -1.366  1.00  0.00     0.168 HD
BRANCH  33  40
HETATM   40  N8  UNL     1       8.508   1.121   0.359  1.00  0.00    -0.383 N 
ATOM     41  H82 UNL     1       8.405   1.775   1.135  1.00  0.00     0.157 HD
ATOM     42  H81 UNL     1       9.411   0.929  -0.074  1.00  0.00     0.157 HD
ENDBRANCH  33  40
ENDBRANCH  24  28
ENDBRANCH  18  19
ENDBRANCH  16  18
ENDBRANCH   7  14
BRANCH  10  43
HETATM   43  C15 UNL     1      -4.938  -1.886   0.425  1.00  0.00     0.287 C 
BRANCH  43  44
HETATM   44  O4  UNL     1      -6.069  -1.871  -0.360  1.00  0.00    -0.369 OA
ATOM     45  H4  UNL     1      -6.516  -2.709  -0.356  1.00  0.00     0.212 HD
ENDBRANCH  43  44
BRANCH  43  46
HETATM   46  O5  UNL     1      -4.018  -2.858  -0.022  1.00  0.00    -0.369 OA
ATOM     47  H5  UNL     1      -4.465  -3.696  -0.018  1.00  0.00     0.212 HD
ENDBRANCH  43  46
ENDBRANCH  10  43
ENDBRANCH   3   5
TORSDOF 10
