REMARK  5 active torsions:
REMARK  status: ('A' for Active; 'I' for Inactive)
REMARK    1  A    between atoms: C2_2  and  O1_3 
REMARK    2  A    between atoms: O1_3  and  C3_4 
REMARK       I    between atoms: C3_4  and  N1_6 
REMARK    3  A    between atoms: N1_6  and  C4_7 
REMARK    4  A    between atoms: C10_18  and  C12_20 
REMARK    5  A    between atoms: C12_20  and  O3_21 
ROOT
HETATM    1  C4  UNL     1       1.280  -0.074   0.202  1.00  0.00     0.185 C 
HETATM    2  N2  UNL     1       1.294  -0.344   1.524  1.00  0.00    -0.339 N 
ATOM      3  H2  UNL     1       2.170  -0.152   2.010  1.00  0.00     0.168 HD
HETATM    4  C5  UNL     1       0.256  -0.855   2.310  1.00  0.00     0.120 C 
HETATM    5  C6  UNL     1      -1.080  -0.591   1.696  1.00  0.00     0.051 C 
HETATM    6  N3  UNL     1      -2.134  -0.510   2.441  1.00  0.00    -0.386 N 
ATOM      7  H3  UNL     1      -2.040  -0.636   3.449  1.00  0.00     0.159 HD
HETATM    8  C7  UNL     1      -3.419  -0.250   1.893  1.00  0.00     0.146 C 
HETATM    9  C8  UNL     1      -3.462   0.150   0.442  1.00  0.00     0.063 C 
HETATM   10  C9  UNL     1      -3.211   1.654   0.396  1.00  0.00     0.035 C 
HETATM   11 CL1  UNL     1      -5.071  -0.142  -0.254  1.00  0.00    -0.117 Cl
HETATM   12  C10 UNL     1      -2.445  -0.545  -0.385  1.00  0.00     0.029 C 
HETATM   13  C11 UNL     1      -2.764  -2.054  -0.240  1.00  0.00     0.025 C 
HETATM   14  C13 UNL     1      -1.117  -0.385   0.265  1.00  0.00    -0.013 C 
HETATM   15  C14 UNL     1      -0.019  -0.128  -0.423  1.00  0.00     0.074 C 
ENDROOT
BRANCH   1  16
HETATM   16  N1  UNL     1       2.490   0.414  -0.279  1.00  0.00    -0.327 NA
HETATM   17  C3  UNL     1       3.630   0.874  -0.732  1.00  0.00     0.441 C 
HETATM   18  O2  UNL     1       3.932   1.238  -1.938  1.00  0.00    -0.221 OA
BRANCH  17  19
HETATM   19  O1  UNL     1       4.717   1.016   0.189  1.00  0.00    -0.293 OA
BRANCH  19  20
HETATM   20  C2  UNL     1       5.945   1.494  -0.292  1.00  0.00     0.177 C 
HETATM   21  C1  UNL     1       6.444   0.487  -1.310  1.00  0.00     0.034 C 
ENDBRANCH  19  20
ENDBRANCH  17  19
ENDBRANCH   1  16
BRANCH  12  22
HETATM   22  C12 UNL     1      -2.476  -0.272  -1.846  1.00  0.00     0.180 C 
BRANCH  22  23
HETATM   23  O3  UNL     1      -3.729  -0.666  -2.382  1.00  0.00    -0.400 OA
ATOM     24  H3  UNL     1      -3.749  -0.492  -3.316  1.00  0.00     0.209 HD
ENDBRANCH  22  23
ENDBRANCH  12  22
TORSDOF 5
