REMARK  4 active torsions:
REMARK  status: ('A' for Active; 'I' for Inactive)
REMARK    1  A    between atoms: O1_2  and  C2_3 
REMARK    2  A    between atoms: C7_9  and  O3_10 
REMARK    3  A    between atoms: C9_14  and  C10_15 
REMARK    4  A    between atoms: C17_22  and  O4_23 
ROOT
HETATM    1  C2  UNL     1      -3.541   1.382  -0.134  1.00  0.00     0.225 C 
HETATM    2  C3  UNL     1      -4.772   0.640  -0.740  1.00  0.00     0.081 C 
HETATM    3  C4  UNL     1      -4.221  -0.501   0.101  1.00  0.00     0.115 C 
HETATM    4  C5  UNL     1      -4.332  -1.856  -0.481  1.00  0.00     0.201 C 
HETATM    5  O2  UNL     1      -3.200  -2.291  -1.211  1.00  0.00    -0.344 OA
HETATM    6  C6  UNL     1      -1.910  -1.957  -0.822  1.00  0.00     0.134 A 
HETATM    7  C7  UNL     1      -0.837  -2.796  -0.972  1.00  0.00     0.141 A 
HETATM    8  C8  UNL     1       0.416  -2.354  -0.546  1.00  0.00     0.165 A 
HETATM    9  F1  UNL     1       1.415  -3.202  -0.700  1.00  0.00    -0.202 F 
HETATM   10  C9  UNL     1       0.649  -1.129   0.014  1.00  0.00     0.043 A 
HETATM   11  C17 UNL     1      -0.468  -0.305   0.149  1.00  0.00     0.108 A 
HETATM   12  C18 UNL     1      -1.745  -0.710  -0.264  1.00  0.00     0.104 A 
HETATM   13  N1  UNL     1      -2.900   0.106  -0.141  1.00  0.00    -0.343 N 
ENDROOT
BRANCH  10  14
HETATM   14  C10 UNL     1       1.930  -0.697   0.479  1.00  0.00    -0.064 C 
HETATM   15  C11 UNL     1       2.085   0.818   0.678  1.00  0.00     0.036 C 
HETATM   16  C12 UNL     1       3.572   1.227   0.696  1.00  0.00     0.008 C 
HETATM   17  C13 UNL     1       4.235   1.010  -0.619  1.00  0.00    -0.018 C 
HETATM   18  C14 UNL     1       5.721   0.770  -0.353  1.00  0.00     0.010 C 
HETATM   19  C15 UNL     1       3.600  -0.234  -1.223  1.00  0.00     0.008 C 
HETATM   20  C16 UNL     1       3.198  -1.146  -0.076  1.00  0.00     0.036 C 
ENDBRANCH  10  14
BRANCH  11  21
HETATM   21  O4  UNL     1      -0.398   0.944   0.690  1.00  0.00    -0.357 OA
ATOM     22  H4  UNL     1      -1.159   1.505   0.782  1.00  0.00     0.217 HD
ENDBRANCH  11  21
BRANCH   7  23
HETATM   23  O3  UNL     1      -1.004  -4.053  -1.536  1.00  0.00    -0.355 OA
ATOM     24  H3  UNL     1      -0.260  -4.635  -1.640  1.00  0.00     0.218 HD
ENDBRANCH   7  23
BRANCH   1  25
HETATM   25  O1  UNL     1      -3.832   1.809   1.162  1.00  0.00    -0.371 OA
HETATM   26  C1  UNL     1      -3.659   3.162   1.365  1.00  0.00     0.204 C 
ENDBRANCH   1  25
TORSDOF 4
