REMARK  3 active torsions:
REMARK  status: ('A' for Active; 'I' for Inactive)
REMARK    1  A    between atoms: S1_2  and  C2_4 
REMARK    2  A    between atoms: C3_7  and  N2_8 
REMARK    3  A    between atoms: C4_13  and  N4_14 
ROOT
HETATM    1  C2  UNL     1       0.430  -0.487   0.211  1.00  0.00     0.203 A 
HETATM    2  N1  UNL     1       0.905   0.768   0.435  1.00  0.00    -0.167 N 
ATOM      3  H1  UNL     1       1.898   0.950   0.288  1.00  0.00     0.186 HD
HETATM    4  C3  UNL     1       0.118   1.776   0.842  1.00  0.00     0.692 A 
HETATM    5  N3  UNL     1      -1.187   1.517   1.032  1.00  0.00    -0.023 N 
ATOM      6  H3  UNL     1      -1.803   2.269   1.342  1.00  0.00     0.203 HD
HETATM    7  C4  UNL     1      -1.705   0.286   0.823  1.00  0.00     0.692 A 
HETATM    8  N5  UNL     1      -0.870  -0.679   0.417  1.00  0.00    -0.167 N 
ATOM      9  H5  UNL     1      -1.251  -1.611   0.257  1.00  0.00     0.186 HD
ENDROOT
BRANCH   1  10
HETATM   10  S1  UNL     1       1.539  -1.721  -0.316  1.00  0.00     0.081 S 
HETATM   11  C1  UNL     1       1.592  -1.724  -2.095  1.00  0.00     0.136 C 
HETATM   12  O1  UNL     1       3.084  -1.337   0.227  1.00  0.00    -0.250 OA
ENDBRANCH   1  10
BRANCH   4  13
HETATM   13  N2  UNL     1       0.657   2.931   1.028  1.00  0.00    -0.234 N 
ATOM     14  H22 UNL     1       1.647   3.128   0.884  1.00  0.00     0.174 HD
ATOM     15  H21 UNL     1       0.059   3.697   1.337  1.00  0.00     0.174 HD
ENDBRANCH   4  13
BRANCH   7  16
HETATM   16  N4  UNL     1      -2.966   0.115   1.026  1.00  0.00    -0.234 N 
ATOM     17  H42 UNL     1      -3.602   0.850   1.335  1.00  0.00     0.174 HD
ATOM     18  H41 UNL     1      -3.357  -0.814   0.868  1.00  0.00     0.174 HD
ENDBRANCH   7  16
TORSDOF 3
