REMARK  12 active torsions:
REMARK  status: ('A' for Active; 'I' for Inactive)
REMARK    1  A    between atoms: C2_2  and  O1_3 
REMARK    2  A    between atoms: O1_3  and  C3_4 
REMARK    3  A    between atoms: C3_4  and  C4_5 
REMARK    4  A    between atoms: C4_5  and  O3_7 
REMARK    5  A    between atoms: O3_7  and  C5_8 
REMARK    6  A    between atoms: C8_11  and  O4_12 
REMARK    7  A    between atoms: C12_19  and  C13_20 
REMARK    8  A    between atoms: C15_24  and  O7_25 
REMARK    9  A    between atoms: O7_25  and  C16_26 
REMARK   10  A    between atoms: C16_26  and  C17_28 
REMARK   11  A    between atoms: C18_29  and  C19_30 
REMARK   12  A    between atoms: N4_38  and  O10_39 
ROOT
HETATM    1  C5  UNL     1      -3.742   0.913  -0.554  1.00  0.00     0.116 A 
HETATM    2  C6  UNL     1      -4.807   1.582  -1.145  1.00  0.00     0.009 A 
HETATM    3  C7  UNL     1      -6.146   1.007  -1.248  1.00  0.00     0.054 C 
HETATM    4  C8  UNL     1      -4.545   2.844  -1.643  1.00  0.00     0.100 A 
HETATM    5  C9  UNL     1      -3.278   3.403  -1.550  1.00  0.00     0.105 A 
HETATM    6  N1  UNL     1      -2.999   4.704  -2.061  1.00  0.00    -0.098 NA
HETATM    7  C10 UNL     1      -2.233   2.728  -0.962  1.00  0.00     0.135 A 
HETATM    8  C11 UNL     1      -2.467   1.464  -0.455  1.00  0.00     0.093 A 
HETATM    9  N2  UNL     1      -1.412   0.742   0.192  1.00  0.00    -0.338 N 
HETATM   10  C12 UNL     1      -1.444  -0.207   1.274  1.00  0.00     0.190 C 
HETATM   11  C14 UNL     1      -0.180  -1.049   0.973  1.00  0.00     0.073 C 
HETATM   12  C15 UNL     1       0.764   0.040   0.584  1.00  0.00     0.177 C 
HETATM   13  C24 UNL     1      -0.059   0.949  -0.269  1.00  0.00     0.225 C 
HETATM   14  N5  UNL     1       0.381   2.300  -0.084  1.00  0.00    -0.291 N 
ATOM     15  H5  UNL     1       1.208   2.559   0.453  1.00  0.00     0.174 HD
HETATM   16  S1  UNL     1      -0.627   3.415  -0.858  1.00  0.00     0.264 S 
HETATM   17  O11 UNL     1      -0.123   3.812  -2.223  1.00  0.00    -0.200 OA
HETATM   18  O12 UNL     1      -0.651   4.674   0.002  1.00  0.00    -0.200 OA
ENDROOT
BRANCH  12  19
HETATM   19  O7  UNL     1       1.960  -0.402   0.064  1.00  0.00    -0.309 OA
BRANCH  19  20
HETATM   20  C16 UNL     1       3.183  -0.158   0.637  1.00  0.00     0.283 C 
HETATM   21  O8  UNL     1       3.149   0.508   1.689  1.00  0.00    -0.260 OA
BRANCH  20  22
HETATM   22  C17 UNL     1       4.465  -0.655   0.042  1.00  0.00     0.084 C 
HETATM   23  C18 UNL     1       5.570  -0.381   0.644  1.00  0.00     0.040 C 
BRANCH  23  24
HETATM   24  C19 UNL     1       6.898  -0.754   0.252  1.00  0.00     0.088 A 
HETATM   25  C20 UNL     1       7.950  -0.331   1.090  1.00  0.00     0.065 A 
HETATM   26 CL1  UNL     1       7.631   0.608   2.545  1.00  0.00    -0.082 Cl
HETATM   27  C21 UNL     1       9.227  -0.678   0.729  1.00  0.00     0.058 A 
HETATM   28  C22 UNL     1       9.526  -1.410  -0.396  1.00  0.00     0.118 A 
HETATM   29  N3  UNL     1      10.868  -1.743  -0.725  1.00  0.00    -0.096 NA
HETATM   30  C23 UNL     1       8.456  -1.789  -1.167  1.00  0.00     0.296 A 
HETATM   31  O9  UNL     1       8.676  -2.464  -2.215  1.00  0.00    -0.264 OA
HETATM   32  N4  UNL     1       7.172  -1.463  -0.841  1.00  0.00    -0.185 N 
BRANCH  32  33
HETATM   33  O10 UNL     1       6.217  -1.923  -1.724  1.00  0.00    -0.279 OA
ATOM     34  H10 UNL     1       6.413  -2.429  -2.504  1.00  0.00     0.245 HD
ENDBRANCH  32  33
ENDBRANCH  23  24
ENDBRANCH  20  22
ENDBRANCH  19  20
ENDBRANCH  12  19
BRANCH  10  35
HETATM   35  C13 UNL     1      -1.245   0.373   2.609  1.00  0.00     0.197 C 
HETATM   36  O5  UNL     1      -1.165   1.610   2.748  1.00  0.00    -0.646 OA
HETATM   37  O6  UNL     1      -1.142  -0.422   3.736  1.00  0.00    -0.646 OA
ENDBRANCH  10  35
BRANCH   1  38
HETATM   38  O3  UNL     1      -4.066  -0.355  -0.076  1.00  0.00    -0.274 OA
BRANCH  38  39
HETATM   39  C4  UNL     1      -4.244  -1.416  -0.984  1.00  0.00     0.288 C 
HETATM   40  O2  UNL     1      -4.086  -1.112  -2.216  1.00  0.00    -0.262 OA
BRANCH  39  41
HETATM   41  C3  UNL     1      -4.583  -2.789  -0.607  1.00  0.00     0.279 C 
BRANCH  41  42
HETATM   42  O1  UNL     1      -4.796  -3.050   0.709  1.00  0.00    -0.382 OA
BRANCH  42  43
HETATM   43  C2  UNL     1      -5.843  -2.430   1.328  1.00  0.00     0.163 C 
HETATM   44  C1  UNL     1      -5.936  -2.848   2.785  1.00  0.00     0.033 C 
ENDBRANCH  42  43
ENDBRANCH  41  42
ENDBRANCH  39  41
ENDBRANCH  38  39
ENDBRANCH   1  38
BRANCH   4  45
HETATM   45  O4  UNL     1      -5.592   3.542  -2.241  1.00  0.00    -0.358 OA
ATOM     46  H4  UNL     1      -5.412   4.410  -2.583  1.00  0.00     0.217 HD
ENDBRANCH   4  45
TORSDOF 12
