REMARK  10 active torsions:
REMARK  status: ('A' for Active; 'I' for Inactive)
REMARK    1  A    between atoms: C4_6  and  C5_7 
REMARK    2  A    between atoms: C5_7  and  C6_8 
REMARK    3  A    between atoms: C6_8  and  C7_9 
REMARK    4  A    between atoms: C7_9  and  S1_10 
REMARK    5  A    between atoms: S1_10  and  C8_11 
REMARK    6  A    between atoms: C9_12  and  N3_13 
REMARK    7  A    between atoms: C10_16  and  N4_17 
REMARK    8  A    between atoms: N9_30  and  N10_31 
REMARK    9  A    between atoms: N10_31  and  C14_33 
REMARK   10  A    between atoms: C15_34  and  C16_35 
ROOT
HETATM    1  N1  UNL     1      -3.739   5.612  -1.612  1.00  0.00    -0.191 NA
HETATM    2  C1  UNL     1      -3.298   4.565  -1.403  1.00  0.00     0.104 C 
HETATM    3  C2  UNL     1      -2.772   3.254  -1.138  1.00  0.00     0.111 A 
HETATM    4  C3  UNL     1      -1.438   2.933  -1.078  1.00  0.00     0.095 A 
HETATM    5  N2  UNL     1      -0.310   3.800  -1.256  1.00  0.00    -0.099 NA
HETATM    6  C4  UNL     1      -1.331   1.588  -0.805  1.00  0.00     0.061 A 
HETATM    7  N9  UNL     1      -2.580   1.103  -0.702  1.00  0.00    -0.245 N 
HETATM    8  C21 UNL     1      -3.460   2.087  -0.898  1.00  0.00     0.148 A 
HETATM    9 CL2  UNL     1      -5.231   2.020  -0.864  1.00  0.00    -0.061 Cl
ENDROOT
BRANCH   6  10
HETATM   10  C5  UNL     1      -0.046   0.822  -0.665  1.00  0.00     0.062 C 
BRANCH  10  11
HETATM   11  C6  UNL     1       0.639   1.081   0.656  1.00  0.00     0.017 C 
BRANCH  11  12
HETATM   12  C7  UNL     1       1.909   0.295   0.796  1.00  0.00     0.081 C 
BRANCH  12  13
HETATM   13  S1  UNL     1       3.117   0.669  -0.481  1.00  0.00    -0.108 SA
BRANCH  13  14
HETATM   14  C8  UNL     1       4.584  -0.329  -0.303  1.00  0.00     0.127 A 
HETATM   15  C9  UNL     1       4.749  -1.561  -0.894  1.00  0.00     0.184 A 
HETATM   16  C10 UNL     1       5.997  -2.006  -0.522  1.00  0.00     0.175 A 
HETATM   17  N5  UNL     1       6.539  -1.058   0.261  1.00  0.00    -0.173 N 
HETATM   18  N6  UNL     1       5.708  -0.036   0.409  1.00  0.00    -0.252 N 
HETATM   19  N8  UNL     1       7.816  -1.229   0.797  1.00  0.00    -0.273 N 
HETATM   20  C11 UNL     1       5.776   1.200   1.116  1.00  0.00     0.255 C 
HETATM   21  C12 UNL     1       6.923   1.407   1.980  1.00  0.00     0.242 C 
HETATM   22  O3  UNL     1       6.756   2.218   2.931  1.00  0.00    -0.271 OA
HETATM   23  N7  UNL     1       8.219   0.844   1.937  1.00  0.00    -0.321 N 
HETATM   24  C13 UNL     1       8.634  -0.255   1.452  1.00  0.00     0.202 C 
ATOM     25  H7  UNL     1       8.944   1.417   2.368  1.00  0.00     0.169 HD
ATOM     26  H8  UNL     1       8.215  -2.164   0.711  1.00  0.00     0.190 HD
BRANCH  15  27
HETATM   27  N3  UNL     1       3.796  -2.242  -1.735  1.00  0.00    -0.109 N 
HETATM   28  O1  UNL     1       2.772  -2.778  -1.318  1.00  0.00    -0.532 OA
HETATM   29  O2  UNL     1       4.064  -2.283  -3.075  1.00  0.00    -0.532 OA
ENDBRANCH  15  27
BRANCH  16  30
HETATM   30  N4  UNL     1       6.546  -3.134  -0.866  1.00  0.00    -0.381 N 
ATOM     31  H42 UNL     1       6.135  -3.854  -1.460  1.00  0.00     0.157 HD
ATOM     32  H41 UNL     1       7.471  -3.464  -0.590  1.00  0.00     0.157 HD
ENDBRANCH  16  30
ENDBRANCH  13  14
ENDBRANCH  12  13
ENDBRANCH  11  12
ENDBRANCH  10  11
ENDBRANCH   6  10
BRANCH   7  33
HETATM   33  N10 UNL     1      -2.874  -0.219  -0.415  1.00  0.00    -0.294 N 
ATOM     34  H10 UNL     1      -2.086  -0.841  -0.232  1.00  0.00     0.187 HD
BRANCH  33  35
HETATM   35  C14 UNL     1      -4.184  -0.792  -0.352  1.00  0.00     0.069 C 
HETATM   36  C15 UNL     1      -4.821  -0.929   0.774  1.00  0.00     0.140 C 
HETATM   37  N11 UNL     1      -6.134  -1.490   0.909  1.00  0.00    -0.293 N 
HETATM   38  C17 UNL     1      -7.380  -1.604   1.536  1.00  0.00     0.247 C 
HETATM   39  C19 UNL     1      -6.577  -2.500  -0.036  1.00  0.00     0.182 C 
HETATM   40  O6  UNL     1      -7.876  -1.126   2.589  1.00  0.00    -0.271 OA
HETATM   41  C18 UNL     1      -7.957  -2.511   0.515  1.00  0.00     0.207 C 
HETATM   42 CL1  UNL     1      -9.209  -1.780  -0.501  1.00  0.00    -0.112 Cl
HETATM   43  S2  UNL     1      -6.450  -1.660  -1.667  1.00  0.00    -0.135 SA
HETATM   44  C20 UNL     1      -4.702  -1.231  -1.670  1.00  0.00     0.137 C 
BRANCH  36  45
HETATM   45  C16 UNL     1      -4.183  -0.489   2.009  1.00  0.00     0.229 C 
HETATM   46  O4  UNL     1      -3.040  -0.002   1.999  1.00  0.00    -0.643 OA
HETATM   47  O5  UNL     1      -4.814  -0.593   3.232  1.00  0.00    -0.643 OA
ENDBRANCH  36  45
ENDBRANCH  33  35
ENDBRANCH   7  33
TORSDOF 10
