REMARK  4 active torsions:
REMARK  status: ('A' for Active; 'I' for Inactive)
REMARK       I    between atoms: C1_2  and  N4_9 
REMARK    1  A    between atoms: N2_3  and  N3_5 
REMARK    2  A    between atoms: N3_5  and  O1_7 
REMARK    3  A    between atoms: N4_9  and  C2_11 
REMARK    4  A    between atoms: C5_14  and  N5_15 
ROOT
HETATM    1  C2  UNL     1       0.211  -0.193  -0.645  1.00  0.00     0.084 C 
HETATM    2  C3  UNL     1      -0.084   0.751   0.482  1.00  0.00     0.027 C 
HETATM    3  C4  UNL     1      -1.439   1.399   0.162  1.00  0.00     0.035 C 
HETATM    4  C5  UNL     1      -2.518   0.374   0.398  1.00  0.00     0.183 C 
HETATM    5  C6  UNL     1      -1.967  -1.024   0.294  1.00  0.00     0.035 C 
HETATM    6  C7  UNL     1      -0.914  -1.160  -0.776  1.00  0.00     0.027 C 
ENDROOT
BRANCH   1   7
HETATM    7  N4  UNL     1       1.472  -0.851  -0.554  1.00  0.00    -0.359 N 
HETATM    8  C1  UNL     1       2.727  -0.183  -0.521  1.00  0.00     0.204 C 
HETATM    9  N1  UNL     1       3.763  -0.736   0.303  1.00  0.00    -0.062 NA
HETATM   10  N2  UNL     1       2.990   0.871  -1.174  1.00  0.00    -0.254 N 
ATOM     11  H2  UNL     1       2.274   1.288  -1.769  1.00  0.00     0.191 HD
ATOM     12  H4  UNL     1       1.474  -1.870  -0.510  1.00  0.00     0.162 HD
BRANCH  10  13
HETATM   13  N3  UNL     1       4.240   1.463  -1.089  1.00  0.00    -0.208 N 
ATOM     14  H3  UNL     1       4.815   1.468  -1.931  1.00  0.00     0.215 HD
BRANCH  13  15
HETATM   15  O1  UNL     1       4.714   1.986  -0.073  1.00  0.00    -0.274 OA
ATOM     16  H1  UNL     1       5.571   2.392  -0.015  1.00  0.00     0.246 HD
ENDBRANCH  13  15
ENDBRANCH  10  13
ENDBRANCH   1   7
BRANCH   4  17
HETATM   17  N5  UNL     1      -3.631   0.586  -0.507  1.00  0.00    -0.075 N 
ATOM     18  H53 UNL     1      -3.993   1.538  -0.445  1.00  0.00     0.274 HD
ATOM     19  H52 UNL     1      -3.329   0.600  -1.481  1.00  0.00     0.274 HD
ATOM     20  H51 UNL     1      -4.361  -0.108  -0.347  1.00  0.00     0.274 HD
ENDBRANCH   4  17
TORSDOF 4
