REMARK  2 active torsions:
REMARK  status: ('A' for Active; 'I' for Inactive)
REMARK    1  A    between atoms: N1_2  and  N2_4 
REMARK       I    between atoms: N2_4  and  C2_6 
REMARK       I    between atoms: C2_6  and  N3_8 
REMARK    2  A    between atoms: N3_8  and  C3_10 
ROOT
HETATM    1  N2  UNL     1       2.700  -1.042   0.498  1.00  0.00    -0.256 N 
ATOM      2  H2  UNL     1       2.448  -1.989   0.781  1.00  0.00     0.191 HD
HETATM    3  C2  UNL     1       1.625  -0.150   0.294  1.00  0.00     0.334 C 
HETATM    4  O1  UNL     1       1.805   1.020  -0.041  1.00  0.00    -0.246 OA
HETATM    5  N3  UNL     1       0.320  -0.648   0.492  1.00  0.00    -0.336 N 
ATOM      6  H3  UNL     1       0.177  -1.622   0.760  1.00  0.00     0.164 HD
ENDROOT
BRANCH   5   7
HETATM    7  C3  UNL     1      -0.817   0.233   0.312  1.00  0.00     0.112 C 
HETATM    8  C4  UNL     1      -1.964  -0.171   1.178  1.00  0.00     0.028 C 
HETATM    9  C5  UNL     1      -3.139  -0.494   0.272  1.00  0.00     0.029 C 
HETATM   10  C6  UNL     1      -3.474   0.779  -0.482  1.00  0.00     0.232 C 
HETATM   11  N4  UNL     1      -2.324   1.225  -1.225  1.00  0.00    -0.073 N 
HETATM   12  C7  UNL     1      -1.209   0.302  -1.169  1.00  0.00     0.257 C 
ATOM     13  H42 UNL     1      -2.576   1.430  -2.192  1.00  0.00     0.277 HD
ATOM     14  H41 UNL     1      -2.038   2.156  -0.924  1.00  0.00     0.277 HD
ENDBRANCH   5   7
BRANCH   1  15
HETATM   15  N1  UNL     1       4.000  -0.800   0.367  1.00  0.00    -0.337 N 
HETATM   16  C1  UNL     1       4.459   0.285  -0.381  1.00  0.00     0.167 C 
ATOM     17  H1  UNL     1       4.673  -1.417   0.821  1.00  0.00     0.179 HD
ENDBRANCH   1  15
TORSDOF 2
