REMARK  2 active torsions:
REMARK  status: ('A' for Active; 'I' for Inactive)
REMARK    1  A    between atoms: C5_6  and  N2_7 
REMARK    2  A    between atoms: N2_7  and  C6_9 
ROOT
HETATM    1  C1  UNL     1       4.804   2.479   0.011  1.00  0.00     0.052 C 
HETATM    2  C2  UNL     1       3.739   1.462  -0.189  1.00  0.00    -0.009 A 
HETATM    3  C3  UNL     1       2.419   1.849  -0.234  1.00  0.00     0.096 A 
HETATM    4  C4  UNL     1       2.046   3.249  -0.089  1.00  0.00     0.104 C 
HETATM    5  N1  UNL     1       1.754   4.363   0.008  1.00  0.00    -0.191 NA
HETATM    6  C5  UNL     1       1.458   0.877  -0.421  1.00  0.00     0.123 A 
HETATM    7  N4  UNL     1       1.760  -0.423  -0.559  1.00  0.00    -0.343 N 
ATOM      8  H4  UNL     1       1.014  -1.105  -0.695  1.00  0.00     0.167 HD
HETATM    9  C15 UNL     1       3.037  -0.831  -0.519  1.00  0.00     0.039 A 
HETATM   10  C16 UNL     1       4.020   0.112  -0.334  1.00  0.00     0.058 A 
HETATM   11  N5  UNL     1       5.311  -0.532  -0.327  1.00  0.00    -0.388 N 
ATOM     12  H5  UNL     1       6.171  -0.209   0.117  1.00  0.00     0.159 HD
HETATM   13  C17 UNL     1       5.102  -1.762  -1.107  1.00  0.00     0.126 C 
HETATM   14  C18 UNL     1       3.722  -2.145  -0.626  1.00  0.00     0.079 C 
ENDROOT
BRANCH   6  15
HETATM   15  N2  UNL     1       0.098   1.281  -0.470  1.00  0.00    -0.370 N 
ATOM     16  H2  UNL     1      -0.133   2.269  -0.369  1.00  0.00     0.161 HD
BRANCH  15  17
HETATM   17  C6  UNL     1      -0.986   0.305  -0.664  1.00  0.00     0.088 C 
HETATM   18  C7  UNL     1      -0.961  -0.643   0.465  1.00  0.00     0.055 C 
HETATM   19  C8  UNL     1      -2.266  -1.085   1.024  1.00  0.00     0.021 C 
HETATM   20  C9  UNL     1      -2.055  -1.354   2.519  1.00  0.00     0.037 C 
HETATM   21  C10 UNL     1      -2.705  -2.440   0.449  1.00  0.00     0.037 C 
HETATM   22  N3  UNL     1      -3.345  -0.167   0.928  1.00  0.00    -0.405 N 
HETATM   23  C11 UNL     1      -3.486   0.470  -0.355  1.00  0.00     0.021 C 
ATOM     24  H3  UNL     1      -3.972   0.026   1.709  1.00  0.00     0.154 HD
HETATM   25  C12 UNL     1      -4.484   1.619  -0.139  1.00  0.00     0.037 C 
HETATM   26  C13 UNL     1      -4.111  -0.430  -1.400  1.00  0.00     0.037 C 
HETATM   27  C14 UNL     1      -2.234   1.074  -0.876  1.00  0.00     0.055 C 
ENDBRANCH  15  17
ENDBRANCH   6  15
TORSDOF 2
