REMARK  4 active torsions:
REMARK  status: ('A' for Active; 'I' for Inactive)
REMARK    1  A    between atoms: C2_2  and  N2_6 
REMARK    2  A    between atoms: N2_6  and  C5_8 
REMARK    3  A    between atoms: C5_8  and  N3_10 
REMARK    4  A    between atoms: N3_10  and  C6_12 
ROOT
HETATM    1  C1  UNL     1      -3.419   0.486   1.012  1.00  0.00     0.055 C 
HETATM    2  C2  UNL     1      -2.232  -0.263   0.454  1.00  0.00     0.114 C 
HETATM    3  C3  UNL     1      -2.529  -0.596  -0.986  1.00  0.00     0.055 C 
HETATM    4  C4  UNL     1      -2.118  -1.506   1.218  1.00  0.00     0.090 C 
HETATM    5  N1  UNL     1      -2.009  -2.480   1.814  1.00  0.00    -0.195 NA
ENDROOT
BRANCH   2   6
HETATM    6  N2  UNL     1      -1.051   0.533   0.548  1.00  0.00    -0.346 N 
ATOM      7  H2  UNL     1      -1.118   1.467   0.953  1.00  0.00     0.163 HD
BRANCH   6   8
HETATM    8  C5  UNL     1       0.241   0.061   0.088  1.00  0.00     0.170 C 
HETATM    9  S1  UNL     1       0.217  -1.445  -0.535  1.00  0.00    -0.041 SA
BRANCH   8  10
HETATM   10  N3  UNL     1       1.376   0.878   0.200  1.00  0.00    -0.345 N 
ATOM     11  H3  UNL     1       1.217   1.794   0.619  1.00  0.00     0.163 HD
BRANCH  10  12
HETATM   12  C6  UNL     1       2.723   0.607  -0.190  1.00  0.00     0.121 A 
HETATM   13  C7  UNL     1       3.712   1.689   0.110  1.00  0.00     0.091 C 
HETATM   14  N4  UNL     1       4.476   2.522   0.353  1.00  0.00    -0.195 NA
HETATM   15  C8  UNL     1       2.992  -0.154  -1.428  1.00  0.00     0.050 A 
HETATM   16  C9  UNL     1       3.301  -0.742  -0.069  1.00  0.00     0.050 A 
ENDBRANCH  10  12
ENDBRANCH   8  10
ENDBRANCH   6   8
ENDBRANCH   2   6
TORSDOF 4
