REMARK  3 active torsions:
REMARK  status: ('A' for Active; 'I' for Inactive)
REMARK    1  A    between atoms: C2_2  and  N1_4 
REMARK    2  A    between atoms: N1_4  and  C5_6 
REMARK    3  A    between atoms: C10_14  and  O1_16 
ROOT
HETATM    1  C5  UNL     1       0.137  -0.549  -0.445  1.00  0.00     0.115 C 
HETATM    2  C6  UNL     1       1.014  -1.677   0.128  1.00  0.00     0.061 C 
HETATM    3  C7  UNL     1       2.432  -1.325  -0.231  1.00  0.00     0.196 A 
HETATM    4  N2  UNL     1       3.328  -1.086   0.884  1.00  0.00    -0.070 N 
ATOM      5  H21 UNL     1       4.189  -1.629   0.942  1.00  0.00     0.277 HD
ATOM      6  H22 UNL     1       3.039  -1.389   1.814  1.00  0.00     0.277 HD
HETATM    7  C8  UNL     1       3.422   0.328   0.618  1.00  0.00     0.242 A 
HETATM    8  C9  UNL     1       2.408   0.145  -0.486  1.00  0.00     0.078 A 
HETATM    9  C10 UNL     1       1.003   0.629  -0.129  1.00  0.00     0.081 C 
HETATM   10  C11 UNL     1       0.749   1.806  -1.083  1.00  0.00     0.048 C 
ENDROOT
BRANCH   1  11
HETATM   11  N1  UNL     1      -1.104  -0.622   0.181  1.00  0.00    -0.406 N 
HETATM   12  C4  UNL     1      -1.924  -1.687  -0.340  1.00  0.00     0.144 C 
BRANCH  11  13
HETATM   13  C2  UNL     1      -1.897   0.505   0.422  1.00  0.00     0.071 C 
HETATM   14  C1  UNL     1      -2.581   1.059  -0.821  1.00  0.00     0.031 C 
HETATM   15  C3  UNL     1      -2.997   0.136   1.390  1.00  0.00     0.031 C 
ENDBRANCH  11  13
ENDBRANCH   1  11
BRANCH   9  16
HETATM   16  O1  UNL     1       1.035   1.001   1.191  1.00  0.00    -0.388 OA
ATOM     17  H1  UNL     1       1.585   1.749   1.392  1.00  0.00     0.210 HD
ENDBRANCH   9  16
TORSDOF 3
