REMARK  10 active torsions:
REMARK  status: ('A' for Active; 'I' for Inactive)
REMARK    1  A    between atoms: C2_2  and  O1_3 
REMARK    2  A    between atoms: O1_3  and  N1_4 
REMARK    3  A    between atoms: C3_6  and  C5_8 
REMARK       I    between atoms: C5_8  and  N2_10 
REMARK    4  A    between atoms: N2_10  and  C6_12 
REMARK    5  A    between atoms: C6_12  and  C7_13 
REMARK    6  A    between atoms: C6_12  and  C17_33 
REMARK       I    between atoms: C7_13  and  N3_15 
REMARK    7  A    between atoms: C12_20  and  C13_21 
REMARK    8  A    between atoms: C13_21  and  O4_22 
REMARK    9  A    between atoms: C13_21  and  N4_24 
REMARK       I    between atoms: N4_24  and  C14_26 
REMARK   10  A    between atoms: C14_26  and  C15_28 
REMARK       I    between atoms: C15_28  and  N5_30 
ROOT
HETATM    1  C7  UNL     1       0.371   0.228  -0.571  1.00  0.00     0.243 C 
HETATM    2  O3  UNL     1       0.373   0.158   0.709  1.00  0.00    -0.271 OA
HETATM    3  N3  UNL     1       1.602   0.447  -1.213  1.00  0.00    -0.341 N 
HETATM    4  C8  UNL     1       1.824   0.529  -2.637  1.00  0.00     0.126 C 
HETATM    5  C9  UNL     1       2.396   1.875  -3.062  1.00  0.00     0.020 C 
HETATM    6  C10 UNL     1       3.604   2.148  -2.232  1.00  0.00     0.004 C 
HETATM    7  C11 UNL     1       3.947   1.052  -1.280  1.00  0.00     0.030 C 
HETATM    8  C12 UNL     1       2.833   0.608  -0.401  1.00  0.00     0.136 C 
ENDROOT
BRANCH   1   9
HETATM    9  C6  UNL     1      -0.884   0.076  -1.288  1.00  0.00     0.181 C 
BRANCH   9  10
HETATM   10  N2  UNL     1      -1.966  -0.344  -0.384  1.00  0.00    -0.342 N 
HETATM   11  C5  UNL     1      -2.720  -1.497  -0.580  1.00  0.00     0.266 C 
HETATM   12  O2  UNL     1      -2.487  -2.235  -1.569  1.00  0.00    -0.266 OA
ATOM     13  H2  UNL     1      -2.174   0.239   0.427  1.00  0.00     0.163 HD
BRANCH  11  14
HETATM   14  C3  UNL     1      -3.775  -1.861   0.341  1.00  0.00     0.095 C 
HETATM   15  N1  UNL     1      -4.495  -2.922   0.195  1.00  0.00    -0.266 N 
ATOM     16  H1  UNL     1      -4.291  -3.515  -0.610  1.00  0.00     0.194 HD
HETATM   17  C4  UNL     1      -4.043  -0.977   1.500  1.00  0.00     0.076 C 
BRANCH  15  18
HETATM   18  O1  UNL     1      -5.494  -3.317   1.012  1.00  0.00    -0.281 OA
BRANCH  18  19
HETATM   19  C2  UNL     1      -5.402  -3.888   2.278  1.00  0.00     0.196 C 
HETATM   20  C1  UNL     1      -6.811  -4.158   2.788  1.00  0.00     0.036 C 
ENDBRANCH  18  19
ENDBRANCH  15  18
ENDBRANCH  11  14
ENDBRANCH   9  10
BRANCH   9  21
HETATM   21  C17 UNL     1      -1.341   1.396  -1.874  1.00  0.00     0.018 C 
HETATM   22  C18 UNL     1      -2.665   1.174  -2.624  1.00  0.00     0.007 C 
HETATM   23  C19 UNL     1      -2.989   2.508  -3.264  1.00  0.00     0.000 C 
HETATM   24  C20 UNL     1      -3.374   3.463  -2.182  1.00  0.00     0.000 C 
HETATM   25  C21 UNL     1      -2.855   3.096  -0.824  1.00  0.00     0.000 C 
HETATM   26  C22 UNL     1      -1.481   2.479  -0.861  1.00  0.00     0.007 C 
ENDBRANCH   9  21
ENDBRANCH   1   9
BRANCH   8  27
HETATM   27  C13 UNL     1       3.225  -0.777   0.134  1.00  0.00     0.243 C 
BRANCH  27  28
HETATM   28  O4  UNL     1       3.462  -1.633  -0.941  1.00  0.00    -0.375 OA
ATOM     29  H4  UNL     1       3.705  -2.490  -0.610  1.00  0.00     0.212 HD
ENDBRANCH  27  28
BRANCH  27  30
HETATM   30  N4  UNL     1       4.454  -0.622   0.879  1.00  0.00    -0.325 N 
HETATM   31  C14 UNL     1       4.499  -1.023   2.252  1.00  0.00     0.311 C 
HETATM   32  O5  UNL     1       3.482  -1.505   2.805  1.00  0.00    -0.262 OA
ATOM     33  H4  UNL     1       5.282  -0.230   0.430  1.00  0.00     0.165 HD
BRANCH  31  34
HETATM   34  C15 UNL     1       5.716  -0.877   3.021  1.00  0.00     0.309 C 
HETATM   35  O6  UNL     1       6.769  -0.399   2.527  1.00  0.00    -0.262 OA
HETATM   36  N5  UNL     1       5.738  -1.278   4.377  1.00  0.00    -0.357 N 
HETATM   37  C16 UNL     1       6.932  -1.156   5.206  1.00  0.00     0.149 C 
ATOM     38  H5  UNL     1       4.890  -1.666   4.790  1.00  0.00     0.162 HD
ENDBRANCH  31  34
ENDBRANCH  27  30
ENDBRANCH   8  27
TORSDOF 10
