REMARK  8 active torsions:
REMARK  status: ('A' for Active; 'I' for Inactive)
REMARK    1  A    between atoms: N1_1  and  C1_4 
REMARK    2  A    between atoms: N5_11  and  C2_12 
REMARK    3  A    between atoms: C2_12  and  C3_13 
REMARK    4  A    between atoms: C3_13  and  N6_14 
REMARK    5  A    between atoms: C7_24  and  C8_25 
REMARK    6  A    between atoms: C8_25  and  N9_26 
REMARK    7  A    between atoms: C11_31  and  N11_32 
REMARK    8  A    between atoms: N11_32  and  N12_34 
ROOT
HETATM    1  N6  UNL     1      -1.881  -1.275  -0.927  1.00  0.00    -0.320 N 
HETATM    2  C4  UNL     1      -2.302  -2.546  -0.944  1.00  0.00     0.181 A 
HETATM    3  S1  UNL     1      -3.865  -2.961  -0.688  1.00  0.00    -0.040 SA
HETATM    4  N7  UNL     1      -1.397  -3.512  -1.181  1.00  0.00    -0.298 N 
ATOM      5  H7  UNL     1      -1.691  -4.489  -1.199  1.00  0.00     0.171 HD
HETATM    6  C5  UNL     1      -0.101  -3.197  -1.396  1.00  0.00     0.276 A 
HETATM    7  O1  UNL     1       0.773  -4.078  -1.621  1.00  0.00    -0.266 OA
HETATM    8  C6  UNL     1       0.336  -1.879  -1.378  1.00  0.00     0.128 A 
HETATM    9  N8  UNL     1       1.530  -1.285  -1.553  1.00  0.00    -0.352 N 
ATOM     10  H8  UNL     1       2.403  -1.774  -1.749  1.00  0.00     0.166 HD
HETATM   11  C7  UNL     1       1.405   0.045  -1.432  1.00  0.00     0.030 A 
HETATM   12  C12 UNL     1       0.078   0.289  -1.170  1.00  0.00     0.059 A 
HETATM   13  C13 UNL     1      -0.597  -0.910  -1.135  1.00  0.00     0.071 A 
ENDROOT
BRANCH   1  14
HETATM   14  C3  UNL     1      -2.867  -0.253  -0.670  1.00  0.00     0.154 C 
BRANCH  14  15
HETATM   15  C2  UNL     1      -2.967   0.016   0.832  1.00  0.00     0.190 C 
BRANCH  15  16
HETATM   16  N5  UNL     1      -3.966   1.050   1.090  1.00  0.00    -0.106 N 
HETATM   17  C1  UNL     1      -5.271   0.820   1.311  1.00  0.00     0.709 A 
HETATM   18  N2  UNL     1      -5.857   2.006   1.505  1.00  0.00    -0.115 N 
HETATM   19  N3  UNL     1      -4.942   2.945   1.406  1.00  0.00    -0.213 N 
ATOM     20  H2  UNL     1      -6.847   2.157   1.697  1.00  0.00     0.207 HD
HETATM   21  N4  UNL     1      -3.794   2.353   1.153  1.00  0.00    -0.211 N 
ATOM     22  H3  UNL     1      -5.094   3.949   1.507  1.00  0.00     0.210 HD
ATOM     23  H4  UNL     1      -2.903   2.833   1.025  1.00  0.00     0.210 HD
BRANCH  17  24
HETATM   24  N1  UNL     1      -5.883  -0.315   1.340  1.00  0.00    -0.232 N 
ATOM     25  H12 UNL     1      -6.874  -0.490   1.508  1.00  0.00     0.174 HD
ATOM     26  H11 UNL     1      -5.436  -1.220   1.192  1.00  0.00     0.174 HD
ENDBRANCH  17  24
ENDBRANCH  15  16
ENDBRANCH  14  15
ENDBRANCH   1  14
BRANCH  11  27
HETATM   27  C8  UNL     1       2.520   1.009  -1.565  1.00  0.00     0.198 C 
BRANCH  27  28
HETATM   28  N9  UNL     1       3.114   1.173  -0.268  1.00  0.00    -0.209 N 
HETATM   29  C9  UNL     1       2.461   1.655   0.933  1.00  0.00     0.161 C 
HETATM   30  C10 UNL     1       3.610   2.306   1.672  1.00  0.00     0.158 C 
HETATM   31  N10 UNL     1       4.744   1.536   1.203  1.00  0.00    -0.223 N 
HETATM   32  C11 UNL     1       4.456   0.901   0.109  1.00  0.00     0.696 C 
ATOM     33  H10 UNL     1       5.649   1.498   1.671  1.00  0.00     0.177 HD
BRANCH  32  34
HETATM   34  N11 UNL     1       5.315   0.039  -0.655  1.00  0.00    -0.072 N 
ATOM     35  H11 UNL     1       5.430   0.158  -1.661  1.00  0.00     0.212 HD
BRANCH  34  36
HETATM   36  N12 UNL     1       5.981  -0.962   0.035  1.00  0.00    -0.024 N 
HETATM   37  O2  UNL     1       6.904  -0.641   0.807  1.00  0.00    -0.516 OA
HETATM   38  O3  UNL     1       5.683  -2.297  -0.083  1.00  0.00    -0.516 OA
ENDBRANCH  34  36
ENDBRANCH  32  34
ENDBRANCH  27  28
ENDBRANCH  11  27
TORSDOF 8
