REMARK  10 active torsions:
REMARK  status: ('A' for Active; 'I' for Inactive)
REMARK    1  A    between atoms: C2_2  and  C3_3 
REMARK    2  A    between atoms: C3_3  and  C4_4 
REMARK    3  A    between atoms: C4_4  and  S1_5 
REMARK    4  A    between atoms: S1_5  and  C5_6 
REMARK    5  A    between atoms: C6_10  and  S2_11 
REMARK    6  A    between atoms: S2_11  and  C7_12 
REMARK    7  A    between atoms: C8_16  and  N5_17 
REMARK    8  A    between atoms: C9_22  and  N7_23 
REMARK    9  A    between atoms: C11_33  and  N11_34 
REMARK   10  A    between atoms: N13_40  and  O1_41 
ROOT
HETATM    1  C5  UNL     1      -1.674   0.014  -0.419  1.00  0.00     0.205 A 
HETATM    2  N1  UNL     1      -0.533   0.272  -1.136  1.00  0.00    -0.254 N 
ATOM      3  H1  UNL     1      -0.099  -0.378  -1.791  1.00  0.00     0.190 HD
HETATM    4  N2  UNL     1      -0.083   1.457  -0.865  1.00  0.00    -0.058 N 
HETATM    5  C6  UNL     1       0.979   2.199  -1.278  1.00  0.00     0.206 A 
HETATM    6  N10 UNL     1       1.192   3.435  -0.808  1.00  0.00    -0.167 N 
ATOM      7  H10 UNL     1       1.995   3.973  -1.133  1.00  0.00     0.186 HD
HETATM    8  C11 UNL     1       0.341   3.969   0.099  1.00  0.00     0.692 A 
HETATM    9  N12 UNL     1      -0.722   3.256   0.528  1.00  0.00    -0.018 N 
ATOM     10  H12 UNL     1      -1.374   3.642   1.211  1.00  0.00     0.203 HD
HETATM   11  C12 UNL     1      -0.894   2.017   0.025  1.00  0.00     0.749 A 
HETATM   12  N13 UNL     1      -1.880   1.111   0.295  1.00  0.00    -0.025 N 
ENDROOT
BRANCH   5  13
HETATM   13  S2  UNL     1       2.094   1.475  -2.469  1.00  0.00    -0.013 SA
BRANCH  13  14
HETATM   14  C7  UNL     1       3.383   0.624  -1.586  1.00  0.00     0.183 A 
HETATM   15  N3  UNL     1       4.588   1.099  -1.194  1.00  0.00    -0.243 N 
HETATM   16  N4  UNL     1       5.274   0.157  -0.567  1.00  0.00     0.093 N 
ATOM     17  H3  UNL     1       4.921   2.049  -1.359  1.00  0.00     0.191 HD
HETATM   18  C8  UNL     1       6.497   0.115   0.003  1.00  0.00     0.727 A 
HETATM   19  C10 UNL     1       4.510  -0.947  -0.547  1.00  0.00     0.735 A 
HETATM   20  N6  UNL     1       6.927  -1.031   0.580  1.00  0.00    -0.020 N 
HETATM   21  C9  UNL     1       6.183  -2.150   0.615  1.00  0.00     0.705 A 
ATOM     22  H6  UNL     1       7.854  -1.046   1.006  1.00  0.00     0.203 HD
HETATM   23  N8  UNL     1       4.966  -2.091   0.042  1.00  0.00    -0.020 N 
ATOM     24  H8  UNL     1       4.371  -2.920   0.048  1.00  0.00     0.203 HD
HETATM   25  N9  UNL     1       3.355  -0.654  -1.172  1.00  0.00    -0.166 N 
ATOM     26  H9  UNL     1       2.579  -1.301  -1.310  1.00  0.00     0.186 HD
BRANCH  18  27
HETATM   27  N5  UNL     1       7.225   1.178  -0.022  1.00  0.00    -0.232 N 
ATOM     28  H52 UNL     1       6.901   2.042  -0.457  1.00  0.00     0.174 HD
ATOM     29  H51 UNL     1       8.149   1.146   0.409  1.00  0.00     0.174 HD
ENDBRANCH  18  27
BRANCH  21  30
HETATM   30  N7  UNL     1       6.674  -3.194   1.187  1.00  0.00    -0.234 N 
ATOM     31  H72 UNL     1       7.596  -3.239   1.621  1.00  0.00     0.174 HD
ATOM     32  H71 UNL     1       6.109  -4.043   1.214  1.00  0.00     0.174 HD
ENDBRANCH  21  30
ENDBRANCH  13  14
ENDBRANCH   5  13
BRANCH   8  33
HETATM   33  N11 UNL     1       0.566   5.155   0.535  1.00  0.00    -0.234 N 
ATOM     34 2H11 UNL     1       1.369   5.694   0.211  1.00  0.00     0.174 HD
ATOM     35 1H11 UNL     1      -0.075   5.557   1.219  1.00  0.00     0.174 HD
ENDBRANCH   8  33
BRANCH   1  36
HETATM   36  S1  UNL     1      -2.488  -1.534  -0.569  1.00  0.00    -0.090 SA
BRANCH  36  37
HETATM   37  C4  UNL     1      -3.994  -1.731   0.337  1.00  0.00     0.082 C 
BRANCH  37  38
HETATM   38  C3  UNL     1      -5.153  -0.962  -0.194  1.00  0.00     0.010 C 
BRANCH  38  39
HETATM   39  C2  UNL     1      -6.409  -1.148   0.619  1.00  0.00    -0.004 C 
HETATM   40  C1  UNL     1      -6.890  -2.559   0.695  1.00  0.00     0.005 C 
ENDBRANCH  38  39
ENDBRANCH  37  38
ENDBRANCH  36  37
ENDBRANCH   1  36
BRANCH  12  41
HETATM   41  O1  UNL     1      -2.899   1.298   1.175  1.00  0.00    -0.267 OA
ATOM     42  H1  UNL     1      -3.047   2.085   1.687  1.00  0.00     0.246 HD
ENDBRANCH  12  41
TORSDOF 10
