REMARK  2 active torsions:
REMARK  status: ('A' for Active; 'I' for Inactive)
REMARK    1  A    between atoms: N1_1  and  N2_4 
REMARK       I    between atoms: N2_4  and  C1_6 
REMARK    2  A    between atoms: C1_6  and  C2_8 
ROOT
HETATM    1  C2  UNL     1       1.109  -0.707  -0.730  1.00  0.00     0.007 C 
HETATM    2  C3  UNL     1       0.112  -1.763  -0.553  1.00  0.00    -0.014 C 
HETATM    3  C4  UNL     1      -0.907  -1.814   0.511  1.00  0.00     0.028 C 
HETATM    4  C5  UNL     1      -2.236  -1.171   0.325  1.00  0.00     0.004 C 
HETATM    5  C6  UNL     1      -2.557   0.093   1.042  1.00  0.00     0.000 C 
HETATM    6  C7  UNL     1      -2.168   1.416   0.328  1.00  0.00     0.000 C 
HETATM    7  C8  UNL     1      -0.952   1.022  -0.343  1.00  0.00     0.000 C 
HETATM    8  C9  UNL     1       0.076   1.657  -1.103  1.00  0.00     0.005 C 
HETATM    9  C10 UNL     1       0.898   0.460  -1.609  1.00  0.00     0.044 C 
ENDROOT
BRANCH   1  10
HETATM   10  C1  UNL     1       2.013  -0.470   0.445  1.00  0.00     0.265 C 
HETATM   11  N2  UNL     1       2.983   0.555   0.323  1.00  0.00    -0.273 N 
ATOM     12  H2  UNL     1       3.035   1.091  -0.543  1.00  0.00     0.189 HD
HETATM   13  O1  UNL     1       1.904  -1.148   1.463  1.00  0.00    -0.266 OA
BRANCH  11  14
HETATM   14  N1  UNL     1       3.880   0.853   1.374  1.00  0.00    -0.342 N 
ATOM     15  H12 UNL     1       3.814   0.308   2.234  1.00  0.00     0.176 HD
ATOM     16  H11 UNL     1       4.578   1.591   1.286  1.00  0.00     0.176 HD
ENDBRANCH  11  14
ENDBRANCH   1  10
TORSDOF 2
