REMARK  5 active torsions:
REMARK  status: ('A' for Active; 'I' for Inactive)
REMARK    1  A    between atoms: N3_4  and  C2_6 
REMARK    2  A    between atoms: C2_6  and  C3_7 
REMARK    3  A    between atoms: C3_7  and  C4_8 
REMARK    4  A    between atoms: C4_8  and  C5_9 
REMARK    5  A    between atoms: C5_9  and  N4_10 
ROOT
HETATM    1  N4  UNL     1      -0.000  -1.347   0.696  1.00  0.00    -0.268 N 
HETATM    2  C6  UNL     1      -0.909  -1.935   1.651  1.00  0.00     0.326 C 
HETATM    3  O1  UNL     1      -0.550  -2.461   2.736  1.00  0.00    -0.247 OA
HETATM    4  N5  UNL     1      -2.219  -1.807   1.148  1.00  0.00    -0.324 N 
ATOM      5  H5  UNL     1      -3.035  -2.345   1.440  1.00  0.00     0.165 HD
HETATM    6  C7  UNL     1      -2.190  -0.762   0.132  1.00  0.00     0.116 C 
HETATM    7  C8  UNL     1      -3.094  -1.145  -0.982  1.00  0.00     0.041 C 
HETATM    8  C9  UNL     1      -3.499   0.068  -1.780  1.00  0.00     0.003 C 
HETATM    9  C10 UNL     1      -4.253   1.072  -0.946  1.00  0.00     0.000 C 
HETATM   10  C11 UNL     1      -3.772   1.156   0.473  1.00  0.00     0.003 C 
HETATM   11  C12 UNL     1      -2.381   0.609   0.661  1.00  0.00     0.041 C 
HETATM   12  C13 UNL     1      -0.767  -0.872  -0.374  1.00  0.00     0.256 C 
HETATM   13  O2  UNL     1      -0.425  -0.578  -1.533  1.00  0.00    -0.270 OA
ENDROOT
BRANCH   1  14
HETATM   14  C5  UNL     1       1.431  -1.313   0.866  1.00  0.00     0.137 C 
BRANCH  14  15
HETATM   15  C4  UNL     1       1.960  -0.138   1.613  1.00  0.00     0.022 C 
BRANCH  15  16
HETATM   16  C3  UNL     1       1.734   1.168   0.955  1.00  0.00     0.021 C 
BRANCH  16  17
HETATM   17  C2  UNL     1       2.451   1.294  -0.368  1.00  0.00     0.122 C 
BRANCH  17  18
HETATM   18  N3  UNL     1       3.884   1.163  -0.140  1.00  0.00    -0.367 N 
HETATM   19  C1  UNL     1       4.592   0.577  -1.041  1.00  0.00     0.196 C 
HETATM   20  N1  UNL     1       4.014   0.070  -2.222  1.00  0.00    -0.067 NA
HETATM   21  N2  UNL     1       6.008   0.460  -0.792  1.00  0.00    -0.067 NA
ATOM     22  H3  UNL     1       4.314   1.526   0.711  1.00  0.00     0.161 HD
ENDBRANCH  17  18
ENDBRANCH  16  17
ENDBRANCH  15  16
ENDBRANCH  14  15
ENDBRANCH   1  14
TORSDOF 5
