REMARK  8 active torsions:
REMARK  status: ('A' for Active; 'I' for Inactive)
REMARK    1  A    between atoms: N1_2  and  N2_3 
REMARK       I    between atoms: N2_3  and  C2_5 
REMARK       I    between atoms: C2_5  and  N4_10 
REMARK    2  A    between atoms: N3_6  and  O1_8 
REMARK    3  A    between atoms: N4_10  and  C4_12 
REMARK    4  A    between atoms: C6_17  and  C7_18 
REMARK    5  A    between atoms: N6_19  and  N7_21 
REMARK    6  A    between atoms: N7_21  and  N8_23 
REMARK    7  A    between atoms: C8_26  and  O5_27 
REMARK    8  A    between atoms: C12_31  and  O6_32 
ROOT
HETATM    1  C4  UNL     1      -0.868   0.102   0.268  1.00  0.00     0.158 C 
HETATM    2  N5  UNL     1      -0.162   0.668  -0.734  1.00  0.00    -0.306 N 
ATOM      3  H5  UNL     1      -0.712   1.241  -1.374  1.00  0.00     0.170 HD
HETATM    4  C5  UNL     1       1.169   0.597  -1.029  1.00  0.00     0.261 C 
HETATM    5  O2  UNL     1       1.508   1.251  -2.049  1.00  0.00    -0.267 OA
HETATM    6  C6  UNL     1       2.153  -0.092  -0.353  1.00  0.00     0.083 C 
HETATM    7  C8  UNL     1       2.132  -0.649   0.919  1.00  0.00     0.094 C 
HETATM    8  C10 UNL     1       0.984  -0.903   1.650  1.00  0.00     0.010 C 
HETATM    9  C11 UNL     1       1.170  -1.501   2.998  1.00  0.00     0.054 C 
HETATM   10  C12 UNL     1      -0.341  -0.669   1.281  1.00  0.00     0.121 C 
ENDROOT
BRANCH   1  11
HETATM   11  N4  UNL     1      -2.123   0.261   0.329  1.00  0.00    -0.171 N 
HETATM   12  C2  UNL     1      -2.958   0.978  -0.532  1.00  0.00     0.715 C 
HETATM   13  N2  UNL     1      -3.560   2.163  -0.038  1.00  0.00    -0.135 N 
HETATM   14  N3  UNL     1      -3.224   0.643  -1.748  1.00  0.00    -0.096 N 
ATOM     15  H2  UNL     1      -3.643   2.962  -0.667  1.00  0.00     0.201 HD
ATOM     16  H3  UNL     1      -2.793  -0.208  -2.108  1.00  0.00     0.213 HD
ATOM     17  H4  UNL     1      -2.587  -0.197   1.113  1.00  0.00     0.186 HD
BRANCH  13  18
HETATM   18  N1  UNL     1      -4.040   2.292   1.251  1.00  0.00    -0.131 NA
HETATM   19  C1  UNL     1      -4.479   1.040   1.832  1.00  0.00     0.159 C 
ENDBRANCH  13  18
BRANCH  14  20
HETATM   20  O1  UNL     1      -4.029   1.333  -2.579  1.00  0.00    -0.271 OA
HETATM   21  C3  UNL     1      -3.771   1.496  -3.957  1.00  0.00     0.238 C 
ENDBRANCH  14  20
ENDBRANCH   1  11
BRANCH  10  22
HETATM   22  O6  UNL     1      -1.307  -1.308   2.045  1.00  0.00    -0.352 OA
HETATM   23  C13 UNL     1      -1.712  -2.601   1.618  1.00  0.00     0.210 C 
ENDBRANCH  10  22
BRANCH   6  24
HETATM   24  C7  UNL     1       3.414  -0.270  -1.076  1.00  0.00     0.128 C 
HETATM   25  N6  UNL     1       3.541   0.207  -2.264  1.00  0.00    -0.292 N 
ATOM     26  H6  UNL     1       2.762   0.705  -2.694  1.00  0.00     0.187 HD
BRANCH  25  27
HETATM   27  N7  UNL     1       4.736   0.049  -2.971  1.00  0.00    -0.183 N 
ATOM     28  H7  UNL     1       5.212   0.875  -3.335  1.00  0.00     0.214 HD
BRANCH  27  29
HETATM   29  N8  UNL     1       5.295  -1.211  -3.192  1.00  0.00    -0.024 N 
HETATM   30  O3  UNL     1       4.790  -2.196  -2.594  1.00  0.00    -0.515 OA
HETATM   31  O4  UNL     1       6.359  -1.376  -4.031  1.00  0.00    -0.515 OA
ENDBRANCH  27  29
ENDBRANCH  25  27
ENDBRANCH   6  24
BRANCH   7  32
HETATM   32  O5  UNL     1       3.343  -0.974   1.503  1.00  0.00    -0.354 OA
HETATM   33  C9  UNL     1       4.077  -0.065   2.304  1.00  0.00     0.210 C 
ENDBRANCH   7  32
TORSDOF 8
