REMARK  11 active torsions:
REMARK  status: ('A' for Active; 'I' for Inactive)
REMARK    1  A    between atoms: C2_2  and  C3_3 
REMARK    2  A    between atoms: C3_3  and  O1_4 
REMARK    3  A    between atoms: C3_3  and  C5_8 
REMARK    4  A    between atoms: O1_4  and  C4_5 
REMARK    5  A    between atoms: C6_9  and  O3_10 
REMARK    6  A    between atoms: C7_12  and  O4_13 
REMARK    7  A    between atoms: C8_15  and  O5_16 
REMARK    8  A    between atoms: O5_16  and  C9_17 
REMARK       I    between atoms: C9_17  and  N2_19 
REMARK    9  A    between atoms: N2_19  and  C10_20 
REMARK   10  A    between atoms: N2_19  and  C13_23 
REMARK   11  A    between atoms: C16_26  and  O7_27 
ROOT
HETATM    1  C5  UNL     1       2.481  -0.230   0.151  1.00  0.00     0.078 C 
HETATM    2  C6  UNL     1       2.328  -1.169  -1.024  1.00  0.00     0.158 C 
HETATM    3  C7  UNL     1       0.853  -1.070  -1.445  1.00  0.00     0.179 C 
HETATM    4  C8  UNL     1       0.213  -0.660  -0.163  1.00  0.00     0.194 C 
HETATM    5  C16 UNL     1       1.169   0.462   0.279  1.00  0.00     0.159 C 
ENDROOT
BRANCH   4   6
HETATM    6  O5  UNL     1      -1.083  -0.191  -0.264  1.00  0.00    -0.293 OA
BRANCH   6   7
HETATM    7  C9  UNL     1      -2.107  -0.726   0.486  1.00  0.00     0.364 C 
HETATM    8  O6  UNL     1      -1.789  -1.663   1.263  1.00  0.00    -0.238 OA
HETATM    9  N2  UNL     1      -3.456  -0.266   0.407  1.00  0.00    -0.320 N 
BRANCH   9  10
HETATM   10  C10 UNL     1      -4.447  -0.884   1.225  1.00  0.00     0.081 C 
HETATM   11  C11 UNL     1      -5.182   0.068   2.129  1.00  0.00     0.032 C 
HETATM   12  C12 UNL     1      -5.522  -1.588   0.385  1.00  0.00     0.032 C 
ENDBRANCH   9  10
BRANCH   9  13
HETATM   13  C13 UNL     1      -3.819   0.817  -0.492  1.00  0.00     0.081 C 
HETATM   14  C14 UNL     1      -3.096   2.103  -0.139  1.00  0.00     0.032 C 
HETATM   15  C15 UNL     1      -3.384   0.437  -1.891  1.00  0.00     0.032 C 
ENDBRANCH   9  13
ENDBRANCH   6   7
ENDBRANCH   4   6
BRANCH   3  16
HETATM   16  O4  UNL     1       0.786  -0.121  -2.438  1.00  0.00    -0.390 OA
ATOM     17  H4  UNL     1      -0.126  -0.060  -2.698  1.00  0.00     0.210 HD
ENDBRANCH   3  16
BRANCH   5  18
HETATM   18  O7  UNL     1       0.975   1.506  -0.589  1.00  0.00    -0.392 OA
ATOM     19  H7  UNL     1       0.138   1.948  -0.507  1.00  0.00     0.210 HD
ENDBRANCH   5  18
BRANCH   2  20
HETATM   20  O3  UNL     1       2.641  -2.479  -0.669  1.00  0.00    -0.392 OA
ATOM     21  H3  UNL     1       2.545  -3.069  -1.407  1.00  0.00     0.210 HD
ENDBRANCH   2  20
BRANCH   1  22
HETATM   22  C3  UNL     1       3.669   0.609  -0.036  1.00  0.00     0.142 C 
BRANCH  22  23
HETATM   23  C2  UNL     1       3.948   1.600   1.064  1.00  0.00     0.029 C 
HETATM   24  C1  UNL     1       4.173   0.972   2.401  1.00  0.00     0.007 C 
ENDBRANCH  22  23
BRANCH  22  25
HETATM   25  O1  UNL     1       4.810  -0.229  -0.099  1.00  0.00    -0.300 OA
BRANCH  25  26
HETATM   26  C4  UNL     1       5.671  -0.239  -1.174  1.00  0.00     0.373 C 
HETATM   27  N1  UNL     1       6.788  -1.116  -1.145  1.00  0.00    -0.032 NA
HETATM   28  O2  UNL     1       5.430   0.531  -2.135  1.00  0.00    -0.242 OA
ENDBRANCH  25  26
ENDBRANCH  22  25
ENDBRANCH   1  22
TORSDOF 11
