REMARK  8 active torsions:
REMARK  status: ('A' for Active; 'I' for Inactive)
REMARK    1  A    between atoms: C2_2  and  O1_3 
REMARK    2  A    between atoms: O1_3  and  C3_4 
REMARK    3  A    between atoms: C3_4  and  C4_6 
REMARK    4  A    between atoms: N3_12  and  C6_14 
REMARK    5  A    between atoms: C6_14  and  C7_15 
REMARK    6  A    between atoms: C6_14  and  C10_26 
REMARK       I    between atoms: C7_15  and  N4_17 
REMARK    7  A    between atoms: N4_17  and  N5_19 
REMARK       I    between atoms: N5_19  and  C8_21 
REMARK       I    between atoms: C8_21  and  N6_23 
REMARK    8  A    between atoms: C10_26  and  C12_28 
ROOT
HETATM    1  C6  UNL     1      -0.798  -0.114  -0.277  1.00  0.00     0.181 C 
ENDROOT
BRANCH   1   2
HETATM    2  N3  UNL     1       0.279   0.222  -1.135  1.00  0.00    -0.356 N 
HETATM    3  C5  UNL     1       1.516   0.236  -0.753  1.00  0.00     0.162 A 
HETATM    4  N2  UNL     1       2.054  -0.036   0.439  1.00  0.00    -0.279 N 
HETATM    5  S1  UNL     1       2.932   0.625  -1.671  1.00  0.00    -0.028 SA
HETATM    6  N1  UNL     1       3.315   0.048   0.579  1.00  0.00    -0.287 N 
ATOM      7  H2  UNL     1       1.463  -0.307   1.225  1.00  0.00     0.189 HD
HETATM    8  C4  UNL     1       4.082   0.399  -0.431  1.00  0.00     0.168 A 
ATOM      9  H1  UNL     1       3.737  -0.159   1.484  1.00  0.00     0.188 HD
ATOM     10  H3  UNL     1       0.069   0.465  -2.103  1.00  0.00     0.162 HD
BRANCH   8  11
HETATM   11  C3  UNL     1       5.554   0.551  -0.468  1.00  0.00     0.318 C 
HETATM   12  O2  UNL     1       6.137   0.901  -1.505  1.00  0.00    -0.257 OA
BRANCH  11  13
HETATM   13  O1  UNL     1       6.300   0.304   0.654  1.00  0.00    -0.316 OA
BRANCH  13  14
HETATM   14  C2  UNL     1       7.694   0.420   0.730  1.00  0.00     0.175 C 
HETATM   15  C1  UNL     1       8.179   1.823   0.440  1.00  0.00     0.034 C 
ENDBRANCH  13  14
ENDBRANCH  11  13
ENDBRANCH   8  11
ENDBRANCH   1   2
BRANCH   1  16
HETATM   16  C7  UNL     1      -1.869   0.899  -0.483  1.00  0.00     0.259 C 
HETATM   17  O3  UNL     1      -1.742   1.859  -1.287  1.00  0.00    -0.269 OA
HETATM   18  N4  UNL     1      -3.069   0.751   0.267  1.00  0.00    -0.264 N 
ATOM     19  H4  UNL     1      -3.174  -0.027   0.918  1.00  0.00     0.190 HD
BRANCH  18  20
HETATM   20  N5  UNL     1      -4.105   1.680   0.106  1.00  0.00    -0.249 N 
HETATM   21  C8  UNL     1      -5.410   1.443   0.587  1.00  0.00     0.334 C 
HETATM   22  O4  UNL     1      -5.686   0.354   1.194  1.00  0.00    -0.246 OA
HETATM   23  N6  UNL     1      -6.448   2.376   0.424  1.00  0.00    -0.346 N 
HETATM   24  C9  UNL     1      -7.787   2.136   0.916  1.00  0.00     0.151 C 
ATOM     25  H6  UNL     1      -6.250   3.253  -0.058  1.00  0.00     0.163 HD
ATOM     26  H5  UNL     1      -3.909   2.558  -0.375  1.00  0.00     0.192 HD
ENDBRANCH  18  20
ENDBRANCH   1  16
BRANCH   1  27
HETATM   27  C10 UNL     1      -1.306  -1.515  -0.443  1.00  0.00     0.013 C 
HETATM   28  C11 UNL     1      -1.805  -1.804  -1.823  1.00  0.00     0.012 C 
BRANCH  27  29
HETATM   29  C12 UNL     1      -0.338  -2.575  -0.029  1.00  0.00     0.002 C 
HETATM   30  C13 UNL     1      -1.012  -3.934  -0.260  1.00  0.00     0.005 C 
ENDBRANCH  27  29
ENDBRANCH   1  27
TORSDOF 8
