REMARK  8 active torsions:
REMARK  status: ('A' for Active; 'I' for Inactive)
REMARK    1  A    between atoms: N1_1  and  N2_4 
REMARK    2  A    between atoms: N2_4  and  C1_6 
REMARK    3  A    between atoms: C2_11  and  N5_12 
REMARK    4  A    between atoms: C7_20  and  N7_21 
REMARK    5  A    between atoms: N7_21  and  C8_23 
REMARK    6  A    between atoms: C8_23  and  C9_24 
REMARK    7  A    between atoms: C9_24  and  C10_25 
REMARK    8  A    between atoms: C10_25  and  C11_26 
ROOT
HETATM    1  C1  UNL     1       0.267  -3.132  -0.699  1.00  0.00     0.712 A 
HETATM    2  N3  UNL     1      -0.966  -3.219  -0.212  1.00  0.00    -0.129 N 
ATOM      3  H3  UNL     1      -1.373  -4.128   0.009  1.00  0.00     0.205 HD
HETATM    4  N4  UNL     1      -1.653  -2.113  -0.019  1.00  0.00    -0.268 N 
ATOM      5  H4  UNL     1      -2.599  -2.187   0.355  1.00  0.00     0.189 HD
HETATM    6  C2  UNL     1      -1.165  -0.887  -0.293  1.00  0.00     0.164 A 
HETATM    7  C7  UNL     1       0.111  -0.783  -0.798  1.00  0.00     0.162 A 
HETATM    8  N8  UNL     1       0.794  -1.920  -0.987  1.00  0.00    -0.170 N 
ATOM      9  H8  UNL     1       1.742  -1.870  -1.360  1.00  0.00     0.186 HD
ENDROOT
BRANCH   6  10
HETATM   10  N5  UNL     1      -1.972   0.260  -0.056  1.00  0.00    -0.360 N 
HETATM   11  C3  UNL     1      -1.573   1.316   0.862  1.00  0.00     0.152 C 
HETATM   12  C4  UNL     1      -1.967   2.633   0.231  1.00  0.00     0.252 C 
HETATM   13  N6  UNL     1      -3.401   2.724   0.151  1.00  0.00    -0.072 N 
HETATM   14  C5  UNL     1      -4.054   1.441   0.093  1.00  0.00     0.252 C 
ATOM     15  H62 UNL     1      -3.771   3.284   0.919  1.00  0.00     0.277 HD
ATOM     16  H61 UNL     1      -3.683   3.309  -0.636  1.00  0.00     0.277 HD
HETATM   17  C6  UNL     1      -3.258   0.442  -0.728  1.00  0.00     0.152 C 
ENDBRANCH   6  10
BRANCH   7  18
HETATM   18  N7  UNL     1       0.658   0.335  -1.087  1.00  0.00    -0.373 N 
ATOM     19  H7  UNL     1       0.094   1.169  -0.923  1.00  0.00     0.161 HD
BRANCH  18  20
HETATM   20  C8  UNL     1       1.963   0.552  -1.611  1.00  0.00     0.122 C 
BRANCH  20  21
HETATM   21  C9  UNL     1       3.047   0.554  -0.563  1.00  0.00     0.030 C 
BRANCH  21  22
HETATM   22  C10 UNL     1       2.845   1.625   0.471  1.00  0.00     0.114 C 
BRANCH  22  23
HETATM   23  C11 UNL     1       3.935   1.582   1.473  1.00  0.00     0.172 C 
HETATM   24  O1  UNL     1       4.840   0.720   1.357  1.00  0.00    -0.648 OA
HETATM   25  O2  UNL     1       3.992   2.463   2.538  1.00  0.00    -0.648 OA
ENDBRANCH  22  23
ENDBRANCH  21  22
ENDBRANCH  20  21
ENDBRANCH  18  20
ENDBRANCH   7  18
BRANCH   1  26
HETATM   26  N2  UNL     1       0.995  -4.175  -0.912  1.00  0.00    -0.137 N 
ATOM     27  H2  UNL     1       1.936  -4.055  -1.287  1.00  0.00     0.205 HD
BRANCH  26  28
HETATM   28  N1  UNL     1       0.539  -5.441  -0.648  1.00  0.00    -0.331 N 
ATOM     29  H12 UNL     1      -0.404  -5.543  -0.273  1.00  0.00     0.177 HD
ATOM     30  H11 UNL     1       1.115  -6.266  -0.816  1.00  0.00     0.177 HD
ENDBRANCH  26  28
ENDBRANCH   1  26
TORSDOF 8
