REMARK  8 active torsions:
REMARK  status: ('A' for Active; 'I' for Inactive)
REMARK    1  A    between atoms: C2_2  and  C3_3 
REMARK    2  A    between atoms: C3_3  and  O1_4 
REMARK    3  A    between atoms: C3_3  and  C6_8 
REMARK    4  A    between atoms: O1_4  and  C4_5 
REMARK    5  A    between atoms: C8_11  and  C9_12 
REMARK    6  A    between atoms: C9_12  and  C10_13 
REMARK    7  A    between atoms: C20_23  and  O4_24 
REMARK    8  A    between atoms: C21_26  and  O5_27 
ROOT
HETATM    1  C6  UNL     1       2.331   0.809  -0.688  1.00  0.00     0.116 C 
HETATM    2  C7  UNL     1       0.932   0.285  -0.536  1.00  0.00     0.140 C 
HETATM    3  O3  UNL     1       0.750  -0.873  -0.821  1.00  0.00    -0.297 OA
HETATM    4  C8  UNL     1      -0.202   1.088  -0.071  1.00  0.00     0.059 C 
HETATM    5  C19 UNL     1       0.112   2.538  -0.557  1.00  0.00     0.046 C 
HETATM    6  C20 UNL     1       1.362   3.011   0.101  1.00  0.00     0.148 C 
HETATM    7  C21 UNL     1       2.565   2.200  -0.323  1.00  0.00     0.160 C 
ENDROOT
BRANCH   4   8
HETATM    8  C9  UNL     1      -1.530   0.784  -0.589  1.00  0.00     0.022 C 
BRANCH   8   9
HETATM    9  C10 UNL     1      -2.204  -0.498  -0.401  1.00  0.00     0.022 C 
HETATM   10  C11 UNL     1      -3.532  -0.426  -1.149  1.00  0.00    -0.083 C 
HETATM   11  C12 UNL     1      -3.414   0.074  -2.581  1.00  0.00     0.043 C 
HETATM   12  C13 UNL     1      -4.676  -0.755  -0.628  1.00  0.00    -0.024 C 
HETATM   13  C14 UNL     1      -4.889  -1.247   0.758  1.00  0.00     0.028 C 
HETATM   14  C15 UNL     1      -3.802  -0.542   1.553  1.00  0.00     0.013 C 
HETATM   15  C16 UNL     1      -2.474  -1.041   0.933  1.00  0.00    -0.040 C 
HETATM   16  C17 UNL     1      -1.476  -0.875   2.021  1.00  0.00     0.015 C 
HETATM   17  C18 UNL     1      -2.713  -2.571   0.842  1.00  0.00     0.015 C 
ENDBRANCH   8   9
ENDBRANCH   4   8
BRANCH   1  18
HETATM   18  C3  UNL     1       3.354  -0.132  -0.110  1.00  0.00     0.145 C 
BRANCH  18  19
HETATM   19  C2  UNL     1       3.143  -0.427   1.344  1.00  0.00     0.029 C 
HETATM   20  C1  UNL     1       3.379   0.654   2.319  1.00  0.00     0.007 C 
ENDBRANCH  18  19
BRANCH  18  21
HETATM   21  O1  UNL     1       3.097  -1.360  -0.866  1.00  0.00    -0.315 OA
BRANCH  21  22
HETATM   22  C4  UNL     1       4.038  -1.877  -1.732  1.00  0.00     0.255 C 
HETATM   23  C5  UNL     1       3.762  -3.142  -2.506  1.00  0.00     0.126 C 
HETATM   24  O2  UNL     1       5.122  -1.269  -1.857  1.00  0.00    -0.266 OA
ENDBRANCH  21  22
ENDBRANCH  18  21
ENDBRANCH   1  18
BRANCH   6  25
HETATM   25  O4  UNL     1       1.593   4.328  -0.290  1.00  0.00    -0.393 OA
ATOM     26  H4  UNL     1       2.390   4.630   0.130  1.00  0.00     0.210 HD
ENDBRANCH   6  25
BRANCH   7  27
HETATM   27  O5  UNL     1       3.067   2.856  -1.499  1.00  0.00    -0.392 OA
ATOM     28  H5  UNL     1       3.220   3.763  -1.261  1.00  0.00     0.210 HD
ENDBRANCH   7  27
TORSDOF 8
