REMARK  3 active torsions:
REMARK  status: ('A' for Active; 'I' for Inactive)
REMARK    1  A    between atoms: O1_2  and  C2_3 
REMARK       I    between atoms: C2_3  and  N1_5 
REMARK    2  A    between atoms: N1_5  and  C3_7 
REMARK    3  A    between atoms: C6_19  and  O6_20 
ROOT
HETATM    1  C3  UNL     1       0.646  -0.709  -0.675  1.00  0.00     0.239 C 
HETATM    2  N2  UNL     1       0.278  -1.381  -1.914  1.00  0.00    -0.272 N 
ATOM      3  H2  UNL     1       0.529  -1.184  -2.883  1.00  0.00     0.176 HD
HETATM    4  S1  UNL     1      -0.728  -2.632  -1.220  1.00  0.00     0.360 S 
HETATM    5  O3  UNL     1      -1.921  -2.934  -2.025  1.00  0.00    -0.176 OA
HETATM    6  O4  UNL     1       0.059  -3.880  -0.992  1.00  0.00    -0.176 OA
HETATM    7  O5  UNL     1      -1.066  -1.848   0.241  1.00  0.00    -0.240 OA
HETATM    8  C4  UNL     1      -0.642  -0.499   0.028  1.00  0.00     0.168 C 
HETATM    9  C5  UNL     1      -0.500   0.044   1.425  1.00  0.00     0.209 C 
HETATM   10  S2  UNL     1      -0.388   1.817   1.536  1.00  0.00    -0.069 SA
HETATM   11  N3  UNL     1      -1.732  -0.322   2.113  1.00  0.00    -0.126 NA
HETATM   12  N4  UNL     1      -2.753   0.417   1.500  1.00  0.00    -0.114 NA
HETATM   13  C6  UNL     1      -3.008  -0.053   0.146  1.00  0.00     0.247 C 
HETATM   14  C7  UNL     1      -1.753   0.128  -0.725  1.00  0.00     0.181 C 
HETATM   15  C8  UNL     1      -1.578   1.496  -1.122  1.00  0.00     0.071 C 
HETATM   16  N5  UNL     1      -1.460   2.585  -1.445  1.00  0.00    -0.197 NA
ENDROOT
BRANCH  13  17
HETATM   17  O6  UNL     1      -4.095   0.590  -0.366  1.00  0.00    -0.377 OA
ATOM     18  H6  UNL     1      -4.261   0.283  -1.250  1.00  0.00     0.211 HD
ENDBRANCH  13  17
BRANCH   1  19
HETATM   19  N1  UNL     1       1.525   0.376  -0.830  1.00  0.00    -0.312 N 
HETATM   20  C2  UNL     1       2.824   0.363  -0.275  1.00  0.00     0.361 C 
HETATM   21  O2  UNL     1       3.270  -0.627   0.394  1.00  0.00    -0.238 OA
ATOM     22  H1  UNL     1       1.217   1.194  -1.357  1.00  0.00     0.167 HD
BRANCH  20  23
HETATM   23  O1  UNL     1       3.725   1.423  -0.409  1.00  0.00    -0.309 OA
HETATM   24  C1  UNL     1       5.026   1.369   0.167  1.00  0.00     0.215 C 
ENDBRANCH  20  23
ENDBRANCH   1  19
TORSDOF 3
