REMARK  2 active torsions:
REMARK  status: ('A' for Active; 'I' for Inactive)
REMARK    1  A    between atoms: C12_14  and  C13_15 
REMARK    2  A    between atoms: C12_14  and  C14_18 
REMARK       I    between atoms: C14_18  and  N3_20 
ROOT
HETATM    1  N1  UNL     1      -2.569  -3.548  -2.653  1.00  0.00    -0.197 NA
HETATM    2  C1  UNL     1      -2.465  -2.703  -1.852  1.00  0.00     0.064 C 
HETATM    3  C2  UNL     1      -2.324  -1.620  -0.858  1.00  0.00     0.099 C 
HETATM    4  C3  UNL     1      -1.681  -2.240   0.326  1.00  0.00     0.053 C 
HETATM    5  C4  UNL     1      -1.158  -1.272   1.351  1.00  0.00    -0.077 C 
HETATM    6  C5  UNL     1      -2.158  -0.367   1.929  1.00  0.00    -0.001 C 
HETATM    7  C6  UNL     1      -2.719   0.752   1.186  1.00  0.00    -0.019 C 
HETATM    8  C7  UNL     1      -2.025   1.359   0.067  1.00  0.00     0.046 C 
HETATM    9  C8  UNL     1      -2.992   1.751  -1.079  1.00  0.00     0.038 C 
HETATM   10  C9  UNL     1      -1.936   2.065  -2.135  1.00  0.00     0.169 C 
HETATM   11  O1  UNL     1      -0.721   1.589  -1.669  1.00  0.00    -0.378 OA
HETATM   12  C10 UNL     1      -1.033   0.584  -0.698  1.00  0.00     0.094 C 
HETATM   13  C11 UNL     1      -1.556  -0.533  -1.508  1.00  0.00     0.060 C 
HETATM   14  C12 UNL     1       0.276   0.361   0.007  1.00  0.00     0.154 C 
HETATM   15  C19 UNL     1       0.196  -0.734   1.028  1.00  0.00     0.066 C 
ENDROOT
BRANCH  14  16
HETATM   16  C13 UNL     1       0.605   1.627   0.722  1.00  0.00     0.252 C 
HETATM   17  N2  UNL     1       0.195   1.979   2.019  1.00  0.00    -0.061 NA
HETATM   18  O2  UNL     1       1.332   2.494   0.105  1.00  0.00    -0.275 OA
ENDBRANCH  14  16
BRANCH  14  19
HETATM   19  C14 UNL     1       1.408   0.180  -0.937  1.00  0.00     0.240 C 
HETATM   20  O3  UNL     1       1.295   0.250  -2.185  1.00  0.00    -0.272 OA
HETATM   21  N3  UNL     1       2.714  -0.089  -0.436  1.00  0.00    -0.351 N 
HETATM   22  C15 UNL     1       3.137  -0.230   0.942  1.00  0.00     0.126 C 
HETATM   23  C18 UNL     1       3.916  -0.264  -1.290  1.00  0.00     0.126 C 
HETATM   24  C16 UNL     1       4.655  -0.265   0.896  1.00  0.00     0.021 C 
HETATM   25  C17 UNL     1       4.827  -1.064  -0.399  1.00  0.00     0.021 C 
ENDBRANCH  14  19
TORSDOF 2
