REMARK  3 active torsions:
REMARK  status: ('A' for Active; 'I' for Inactive)
REMARK    1  A    between atoms: N1_6  and  C4_7 
REMARK    2  A    between atoms: C4_7  and  C5_8 
REMARK       I    between atoms: N2_12  and  C8_13 
REMARK       I    between atoms: C8_13  and  N3_15 
REMARK    3  A    between atoms: N3_15  and  C9_17 
ROOT
HETATM    1  C5  UNL     1       2.337  -1.353  -1.764  1.00  0.00     0.245 C 
HETATM    2  O3  UNL     1       2.685  -2.476  -2.553  1.00  0.00    -0.363 OA
HETATM    3  C6  UNL     1       3.008  -3.484  -1.674  1.00  0.00     0.190 C 
HETATM    4  C7  UNL     1       2.243  -3.179  -0.383  1.00  0.00     0.156 C 
HETATM    5  N2  UNL     1       1.550  -1.981  -0.747  1.00  0.00    -0.304 N 
HETATM    6  C8  UNL     1       0.342  -1.493  -0.230  1.00  0.00     0.321 C 
HETATM    7  O4  UNL     1      -0.252  -2.144   0.664  1.00  0.00    -0.247 OA
HETATM    8  N3  UNL     1      -0.265  -0.288  -0.660  1.00  0.00    -0.334 N 
ATOM      9  H3  UNL     1       0.204   0.253  -1.387  1.00  0.00     0.165 HD
ENDROOT
BRANCH   8  10
HETATM   10  C9  UNL     1      -1.493   0.214  -0.137  1.00  0.00     0.035 C 
HETATM   11  C10 UNL     1      -1.453   0.501   1.333  1.00  0.00     0.035 C 
HETATM   12  C11 UNL     1      -2.722   1.204   1.767  1.00  0.00    -0.012 C 
HETATM   13  C12 UNL     1      -2.967   2.471   1.016  1.00  0.00     0.009 C 
HETATM   14  C16 UNL     1      -3.861   0.220   1.534  1.00  0.00     0.009 C 
HETATM   15  C13 UNL     1      -3.126   2.116  -0.465  1.00  0.00    -0.012 C 
HETATM   16  C14 UNL     1      -4.280   1.171  -0.666  1.00  0.00     0.009 C 
HETATM   17  C18 UNL     1      -1.831   1.501  -0.900  1.00  0.00     0.035 C 
HETATM   18  C15 UNL     1      -3.927  -0.106   0.073  1.00  0.00    -0.012 C 
HETATM   19  C17 UNL     1      -2.655  -0.718  -0.431  1.00  0.00     0.035 C 
ENDBRANCH   8  10
BRANCH   1  20
HETATM   20  C4  UNL     1       3.646  -0.796  -1.258  1.00  0.00     0.182 C 
BRANCH  20  21
HETATM   21  N1  UNL     1       3.513   0.354  -0.433  1.00  0.00    -0.322 N 
HETATM   22  C1  UNL     1       3.499   1.722  -0.812  1.00  0.00     0.362 C 
HETATM   23  O1  UNL     1       3.517   2.146  -1.989  1.00  0.00    -0.238 OA
HETATM   24  O2  UNL     1       3.462   2.523   0.345  1.00  0.00    -0.302 OA
HETATM   25  C2  UNL     1       3.981   1.695   1.369  1.00  0.00     0.200 C 
HETATM   26  C3  UNL     1       3.360   0.349   1.008  1.00  0.00     0.155 C 
ENDBRANCH  20  21
ENDBRANCH   1  20
TORSDOF 3
