REMARK  7 active torsions:
REMARK  status: ('A' for Active; 'I' for Inactive)
REMARK    1  A    between atoms: C8_8  and  C9_9 
REMARK    2  A    between atoms: C9_9  and  O1_10 
REMARK    3  A    between atoms: O1_10  and  C10_11 
REMARK    4  A    between atoms: C10_11  and  C11_13 
REMARK    5  A    between atoms: C11_13  and  C12_14 
REMARK    6  A    between atoms: C23_25  and  O3_26 
REMARK    7  A    between atoms: C24_29  and  O5_30 
ROOT
HETATM    1  C1  UNL     1      -5.431  -1.856   1.569  1.00  0.00     0.020 C 
HETATM    2  C2  UNL     1      -5.160  -0.843   0.448  1.00  0.00    -0.014 C 
HETATM    3  C3  UNL     1      -6.465  -0.793  -0.359  1.00  0.00     0.020 C 
HETATM    4  C4  UNL     1      -4.098  -1.385  -0.423  1.00  0.00     0.023 C 
HETATM    5  C5  UNL     1      -2.939  -0.446  -0.681  1.00  0.00    -0.037 C 
HETATM    6  C6  UNL     1      -1.891  -1.281  -1.387  1.00  0.00     0.015 C 
HETATM    7  C7  UNL     1      -3.332   0.648  -1.664  1.00  0.00     0.015 C 
HETATM    8  C8  UNL     1      -2.488   0.117   0.632  1.00  0.00     0.056 C 
HETATM    9  C22 UNL     1      -3.573   0.987   1.143  1.00  0.00     0.019 A 
HETATM   10  C23 UNL     1      -3.651   2.235   1.730  1.00  0.00     0.193 A 
HETATM   11  O4  UNL     1      -4.908   2.460   1.958  1.00  0.00    -0.264 OA
HETATM   12  C24 UNL     1      -5.672   1.452   1.564  1.00  0.00     0.193 A 
HETATM   13  C25 UNL     1      -4.853   0.480   1.033  1.00  0.00     0.020 A 
ENDROOT
BRANCH   8  14
HETATM   14  C9  UNL     1      -1.150   0.763   0.616  1.00  0.00     0.189 C 
BRANCH  14  15
HETATM   15  O1  UNL     1      -0.150  -0.160   0.234  1.00  0.00    -0.321 OA
BRANCH  15  16
HETATM   16  C10 UNL     1       1.199   0.211   0.144  1.00  0.00     0.259 C 
HETATM   17  O2  UNL     1       1.417   1.413   0.429  1.00  0.00    -0.265 OA
BRANCH  16  18
HETATM   18  C11 UNL     1       2.225  -0.759  -0.254  1.00  0.00     0.120 C 
BRANCH  18  19
HETATM   19  C12 UNL     1       3.631  -0.295  -0.274  1.00  0.00    -0.031 C 
HETATM   20  C13 UNL     1       4.129   0.165   1.048  1.00  0.00     0.014 C 
HETATM   21  C14 UNL     1       5.605   0.517   1.018  1.00  0.00    -0.013 C 
HETATM   22  C15 UNL     1       6.383  -0.687   0.603  1.00  0.00     0.009 C 
HETATM   23  C19 UNL     1       5.794   1.646   0.033  1.00  0.00     0.009 C 
HETATM   24  C16 UNL     1       5.923  -1.118  -0.773  1.00  0.00    -0.013 C 
HETATM   25  C17 UNL     1       6.134  -0.030  -1.781  1.00  0.00     0.009 C 
HETATM   26  C21 UNL     1       4.481  -1.501  -0.683  1.00  0.00     0.014 C 
HETATM   27  C18 UNL     1       5.332   1.165  -1.309  1.00  0.00    -0.013 C 
HETATM   28  C20 UNL     1       3.872   0.785  -1.304  1.00  0.00     0.014 C 
ENDBRANCH  18  19
ENDBRANCH  16  18
ENDBRANCH  15  16
ENDBRANCH  14  15
ENDBRANCH   8  14
BRANCH  10  29
HETATM   29  O3  UNL     1      -2.538   3.024   1.987  1.00  0.00    -0.340 OA
ATOM     30  H3  UNL     1      -2.592   3.882   2.391  1.00  0.00     0.220 HD
ENDBRANCH  10  29
BRANCH  12  31
HETATM   31  O5  UNL     1      -7.059   1.389   1.671  1.00  0.00    -0.340 OA
ATOM     32  H5  UNL     1      -7.607   0.666   1.388  1.00  0.00     0.220 HD
ENDBRANCH  12  31
TORSDOF 7
