REMARK  2 active torsions:
REMARK  status: ('A' for Active; 'I' for Inactive)
REMARK    1  A    between atoms: C2_5  and  N3_6 
REMARK    2  A    between atoms: C4_15  and  C5_16 
ROOT
HETATM    1  C1  UNL     1      -0.232  -1.388   1.678  1.00  0.00     0.179 C 
HETATM    2  N1  UNL     1      -0.903  -0.523   0.754  1.00  0.00    -0.277 N 
HETATM    3  N2  UNL     1      -2.235  -0.486   0.812  1.00  0.00    -0.130 N 
ATOM      4  H2  UNL     1      -2.715  -1.050   1.514  1.00  0.00     0.206 HD
HETATM    5  C2  UNL     1      -2.952   0.257  -0.009  1.00  0.00     0.692 A 
HETATM    6  N4  UNL     1      -2.305   0.988  -0.918  1.00  0.00    -0.174 N 
ATOM      7  H4  UNL     1      -2.844   1.568  -1.561  1.00  0.00     0.186 HD
HETATM    8  C3  UNL     1      -0.942   0.982  -1.013  1.00  0.00     0.145 A 
HETATM    9  N5  UNL     1      -0.374   1.740  -1.880  1.00  0.00    -0.383 N 
ATOM     10  H51 UNL     1       0.644   1.736  -1.951  1.00  0.00     0.157 HD
ATOM     11  H52 UNL     1      -0.930   2.315  -2.513  1.00  0.00     0.157 HD
HETATM   12  C4  UNL     1      -0.195   0.210  -0.162  1.00  0.00     0.123 A 
ENDROOT
BRANCH  12  13
HETATM   13  C5  UNL     1       1.243   0.130  -0.276  1.00  0.00     0.080 A 
HETATM   14  C6  UNL     1       2.008   0.382  -1.378  1.00  0.00     0.119 A 
HETATM   15  N6  UNL     1       3.361   0.203  -1.299  1.00  0.00    -0.372 N 
HETATM   16  C7  UNL     1       3.993  -0.211  -0.200  1.00  0.00     0.104 A 
ATOM     17  H6  UNL     1       3.920   0.398  -2.130  1.00  0.00     0.164 HD
HETATM   18  C8  UNL     1       3.222  -0.469   0.918  1.00  0.00     0.105 A 
HETATM   19  N7  UNL     1       1.920  -0.294   0.838  1.00  0.00    -0.362 N 
ATOM     20  H7  UNL     1       1.369  -0.490   1.674  1.00  0.00     0.165 HD
ENDBRANCH  12  13
BRANCH   5  21
HETATM   21  N3  UNL     1      -4.266   0.293   0.047  1.00  0.00    -0.233 N 
ATOM     22  H32 UNL     1      -4.761  -0.266   0.742  1.00  0.00     0.174 HD
ATOM     23  H31 UNL     1      -4.820   0.868  -0.588  1.00  0.00     0.174 HD
ENDBRANCH   5  21
TORSDOF 2
