REMARK  8 active torsions:
REMARK  status: ('A' for Active; 'I' for Inactive)
REMARK    1  A    between atoms: C3_6  and  C4_7 
REMARK    2  A    between atoms: C4_7  and  O2_8 
REMARK    3  A    between atoms: O2_8  and  C5_9 
REMARK       I    between atoms: C5_9  and  N2_11 
REMARK    4  A    between atoms: N2_11  and  C6_13 
REMARK    5  A    between atoms: C6_13  and  C7_14 
REMARK    6  A    between atoms: C6_13  and  C13_22 
REMARK    7  A    between atoms: C7_14  and  O5_16 
REMARK    8  A    between atoms: O5_16  and  C8_17 
ROOT
HETATM    1  C5  UNL     1       1.428  -1.149  -0.013  1.00  0.00     0.361 C 
HETATM    2  O3  UNL     1       1.756  -1.479  -1.169  1.00  0.00    -0.238 OA
HETATM    3  N2  UNL     1       0.080  -0.969   0.349  1.00  0.00    -0.315 N 
ATOM      4  H2  UNL     1      -0.144  -0.686   1.303  1.00  0.00     0.166 HD
ENDROOT
BRANCH   3   5
HETATM    5  C6  UNL     1      -0.982  -1.172  -0.584  1.00  0.00     0.294 C 
BRANCH   5   6
HETATM    6  C7  UNL     1      -2.175  -0.336  -0.376  1.00  0.00     0.291 C 
HETATM    7  O4  UNL     1      -2.521   0.635  -1.068  1.00  0.00    -0.263 OA
BRANCH   6   8
HETATM    8  O5  UNL     1      -3.053  -0.623   0.705  1.00  0.00    -0.314 OA
BRANCH   8   9
HETATM    9  C8  UNL     1      -4.182   0.139   0.923  1.00  0.00     0.132 C 
HETATM   10  C9  UNL     1      -5.136  -0.222  -0.254  1.00  0.00     0.032 C 
HETATM   11  C10 UNL     1      -5.620   1.053  -0.821  1.00  0.00     0.002 C 
HETATM   12  C11 UNL     1      -4.977   2.185  -0.092  1.00  0.00     0.002 C 
HETATM   13  C12 UNL     1      -4.224   1.579   1.097  1.00  0.00     0.032 C 
ENDBRANCH   8   9
ENDBRANCH   6   8
ENDBRANCH   5   6
BRANCH   5  14
HETATM   14  C13 UNL     1      -1.379  -2.656  -0.657  1.00  0.00     0.416 C 
HETATM   15  F1  UNL     1      -2.379  -2.811  -1.566  1.00  0.00    -0.168 F 
HETATM   16  F2  UNL     1      -0.279  -3.341  -1.210  1.00  0.00    -0.168 F 
HETATM   17  F3  UNL     1      -1.660  -3.212   0.542  1.00  0.00    -0.168 F 
ENDBRANCH   5  14
ENDBRANCH   3   5
BRANCH   1  18
HETATM   18  O2  UNL     1       2.464  -0.992   0.915  1.00  0.00    -0.301 OA
BRANCH  18  19
HETATM   19  C4  UNL     1       3.774  -1.316   0.564  1.00  0.00     0.215 C 
BRANCH  19  20
HETATM   20  C3  UNL     1       4.400  -0.719  -0.624  1.00  0.00     0.181 C 
HETATM   21  O1  UNL     1       5.754  -1.217  -0.634  1.00  0.00    -0.273 OA
HETATM   22  N1  UNL     1       6.626  -0.290  -0.208  1.00  0.00    -0.275 N 
HETATM   23  C2  UNL     1       6.018   0.861  -0.172  1.00  0.00     0.009 C 
ATOM     24  H1  UNL     1       7.600  -0.458   0.045  1.00  0.00     0.193 HD
HETATM   25  C1  UNL     1       6.732   2.075   0.257  1.00  0.00     0.065 C 
HETATM   26  C14 UNL     1       4.606   0.738  -0.622  1.00  0.00     0.090 C 
ENDBRANCH  19  20
ENDBRANCH  18  19
ENDBRANCH   1  18
TORSDOF 8
