REMARK  7 active torsions:
REMARK  status: ('A' for Active; 'I' for Inactive)
REMARK    1  A    between atoms: C1_4  and  N2_5 
REMARK    2  A    between atoms: C1_4  and  S1_10 
REMARK    3  A    between atoms: N2_5  and  N3_7 
REMARK    4  A    between atoms: S1_10  and  C2_11 
REMARK    5  A    between atoms: C2_11  and  C3_12 
REMARK    6  A    between atoms: C3_12  and  N4_13 
REMARK    7  A    between atoms: C6_23  and  N8_24 
ROOT
HETATM    1  N4  UNL     1      -0.329   0.125   0.521  1.00  0.00    -0.259 N 
HETATM    2  N5  UNL     1       0.127  -1.050   0.877  1.00  0.00    -0.238 N 
ATOM      3  H5  UNL     1       1.098  -1.241   1.123  1.00  0.00     0.208 HD
HETATM    4  N6  UNL     1      -0.840  -1.961   0.876  1.00  0.00    -0.278 N 
ATOM      5  H6  UNL     1      -0.734  -2.947   1.117  1.00  0.00     0.189 HD
HETATM    6  C4  UNL     1      -1.981  -1.359   0.503  1.00  0.00     0.164 A 
HETATM    7  C5  UNL     1      -3.270  -1.820   0.334  1.00  0.00     0.291 A 
HETATM    8  O1  UNL     1      -3.624  -3.007   0.522  1.00  0.00    -0.265 OA
HETATM    9  N7  UNL     1      -4.177  -0.915  -0.057  1.00  0.00    -0.154 N 
ATOM     10  H7  UNL     1      -5.142  -1.215  -0.193  1.00  0.00     0.187 HD
HETATM   11  C6  UNL     1      -3.864   0.371  -0.276  1.00  0.00     0.680 A 
HETATM   12  N9  UNL     1      -2.597   0.831  -0.111  1.00  0.00    -0.173 N 
ATOM     13  H9  UNL     1      -2.374   1.812  -0.280  1.00  0.00     0.186 HD
HETATM   14  C7  UNL     1      -1.642  -0.032   0.280  1.00  0.00     0.172 A 
ENDROOT
BRANCH   1  15
HETATM   15  C3  UNL     1       0.425   1.386   0.402  1.00  0.00     0.163 C 
BRANCH  15  16
HETATM   16  C2  UNL     1       0.921   1.428  -1.015  1.00  0.00     0.104 C 
BRANCH  16  17
HETATM   17  S1  UNL     1       1.988   0.016  -1.348  1.00  0.00    -0.091 SA
BRANCH  17  18
HETATM   18  C1  UNL     1       3.517   0.172  -0.478  1.00  0.00     0.152 C 
HETATM   19  N1  UNL     1       3.838   1.238   0.138  1.00  0.00    -0.379 N 
ATOM     20  H12 UNL     1       4.721   1.328   0.640  1.00  0.00     0.158 HD
ATOM     21  H11 UNL     1       3.188   2.024   0.145  1.00  0.00     0.158 HD
BRANCH  18  22
HETATM   22  N2  UNL     1       4.422  -0.923  -0.488  1.00  0.00    -0.287 N 
ATOM     23  H2  UNL     1       5.035  -1.055  -1.292  1.00  0.00     0.188 HD
BRANCH  22  24
HETATM   24  N3  UNL     1       4.491  -1.815   0.567  1.00  0.00    -0.343 N 
ATOM     25  H32 UNL     1       3.871  -1.669   1.363  1.00  0.00     0.176 HD
ATOM     26  H31 UNL     1       5.141  -2.601   0.560  1.00  0.00     0.176 HD
ENDBRANCH  22  24
ENDBRANCH  18  22
ENDBRANCH  17  18
ENDBRANCH  16  17
ENDBRANCH  15  16
ENDBRANCH   1  15
BRANCH  11  27
HETATM   27  N8  UNL     1      -4.744   1.248  -0.654  1.00  0.00    -0.234 N 
ATOM     28  H82 UNL     1      -5.696   0.902  -0.778  1.00  0.00     0.174 HD
ATOM     29  H81 UNL     1      -4.506   2.226  -0.821  1.00  0.00     0.174 HD
ENDBRANCH  11  27
TORSDOF 7
