REMARK  11 active torsions:
REMARK  status: ('A' for Active; 'I' for Inactive)
REMARK    1  A    between atoms: C2_2  and  C3_3 
REMARK    2  A    between atoms: C3_3  and  C4_4 
REMARK    3  A    between atoms: C7_7  and  S1_8 
REMARK    4  A    between atoms: S1_8  and  C8_9 
REMARK    5  A    between atoms: C8_9  and  N2_18 
REMARK    6  A    between atoms: N1_10  and  C9_12 
REMARK    7  A    between atoms: N2_18  and  C15_20 
REMARK    8  A    between atoms: C15_20  and  C16_21 
REMARK    9  A    between atoms: N3_29  and  C21_30 
REMARK   10  A    between atoms: C21_30  and  N4_32 
REMARK   11  A    between atoms: N4_32  and  C22_34 
ROOT
HETATM    1  C4  UNL     1       0.385  -1.889   1.457  1.00  0.00     0.036 C 
HETATM    2  C5  UNL     1       0.727  -3.305   0.990  1.00  0.00     0.039 C 
HETATM    3  C6  UNL     1      -1.029  -1.624   0.883  1.00  0.00     0.046 C 
HETATM    4  C7  UNL     1      -0.960  -2.081  -0.513  1.00  0.00     0.060 C 
HETATM    5  C17 UNL     1       0.190  -1.518  -1.233  1.00  0.00     0.046 C 
HETATM    6  C18 UNL     1       1.287  -0.810  -0.525  1.00  0.00     0.029 C 
HETATM    7  C19 UNL     1       2.586  -1.247  -1.129  1.00  0.00     0.038 C 
HETATM    8  C20 UNL     1       1.064   0.663  -0.942  1.00  0.00     0.038 C 
HETATM    9  N3  UNL     1       1.271  -0.880   0.955  1.00  0.00    -0.340 N 
ENDROOT
BRANCH   4  10
HETATM   10  S1  UNL     1      -2.477  -1.883  -1.490  1.00  0.00    -0.089 SA
BRANCH  10  11
HETATM   11  C8  UNL     1      -2.849  -0.116  -1.646  1.00  0.00     0.141 C 
HETATM   12  N1  UNL     1      -2.701   0.602  -0.671  1.00  0.00    -0.337 N 
ATOM     13  H1  UNL     1      -2.383   0.051   0.127  1.00  0.00     0.168 HD
BRANCH  12  14
HETATM   14  C9  UNL     1      -2.831   1.937  -0.310  1.00  0.00     0.034 A 
HETATM   15  C10 UNL     1      -3.335   2.252   0.939  1.00  0.00     0.029 A 
HETATM   16  C11 UNL     1      -3.480   3.551   1.358  1.00  0.00     0.002 A 
HETATM   17  C12 UNL     1      -3.115   4.560   0.516  1.00  0.00     0.000 A 
HETATM   18  C13 UNL     1      -2.602   4.299  -0.746  1.00  0.00     0.002 A 
HETATM   19  C14 UNL     1      -2.479   2.963  -1.116  1.00  0.00     0.029 A 
ENDBRANCH  12  14
BRANCH  11  20
HETATM   20  N2  UNL     1      -3.415   0.274  -2.862  1.00  0.00    -0.362 N 
ATOM     21  H2  UNL     1      -3.510   1.273  -3.043  1.00  0.00     0.161 HD
BRANCH  20  22
HETATM   22  C15 UNL     1      -3.877  -0.645  -3.884  1.00  0.00     0.239 C 
BRANCH  22  23
HETATM   23  C16 UNL     1      -4.416  -0.001  -5.104  1.00  0.00     0.403 C 
HETATM   24  F1  UNL     1      -3.548   0.798  -5.778  1.00  0.00    -0.169 F 
HETATM   25  F2  UNL     1      -5.542   0.743  -4.831  1.00  0.00    -0.169 F 
HETATM   26  F3  UNL     1      -4.819  -1.026  -5.972  1.00  0.00    -0.169 F 
ENDBRANCH  22  23
ENDBRANCH  20  22
ENDBRANCH  11  20
ENDBRANCH  10  11
ENDBRANCH   4  10
BRANCH   1  27
HETATM   27  C3  UNL     1       0.184  -2.102   2.924  1.00  0.00     0.057 C 
BRANCH  27  28
HETATM   28  C2  UNL     1       1.326  -2.691   3.640  1.00  0.00    -0.034 C 
HETATM   29  C1  UNL     1       1.218  -3.800   4.360  1.00  0.00     0.007 C 
ENDBRANCH  27  28
ENDBRANCH   1  27
BRANCH   9  30
HETATM   30  C21 UNL     1       1.885   0.142   1.692  1.00  0.00     0.171 C 
HETATM   31  S2  UNL     1       1.100   0.475   3.220  1.00  0.00    -0.041 SA
BRANCH  30  32
HETATM   32  N4  UNL     1       2.867   1.109   1.546  1.00  0.00    -0.363 N 
ATOM     33  H4  UNL     1       2.898   1.677   2.393  1.00  0.00     0.162 HD
BRANCH  32  34
HETATM   34  C22 UNL     1       3.832   1.584   0.649  1.00  0.00     0.075 C 
HETATM   35  C23 UNL     1       5.120   0.735   0.782  1.00  0.00     0.032 C 
HETATM   36  C24 UNL     1       4.294   2.991   1.092  1.00  0.00     0.032 C 
ENDBRANCH  32  34
ENDBRANCH  30  32
ENDBRANCH   9  30
TORSDOF 11
