REMARK  10 active torsions:
REMARK  status: ('A' for Active; 'I' for Inactive)
REMARK    1  A    between atoms: C2_2  and  C3_3 
REMARK    2  A    between atoms: C4_4  and  N1_5 
REMARK    3  A    between atoms: C4_4  and  C28_35 
REMARK    4  A    between atoms: N2_8  and  C7_9 
REMARK    5  A    between atoms: C7_9  and  C8_10 
REMARK    6  A    between atoms: C8_10  and  C9_11 
REMARK       I    between atoms: N3_14  and  C12_15 
REMARK    7  A    between atoms: C12_15  and  C13_17 
REMARK       I    between atoms: N4_20  and  C16_21 
REMARK    8  A    between atoms: C16_21  and  C17_23 
REMARK    9  A    between atoms: C17_23  and  C18_24 
REMARK   10  A    between atoms: C28_35  and  N5_38 
REMARK       I    between atoms: N5_38  and  C31_40 
REMARK       I    between atoms: C31_40  and  N6_42 
ROOT
HETATM    1  N1  UNL     1      -4.059   0.522   0.237  1.00  0.00    -0.282 NA
HETATM    2  C5  UNL     1      -3.455   1.023  -0.968  1.00  0.00     0.125 C 
HETATM    3  C6  UNL     1      -1.945   1.207  -0.812  1.00  0.00     0.287 C 
HETATM    4  N2  UNL     1      -1.314  -0.063  -0.666  1.00  0.00     0.090 N 
HETATM    5  C26 UNL     1      -2.197  -1.087  -0.202  1.00  0.00     0.287 C 
HETATM    6  C27 UNL     1      -3.208  -0.506   0.744  1.00  0.00     0.125 C 
ENDROOT
BRANCH   4   7
HETATM    7  C7  UNL     1      -0.050  -0.037  -0.029  1.00  0.00     0.273 C 
BRANCH   7   8
HETATM    8  C8  UNL     1       0.921   0.648  -0.948  1.00  0.00     0.035 C 
BRANCH   8   9
HETATM    9  C9  UNL     1       2.290   0.691  -0.304  1.00  0.00    -0.007 C 
HETATM   10  C10 UNL     1       2.846  -0.659  -0.003  1.00  0.00     0.025 C 
HETATM   11  C11 UNL     1       4.102  -0.471   0.873  1.00  0.00     0.129 C 
HETATM   12  N3  UNL     1       5.022   0.267   0.015  1.00  0.00    -0.321 N 
HETATM   13  C12 UNL     1       6.277  -0.252  -0.314  1.00  0.00     0.226 C 
HETATM   14  C24 UNL     1       4.581   1.558  -0.492  1.00  0.00     0.274 C 
HETATM   15  O1  UNL     1       7.035   0.416  -1.085  1.00  0.00    -0.273 OA
HETATM   16  F1  UNL     1       5.481   2.124  -1.345  1.00  0.00    -0.227 F 
HETATM   17  C25 UNL     1       3.264   1.426  -1.216  1.00  0.00     0.064 C 
BRANCH  13  18
HETATM   18  C13 UNL     1       6.750  -1.538   0.200  1.00  0.00     0.081 C 
HETATM   19  C14 UNL     1       7.903  -2.022  -0.670  1.00  0.00     0.034 C 
HETATM   20  C15 UNL     1       9.234  -1.973   0.036  1.00  0.00     0.126 C 
HETATM   21  N4  UNL     1       9.409  -0.754   0.786  1.00  0.00    -0.352 N 
HETATM   22  C16 UNL     1      10.543   0.077   0.655  1.00  0.00     0.220 C 
HETATM   23  C22 UNL     1       8.336  -0.405   1.694  1.00  0.00     0.126 C 
HETATM   24  O2  UNL     1      10.636   1.118   1.351  1.00  0.00    -0.273 OA
HETATM   25  C23 UNL     1       7.256  -1.471   1.628  1.00  0.00     0.034 C 
BRANCH  22  26
HETATM   26  C17 UNL     1      11.656  -0.219  -0.282  1.00  0.00     0.111 C 
BRANCH  26  27
HETATM   27  C18 UNL     1      12.753   0.820  -0.192  1.00  0.00    -0.043 C 
HETATM   28  C19 UNL     1      13.818   0.402  -1.204  1.00  0.00     0.015 C 
HETATM   29  C20 UNL     1      12.175   2.149  -0.566  1.00  0.00     0.015 C 
HETATM   30  C21 UNL     1      13.388   0.833   1.184  1.00  0.00     0.015 C 
ENDBRANCH  26  27
ENDBRANCH  22  26
ENDBRANCH  13  18
ENDBRANCH   8   9
ENDBRANCH   7   8
ENDBRANCH   4   7
BRANCH   1  31
HETATM   31  C4  UNL     1      -5.435   0.048  -0.092  1.00  0.00     0.012 C 
HETATM   32  C3  UNL     1      -5.469  -1.113  -0.884  1.00  0.00    -0.005 C 
BRANCH  32  33
HETATM   33  C2  UNL     1      -6.734  -1.739  -1.354  1.00  0.00     0.024 C 
HETATM   34  C1  UNL     1      -6.237  -2.928  -2.273  1.00  0.00     0.009 C 
ENDBRANCH  32  33
BRANCH  31  35
HETATM   35  C28 UNL     1      -6.257   0.401   1.050  1.00  0.00     0.064 C 
HETATM   36  C29 UNL     1      -5.818   1.813   1.594  1.00  0.00     0.044 C 
HETATM   37  C30 UNL     1      -5.957  -0.484   2.295  1.00  0.00     0.044 C 
BRANCH  35  38
HETATM   38  N5  UNL     1      -7.683   0.520   0.945  1.00  0.00    -0.329 N 
HETATM   39  C31 UNL     1      -8.679  -0.391   1.287  1.00  0.00     0.319 C 
HETATM   40  O3  UNL     1      -8.442  -1.520   1.795  1.00  0.00    -0.247 OA
HETATM   41  N6  UNL     1     -10.050  -0.081   1.071  1.00  0.00    -0.334 N 
HETATM   42  C32 UNL     1     -11.098  -1.006   1.419  1.00  0.00     0.127 C 
HETATM   43  C37 UNL     1     -10.420   1.185   0.489  1.00  0.00     0.131 C 
HETATM   44  C33 UNL     1     -12.037  -1.182   0.240  1.00  0.00     0.020 C 
HETATM   45  C34 UNL     1     -12.561   0.141  -0.274  1.00  0.00     0.007 C 
HETATM   46  C35 UNL     1     -11.928   1.329   0.417  1.00  0.00    -0.000 C 
HETATM   47  C36 UNL     1     -12.231   2.566  -0.401  1.00  0.00     0.011 C 
ATOM     48  H5  UNL     1      -8.017   1.405   0.562  1.00  0.00     0.165 HD
ENDBRANCH  35  38
ENDBRANCH  31  35
ENDBRANCH   1  31
TORSDOF 10
