REMARK  6 active torsions:
REMARK  status: ('A' for Active; 'I' for Inactive)
REMARK    1  A    between atoms: S1_2  and  C2_3 
REMARK    2  A    between atoms: S1_2  and  N1_12 
REMARK    3  A    between atoms: C2_3  and  C3_4 
REMARK    4  A    between atoms: C3_4  and  O1_5 
REMARK    5  A    between atoms: C3_4  and  C4_7 
REMARK    6  A    between atoms: C4_7  and  C5_8 
ROOT
HETATM    1  C2  UNL     1      -0.384  -0.741   0.061  1.00  0.00     0.116 C 
ENDROOT
BRANCH   1   2
HETATM    2  S1  UNL     1       1.233  -0.968   0.856  1.00  0.00    -0.132 SA
HETATM    3  C1  UNL     1       1.686  -2.651   0.518  1.00  0.00     0.101 C 
BRANCH   2   4
HETATM    4  N1  UNL     1       2.301   0.154   0.170  1.00  0.00    -0.361 N 
HETATM    5  C9  UNL     1       2.862  -0.225  -1.085  1.00  0.00     0.156 C 
HETATM    6  C10 UNL     1       4.330  -0.585  -0.990  1.00  0.00     0.188 C 
HETATM    7  O2  UNL     1       5.072   0.332  -0.287  1.00  0.00    -0.388 OA
HETATM    8  C11 UNL     1       4.352   1.363   0.262  1.00  0.00     0.188 C 
HETATM    9  C12 UNL     1       3.201   0.778   1.080  1.00  0.00     0.156 C 
ENDBRANCH   2   4
ENDBRANCH   1   2
BRANCH   1  10
HETATM   10  C3  UNL     1      -0.756   0.684   0.356  1.00  0.00     0.129 C 
BRANCH  10  11
HETATM   11  O1  UNL     1       0.267   1.493  -0.189  1.00  0.00    -0.395 OA
ATOM     12  H1  UNL     1       0.032   2.394  -0.002  1.00  0.00     0.210 HD
ENDBRANCH  10  11
BRANCH  10  13
HETATM   13  C4  UNL     1      -2.060   1.052  -0.241  1.00  0.00     0.040 C 
BRANCH  13  14
HETATM   14  C5  UNL     1      -3.277   0.320   0.152  1.00  0.00    -0.049 C 
HETATM   15  C6  UNL     1      -3.571   0.370   1.641  1.00  0.00     0.014 C 
HETATM   16  C7  UNL     1      -4.447   1.144  -0.503  1.00  0.00     0.014 C 
HETATM   17  C8  UNL     1      -3.433  -1.052  -0.375  1.00  0.00     0.014 C 
ENDBRANCH  13  14
ENDBRANCH  10  13
ENDBRANCH   1  10
TORSDOF 6
