REMARK  2 active torsions:
REMARK  status: ('A' for Active; 'I' for Inactive)
REMARK    1  A    between atoms: O1_2  and  C2_3 
REMARK    2  A    between atoms: C13_20  and  O6_21 
ROOT
HETATM    1  C2  UNL     1       3.105  -0.297   0.549  1.00  0.00     0.182 C 
HETATM    2  C3  UNL     1       2.556   0.401  -0.672  1.00  0.00     0.044 C 
HETATM    3  C4  UNL     1       3.258   1.725  -0.841  1.00  0.00     0.020 C 
HETATM    4  C5  UNL     1       2.801   2.766   0.150  1.00  0.00     0.171 C 
HETATM    5  S1  UNL     1       1.430   3.713  -0.504  1.00  0.00     0.272 S 
HETATM    6  O2  UNL     1       1.959   4.993  -1.126  1.00  0.00    -0.198 OA
HETATM    7  O3  UNL     1       0.750   2.931  -1.582  1.00  0.00    -0.198 OA
HETATM    8  O4  UNL     1       0.406   4.064   0.799  1.00  0.00    -0.196 OA
HETATM    9  C6  UNL     1      -0.619   3.250   1.233  1.00  0.00     0.273 C 
HETATM   10  O5  UNL     1      -0.830   3.060   2.458  1.00  0.00    -0.264 OA
HETATM   11  C7  UNL     1      -1.500   2.578   0.246  1.00  0.00     0.112 C 
HETATM   12  C8  UNL     1      -2.731   2.036   0.940  1.00  0.00     0.010 C 
HETATM   13  C9  UNL     1      -3.636   1.296  -0.000  1.00  0.00     0.001 C 
HETATM   14  C10 UNL     1      -3.079  -0.050  -0.417  1.00  0.00     0.003 C 
HETATM   15  C11 UNL     1      -2.761  -0.932   0.742  1.00  0.00     0.040 C 
HETATM   16  C12 UNL     1      -3.384  -2.277   0.702  1.00  0.00     0.202 C 
HETATM   17  F1  UNL     1      -4.765  -2.098   0.596  1.00  0.00    -0.246 F 
HETATM   18  C13 UNL     1      -2.859  -3.228  -0.298  1.00  0.00     0.174 C 
HETATM   19  C14 UNL     1      -2.104  -2.663  -1.410  1.00  0.00     0.003 C 
HETATM   20  C15 UNL     1      -0.783  -2.599  -1.508  1.00  0.00    -0.027 C 
HETATM   21  C16 UNL     1       0.156  -3.108  -0.470  1.00  0.00     0.037 C 
HETATM   22  C17 UNL     1       1.552  -2.539  -0.679  1.00  0.00     0.080 C 
HETATM   23  S2  UNL     1       2.223  -1.856   0.854  1.00  0.00    -0.137 SA
ENDROOT
BRANCH   1  24
HETATM   24  O1  UNL     1       4.453  -0.510   0.379  1.00  0.00    -0.380 OA
HETATM   25  C1  UNL     1       5.262   0.062   1.333  1.00  0.00     0.203 C 
ENDBRANCH   1  24
BRANCH  18  26
HETATM   26  O6  UNL     1      -2.118  -4.290   0.272  1.00  0.00    -0.389 OA
ATOM     27  H6  UNL     1      -1.780  -4.902  -0.371  1.00  0.00     0.210 HD
ENDBRANCH  18  26
TORSDOF 2
