REMARK  1 active torsions:
REMARK  status: ('A' for Active; 'I' for Inactive)
REMARK    1  A    between atoms: C2_2  and  O1_3 
ROOT
HETATM    1  C1  UNL     1      -2.720   1.240   1.691  1.00  0.00     0.057 C 
HETATM    2  C2  UNL     1      -2.249   1.695   0.359  1.00  0.00     0.144 C 
HETATM    3  C3  UNL     1      -0.930   2.421   0.402  1.00  0.00     0.133 C 
HETATM    4  S1  UNL     1       0.020   2.249  -1.121  1.00  0.00    -0.094 SA
HETATM    5  S2  UNL     1       1.699   3.568  -0.979  1.00  0.00    -0.097 SA
HETATM    6  C4  UNL     1       3.183   2.822  -1.689  1.00  0.00     0.096 C 
HETATM    7  C5  UNL     1       4.141   2.379  -0.596  1.00  0.00     0.084 C 
HETATM    8  S3  UNL     1       4.916   0.799  -1.038  1.00  0.00    -0.168 SA
HETATM    9  C6  UNL     1       4.847  -0.383   0.324  1.00  0.00     0.074 C 
HETATM   10  C7  UNL     1       3.761  -1.397   0.123  1.00  0.00     0.011 C 
HETATM   11  C8  UNL     1       2.390  -0.764   0.222  1.00  0.00     0.011 C 
HETATM   12  C9  UNL     1       1.344  -1.832   0.467  1.00  0.00     0.082 C 
HETATM   13  S4  UNL     1      -0.099  -1.014   1.184  1.00  0.00    -0.094 SA
HETATM   14  C10 UNL     1      -1.617  -1.551   0.416  1.00  0.00     0.146 C 
HETATM   15  N1  UNL     1      -2.025  -2.728   0.740  1.00  0.00    -0.370 N 
ATOM     16  H1  UNL     1      -1.454  -3.252   1.403  1.00  0.00     0.161 HD
HETATM   17  C11 UNL     1      -3.217  -3.371   0.249  1.00  0.00     0.125 C 
HETATM   18  C12 UNL     1      -4.131  -2.327  -0.313  1.00  0.00     0.061 C 
HETATM   19  C13 UNL     1      -3.295  -1.532  -1.328  1.00  0.00     0.193 C 
HETATM   20 CL1  UNL     1      -2.434  -2.647  -2.394  1.00  0.00    -0.102 Cl
HETATM   21  N2  UNL     1      -2.355  -0.747  -0.509  1.00  0.00    -0.277 N 
HETATM   22  C14 UNL     1      -2.267   0.623  -0.690  1.00  0.00     0.262 C 
HETATM   23  O2  UNL     1      -2.193   1.046  -1.898  1.00  0.00    -0.269 OA
ENDROOT
BRANCH   2  24
HETATM   24  O1  UNL     1      -3.199   2.648  -0.092  1.00  0.00    -0.380 OA
ATOM     25  H1  UNL     1      -2.898   2.939  -0.945  1.00  0.00     0.211 HD
ENDBRANCH   2  24
TORSDOF 1
