REMARK  7 active torsions:
REMARK  status: ('A' for Active; 'I' for Inactive)
REMARK    1  A    between atoms: C3_3  and  O1_4 
REMARK    2  A    between atoms: C11_13  and  C12_14 
REMARK    3  A    between atoms: C12_14  and  C15_17 
REMARK    4  A    between atoms: C15_17  and  C16_18 
REMARK    5  A    between atoms: C16_18  and  C17_19 
REMARK    6  A    between atoms: C17_19  and  C18_20 
REMARK    7  A    between atoms: C18_20  and  C19_21 
ROOT
HETATM    1  C1  UNL     1      -3.182  -0.883   3.896  1.00  0.00     0.015 C 
HETATM    2  C2  UNL     1      -3.616  -0.980   2.777  1.00  0.00    -0.078 C 
HETATM    3  C3  UNL     1      -4.168  -1.099   1.429  1.00  0.00     0.128 C 
HETATM    4  C4  UNL     1      -5.183  -0.010   1.150  1.00  0.00     0.052 C 
HETATM    5  C5  UNL     1      -4.461   1.032   0.281  1.00  0.00     0.010 C 
HETATM    6  C6  UNL     1      -3.064   0.648   0.434  1.00  0.00     0.006 C 
HETATM    7  C7  UNL     1      -2.027   1.258  -0.462  1.00  0.00    -0.035 C 
HETATM    8  C8  UNL     1      -2.344   1.230  -1.884  1.00  0.00     0.016 C 
HETATM    9  C9  UNL     1      -1.703   2.682  -0.061  1.00  0.00     0.010 C 
HETATM   10  C10 UNL     1      -0.320   2.830  -0.625  1.00  0.00     0.006 C 
HETATM   11  C11 UNL     1       0.389   1.468  -0.451  1.00  0.00    -0.002 C 
HETATM   12  C21 UNL     1      -0.703   0.629  -0.032  1.00  0.00    -0.001 C 
HETATM   13  C22 UNL     1      -0.666  -0.846  -0.099  1.00  0.00     0.007 C 
HETATM   14  C23 UNL     1      -1.773  -1.443   0.754  1.00  0.00     0.014 C 
HETATM   15  C24 UNL     1      -3.083  -0.849   0.384  1.00  0.00     0.003 C 
HETATM   16  C25 UNL     1      -3.581  -1.443  -0.880  1.00  0.00     0.020 C 
ENDROOT
BRANCH   3  17
HETATM   17  O1  UNL     1      -4.784  -2.333   1.248  1.00  0.00    -0.377 OA
ATOM     18  H1  UNL     1      -5.143  -2.410   0.372  1.00  0.00     0.211 HD
ENDBRANCH   3  17
BRANCH  11  19
HETATM   19  C12 UNL     1       1.370   1.221  -1.489  1.00  0.00    -0.044 C 
HETATM   20  C13 UNL     1       0.965   1.171  -2.933  1.00  0.00     0.015 C 
HETATM   21  C14 UNL     1       2.342   2.434  -1.464  1.00  0.00     0.015 C 
BRANCH  19  22
HETATM   22  C15 UNL     1       2.279   0.030  -1.293  1.00  0.00     0.009 C 
BRANCH  22  23
HETATM   23  C16 UNL     1       3.098   0.087  -0.051  1.00  0.00     0.001 C 
BRANCH  23  24
HETATM   24  C17 UNL     1       3.946  -1.167  -0.004  1.00  0.00     0.000 C 
BRANCH  24  25
HETATM   25  C18 UNL     1       4.825  -1.217   1.224  1.00  0.00    -0.000 C 
BRANCH  25  26
HETATM   26  C19 UNL     1       5.614  -2.517   1.142  1.00  0.00    -0.005 C 
HETATM   27  C20 UNL     1       6.536  -2.706   2.303  1.00  0.00     0.005 C 
ENDBRANCH  25  26
ENDBRANCH  24  25
ENDBRANCH  23  24
ENDBRANCH  22  23
ENDBRANCH  19  22
ENDBRANCH  11  19
TORSDOF 7
