REMARK  2 active torsions:
REMARK  status: ('A' for Active; 'I' for Inactive)
REMARK    1  A    between atoms: C3_3  and  N1_4 
REMARK    2  A    between atoms: N1_4  and  C4_6 
ROOT
HETATM    1  C4  UNL     1       0.735  -0.082  -0.766  1.00  0.00     0.080 C 
HETATM    2  C5  UNL     1       0.971  -0.900   0.489  1.00  0.00     0.052 C 
HETATM    3  C6  UNL     1       2.468  -1.089   0.624  1.00  0.00     0.234 C 
HETATM    4  N2  UNL     1       3.194  -0.172  -0.223  1.00  0.00    -0.075 N 
ATOM      5  H21 UNL     1       3.186  -0.480  -1.195  1.00  0.00     0.277 HD
ATOM      6  H22 UNL     1       4.198  -0.221  -0.048  1.00  0.00     0.277 HD
HETATM    7  C7  UNL     1       2.701   1.190  -0.096  1.00  0.00     0.234 C 
HETATM    8  C8  UNL     1       1.238   1.306  -0.467  1.00  0.00     0.052 C 
ENDROOT
BRANCH   1   9
HETATM    9  N1  UNL     1      -0.604  -0.170  -1.162  1.00  0.00    -0.413 N 
ATOM     10  H1  UNL     1      -0.842  -0.595  -2.058  1.00  0.00     0.154 HD
BRANCH   9  11
HETATM   11  C3  UNL     1      -1.625   0.327  -0.326  1.00  0.00     0.077 C 
HETATM   12  C2  UNL     1      -2.999   0.002  -0.948  1.00  0.00     0.025 C 
HETATM   13  C1  UNL     1      -3.510  -0.082   0.475  1.00  0.00     0.004 C 
HETATM   14  C9  UNL     1      -2.067  -0.451   0.865  1.00  0.00     0.025 C 
ENDBRANCH   9  11
ENDBRANCH   1   9
TORSDOF 2
