REMARK  2 active torsions:
REMARK  status: ('A' for Active; 'I' for Inactive)
REMARK    1  A    between atoms: C2_2  and  N1_4 
REMARK    2  A    between atoms: N1_4  and  C4_6 
ROOT
HETATM    1  C4  UNL     1       0.414  -0.079   0.624  1.00  0.00     0.280 C 
HETATM    2  C5  UNL     1       0.923   1.312   0.632  1.00  0.00     0.054 C 
HETATM    3  C6  UNL     1       2.163   1.367  -0.238  1.00  0.00     0.005 C 
HETATM    4  C7  UNL     1       2.955   0.089  -0.181  1.00  0.00     0.028 C 
HETATM    5  C8  UNL     1       2.135  -1.122  -0.530  1.00  0.00     0.235 C 
HETATM    6  N2  UNL     1       0.729  -0.721  -0.641  1.00  0.00    -0.055 N 
ATOM      7  H21 UNL     1       0.529  -0.143  -1.457  1.00  0.00     0.279 HD
ATOM      8  H22 UNL     1       0.100  -1.487  -0.882  1.00  0.00     0.279 HD
ENDROOT
BRANCH   1   9
HETATM    9  N1  UNL     1      -0.932  -0.290   0.935  1.00  0.00    -0.392 N 
ATOM     10  H1  UNL     1      -1.171  -0.849   1.754  1.00  0.00     0.155 HD
BRANCH   9  11
HETATM   11  C2  UNL     1      -1.962   0.247   0.149  1.00  0.00     0.070 C 
HETATM   12  C1  UNL     1      -2.064  -0.197  -1.272  1.00  0.00     0.031 C 
HETATM   13  C3  UNL     1      -3.265  -0.252   0.815  1.00  0.00     0.031 C 
ENDBRANCH   9  11
ENDBRANCH   1   9
TORSDOF 2
