REMARK  11 active torsions:
REMARK  status: ('A' for Active; 'I' for Inactive)
REMARK    1  A    between atoms: C4_6  and  O1_7 
REMARK    2  A    between atoms: C5_9  and  C6_10 
REMARK       I    between atoms: N3_15  and  C10_17 
REMARK    3  A    between atoms: C10_17  and  C11_19 
REMARK    4  A    between atoms: C12_23  and  S3_24 
REMARK    5  A    between atoms: C12_23  and  C15_34 
REMARK    6  A    between atoms: S3_24  and  N4_25 
REMARK    7  A    between atoms: N4_25  and  N5_26 
REMARK    8  A    between atoms: N5_26  and  C13_27 
REMARK    9  A    between atoms: N5_26  and  N6_30 
REMARK   10  A    between atoms: C13_27  and  C14_28 
REMARK   11  A    between atoms: N6_30  and  O3_32 
ROOT
HETATM    1  C6  UNL     1       0.861  -0.552   0.823  1.00  0.00    -0.001 C 
HETATM    2  C7  UNL     1       1.754   0.570   0.424  1.00  0.00     0.183 C 
HETATM    3  C8  UNL     1       3.113   0.210   0.848  1.00  0.00     0.075 C 
HETATM    4  N2  UNL     1       4.188  -0.105   1.146  1.00  0.00    -0.196 NA
HETATM    5  C9  UNL     1       1.417   1.829   1.144  1.00  0.00     0.082 C 
HETATM    6  N3  UNL     1       1.921   2.974   0.793  1.00  0.00    -0.322 N 
ATOM      7  H3  UNL     1       1.636   3.788   1.337  1.00  0.00     0.169 HD
HETATM    8  C10 UNL     1       2.811   3.198  -0.253  1.00  0.00     0.236 C 
HETATM    9  O2  UNL     1       2.471   2.959  -1.433  1.00  0.00    -0.272 OA
HETATM   10  S1  UNL     1       0.272   1.848   2.516  1.00  0.00    -0.040 SA
HETATM   11  S2  UNL     1      -1.299   0.506   2.053  1.00  0.00    -0.054 SA
HETATM   12  C12 UNL     1      -0.586  -0.473   0.617  1.00  0.00     0.188 C 
ENDROOT
BRANCH   1  13
HETATM   13  C5  UNL     1       1.530  -1.874   0.816  1.00  0.00     0.029 A 
HETATM   14  C2  UNL     1       1.863  -2.661  -0.278  1.00  0.00    -0.032 A 
HETATM   15  C1  UNL     1       1.860  -2.203  -1.674  1.00  0.00     0.050 C 
HETATM   16  C3  UNL     1       2.294  -3.881   0.191  1.00  0.00     0.097 A 
HETATM   17  N1  UNL     1       2.253  -3.902   1.531  1.00  0.00    -0.346 N 
HETATM   18  C4  UNL     1       1.792  -2.686   1.900  1.00  0.00     0.151 A 
ATOM     19  H1  UNL     1       2.515  -4.674   2.144  1.00  0.00     0.167 HD
BRANCH  18  20
HETATM   20  O1  UNL     1       1.638  -2.394   3.243  1.00  0.00    -0.345 OA
ATOM     21  H1  UNL     1       1.314  -1.539   3.502  1.00  0.00     0.219 HD
ENDBRANCH  18  20
ENDBRANCH   1  13
BRANCH  12  22
HETATM   22  S3  UNL     1      -1.108   0.606  -0.780  1.00  0.00    -0.002 SA
BRANCH  22  23
HETATM   23  N4  UNL     1      -2.897   0.451  -0.800  1.00  0.00    -0.044 NA
BRANCH  23  24
HETATM   24  N5  UNL     1      -3.530   1.668  -0.632  1.00  0.00    -0.206 N 
BRANCH  24  25
HETATM   25  C13 UNL     1      -4.288   2.247  -1.701  1.00  0.00     0.183 C 
BRANCH  25  26
HETATM   26  C14 UNL     1      -5.556   1.425  -1.888  1.00  0.00     0.138 C 
HETATM   27 CL2  UNL     1      -6.515   1.478  -0.380  1.00  0.00    -0.129 Cl
ENDBRANCH  25  26
ENDBRANCH  24  25
BRANCH  24  28
HETATM   28  N6  UNL     1      -3.477   2.334   0.584  1.00  0.00    -0.196 N 
ATOM     29  H6  UNL     1      -2.782   2.029   1.265  1.00  0.00     0.217 HD
BRANCH  28  30
HETATM   30  O3  UNL     1      -4.221   3.277   0.897  1.00  0.00    -0.273 OA
ATOM     31  H3  UNL     1      -4.185   3.733   1.730  1.00  0.00     0.246 HD
ENDBRANCH  28  30
ENDBRANCH  24  28
ENDBRANCH  23  24
ENDBRANCH  22  23
ENDBRANCH  12  22
BRANCH  12  32
HETATM   32  C15 UNL     1      -1.355  -1.729   0.544  1.00  0.00     0.267 C 
HETATM   33  N7  UNL     1      -1.502  -2.470  -0.625  1.00  0.00    -0.059 NA
HETATM   34  O4  UNL     1      -1.908  -2.148   1.607  1.00  0.00    -0.274 OA
ENDBRANCH  12  32
BRANCH   8  35
HETATM   35  C11 UNL     1       4.169   3.723   0.007  1.00  0.00     0.217 C 
HETATM   36 CL1  UNL     1       4.404   3.982   1.756  1.00  0.00    -0.121 Cl
ENDBRANCH   8  35
TORSDOF 11
