REMARK  7 active torsions:
REMARK  status: ('A' for Active; 'I' for Inactive)
REMARK    1  A    between atoms: C5_9  and  C6_10 
REMARK    2  A    between atoms: C6_10  and  N3_11 
REMARK    3  A    between atoms: N3_11  and  C7_13 
REMARK    4  A    between atoms: C10_20  and  N6_21 
REMARK    5  A    between atoms: N6_21  and  C11_23 
REMARK    6  A    between atoms: C12_24  and  C13_25 
REMARK    7  A    between atoms: C13_25  and  C15_27 
ROOT
HETATM    1  C7  UNL     1       1.077  -0.376   0.328  1.00  0.00     0.698 A 
HETATM    2  N4  UNL     1       1.374  -1.662   0.109  1.00  0.00    -0.180 N 
ATOM      3  H4  UNL     1       2.324  -2.001   0.259  1.00  0.00     0.185 HD
HETATM    4  C8  UNL     1       0.405  -2.513  -0.313  1.00  0.00     0.109 A 
HETATM    5  C9  UNL     1       0.756  -3.940  -0.551  1.00  0.00     0.090 C 
HETATM    6  N5  UNL     1      -0.827  -2.018  -0.493  1.00  0.00    -0.180 N 
ATOM      7  H5  UNL     1      -1.560  -2.653  -0.810  1.00  0.00     0.185 HD
HETATM    8  C10 UNL     1      -1.152  -0.728  -0.279  1.00  0.00     0.698 A 
HETATM    9  N7  UNL     1      -0.170   0.091   0.138  1.00  0.00    -0.022 N 
ATOM     10  H7  UNL     1      -0.373   1.075   0.312  1.00  0.00     0.203 HD
ENDROOT
BRANCH   1  11
HETATM   11  N3  UNL     1       1.964   0.450   0.725  1.00  0.00    -0.200 N 
ATOM     12  H3  UNL     1       1.722   1.427   0.888  1.00  0.00     0.183 HD
BRANCH  11  13
HETATM   13  C6  UNL     1       3.300  -0.008   0.939  1.00  0.00     0.125 C 
BRANCH  13  14
HETATM   14  C5  UNL     1       4.328   0.637   0.418  1.00  0.00     0.076 A 
HETATM   15  C2  UNL     1       5.658   0.310   0.542  1.00  0.00     0.056 A 
HETATM   16  C1  UNL     1       6.161  -0.727   1.217  1.00  0.00     0.045 C 
HETATM   17  N1  UNL     1       6.348   1.242  -0.152  1.00  0.00    -0.296 N 
HETATM   18  N2  UNL     1       5.557   2.125  -0.700  1.00  0.00    -0.261 N 
ATOM     19  H1  UNL     1       7.364   1.254  -0.238  1.00  0.00     0.187 HD
HETATM   20  C3  UNL     1       5.915   3.284  -1.526  1.00  0.00     0.181 C 
HETATM   21  C4  UNL     1       4.302   1.775  -0.364  1.00  0.00     0.275 A 
HETATM   22  O1  UNL     1       3.257   2.401  -0.716  1.00  0.00    -0.266 OA
ENDBRANCH  13  14
ENDBRANCH  11  13
ENDBRANCH   1  11
BRANCH   8  23
HETATM   23  N6  UNL     1      -2.367  -0.292  -0.469  1.00  0.00    -0.201 N 
ATOM     24  H6  UNL     1      -2.602   0.687  -0.304  1.00  0.00     0.183 HD
BRANCH  23  25
HETATM   25  C11 UNL     1      -3.351  -1.209  -0.909  1.00  0.00     0.102 C 
HETATM   26  C12 UNL     1      -4.606  -1.053  -0.550  1.00  0.00    -0.005 C 
BRANCH  26  27
HETATM   27  C13 UNL     1      -4.953   0.098   0.318  1.00  0.00     0.005 C 
HETATM   28  C14 UNL     1      -5.501  -0.415   1.624  1.00  0.00     0.014 C 
BRANCH  27  29
HETATM   29  C15 UNL     1      -5.950   0.945  -0.431  1.00  0.00     0.003 C 
HETATM   30  C16 UNL     1      -6.388   2.156   0.344  1.00  0.00     0.006 C 
ENDBRANCH  27  29
ENDBRANCH  26  27
ENDBRANCH  23  25
ENDBRANCH   8  23
TORSDOF 7
