REMARK  4 active torsions:
REMARK  status: ('A' for Active; 'I' for Inactive)
REMARK    1  A    between atoms: C2_2  and  N1_3 
REMARK       I    between atoms: C3_5  and  N3_7 
REMARK    2  A    between atoms: N3_7  and  C4_9 
REMARK    3  A    between atoms: N4_14  and  C9_15 
REMARK    4  A    between atoms: C9_15  and  C10_16 
ROOT
HETATM    1  C4  UNL     1       0.598  -0.188   0.929  1.00  0.00     0.109 A 
HETATM    2  C5  UNL     1       1.210  -1.332   1.437  1.00  0.00     0.049 A 
HETATM    3  C6  UNL     1       0.709  -2.012   2.529  1.00  0.00     0.005 A 
HETATM    4  C7  UNL     1      -0.434  -1.543   3.136  1.00  0.00     0.017 A 
HETATM    5  C8  UNL     1      -1.016  -0.409   2.610  1.00  0.00     0.093 A 
HETATM    6  N4  UNL     1      -0.511   0.253   1.529  1.00  0.00    -0.339 N 
ENDROOT
BRANCH   1   7
HETATM    7  N3  UNL     1       1.222   0.421  -0.171  1.00  0.00    -0.316 N 
HETATM    8  C3  UNL     1       2.403  -0.088  -0.777  1.00  0.00     0.193 C 
HETATM    9  N1  UNL     1       3.560   0.382  -0.470  1.00  0.00    -0.341 N 
HETATM   10  N2  UNL     1       2.340  -1.128  -1.737  1.00  0.00    -0.063 NA
ATOM     11  H1  UNL     1       3.613   1.131   0.221  1.00  0.00     0.167 HD
ATOM     12  H3  UNL     1       0.808   1.271  -0.554  1.00  0.00     0.170 HD
BRANCH   9  13
HETATM   13  C2  UNL     1       4.763  -0.090  -1.045  1.00  0.00     0.080 C 
HETATM   14  C1  UNL     1       5.584   0.758  -1.620  1.00  0.00     0.030 C 
ENDBRANCH   9  13
ENDBRANCH   1   7
BRANCH   6  15
HETATM   15  C9  UNL     1      -1.235   1.411   1.049  1.00  0.00     0.168 C 
BRANCH  15  16
HETATM   16  C10 UNL     1      -2.329   1.044   0.123  1.00  0.00    -0.040 A 
HETATM   17  C11 UNL     1      -3.584   0.710   0.624  1.00  0.00     0.010 A 
HETATM   18  C12 UNL     1      -4.626   0.371  -0.202  1.00  0.00     0.024 A 
HETATM   19  C13 UNL     1      -4.427   0.360  -1.559  1.00  0.00     0.034 A 
HETATM   20 CL1  UNL     1      -5.765  -0.075  -2.611  1.00  0.00    -0.084 Cl
HETATM   21  C14 UNL     1      -3.204   0.684  -2.101  1.00  0.00     0.024 A 
HETATM   22  C15 UNL     1      -2.186   1.018  -1.234  1.00  0.00     0.010 A 
ENDBRANCH  15  16
ENDBRANCH   6  15
TORSDOF 4
