REMARK  2 active torsions:
REMARK  status: ('A' for Active; 'I' for Inactive)
REMARK       I    between atoms: N3_4  and  C2_6 
REMARK       I    between atoms: C2_6  and  N4_7 
REMARK    1  A    between atoms: N5_15  and  C8_17 
REMARK    2  A    between atoms: C8_17  and  C9_18 
ROOT
HETATM    1  N1  UNL     1      -0.449   3.452  -0.878  1.00  0.00    -0.066 NA
HETATM    2  C1  UNL     1      -0.618   3.361   0.514  1.00  0.00     0.215 C 
HETATM    3  N2  UNL     1      -1.027   4.470   1.291  1.00  0.00    -0.066 NA
HETATM    4  N3  UNL     1      -0.390   2.217   1.095  1.00  0.00    -0.166 N 
ATOM      5  H3  UNL     1      -0.512   2.143   2.105  1.00  0.00     0.186 HD
HETATM    6  C2  UNL     1       0.020   1.078   0.373  1.00  0.00     0.680 C 
HETATM    7  N4  UNL     1      -0.439  -0.196   0.737  1.00  0.00    -0.199 N 
ATOM      8  H4  UNL     1       0.158  -0.729   1.370  1.00  0.00     0.183 HD
HETATM    9  C3  UNL     1      -1.507  -0.757   0.369  1.00  0.00     0.007 C 
HETATM   10  C4  UNL     1      -1.967  -2.092   0.764  1.00  0.00     0.056 C 
HETATM   11  C5  UNL     1      -3.439  -1.808   1.059  1.00  0.00     0.043 C 
HETATM   12  C6  UNL     1      -3.823  -0.751   0.074  1.00  0.00     0.175 C 
HETATM   13  F1  UNL     1      -4.626  -1.336  -0.885  1.00  0.00    -0.249 F 
HETATM   14  C7  UNL     1      -2.528  -0.216  -0.529  1.00  0.00     0.090 C 
HETATM   15  N5  UNL     1       0.812   1.205  -0.616  1.00  0.00    -0.222 N 
ATOM     16  H5  UNL     1       1.144   2.133  -0.878  1.00  0.00     0.178 HD
ENDROOT
BRANCH  15  17
HETATM   17  C8  UNL     1       1.240   0.070  -1.361  1.00  0.00     0.176 C 
BRANCH  17  18
HETATM   18  C9  UNL     1       2.392  -0.639  -0.748  1.00  0.00    -0.040 A 
HETATM   19  C10 UNL     1       2.884  -1.751  -1.389  1.00  0.00     0.009 A 
HETATM   20  C11 UNL     1       3.949  -2.461  -0.885  1.00  0.00     0.001 A 
HETATM   21  C12 UNL     1       4.549  -2.064   0.291  1.00  0.00     0.000 A 
HETATM   22  C13 UNL     1       4.044  -0.951   0.918  1.00  0.00     0.001 A 
HETATM   23  C14 UNL     1       2.984  -0.232   0.428  1.00  0.00     0.009 A 
ENDBRANCH  17  18
ENDBRANCH  15  17
TORSDOF 2
