REMARK  6 active torsions:
REMARK  status: ('A' for Active; 'I' for Inactive)
REMARK    1  A    between atoms: O1_2  and  N1_3 
REMARK       I    between atoms: N1_3  and  C2_5 
REMARK       I    between atoms: C2_5  and  N2_7 
REMARK    2  A    between atoms: C5_10  and  N3_11 
REMARK    3  A    between atoms: N3_11  and  C6_12 
REMARK    4  A    between atoms: N3_11  and  C12_22 
REMARK    5  A    between atoms: C6_12  and  O3_13 
REMARK    6  A    between atoms: C6_12  and  C7_15 
ROOT
HETATM    1  C12 UNL     1      -1.210   1.078  -0.383  1.00  0.00     0.060 A 
HETATM    2  C13 UNL     1      -0.949   1.532  -1.672  1.00  0.00     0.033 A 
HETATM    3  C14 UNL     1      -1.110   2.836  -2.090  1.00  0.00     0.027 A 
HETATM    4  C15 UNL     1      -1.562   3.768  -1.187  1.00  0.00     0.068 A 
HETATM    5  C16 UNL     1      -1.741   5.146  -1.578  1.00  0.00     0.101 C 
HETATM    6  N4  UNL     1      -1.869   6.261  -1.891  1.00  0.00    -0.191 NA
HETATM    7  C17 UNL     1      -1.833   3.359   0.092  1.00  0.00     0.078 A 
HETATM    8 CL3  UNL     1      -2.419   4.556   1.256  1.00  0.00    -0.081 Cl
HETATM    9  C18 UNL     1      -1.672   2.049   0.517  1.00  0.00     0.084 A 
HETATM   10 CL4  UNL     1      -2.122   1.633   2.157  1.00  0.00    -0.080 Cl
ENDROOT
BRANCH   1  11
HETATM   11  N3  UNL     1      -0.984  -0.269   0.014  1.00  0.00    -0.324 N 
BRANCH  11  12
HETATM   12  C5  UNL     1       0.382  -0.632   0.466  1.00  0.00     0.095 C 
HETATM   13  C4  UNL     1       1.331  -0.686  -0.718  1.00  0.00     0.045 C 
HETATM   14  C3  UNL     1       2.435   0.338  -0.435  1.00  0.00     0.129 C 
HETATM   15  N2  UNL     1       3.101  -0.244   0.754  1.00  0.00    -0.332 N 
HETATM   16  C2  UNL     1       4.423  -0.702   0.652  1.00  0.00     0.342 C 
HETATM   17  C20 UNL     1       2.316  -0.321   1.941  1.00  0.00     0.129 C 
HETATM   18  N1  UNL     1       5.109  -1.240   1.751  1.00  0.00    -0.217 N 
HETATM   19  O2  UNL     1       5.020  -0.624  -0.480  1.00  0.00    -0.245 OA
ATOM     20  H1  UNL     1       4.608  -1.280   2.638  1.00  0.00     0.199 HD
HETATM   21  C19 UNL     1       0.878   0.110   1.640  1.00  0.00     0.045 C 
BRANCH  18  22
HETATM   22  O1  UNL     1       6.363  -1.705   1.737  1.00  0.00    -0.281 OA
HETATM   23  C1  UNL     1       7.257  -0.855   1.133  1.00  0.00     0.237 C 
ENDBRANCH  18  22
ENDBRANCH  11  12
BRANCH  11  24
HETATM   24  C6  UNL     1      -1.951  -1.260  -0.035  1.00  0.00     0.130 C 
BRANCH  24  25
HETATM   25  O3  UNL     1      -1.602  -2.363   0.589  1.00  0.00    -0.348 OA
ATOM     26  H3  UNL     1      -2.265  -3.043   0.555  1.00  0.00     0.219 HD
ENDBRANCH  24  25
BRANCH  24  27
HETATM   27  C7  UNL     1      -3.259  -1.357  -0.631  1.00  0.00     0.057 C 
HETATM   28  C8  UNL     1      -3.137  -2.262  -1.909  1.00  0.00     0.027 C 
HETATM   29  C9  UNL     1      -4.187  -0.239  -0.852  1.00  0.00     0.024 C 
HETATM   30  C10 UNL     1      -4.926  -0.613   0.411  1.00  0.00     0.044 C 
HETATM   31  C11 UNL     1      -4.315  -1.993   0.284  1.00  0.00     0.128 C 
HETATM   32 CL1  UNL     1      -3.748  -2.646   1.808  1.00  0.00    -0.100 Cl
HETATM   33 CL2  UNL     1      -5.347  -3.167  -0.561  1.00  0.00    -0.100 Cl
ENDBRANCH  24  27
ENDBRANCH  11  24
ENDBRANCH   1  11
TORSDOF 6
