REMARK  5 active torsions:
REMARK  status: ('A' for Active; 'I' for Inactive)
REMARK    1  A    between atoms: C2_2  and  N1_3 
REMARK    2  A    between atoms: C2_2  and  C3_7 
REMARK    3  A    between atoms: C4_8  and  C5_9 
REMARK    4  A    between atoms: C5_9  and  N3_13 
REMARK    5  A    between atoms: N3_13  and  N4_15 
ROOT
HETATM    1  C5  UNL     1       1.760   0.075   0.014  1.00  0.00     0.112 C 
HETATM    2  N2  UNL     1       2.076  -1.053   0.563  1.00  0.00    -0.384 N 
ATOM      3  H21 UNL     1       3.048  -1.361   0.529  1.00  0.00     0.157 HD
ATOM      4  H22 UNL     1       1.339  -1.596   1.013  1.00  0.00     0.157 HD
ENDROOT
BRANCH   1   5
HETATM    5  C4  UNL     1       0.377   0.514   0.063  1.00  0.00     0.047 C 
HETATM    6  C3  UNL     1      -0.553  -0.209   0.651  1.00  0.00     0.009 C 
BRANCH   6   7
HETATM    7  C2  UNL     1      -1.959   0.248   0.694  1.00  0.00     0.202 C 
HETATM    8  C1  UNL     1      -2.887  -0.929   0.959  1.00  0.00     0.044 C 
BRANCH   7   9
HETATM    9  N1  UNL     1      -2.381   0.841  -0.559  1.00  0.00    -0.072 N 
ATOM     10  H13 UNL     1      -2.413   0.173  -1.329  1.00  0.00     0.275 HD
ATOM     11  H12 UNL     1      -3.368   1.097  -0.570  1.00  0.00     0.275 HD
ATOM     12  H11 UNL     1      -1.759   1.630  -0.737  1.00  0.00     0.275 HD
ENDBRANCH   7   9
ENDBRANCH   6   7
ENDBRANCH   1   5
BRANCH   1  13
HETATM   13  N3  UNL     1       2.776   0.823  -0.606  1.00  0.00    -0.292 N 
ATOM     14  H3  UNL     1       2.616   1.809  -0.812  1.00  0.00     0.188 HD
BRANCH  13  15
HETATM   15  N4  UNL     1       4.002   0.242  -0.946  1.00  0.00    -0.344 N 
ATOM     16  H42 UNL     1       4.146  -0.745  -0.733  1.00  0.00     0.176 HD
ATOM     17  H41 UNL     1       4.739   0.785  -1.396  1.00  0.00     0.176 HD
ENDBRANCH  13  15
ENDBRANCH   1  13
TORSDOF 5
