REMARK  2 active torsions:
REMARK  status: ('A' for Active; 'I' for Inactive)
REMARK    1  A    between atoms: C2_2  and  C3_3 
REMARK    2  A    between atoms: C11_12  and  O1_13 
ROOT
HETATM    1  C3  UNL     1      -2.438  -0.592   0.106  1.00  0.00     0.045 C 
HETATM    2  C4  UNL     1      -1.596  -0.638   1.290  1.00  0.00     0.012 C 
HETATM    3  C5  UNL     1      -0.172  -0.227   1.209  1.00  0.00     0.015 C 
HETATM    4  C6  UNL     1       0.679  -0.515   0.075  1.00  0.00     0.011 C 
HETATM    5  C7  UNL     1       1.426   0.592  -0.618  1.00  0.00     0.113 C 
HETATM    6  N1  UNL     1       1.594   1.471   0.486  1.00  0.00    -0.269 NA
HETATM    7  C8  UNL     1       1.364   2.722  -0.005  1.00  0.00     0.061 C 
HETATM    8  C9  UNL     1      -0.029   3.216  -0.145  1.00  0.00    -0.008 C 
HETATM    9  C10 UNL     1      -0.966   2.691  -1.165  1.00  0.00     0.095 C 
HETATM   10  C11 UNL     1      -1.972   1.658  -0.751  1.00  0.00     0.076 C 
HETATM   11  C12 UNL     1      -1.890   0.244  -1.045  1.00  0.00     0.081 C 
HETATM   12  O2  UNL     1      -0.901  -0.460  -1.500  1.00  0.00    -0.341 OA
HETATM   13  C13 UNL     1       0.098  -1.148  -1.146  1.00  0.00     0.073 C 
HETATM   14  C14 UNL     1       0.977  -1.080  -2.405  1.00  0.00     0.047 C 
HETATM   15  C15 UNL     1       0.304  -2.544  -0.738  1.00  0.00     0.040 C 
HETATM   16  C16 UNL     1       1.807  -2.507  -0.300  1.00  0.00     0.013 C 
HETATM   17  C17 UNL     1       1.826  -1.400   0.611  1.00  0.00     0.028 C 
HETATM   18  C18 UNL     1       2.926  -0.553   1.046  1.00  0.00    -0.068 C 
HETATM   19  C19 UNL     1       4.306  -0.864   0.500  1.00  0.00     0.044 C 
HETATM   20  C20 UNL     1       2.660   0.953   1.189  1.00  0.00     0.067 C 
ENDROOT
BRANCH   1  21
HETATM   21  C2  UNL     1      -3.909  -0.366   0.363  1.00  0.00     0.007 C 
HETATM   22  C1  UNL     1      -4.476  -1.507   1.232  1.00  0.00     0.006 C 
ENDBRANCH   1  21
BRANCH  10  23
HETATM   23  O1  UNL     1      -2.249   1.996   0.608  1.00  0.00    -0.362 OA
ATOM     24  H1  UNL     1      -2.886   1.342   0.870  1.00  0.00     0.217 HD
ENDBRANCH  10  23
TORSDOF 2
