REMARK  3 active torsions:
REMARK  status: ('A' for Active; 'I' for Inactive)
REMARK    1  A    between atoms: C2_2  and  N1_4 
REMARK    2  A    between atoms: N2_11  and  C9_12 
REMARK    3  A    between atoms: C14_17  and  O2_18 
ROOT
HETATM    1  N1  UNL     1      -3.613   0.529  -0.313  1.00  0.00     0.118 N 
HETATM    2  C4  UNL     1      -3.237   0.334   1.058  1.00  0.00     0.441 C 
HETATM    3  O1  UNL     1      -1.857   0.305   1.074  1.00  0.00    -0.349 OA
HETATM    4  C5  UNL     1      -1.412  -0.026  -0.196  1.00  0.00     0.091 C 
HETATM    5  C6  UNL     1      -0.622  -1.297  -0.081  1.00  0.00     0.042 C 
HETATM    6  C7  UNL     1       0.255  -1.153   1.159  1.00  0.00     0.033 C 
HETATM    7  C8  UNL     1       1.230  -0.028   0.850  1.00  0.00     0.273 C 
HETATM    8  N2  UNL     1       1.497  -0.094  -0.561  1.00  0.00     0.095 N 
HETATM    9  C15 UNL     1       0.678   0.763  -1.362  1.00  0.00     0.276 C 
HETATM   10  C16 UNL     1      -0.633   1.133  -0.743  1.00  0.00     0.070 C 
HETATM   11  C17 UNL     1      -2.672  -0.304  -1.010  1.00  0.00     0.313 C 
ENDROOT
BRANCH   8  12
HETATM   12  C9  UNL     1       2.901  -0.044  -0.889  1.00  0.00     0.251 C 
HETATM   13  C10 UNL     1       3.420   1.282  -0.494  1.00  0.00     0.038 C 
HETATM   14  C11 UNL     1       4.814   1.333   0.025  1.00  0.00     0.002 C 
HETATM   15  C12 UNL     1       5.618   0.138  -0.471  1.00  0.00     0.003 C 
HETATM   16  C13 UNL     1       4.949  -1.049   0.197  1.00  0.00     0.034 C 
HETATM   17  C14 UNL     1       3.550  -1.241  -0.297  1.00  0.00     0.151 C 
BRANCH  17  18
HETATM   18  O2  UNL     1       3.618  -2.268  -1.256  1.00  0.00    -0.393 OA
ATOM     19  H2  UNL     1       4.033  -3.034  -0.877  1.00  0.00     0.210 HD
ENDBRANCH  17  18
ENDBRANCH   8  12
BRANCH   1  20
HETATM   20  C2  UNL     1      -4.984   0.262  -0.606  1.00  0.00     0.217 C 
HETATM   21  C1  UNL     1      -5.819   1.315   0.112  1.00  0.00     0.042 C 
HETATM   22  C3  UNL     1      -5.473  -1.086  -0.173  1.00  0.00     0.042 C 
ENDBRANCH   1  20
TORSDOF 3
