REMARK  7 active torsions:
REMARK  status: ('A' for Active; 'I' for Inactive)
REMARK    1  A    between atoms: O1_1  and  C1_3 
REMARK    2  A    between atoms: C1_3  and  N1_4 
REMARK    3  A    between atoms: N1_4  and  C2_5 
REMARK    4  A    between atoms: N1_4  and  C10_13 
REMARK    5  A    between atoms: C2_5  and  C3_6 
REMARK    6  A    between atoms: C3_6  and  C4_7 
REMARK    7  A    between atoms: C10_13  and  C11_14 
ROOT
HETATM    1  N1  UNL     1      -0.289  -1.081   0.245  1.00  0.00    -0.351 N 
ENDROOT
BRANCH   1   2
HETATM    2  C1  UNL     1      -0.562  -1.742   1.447  1.00  0.00     0.224 C 
BRANCH   2   3
HETATM    3  O1  UNL     1      -1.201  -2.978   1.176  1.00  0.00    -0.356 OA
ATOM      4  H1  UNL     1      -1.386  -3.427   1.992  1.00  0.00     0.218 HD
ENDBRANCH   2   3
ENDBRANCH   1   2
BRANCH   1   5
HETATM    5  C2  UNL     1       0.454   0.159   0.390  1.00  0.00     0.129 C 
BRANCH   5   6
HETATM    6  C3  UNL     1       1.851  -0.174   0.823  1.00  0.00     0.025 C 
BRANCH   6   7
HETATM    7  C4  UNL     1       2.748   1.012   1.023  1.00  0.00    -0.013 C 
HETATM    8  C5  UNL     1       2.949   1.854  -0.190  1.00  0.00     0.005 C 
HETATM    9  C6  UNL     1       4.252   1.594  -0.895  1.00  0.00     0.000 C 
HETATM   10  C7  UNL     1       4.650   0.151  -0.909  1.00  0.00     0.000 C 
HETATM   11  C8  UNL     1       4.679  -0.404   0.476  1.00  0.00     0.000 C 
HETATM   12  C9  UNL     1       4.097   0.525   1.505  1.00  0.00     0.005 C 
ENDBRANCH   6   7
ENDBRANCH   5   6
ENDBRANCH   1   5
BRANCH   1  13
HETATM   13  C10 UNL     1      -1.248  -1.026  -0.787  1.00  0.00     0.069 C 
BRANCH  13  14
HETATM   14  C11 UNL     1      -2.436  -0.174  -0.691  1.00  0.00     0.024 C 
HETATM   15  C12 UNL     1      -3.229  -0.365  -1.994  1.00  0.00     0.010 C 
HETATM   16  C13 UNL     1      -4.277   0.717  -2.121  1.00  0.00     0.001 C 
HETATM   17  C14 UNL     1      -5.169   0.760  -0.895  1.00  0.00     0.000 C 
HETATM   18  C15 UNL     1      -4.792  -0.228   0.149  1.00  0.00     0.001 C 
HETATM   19  C16 UNL     1      -3.308  -0.244   0.491  1.00  0.00     0.010 C 
ENDBRANCH  13  14
ENDBRANCH   1  13
TORSDOF 7
