REMARK  6 active torsions:
REMARK  status: ('A' for Active; 'I' for Inactive)
REMARK    1  A    between atoms: S1_2  and  C2_3 
REMARK    2  A    between atoms: C2_3  and  C3_4 
REMARK    3  A    between atoms: C3_4  and  C4_5 
REMARK    4  A    between atoms: C4_5  and  C5_6 
REMARK    5  A    between atoms: C5_6  and  N1_7 
REMARK    6  A    between atoms: N1_7  and  C6_9 
ROOT
HETATM    1  C6  UNL     1      -1.159   0.276   0.568  1.00  0.00     0.026 C 
HETATM    2  C7  UNL     1      -1.291   0.422  -0.945  1.00  0.00     0.035 C 
HETATM    3  C8  UNL     1      -2.747   0.306  -1.373  1.00  0.00    -0.012 C 
HETATM    4  C9  UNL     1      -3.249  -1.056  -0.990  1.00  0.00     0.009 C 
HETATM    5  C10 UNL     1      -3.106  -1.214   0.511  1.00  0.00    -0.012 C 
HETATM    6  C11 UNL     1      -3.991  -0.194   1.170  1.00  0.00     0.009 C 
HETATM    7  C12 UNL     1      -3.486   1.187   0.803  1.00  0.00    -0.012 C 
HETATM    8  C13 UNL     1      -3.507   1.417  -0.685  1.00  0.00     0.009 C 
HETATM    9  C14 UNL     1      -2.068   1.290   1.274  1.00  0.00     0.035 C 
HETATM   10  C15 UNL     1      -1.656  -1.090   0.932  1.00  0.00     0.035 C 
ENDROOT
BRANCH   1  11
HETATM   11  N1  UNL     1       0.163   0.571   0.936  1.00  0.00    -0.412 N 
ATOM     12  H1  UNL     1       0.361   1.362   1.548  1.00  0.00     0.154 HD
BRANCH  11  13
HETATM   13  C5  UNL     1       1.217  -0.235   0.453  1.00  0.00     0.114 C 
BRANCH  13  14
HETATM   14  C4  UNL     1       2.517   0.301   0.988  1.00  0.00     0.020 C 
BRANCH  14  15
HETATM   15  C3  UNL     1       3.717  -0.467   0.556  1.00  0.00     0.012 C 
BRANCH  15  16
HETATM   16  C2  UNL     1       3.857  -0.471  -0.951  1.00  0.00     0.073 C 
BRANCH  16  17
HETATM   17  S1  UNL     1       5.347  -1.417  -1.443  1.00  0.00    -0.173 SA
HETATM   18  C1  UNL     1       6.811  -0.520  -0.850  1.00  0.00     0.089 C 
ENDBRANCH  16  17
ENDBRANCH  15  16
ENDBRANCH  14  15
ENDBRANCH  13  14
ENDBRANCH  11  13
ENDBRANCH   1  11
TORSDOF 6
