REMARK  6 active torsions:
REMARK  status: ('A' for Active; 'I' for Inactive)
REMARK    1  A    between atoms: C2_2  and  S1_4 
REMARK    2  A    between atoms: S1_4  and  C4_5 
REMARK    3  A    between atoms: C6_7  and  C7_8 
REMARK    4  A    between atoms: C7_8  and  N1_9 
REMARK    5  A    between atoms: C7_8  and  O1_13 
REMARK    6  A    between atoms: C8_18  and  C9_19 
ROOT
HETATM    1  C4  UNL     1       0.792  -0.093   0.667  1.00  0.00     0.051 C 
HETATM    2  C5  UNL     1       1.007   1.332   0.165  1.00  0.00     0.052 C 
HETATM    3  C6  UNL     1      -0.405   1.839  -0.114  1.00  0.00     0.243 C 
HETATM    4  N2  UNL     1      -0.879   1.111  -1.258  1.00  0.00    -0.062 N 
ATOM      5  H21 UNL     1      -0.260   1.251  -2.056  1.00  0.00     0.278 HD
ATOM      6  H22 UNL     1      -1.731   1.534  -1.627  1.00  0.00     0.278 HD
HETATM    7  C8  UNL     1      -1.077  -0.302  -1.005  1.00  0.00     0.191 C 
HETATM    8  C14 UNL     1       0.199  -0.868  -0.476  1.00  0.00     0.048 C 
ENDROOT
BRANCH   3   9
HETATM    9  C7  UNL     1      -0.438   3.309  -0.405  1.00  0.00     0.347 C 
BRANCH   9  10
HETATM   10  N1  UNL     1      -0.527   4.098   0.820  1.00  0.00    -0.051 N 
ATOM     11  H13 UNL     1      -1.324   3.813   1.389  1.00  0.00     0.277 HD
ATOM     12  H12 UNL     1       0.224   3.864   1.469  1.00  0.00     0.277 HD
ATOM     13  H11 UNL     1      -0.549   5.098   0.622  1.00  0.00     0.277 HD
ENDBRANCH   9  10
BRANCH   9  14
HETATM   14  O1  UNL     1       0.605   3.740  -1.211  1.00  0.00    -0.368 OA
ATOM     15  H1  UNL     1       0.584   4.672  -1.395  1.00  0.00     0.212 HD
ENDBRANCH   9  14
ENDBRANCH   3   9
BRANCH   1  16
HETATM   16  S1  UNL     1       2.307  -0.857   1.245  1.00  0.00    -0.160 SA
BRANCH  16  17
HETATM   17  C2  UNL     1       3.678  -0.700   0.088  1.00  0.00     0.039 C 
HETATM   18  C1  UNL     1       4.567   0.424   0.558  1.00  0.00     0.021 C 
HETATM   19  C3  UNL     1       4.411  -2.037   0.106  1.00  0.00     0.021 C 
ENDBRANCH  16  17
ENDBRANCH   1  16
BRANCH   7  20
HETATM   20  C9  UNL     1      -2.308  -0.614  -0.236  1.00  0.00     0.016 C 
HETATM   21  C10 UNL     1      -3.311  -1.429  -1.045  1.00  0.00     0.007 C 
HETATM   22  C11 UNL     1      -3.489  -2.700  -0.223  1.00  0.00     0.000 C 
HETATM   23  C12 UNL     1      -3.424  -2.114   1.182  1.00  0.00     0.000 C 
HETATM   24  C13 UNL     1      -2.129  -1.314   1.063  1.00  0.00     0.007 C 
ENDBRANCH   7  20
TORSDOF 6
