REMARK  4 active torsions:
REMARK  status: ('A' for Active; 'I' for Inactive)
REMARK       I    between atoms: C2_2  and  N1_4 
REMARK    1  A    between atoms: N3_18  and  C14_19 
REMARK    2  A    between atoms: C14_19  and  O2_20 
REMARK    3  A    between atoms: C14_19  and  N4_22 
REMARK    4  A    between atoms: N4_22  and  C15_23 
REMARK       I    between atoms: N5_26  and  C18_27 
ROOT
HETATM    1  C1  UNL     1      -8.699   0.720   0.172  1.00  0.00     0.117 C 
HETATM    2  C2  UNL     1      -7.520   0.570   1.007  1.00  0.00     0.215 C 
HETATM    3  O1  UNL     1      -7.456   1.106   2.176  1.00  0.00    -0.274 OA
HETATM    4  N1  UNL     1      -6.400  -0.176   0.560  1.00  0.00    -0.352 N 
HETATM    5  C3  UNL     1      -6.549  -0.748  -0.756  1.00  0.00     0.132 C 
HETATM    6  C4  UNL     1      -5.699   0.091  -1.709  1.00  0.00     0.077 C 
HETATM    7  C5  UNL     1      -4.286  -0.271  -1.438  1.00  0.00     0.018 A 
HETATM    8  N2  UNL     1      -3.547  -0.840  -2.394  1.00  0.00    -0.362 N 
ATOM      9  H2  UNL     1      -3.859  -1.055  -3.341  1.00  0.00     0.165 HD
HETATM   10  C6  UNL     1      -2.331  -1.079  -1.900  1.00  0.00     0.017 A 
HETATM   11  C7  UNL     1      -2.286  -0.644  -0.568  1.00  0.00    -0.023 A 
HETATM   12  C8  UNL     1      -3.548  -0.125  -0.280  1.00  0.00    -0.025 A 
HETATM   13  C9  UNL     1      -4.046   0.458   0.962  1.00  0.00     0.061 C 
HETATM   14  C10 UNL     1      -5.299  -0.258   1.467  1.00  0.00     0.130 C 
HETATM   15  C11 UNL     1      -0.970  -0.881   0.018  1.00  0.00     0.028 C 
HETATM   16  C12 UNL     1      -0.412   0.186   0.877  1.00  0.00     0.030 C 
HETATM   17  C13 UNL     1       1.118   0.187   0.575  1.00  0.00     0.128 C 
HETATM   18  N3  UNL     1       1.332   0.759  -0.733  1.00  0.00    -0.336 N 
HETATM   19  C21 UNL     1       0.214   0.492  -1.669  1.00  0.00     0.133 C 
HETATM   20  C22 UNL     1      -0.119  -0.951  -1.279  1.00  0.00     0.018 C 
HETATM   21  C23 UNL     1      -0.982  -1.639  -2.229  1.00  0.00     0.064 C 
ENDROOT
BRANCH  18  22
HETATM   22  C14 UNL     1       2.526   1.357  -1.203  1.00  0.00     0.291 C 
BRANCH  22  23
HETATM   23  O2  UNL     1       2.418   2.109  -2.261  1.00  0.00    -0.322 OA
ATOM     24  H2  UNL     1       3.219   2.510  -2.576  1.00  0.00     0.222 HD
ENDBRANCH  22  23
BRANCH  22  25
HETATM   25  N4  UNL     1       3.709   1.135  -0.580  1.00  0.00    -0.404 NA
BRANCH  25  26
HETATM   26  C15 UNL     1       4.936   0.905   0.067  1.00  0.00     0.170 C 
HETATM   27  C16 UNL     1       4.632   0.195   1.383  1.00  0.00     0.059 C 
HETATM   28  C17 UNL     1       5.871  -0.314   2.085  1.00  0.00     0.130 C 
HETATM   29  N5  UNL     1       7.014  -0.172   1.235  1.00  0.00    -0.336 N 
HETATM   30  C18 UNL     1       8.202   0.402   1.646  1.00  0.00     0.330 C 
HETATM   31  C19 UNL     1       6.848  -0.686  -0.117  1.00  0.00     0.130 C 
HETATM   32  N6  UNL     1       8.506   0.903   2.947  1.00  0.00    -0.040 NA
HETATM   33  O3  UNL     1       9.188   0.535   0.819  1.00  0.00    -0.251 OA
HETATM   34  C20 UNL     1       5.767   0.002  -0.858  1.00  0.00     0.059 C 
ENDBRANCH  25  26
ENDBRANCH  22  25
ENDBRANCH  18  22
TORSDOF 4
