REMARK  2 active torsions:
REMARK  status: ('A' for Active; 'I' for Inactive)
REMARK    1  A    between atoms: C1_2  and  C2_5 
REMARK    2  A    between atoms: C5_8  and  N1_9 
ROOT
HETATM    1  C2  UNL     1      -2.242  -0.084   0.028  1.00  0.00     0.048 A 
HETATM    2  C3  UNL     1      -1.501  -1.117   0.572  1.00  0.00     0.018 A 
HETATM    3  C4  UNL     1      -0.121  -1.108   0.555  1.00  0.00     0.031 A 
HETATM    4  C5  UNL     1       0.485  -0.012  -0.030  1.00  0.00     0.039 A 
HETATM    5  C9  UNL     1      -0.245   1.026  -0.576  1.00  0.00     0.031 A 
HETATM    6  C10 UNL     1      -1.623   1.002  -0.553  1.00  0.00     0.018 A 
ENDROOT
BRANCH   4   7
HETATM    7  N1  UNL     1       1.908   0.057  -0.036  1.00  0.00    -0.317 N 
HETATM    8  C6  UNL     1       2.856  -0.841  -0.258  1.00  0.00     0.115 A 
HETATM    9  C7  UNL     1       4.091  -0.255  -0.128  1.00  0.00     0.106 A 
HETATM   10  N2  UNL     1       3.840   1.041   0.183  1.00  0.00    -0.360 N 
HETATM   11  C8  UNL     1       2.531   1.241   0.240  1.00  0.00     0.188 A 
ATOM     12  H2  UNL     1       4.551   1.754   0.348  1.00  0.00     0.166 HD
ENDBRANCH   4   7
BRANCH   1  13
HETATM   13  C1  UNL     1      -3.738  -0.121   0.075  1.00  0.00     0.417 C 
HETATM   14  F1  UNL     1      -4.166   1.208   0.182  1.00  0.00    -0.166 F 
HETATM   15  F2  UNL     1      -4.230  -0.607  -1.115  1.00  0.00    -0.166 F 
HETATM   16  F3  UNL     1      -4.155  -0.857   1.167  1.00  0.00    -0.166 F 
ENDBRANCH   1  13
TORSDOF 2
