REMARK  3 active torsions:
REMARK  status: ('A' for Active; 'I' for Inactive)
REMARK    1  A    between atoms: C2_2  and  N1_3 
REMARK    2  A    between atoms: C5_8  and  C6_9 
REMARK    3  A    between atoms: C6_9  and  C9_12 
ROOT
HETATM    1  N1  UNL     1       1.224  -0.609   0.161  1.00  0.00    -0.345 N 
HETATM    2  C3  UNL     1       2.070  -1.192   1.045  1.00  0.00     0.109 A 
HETATM    3  C4  UNL     1       1.357  -1.480   2.182  1.00  0.00     0.106 A 
HETATM    4  N2  UNL     1       0.116  -1.065   1.950  1.00  0.00    -0.353 N 
ATOM      5  H2  UNL     1      -0.652  -1.144   2.616  1.00  0.00     0.166 HD
HETATM    6  C5  UNL     1       0.003  -0.519   0.704  1.00  0.00     0.100 A 
ENDROOT
BRANCH   6   7
HETATM    7  C6  UNL     1      -1.220   0.049   0.090  1.00  0.00     0.109 C 
HETATM    8  C7  UNL     1      -1.644  -0.652  -1.176  1.00  0.00     0.032 C 
HETATM    9  C8  UNL     1      -1.169   1.537  -0.094  1.00  0.00     0.032 C 
BRANCH   7  10
HETATM   10  C9  UNL     1      -2.360  -0.198   1.094  1.00  0.00     0.401 C 
HETATM   11  F1  UNL     1      -2.081   0.421   2.285  1.00  0.00    -0.170 F 
HETATM   12  F2  UNL     1      -3.557   0.251   0.532  1.00  0.00    -0.170 F 
HETATM   13  F3  UNL     1      -2.457  -1.575   1.252  1.00  0.00    -0.170 F 
ENDBRANCH   7  10
ENDBRANCH   6   7
BRANCH   1  14
HETATM   14  C2  UNL     1       1.624  -0.153  -1.171  1.00  0.00     0.125 C 
HETATM   15  C1  UNL     1       2.111   1.288  -1.104  1.00  0.00     0.027 C 
ENDBRANCH   1  14
TORSDOF 3
