REMARK  6 active torsions:
REMARK  status: ('A' for Active; 'I' for Inactive)
REMARK    1  A    between atoms: O1_1  and  N1_3 
REMARK    2  A    between atoms: N2_5  and  C2_6 
REMARK    3  A    between atoms: C2_6  and  C3_7 
REMARK    4  A    between atoms: C9_13  and  O2_14 
REMARK    5  A    between atoms: C10_16  and  N3_17 
REMARK    6  A    between atoms: N4_19  and  C11_21 
ROOT
HETATM    1  N1  UNL     1       0.437  -2.009  -0.794  1.00  0.00    -0.198 N 
HETATM    2  C1  UNL     1      -0.387  -1.092  -1.327  1.00  0.00     0.220 A 
HETATM    3  N2  UNL     1      -0.581  -0.130  -0.413  1.00  0.00    -0.314 N 
HETATM    4  C9  UNL     1       0.112  -0.440   0.680  1.00  0.00     0.192 A 
HETATM    5  C10 UNL     1       0.778  -1.642   0.467  1.00  0.00     0.200 A 
ENDROOT
BRANCH   5   6
HETATM    6  N3  UNL     1       1.622  -2.324   1.375  1.00  0.00    -0.280 N 
HETATM    7  N4  UNL     1       2.819  -2.064   1.528  1.00  0.00    -0.299 N 
ATOM      8  H4  UNL     1       3.367  -2.599   2.202  1.00  0.00     0.187 HD
ATOM      9  H3  UNL     1       1.218  -3.074   1.936  1.00  0.00     0.189 HD
BRANCH   7  10
HETATM   10  C11 UNL     1       3.442  -1.037   0.784  1.00  0.00     0.048 A 
HETATM   11  C12 UNL     1       3.755   0.184   1.390  1.00  0.00     0.034 A 
HETATM   12  C13 UNL     1       4.365   1.202   0.693  1.00  0.00     0.044 A 
HETATM   13  C14 UNL     1       4.700   1.070  -0.639  1.00  0.00     0.116 A 
HETATM   14  F1  UNL     1       5.303   2.083  -1.318  1.00  0.00    -0.206 F 
HETATM   15  C15 UNL     1       4.394  -0.132  -1.240  1.00  0.00     0.044 A 
HETATM   16  C16 UNL     1       3.782  -1.156  -0.547  1.00  0.00     0.034 A 
ENDBRANCH   7  10
ENDBRANCH   5   6
BRANCH   1  17
HETATM   17  O1  UNL     1       0.881  -3.171  -1.424  1.00  0.00    -0.280 OA
ATOM     18  H1  UNL     1       1.464  -3.820  -1.047  1.00  0.00     0.245 HD
ENDBRANCH   1  17
BRANCH   4  19
HETATM   19  O2  UNL     1       0.156   0.326   1.845  1.00  0.00    -0.343 OA
ATOM     20  H2  UNL     1       0.651   0.105   2.625  1.00  0.00     0.219 HD
ENDBRANCH   4  19
BRANCH   3  21
HETATM   21  C2  UNL     1      -1.417   1.050  -0.604  1.00  0.00     0.170 C 
BRANCH  21  22
HETATM   22  C3  UNL     1      -2.817   0.798  -0.180  1.00  0.00    -0.040 A 
HETATM   23  C4  UNL     1      -3.721   0.312  -1.100  1.00  0.00     0.009 A 
HETATM   24  C5  UNL     1      -5.019   0.078  -0.707  1.00  0.00     0.001 A 
HETATM   25  C6  UNL     1      -5.403   0.326   0.582  1.00  0.00     0.000 A 
HETATM   26  C7  UNL     1      -4.516   0.813   1.520  1.00  0.00     0.001 A 
HETATM   27  C8  UNL     1      -3.220   1.041   1.111  1.00  0.00     0.009 A 
ENDBRANCH  21  22
ENDBRANCH   3  21
TORSDOF 6
