REMARK  3 active torsions:
REMARK  status: ('A' for Active; 'I' for Inactive)
REMARK    1  A    between atoms: O1_2  and  N1_3 
REMARK    2  A    between atoms: N1_3  and  C2_5 
REMARK    3  A    between atoms: C5_12  and  N4_13 
ROOT
HETATM    1  C2  UNL     1       0.396  -0.339   0.293  1.00  0.00     0.717 A 
HETATM    2  N2  UNL     1      -0.694  -1.047  -0.096  1.00  0.00    -0.178 N 
ATOM      3  H2  UNL     1      -0.578  -2.031  -0.337  1.00  0.00     0.185 HD
HETATM    4  C3  UNL     1      -1.917  -0.506  -0.177  1.00  0.00     0.109 A 
HETATM    5  C4  UNL     1      -3.085  -1.344  -0.616  1.00  0.00     0.090 C 
HETATM    6  N3  UNL     1      -2.042   0.789   0.145  1.00  0.00    -0.180 N 
ATOM      7  H3  UNL     1      -2.963   1.223   0.091  1.00  0.00     0.185 HD
HETATM    8  C5  UNL     1      -0.993   1.536   0.537  1.00  0.00     0.691 A 
HETATM    9  N5  UNL     1       0.213   0.943   0.601  1.00  0.00    -0.021 N 
ATOM     10  H5  UNL     1       1.017   1.497   0.897  1.00  0.00     0.203 HD
ENDROOT
BRANCH   1  11
HETATM   11  N1  UNL     1       1.505  -0.966   0.331  1.00  0.00    -0.096 N 
ATOM     12  H1  UNL     1       1.490  -1.951   0.067  1.00  0.00     0.213 HD
BRANCH  11  13
HETATM   13  O1  UNL     1       2.708  -0.441   0.692  1.00  0.00    -0.272 OA
HETATM   14  C1  UNL     1       3.614   0.026  -0.311  1.00  0.00     0.238 C 
ENDBRANCH  11  13
ENDBRANCH   1  11
BRANCH   8  15
HETATM   15  N4  UNL     1      -1.198   2.763   0.826  1.00  0.00    -0.234 N 
ATOM     16  H42 UNL     1      -2.112   3.213   0.777  1.00  0.00     0.174 HD
ATOM     17  H41 UNL     1      -0.403   3.329   1.123  1.00  0.00     0.174 HD
ENDBRANCH   8  15
TORSDOF 3
