REMARK  8 active torsions:
REMARK  status: ('A' for Active; 'I' for Inactive)
REMARK    1  A    between atoms: C2_2  and  C3_3 
REMARK    2  A    between atoms: C3_3  and  N1_4 
REMARK    3  A    between atoms: N1_4  and  C4_7 
REMARK    4  A    between atoms: C4_7  and  C5_8 
REMARK    5  A    between atoms: C5_8  and  C6_9 
REMARK    6  A    between atoms: C6_9  and  N2_10 
REMARK    7  A    between atoms: N2_10  and  N3_11 
REMARK    8  A    between atoms: C11_22  and  N6_23 
ROOT
HETATM    1  C1  UNL     1       0.167  -0.784  -2.478  1.00  0.00     0.048 C 
HETATM    2  C2  UNL     1      -0.460  -0.159  -1.268  1.00  0.00     0.090 C 
HETATM    3  C7  UNL     1      -1.372   0.919  -1.727  1.00  0.00     0.045 C 
HETATM    4  C8  UNL     1      -2.677   0.998  -1.017  1.00  0.00     0.050 C 
HETATM    5  C9  UNL     1      -2.716   0.282   0.254  1.00  0.00     0.039 A 
HETATM    6  C10 UNL     1      -1.940  -0.865   0.474  1.00  0.00     0.168 A 
HETATM    7  N4  UNL     1      -2.210  -1.290   1.729  1.00  0.00    -0.278 N 
ATOM      8  H4  UNL     1      -1.797  -2.107   2.179  1.00  0.00     0.189 HD
HETATM    9  N5  UNL     1      -3.092  -0.480   2.276  1.00  0.00    -0.283 N 
ATOM     10  H5  UNL     1      -3.468  -0.575   3.220  1.00  0.00     0.188 HD
HETATM   11  C11 UNL     1      -3.427   0.498   1.402  1.00  0.00     0.124 A 
HETATM   12  O1  UNL     1      -1.136  -1.249  -0.597  1.00  0.00    -0.322 OA
ENDROOT
BRANCH   2  13
HETATM   13  C3  UNL     1       0.522   0.394  -0.294  1.00  0.00     0.270 C 
BRANCH  13  14
HETATM   14  N1  UNL     1       1.563  -0.477   0.109  1.00  0.00    -0.072 N 
ATOM     15  H12 UNL     1       1.203  -1.394   0.372  1.00  0.00     0.277 HD
ATOM     16  H11 UNL     1       2.143  -0.758  -0.681  1.00  0.00     0.277 HD
BRANCH  14  17
HETATM   17  C4  UNL     1       2.358   0.108   1.172  1.00  0.00     0.238 C 
BRANCH  17  18
HETATM   18  C5  UNL     1       3.618  -0.738   1.399  1.00  0.00     0.089 C 
BRANCH  18  19
HETATM   19  C6  UNL     1       4.409  -0.705   0.123  1.00  0.00     0.182 C 
BRANCH  19  20
HETATM   20  N2  UNL     1       4.546   0.407  -0.443  1.00  0.00    -0.350 NA
BRANCH  20  21
HETATM   21  N3  UNL     1       4.813   1.598  -0.752  1.00  0.00    -0.281 N 
ATOM     22  H32 UNL     1       5.240   1.777   0.157  1.00  0.00     0.191 HD
ATOM     23  H31 UNL     1       4.924   2.502  -1.212  1.00  0.00     0.191 HD
ENDBRANCH  20  21
ENDBRANCH  19  20
ENDBRANCH  18  19
ENDBRANCH  17  18
ENDBRANCH  14  17
ENDBRANCH  13  14
ENDBRANCH   2  13
BRANCH  11  24
HETATM   24  N6  UNL     1      -4.287   1.449   1.673  1.00  0.00    -0.384 N 
ATOM     25  H62 UNL     1      -4.539   2.186   1.014  1.00  0.00     0.157 HD
ATOM     26  H61 UNL     1      -4.817   1.610   2.529  1.00  0.00     0.157 HD
ENDBRANCH  11  24
TORSDOF 8
