REMARK  5 active torsions:
REMARK  status: ('A' for Active; 'I' for Inactive)
REMARK    1  A    between atoms: C4_5  and  C6_7 
REMARK    2  A    between atoms: C6_7  and  C7_8 
REMARK    3  A    between atoms: C7_8  and  N2_9 
REMARK    4  A    between atoms: N2_9  and  C8_11 
REMARK    5  A    between atoms: C10_15  and  C11_16 
ROOT
HETATM    1  C8  UNL     1       1.596  -0.606   0.074  1.00  0.00     0.679 A 
HETATM    2  N3  UNL     1       2.069   0.562   0.577  1.00  0.00    -0.201 N 
ATOM      3  H3  UNL     1       1.472   1.146   1.162  1.00  0.00     0.183 HD
HETATM    4  C9  UNL     1       3.326   0.946   0.302  1.00  0.00     0.120 A 
HETATM    5  C10 UNL     1       4.153   0.156  -0.497  1.00  0.00     0.041 A 
HETATM    6  C14 UNL     1       3.633  -1.019  -0.986  1.00  0.00     0.125 A 
HETATM    7  N4  UNL     1       4.337  -1.783  -1.745  1.00  0.00    -0.384 N 
ATOM      8  H41 UNL     1       3.951  -2.655  -2.108  1.00  0.00     0.157 HD
ATOM      9  H42 UNL     1       5.294  -1.509  -1.966  1.00  0.00     0.157 HD
HETATM   10  N5  UNL     1       2.349  -1.387  -0.690  1.00  0.00    -0.177 N 
ATOM     11  H5  UNL     1       1.971  -2.261  -1.056  1.00  0.00     0.186 HD
ENDROOT
BRANCH   1  12
HETATM   12  N2  UNL     1       0.390  -0.960   0.347  1.00  0.00    -0.226 N 
ATOM     13  H2  UNL     1       0.047  -1.840  -0.037  1.00  0.00     0.177 HD
BRANCH  12  14
HETATM   14  C7  UNL     1      -0.493  -0.188   1.158  1.00  0.00     0.139 C 
BRANCH  14  15
HETATM   15  C6  UNL     1      -1.884  -0.690   1.284  1.00  0.00     0.029 C 
BRANCH  15  16
HETATM   16  C4  UNL     1      -2.632  -0.771  -0.014  1.00  0.00    -0.039 C 
HETATM   17  C3  UNL     1      -2.689   0.596  -0.627  1.00  0.00     0.039 C 
HETATM   18  C2  UNL     1      -4.105   1.019  -0.965  1.00  0.00     0.272 C 
HETATM   19  N1  UNL     1      -4.806   0.992   0.330  1.00  0.00     0.084 N 
HETATM   20  C1  UNL     1      -6.080   1.677   0.189  1.00  0.00     0.309 C 
HETATM   21  C16 UNL     1      -5.066  -0.386   0.605  1.00  0.00     0.272 C 
HETATM   22  C15 UNL     1      -3.989  -1.347   0.299  1.00  0.00     0.039 C 
HETATM   23  C5  UNL     1      -1.946  -1.734  -0.946  1.00  0.00     0.015 C 
ENDBRANCH  15  16
ENDBRANCH  14  15
ENDBRANCH  12  14
ENDBRANCH   1  12
BRANCH   5  24
HETATM   24  C11 UNL     1       5.526   0.601  -0.755  1.00  0.00     0.128 C 
HETATM   25  C12 UNL     1       5.767   1.960  -0.075  1.00  0.00     0.057 C 
HETATM   26  C13 UNL     1       6.572  -0.351  -0.189  1.00  0.00     0.057 C 
HETATM   27  F1  UNL     1       5.820   0.790  -2.086  1.00  0.00    -0.238 F 
ENDBRANCH   5  24
TORSDOF 5
