REMARK  5 active torsions:
REMARK  status: ('A' for Active; 'I' for Inactive)
REMARK    1  A    between atoms: C2_2  and  N1_4 
REMARK       I    between atoms: N1_4  and  C4_6 
REMARK       I    between atoms: C4_6  and  N2_8 
REMARK    2  A    between atoms: N2_8  and  C5_10 
REMARK    3  A    between atoms: C5_10  and  C6_11 
REMARK    4  A    between atoms: C9_16  and  N3_17 
REMARK    5  A    between atoms: N3_17  and  S1_19 
ROOT
HETATM    1  C5  UNL     1       0.087  -0.968   0.458  1.00  0.00     0.093 C 
HETATM    2  C7  UNL     1      -0.520  -0.386  -0.818  1.00  0.00     0.039 C 
HETATM    3  C8  UNL     1      -1.912  -0.837  -1.082  1.00  0.00     0.028 C 
HETATM    4  C9  UNL     1      -2.828  -0.651   0.110  1.00  0.00     0.093 C 
HETATM    5  C11 UNL     1      -2.213  -1.490   1.227  1.00  0.00     0.028 C 
HETATM    6  C12 UNL     1      -0.901  -0.911   1.601  1.00  0.00     0.039 C 
ENDROOT
BRANCH   1   7
HETATM    7  N2  UNL     1       1.228  -0.177   0.812  1.00  0.00    -0.328 N 
HETATM    8  C4  UNL     1       2.350   0.162   0.067  1.00  0.00     0.317 C 
HETATM    9  N1  UNL     1       3.429   0.959   0.601  1.00  0.00    -0.339 N 
HETATM   10  O1  UNL     1       2.512  -0.193  -1.115  1.00  0.00    -0.247 OA
ATOM     11  H1  UNL     1       3.355   1.282   1.566  1.00  0.00     0.164 HD
ATOM     12  H2  UNL     1       1.214   0.196   1.761  1.00  0.00     0.165 HD
BRANCH   9  13
HETATM   13  C2  UNL     1       4.598   1.323  -0.144  1.00  0.00     0.078 C 
HETATM   14  C1  UNL     1       5.884   0.823   0.493  1.00  0.00     0.032 C 
HETATM   15  C3  UNL     1       4.739   2.821  -0.306  1.00  0.00     0.032 C 
ENDBRANCH   9  13
ENDBRANCH   1   7
BRANCH   1  16
HETATM   16  C6  UNL     1       0.466  -2.399   0.224  1.00  0.00     0.381 C 
HETATM   17  F1  UNL     1       1.047  -2.951   1.377  1.00  0.00    -0.212 F 
HETATM   18  F2  UNL     1       1.302  -2.632  -0.828  1.00  0.00    -0.212 F 
ENDBRANCH   1  16
BRANCH   4  19
HETATM   19  N3  UNL     1      -4.124  -1.166  -0.172  1.00  0.00    -0.315 N 
ATOM     20  H3  UNL     1      -4.286  -2.132  -0.457  1.00  0.00     0.172 HD
BRANCH  19  21
HETATM   21  S1  UNL     1      -5.392  -0.023   0.009  1.00  0.00     0.223 S 
HETATM   22  C10 UNL     1      -5.251   1.354  -1.068  1.00  0.00     0.185 C 
HETATM   23  O2  UNL     1      -5.548   0.433   1.426  1.00  0.00    -0.206 OA
HETATM   24  O3  UNL     1      -6.683  -0.746  -0.347  1.00  0.00    -0.206 OA
ENDBRANCH  19  21
ENDBRANCH   4  19
TORSDOF 5
