REMARK  4 active torsions:
REMARK  status: ('A' for Active; 'I' for Inactive)
REMARK    1  A    between atoms: C2_2  and  N1_3 
REMARK    2  A    between atoms: C2_2  and  C3_7 
REMARK    3  A    between atoms: C3_7  and  O1_9 
REMARK    4  A    between atoms: O1_9  and  C4_10 
ROOT
HETATM    1  C4  UNL     1       0.543   0.036   0.185  1.00  0.00     0.135 C 
HETATM    2  C5  UNL     1       0.231  -1.331   0.650  1.00  0.00     0.037 C 
HETATM    3  C6  UNL     1      -1.166  -1.463   1.262  1.00  0.00     0.063 C 
HETATM    4  C7  UNL     1      -2.198  -1.501   0.156  1.00  0.00     0.133 C 
HETATM    5  C8  UNL     1      -3.075  -2.715   0.373  1.00  0.00     0.071 C 
HETATM    6  N2  UNL     1      -1.542  -1.623  -1.080  1.00  0.00    -0.387 N 
ATOM      7  H2  UNL     1      -1.448  -2.541  -1.514  1.00  0.00     0.156 HD
HETATM    8  C9  UNL     1      -1.020  -0.503  -1.716  1.00  0.00     0.086 C 
HETATM    9  C10 UNL     1      -0.043  -0.945  -2.816  1.00  0.00     0.032 C 
HETATM   10  C11 UNL     1      -0.368   0.550  -0.899  1.00  0.00     0.072 C 
HETATM   11  C12 UNL     1      -1.429   1.398  -0.298  1.00  0.00    -0.013 A 
HETATM   12  C13 UNL     1      -1.130   2.746  -0.270  1.00  0.00     0.011 A 
HETATM   13  C14 UNL     1      -2.052   3.645   0.270  1.00  0.00     0.004 A 
HETATM   14  C15 UNL     1      -3.266   3.206   0.780  1.00  0.00     0.045 A 
HETATM   15  C16 UNL     1      -3.565   1.859   0.752  1.00  0.00     0.150 A 
HETATM   16  F2  UNL     1      -4.732   1.407   1.238  1.00  0.00    -0.203 F 
HETATM   17  C17 UNL     1      -2.649   0.979   0.217  1.00  0.00     0.117 A 
HETATM   18  O2  UNL     1      -3.069  -0.371   0.245  1.00  0.00    -0.317 OA
ENDROOT
BRANCH   1  19
HETATM   19  O1  UNL     1       1.867   0.087  -0.283  1.00  0.00    -0.349 OA
BRANCH  19  20
HETATM   20  C3  UNL     1       2.662   0.979   0.411  1.00  0.00     0.337 C 
HETATM   21  F1  UNL     1       2.988   2.075  -0.427  1.00  0.00    -0.217 F 
BRANCH  20  22
HETATM   22  C2  UNL     1       3.965   0.333   0.756  1.00  0.00     0.239 C 
HETATM   23  C1  UNL     1       4.729  -0.006  -0.525  1.00  0.00     0.045 C 
BRANCH  22  24
HETATM   24  N1  UNL     1       3.794  -0.836   1.584  1.00  0.00    -0.070 N 
ATOM     25  H13 UNL     1       3.349  -1.597   1.072  1.00  0.00     0.274 HD
ATOM     26  H12 UNL     1       4.686  -1.286   1.787  1.00  0.00     0.274 HD
ATOM     27  H11 UNL     1       3.285  -0.610   2.438  1.00  0.00     0.274 HD
ENDBRANCH  22  24
ENDBRANCH  20  22
ENDBRANCH  19  20
ENDBRANCH   1  19
TORSDOF 4
