REMARK  2 active torsions:
REMARK  status: ('A' for Active; 'I' for Inactive)
REMARK    1  A    between atoms: C1_2  and  C2_7 
REMARK    2  A    between atoms: N2_3  and  O1_5 
ROOT
HETATM    1  C2  UNL     1       0.482  -0.580  -1.068  1.00  0.00     0.165 C 
HETATM    2  C3  UNL     1      -0.285  -1.305  -0.028  1.00  0.00     0.034 C 
HETATM    3  C4  UNL     1      -1.158  -0.447   0.831  1.00  0.00     0.004 C 
HETATM    4  C5  UNL     1      -2.319   0.000  -0.038  1.00  0.00     0.021 C 
HETATM    5  C6  UNL     1      -1.920   1.329  -0.618  1.00  0.00     0.139 C 
HETATM    6  N3  UNL     1      -1.047   1.228  -1.727  1.00  0.00    -0.340 N 
ATOM      7  H3  UNL     1      -1.193   1.856  -2.517  1.00  0.00     0.179 HD
HETATM    8  N4  UNL     1      -0.121   0.420  -1.785  1.00  0.00    -0.329 N 
ATOM      9  H4  UNL     1       0.366   0.534  -2.674  1.00  0.00     0.180 HD
ENDROOT
BRANCH   1  10
HETATM   10  C1  UNL     1       1.704  -0.007  -0.422  1.00  0.00     0.137 C 
HETATM   11  N1  UNL     1       2.596  -0.940   0.175  1.00  0.00    -0.083 NA
HETATM   12  N2  UNL     1       1.939   1.260  -0.404  1.00  0.00    -0.257 N 
ATOM     13  H2  UNL     1       1.288   1.915  -0.837  1.00  0.00     0.195 HD
BRANCH  12  14
HETATM   14  O1  UNL     1       3.067   1.707   0.200  1.00  0.00    -0.289 OA
ATOM     15  H1  UNL     1       3.240   2.641   0.213  1.00  0.00     0.244 HD
ENDBRANCH  12  14
ENDBRANCH   1  10
TORSDOF 2
