REMARK  3 active torsions:
REMARK  status: ('A' for Active; 'I' for Inactive)
REMARK    1  A    between atoms: N1_1  and  C1_4 
REMARK    2  A    between atoms: C2_7  and  C3_8 
REMARK    3  A    between atoms: C6_11  and  C7_12 
ROOT
HETATM    1  C3  UNL     1       0.898  -0.716  -0.271  1.00  0.00     0.103 A 
HETATM    2  C4  UNL     1       0.303  -1.855  -0.727  1.00  0.00     0.042 A 
HETATM    3  C5  UNL     1      -1.064  -1.619  -0.651  1.00  0.00     0.041 A 
HETATM    4  C6  UNL     1      -1.236  -0.348  -0.152  1.00  0.00     0.086 A 
HETATM    5  O1  UNL     1      -0.046   0.131   0.051  1.00  0.00    -0.308 OA
ENDROOT
BRANCH   1   6
HETATM    6  C2  UNL     1       2.360  -0.468  -0.155  1.00  0.00     0.084 A 
HETATM    7  N2  UNL     1       2.818   0.700   0.311  1.00  0.00    -0.189 N 
HETATM    8  C1  UNL     1       4.120   0.940   0.421  1.00  0.00     0.676 A 
ATOM      9  H2  UNL     1       2.153   1.422   0.588  1.00  0.00     0.184 HD
HETATM   10  N3  UNL     1       5.008   0.008   0.065  1.00  0.00    -0.202 N 
HETATM   11  C14 UNL     1       4.585  -1.189  -0.412  1.00  0.00     0.108 A 
ATOM     12  H3  UNL     1       6.007   0.197   0.152  1.00  0.00     0.183 HD
HETATM   13  C13 UNL     1       3.237  -1.439  -0.527  1.00  0.00     0.050 A 
BRANCH   8  14
HETATM   14  N1  UNL     1       4.493   2.088   0.878  1.00  0.00    -0.234 N 
ATOM     15  H12 UNL     1       3.815   2.800   1.150  1.00  0.00     0.174 HD
ATOM     16  H11 UNL     1       5.493   2.272   0.962  1.00  0.00     0.174 HD
ENDBRANCH   8  14
ENDBRANCH   1   6
BRANCH   4  17
HETATM   17  C7  UNL     1      -2.541   0.281   0.079  1.00  0.00     0.001 A 
HETATM   18  C8  UNL     1      -2.659   1.559   0.581  1.00  0.00     0.014 A 
HETATM   19  C9  UNL     1      -3.879   2.163   0.804  1.00  0.00     0.004 A 
HETATM   20  C10 UNL     1      -5.056   1.482   0.521  1.00  0.00     0.042 A 
HETATM   21  C11 UNL     1      -4.933   0.205   0.020  1.00  0.00     0.117 A 
HETATM   22  F1  UNL     1      -6.095  -0.466  -0.259  1.00  0.00    -0.206 F 
HETATM   23  C12 UNL     1      -3.705  -0.392  -0.200  1.00  0.00     0.056 A 
ENDBRANCH   4  17
TORSDOF 3
