REMARK  2 active torsions:
REMARK  status: ('A' for Active; 'I' for Inactive)
REMARK       I    between atoms: C1_2  and  N1_3 
REMARK    1  A    between atoms: C1_2  and  C9_18 
REMARK    2  A    between atoms: N2_5  and  C2_7 
ROOT
HETATM    1  O1  UNL     1       1.829  -2.454   0.121  1.00  0.00    -0.266 OA
HETATM    2  C1  UNL     1       1.808  -1.199   0.152  1.00  0.00     0.273 C 
HETATM    3  N1  UNL     1       0.597  -0.474   0.313  1.00  0.00    -0.265 N 
ATOM      4  H1  UNL     1       0.633   0.481   0.669  1.00  0.00     0.190 HD
HETATM    5  N2  UNL     1      -0.512  -0.978   0.029  1.00  0.00    -0.296 N 
ATOM      6  H2  UNL     1      -0.580  -1.931  -0.328  1.00  0.00     0.187 HD
ENDROOT
BRANCH   5   7
HETATM    7  C2  UNL     1      -1.681  -0.180   0.220  1.00  0.00     0.077 A 
HETATM    8  C3  UNL     1      -1.769   1.057   0.862  1.00  0.00     0.120 A 
HETATM    9  N3  UNL     1      -3.045   1.482   0.833  1.00  0.00    -0.363 N 
HETATM   10  C4  UNL     1      -3.826   0.571   0.192  1.00  0.00     0.047 A 
ATOM     11  H3  UNL     1      -3.378   2.359   1.233  1.00  0.00     0.165 HD
HETATM   12  C5  UNL     1      -5.171   0.511  -0.109  1.00  0.00     0.047 A 
HETATM   13  C8  UNL     1      -2.975  -0.447  -0.181  1.00  0.00     0.035 A 
HETATM   14  C6  UNL     1      -5.696  -0.567  -0.788  1.00  0.00     0.090 A 
HETATM   15  N4  UNL     1      -4.850  -1.550  -1.143  1.00  0.00    -0.374 N 
HETATM   16  C7  UNL     1      -3.537  -1.509  -0.859  1.00  0.00     0.103 A 
ATOM     17  H4  UNL     1      -5.218  -2.357  -1.647  1.00  0.00     0.164 HD
ENDBRANCH   5   7
BRANCH   2  18
HETATM   18  C9  UNL     1       3.068  -0.485   0.017  1.00  0.00     0.072 A 
HETATM   19  C10 UNL     1       4.254  -1.192  -0.140  1.00  0.00     0.020 A 
HETATM   20  C11 UNL     1       5.441  -0.507  -0.266  1.00  0.00     0.001 A 
HETATM   21  C12 UNL     1       5.468   0.876  -0.238  1.00  0.00     0.003 A 
HETATM   22  C13 UNL     1       4.268   1.548  -0.080  1.00  0.00     0.043 A 
HETATM   23  C14 UNL     1       3.072   0.896   0.048  1.00  0.00     0.132 A 
HETATM   24  F1  UNL     1       1.889   1.519   0.203  1.00  0.00    -0.205 F 
ENDBRANCH   2  18
TORSDOF 2
