REMARK  4 active torsions:
REMARK  status: ('A' for Active; 'I' for Inactive)
REMARK    1  A    between atoms: O1_2  and  C2_3 
REMARK    2  A    between atoms: C8_10  and  C9_11 
REMARK    3  A    between atoms: C9_11  and  C10_12 
REMARK    4  A    between atoms: C10_12  and  C11_13 
ROOT
HETATM    1  C2  UNL     1       3.836   0.129  -0.615  1.00  0.00     0.090 A 
HETATM    2  C3  UNL     1       2.984  -0.914  -0.406  1.00  0.00     0.046 A 
HETATM    3  C4  UNL     1       1.590  -0.762  -0.266  1.00  0.00    -0.048 A 
HETATM    4  C5  UNL     1       1.059   0.511  -0.346  1.00  0.00    -0.039 A 
HETATM    5  C6  UNL     1       1.908   1.567  -0.556  1.00  0.00     0.035 A 
HETATM    6  C7  UNL     1       3.272   1.385  -0.688  1.00  0.00     0.068 A 
HETATM    7 CL1  UNL     1       4.334   2.764  -0.957  1.00  0.00    -0.081 Cl
HETATM    8  C8  UNL     1      -0.455   0.677  -0.208  1.00  0.00     0.023 C 
HETATM    9  C12 UNL     1      -0.699   0.769   1.247  1.00  0.00     0.005 A 
HETATM   10  C13 UNL     1       0.448   0.794   2.208  1.00  0.00     0.006 A 
HETATM   11  C14 UNL     1      -0.077  -0.442   2.923  1.00  0.00     0.006 A 
HETATM   12  C15 UNL     1      -1.199  -0.454   1.939  1.00  0.00    -0.003 A 
HETATM   13  C16 UNL     1      -1.409  -1.653   1.103  1.00  0.00     0.025 C 
HETATM   14  C17 UNL     1      -2.765  -1.468   0.452  1.00  0.00     0.278 C 
HETATM   15  N1  UNL     1      -2.457  -0.615  -0.691  1.00  0.00     0.090 N 
HETATM   16  C18 UNL     1      -3.060  -1.315  -1.852  1.00  0.00     0.310 C 
HETATM   17  C19 UNL     1      -1.031  -0.566  -0.856  1.00  0.00     0.240 C 
HETATM   18  C20 UNL     1      -0.583  -1.800  -0.108  1.00  0.00     0.030 C 
HETATM   19  C21 UNL     1       0.841  -2.012  -0.029  1.00  0.00     0.046 C 
ENDROOT
BRANCH   8  20
HETATM   20  C9  UNL     1      -0.797   1.821  -1.072  1.00  0.00     0.027 C 
BRANCH  20  21
HETATM   21  C10 UNL     1      -2.150   2.325  -1.289  1.00  0.00     0.114 C 
BRANCH  21  22
HETATM   22  C11 UNL     1      -2.862   2.858  -0.125  1.00  0.00     0.172 C 
HETATM   23  O2  UNL     1      -2.427   3.965   0.360  1.00  0.00    -0.648 OA
HETATM   24  O3  UNL     1      -3.949   2.312   0.508  1.00  0.00    -0.648 OA
ENDBRANCH  21  22
ENDBRANCH  20  21
ENDBRANCH   8  20
BRANCH   1  25
HETATM   25  O1  UNL     1       5.202   0.001  -0.753  1.00  0.00    -0.354 OA
HETATM   26  C1  UNL     1       5.848  -1.275  -0.687  1.00  0.00     0.210 C 
ENDBRANCH   1  25
TORSDOF 4
