REMARK  4 active torsions:
REMARK  status: ('A' for Active; 'I' for Inactive)
REMARK    1  A    between atoms: N1_2  and  C2_5 
REMARK    2  A    between atoms: C2_5  and  C3_6 
REMARK    3  A    between atoms: N2_19  and  C16_20 
REMARK    4  A    between atoms: C16_20  and  C17_21 
ROOT
HETATM    1  C3  UNL     1      -2.287   0.647   0.051  1.00  0.00     0.024 C 
HETATM    2  C4  UNL     1      -1.233   0.130   0.928  1.00  0.00    -0.001 C 
HETATM    3  C5  UNL     1      -2.314  -0.007   2.020  1.00  0.00     0.015 C 
HETATM    4  C6  UNL     1      -3.340   0.103   0.955  1.00  0.00    -0.038 C 
HETATM    5  C7  UNL     1      -4.435   1.067   1.383  1.00  0.00     0.015 C 
HETATM    6  C8  UNL     1      -3.950  -1.157   0.465  1.00  0.00     0.010 C 
HETATM    7  C9  UNL     1      -3.093  -2.366   0.371  1.00  0.00     0.002 C 
HETATM    8  C10 UNL     1      -2.129  -2.425  -0.767  1.00  0.00     0.010 C 
HETATM    9  C11 UNL     1      -0.760  -1.906  -0.510  1.00  0.00    -0.033 C 
HETATM   10  C12 UNL     1       0.119  -3.131  -0.153  1.00  0.00     0.012 C 
HETATM   11  C13 UNL     1       1.189  -2.616   0.764  1.00  0.00     0.037 C 
HETATM   12  C14 UNL     1       0.957  -1.130   0.849  1.00  0.00     0.228 C 
HETATM   13  C15 UNL     1      -0.579  -1.129   0.741  1.00  0.00     0.032 C 
HETATM   14  N2  UNL     1       1.582  -0.408  -0.199  1.00  0.00     0.093 N 
HETATM   15  C22 UNL     1       1.409  -1.114  -1.473  1.00  0.00     0.273 C 
HETATM   16  C23 UNL     1      -0.060  -1.320  -1.702  1.00  0.00     0.040 C 
ENDROOT
BRANCH  14  17
HETATM   17  C16 UNL     1       3.034  -0.511   0.047  1.00  0.00     0.277 C 
BRANCH  17  18
HETATM   18  C17 UNL     1       3.827   0.409  -0.852  1.00  0.00     0.018 C 
HETATM   19  C18 UNL     1       5.290   0.197  -0.531  1.00  0.00     0.032 C 
HETATM   20  C19 UNL     1       5.641   0.823   0.772  1.00  0.00     0.168 C 
HETATM   21  O1  UNL     1       5.667   2.209   0.578  1.00  0.00    -0.391 OA
HETATM   22  C20 UNL     1       4.816   2.621  -0.426  1.00  0.00     0.168 C 
HETATM   23  C21 UNL     1       3.521   1.851  -0.474  1.00  0.00     0.032 C 
ENDBRANCH  17  18
ENDBRANCH  14  17
BRANCH   1  24
HETATM   24  C2  UNL     1      -2.321   2.163  -0.044  1.00  0.00     0.237 C 
BRANCH  24  25
HETATM   25  N1  UNL     1      -3.370   2.609  -0.917  1.00  0.00    -0.079 N 
HETATM   26  C1  UNL     1      -3.399   4.033  -1.079  1.00  0.00     0.267 C 
ATOM     27  H12 UNL     1      -4.276   2.260  -0.604  1.00  0.00     0.276 HD
ATOM     28  H11 UNL     1      -3.314   2.141  -1.822  1.00  0.00     0.276 HD
ENDBRANCH  24  25
ENDBRANCH   1  24
TORSDOF 4
