REMARK  4 active torsions:
REMARK  status: ('A' for Active; 'I' for Inactive)
REMARK       I    between atoms: C1_2  and  N1_3 
REMARK    1  A    between atoms: C1_2  and  C7_11 
REMARK    2  A    between atoms: N1_3  and  C2_5 
REMARK    3  A    between atoms: C2_5  and  C3_6 
REMARK    4  A    between atoms: C3_6  and  C4_7 
ROOT
HETATM    1  O1  UNL     1      -0.622  -0.376   2.096  1.00  0.00    -0.273 OA
HETATM    2  C1  UNL     1      -0.643  -0.224   0.853  1.00  0.00     0.221 C 
HETATM    3  N1  UNL     1       0.468   0.370   0.207  1.00  0.00    -0.361 N 
ATOM      4  H1  UNL     1       0.472   0.504  -0.804  1.00  0.00     0.162 HD
ENDROOT
BRANCH   3   5
HETATM    5  C2  UNL     1       1.596   0.783   1.011  1.00  0.00     0.123 C 
BRANCH   5   6
HETATM    6  C3  UNL     1       2.693   1.396   0.165  1.00  0.00     0.027 C 
BRANCH   6   7
HETATM    7  C4  UNL     1       3.226   0.457  -0.861  1.00  0.00     0.024 A 
HETATM    8  C5  UNL     1       3.855  -0.833  -0.498  1.00  0.00     0.045 A 
HETATM    9  C6  UNL     1       4.744   0.332  -0.880  1.00  0.00     0.174 A 
HETATM   10  F1  UNL     1       5.446   0.855   0.200  1.00  0.00    -0.249 F 
ENDBRANCH   6   7
ENDBRANCH   5   6
ENDBRANCH   3   5
BRANCH   2  11
HETATM   11  C7  UNL     1      -1.850  -0.681   0.111  1.00  0.00     0.078 C 
HETATM   12  C8  UNL     1      -2.860  -1.268   1.053  1.00  0.00     0.014 C 
HETATM   13  C9  UNL     1      -4.176  -1.153   0.305  1.00  0.00     0.001 C 
HETATM   14  C10 UNL     1      -4.063   0.168  -0.405  1.00  0.00     0.001 C 
HETATM   15  C11 UNL     1      -2.602   0.551  -0.406  1.00  0.00     0.014 C 
ENDBRANCH   2  11
TORSDOF 4
