REMARK  5 active torsions:
REMARK  status: ('A' for Active; 'I' for Inactive)
REMARK       I    between atoms: C2_2  and  N1_4 
REMARK    1  A    between atoms: N1_4  and  C3_6 
REMARK    2  A    between atoms: C8_11  and  C9_12 
REMARK    3  A    between atoms: C9_12  and  N2_13 
REMARK    4  A    between atoms: N2_13  and  N3_14 
REMARK    5  A    between atoms: N3_14  and  C10_16 
ROOT
HETATM    1  C3  UNL     1      -2.308   0.625  -0.182  1.00  0.00     0.042 A 
HETATM    2  C4  UNL     1      -3.162   1.686  -0.324  1.00  0.00     0.030 A 
HETATM    3  C5  UNL     1      -2.708   3.014  -0.448  1.00  0.00     0.002 A 
HETATM    4  C6  UNL     1      -1.354   3.225  -0.421  1.00  0.00     0.001 A 
HETATM    5  C7  UNL     1      -0.457   2.177  -0.279  1.00  0.00     0.011 A 
HETATM    6  C8  UNL     1      -0.927   0.897  -0.161  1.00  0.00    -0.015 A 
ENDROOT
BRANCH   6   7
HETATM    7  C9  UNL     1      -0.016  -0.232  -0.003  1.00  0.00     0.175 C 
BRANCH   7   8
HETATM    8  N2  UNL     1       1.348   0.236  -0.016  1.00  0.00    -0.141 NA
BRANCH   8   9
HETATM    9  N3  UNL     1       2.281  -0.761   0.152  1.00  0.00    -0.335 N 
ATOM     10  H3  UNL     1       2.088  -1.723  -0.127  1.00  0.00     0.176 HD
BRANCH   9  11
HETATM   11  C10 UNL     1       3.511  -0.396   0.724  1.00  0.00     0.087 C 
HETATM   12  C11 UNL     1       4.387  -1.643   0.814  1.00  0.00     0.033 C 
HETATM   13  C12 UNL     1       4.242   0.603  -0.142  1.00  0.00     0.033 C 
ENDBRANCH   9  11
ENDBRANCH   8   9
ENDBRANCH   7   8
ENDBRANCH   6   7
BRANCH   1  14
HETATM   14  N1  UNL     1      -2.696  -0.708  -0.056  1.00  0.00    -0.327 N 
HETATM   15  C2  UNL     1      -3.997  -1.221  -0.048  1.00  0.00     0.218 C 
HETATM   16  C1  UNL     1      -4.273  -2.694   0.097  1.00  0.00     0.117 C 
HETATM   17  O1  UNL     1      -5.007  -0.519  -0.157  1.00  0.00    -0.274 OA
ATOM     18  H1  UNL     1      -1.943  -1.389   0.042  1.00  0.00     0.169 HD
ENDBRANCH   1  14
TORSDOF 5
