REMARK  5 active torsions:
REMARK  status: ('A' for Active; 'I' for Inactive)
REMARK    1  A    between atoms: C7_7  and  O1_9 
REMARK    2  A    between atoms: C17_19  and  O2_20 
REMARK    3  A    between atoms: C18_22  and  C19_23 
REMARK    4  A    between atoms: N1_24  and  O3_26 
REMARK    5  A    between atoms: C20_28  and  O4_29 
ROOT
HETATM    1  C1  UNL     1       1.151   0.109   2.195  1.00  0.00     0.011 C 
HETATM    2  C2  UNL     1       0.304  -0.668   1.225  1.00  0.00    -0.009 C 
HETATM    3  C3  UNL     1      -1.171  -0.529   1.572  1.00  0.00     0.014 C 
HETATM    4  C4  UNL     1      -2.034  -0.712   0.341  1.00  0.00    -0.037 C 
HETATM    5  C5  UNL     1      -1.826  -2.093  -0.186  1.00  0.00     0.015 C 
HETATM    6  C6  UNL     1      -3.471  -0.633   0.815  1.00  0.00     0.046 C 
HETATM    7  C7  UNL     1      -4.446  -0.491  -0.320  1.00  0.00     0.055 C 
HETATM    8  C8  UNL     1      -5.762  -0.023   0.323  1.00  0.00     0.045 C 
HETATM    9  C9  UNL     1      -4.041   0.594  -1.278  1.00  0.00     0.038 C 
HETATM   10  C10 UNL     1      -2.641   0.226  -1.795  1.00  0.00     0.009 C 
HETATM   11  C11 UNL     1      -1.724   0.400  -0.631  1.00  0.00    -0.001 C 
HETATM   12  C12 UNL     1      -0.286   0.516  -0.931  1.00  0.00    -0.000 C 
HETATM   13  C13 UNL     1       0.139   1.958  -0.663  1.00  0.00     0.010 C 
HETATM   14  C14 UNL     1       1.452   2.245  -1.314  1.00  0.00     0.040 C 
HETATM   15  C15 UNL     1       2.447   1.232  -0.799  1.00  0.00    -0.046 A 
HETATM   16  C16 UNL     1       3.789   1.549  -0.841  1.00  0.00     0.045 A 
HETATM   17  C17 UNL     1       4.728   0.667  -0.412  1.00  0.00     0.080 A 
HETATM   18  C18 UNL     1       4.325  -0.582   0.079  1.00  0.00     0.048 A 
HETATM   19  C20 UNL     1       2.987  -0.913   0.126  1.00  0.00     0.087 A 
HETATM   20  C21 UNL     1       2.060   0.018  -0.320  1.00  0.00    -0.013 A 
HETATM   21  C22 UNL     1       0.625  -0.444  -0.214  1.00  0.00     0.030 C 
ENDROOT
BRANCH  18  22
HETATM   22  C19 UNL     1       5.368  -1.476   0.519  1.00  0.00     0.130 C 
HETATM   23  N1  UNL     1       6.599  -1.129   0.457  1.00  0.00    -0.280 N 
ATOM     24  H1  UNL     1       6.810  -0.202   0.087  1.00  0.00     0.193 HD
BRANCH  23  25
HETATM   25  O3  UNL     1       7.643  -1.900   0.846  1.00  0.00    -0.290 OA
ATOM     26  H3  UNL     1       8.556  -1.643   0.800  1.00  0.00     0.244 HD
ENDBRANCH  23  25
ENDBRANCH  18  22
BRANCH  17  27
HETATM   27  O2  UNL     1       6.097   0.980  -0.450  1.00  0.00    -0.360 OA
ATOM     28  H2  UNL     1       6.754   0.363  -0.150  1.00  0.00     0.217 HD
ENDBRANCH  17  27
BRANCH  19  29
HETATM   29  O4  UNL     1       2.652  -2.142   0.611  1.00  0.00    -0.359 OA
ATOM     30  H4  UNL     1       1.730  -2.370   0.643  1.00  0.00     0.217 HD
ENDBRANCH  19  29
BRANCH   7  31
HETATM   31  O1  UNL     1      -4.674  -1.641  -1.036  1.00  0.00    -0.390 OA
ATOM     32  H1  UNL     1      -5.290  -1.551  -1.753  1.00  0.00     0.210 HD
ENDBRANCH   7  31
TORSDOF 5
