REMARK  7 active torsions:
REMARK  status: ('A' for Active; 'I' for Inactive)
REMARK    1  A    between atoms: C2_2  and  C3_3 
REMARK    2  A    between atoms: C3_3  and  N1_4 
REMARK       I    between atoms: N1_4  and  C4_6 
REMARK    3  A    between atoms: C4_6  and  O2_8 
REMARK    4  A    between atoms: O2_8  and  C5_9 
REMARK    5  A    between atoms: C16_22  and  C17_23 
REMARK    6  A    between atoms: C17_23  and  O3_24 
REMARK    7  A    between atoms: C17_23  and  C19_27 
ROOT
HETATM    1  O3  UNL     1      -1.252   1.220   1.900  1.00  0.00    -0.271 OA
HETATM    2  C18 UNL     1      -0.854   2.499   2.162  1.00  0.00     0.229 C 
HETATM    3  N3  UNL     1      -0.535   3.598   2.382  1.00  0.00    -0.164 NA
ENDROOT
BRANCH   1   4
HETATM    4  C17 UNL     1      -1.677   0.781   0.639  1.00  0.00     0.197 C 
BRANCH   4   5
HETATM    5  C16 UNL     1      -1.128  -0.528   0.132  1.00  0.00     0.044 C 
HETATM    6  C9  UNL     1      -1.701  -0.779  -1.194  1.00  0.00    -0.013 A 
HETATM    7  C7  UNL     1      -0.782  -0.991  -2.321  1.00  0.00    -0.001 A 
HETATM    8  C8  UNL     1      -1.901  -0.068  -2.398  1.00  0.00     0.017 A 
HETATM    9  C10 UNL     1      -2.579  -2.225  -1.139  1.00  0.00     0.129 C 
HETATM   10  C6  UNL     1       0.601  -0.537  -2.206  1.00  0.00     0.039 C 
HETATM   11  C5  UNL     1       1.066  -0.247  -0.834  1.00  0.00     0.143 C 
HETATM   12  C14 UNL     1       0.339  -0.746   0.324  1.00  0.00    -0.002 C 
HETATM   13  C12 UNL     1       0.506  -2.350   0.562  1.00  0.00     0.031 C 
HETATM   14  C15 UNL     1       1.018  -0.272   1.532  1.00  0.00     0.019 C 
HETATM   15  C11 UNL     1      -0.665  -2.790  -0.042  1.00  0.00     0.060 C 
HETATM   16  C13 UNL     1       1.724  -2.876   0.025  1.00  0.00     0.016 C 
HETATM   17  N2  UNL     1      -1.503  -2.754  -0.495  1.00  0.00    -0.401 N 
ATOM     18  H2  UNL     1      -1.752  -3.743  -0.501  1.00  0.00     0.158 HD
BRANCH  11  19
HETATM   19  O2  UNL     1       2.481  -0.386  -0.784  1.00  0.00    -0.298 OA
BRANCH  19  20
HETATM   20  C4  UNL     1       3.376   0.658  -0.707  1.00  0.00     0.361 C 
HETATM   21  N1  UNL     1       4.794   0.475  -0.652  1.00  0.00    -0.333 N 
ATOM     22  H1  UNL     1       5.215  -0.454  -0.670  1.00  0.00     0.165 HD
HETATM   23  O1  UNL     1       2.874   1.818  -0.685  1.00  0.00    -0.238 OA
BRANCH  21  24
HETATM   24  C3  UNL     1       5.602   1.674  -0.570  1.00  0.00     0.151 C 
BRANCH  24  25
HETATM   25  C2  UNL     1       7.044   1.439  -0.519  1.00  0.00    -0.018 C 
HETATM   26  C1  UNL     1       7.736   1.862   0.523  1.00  0.00     0.008 C 
ENDBRANCH  24  25
ENDBRANCH  21  24
ENDBRANCH  19  20
ENDBRANCH  11  19
ENDBRANCH   4   5
BRANCH   4  27
HETATM   27  C19 UNL     1      -3.147   0.944   0.560  1.00  0.00     0.042 A 
HETATM   28  C20 UNL     1      -3.737   1.798  -0.392  1.00  0.00     0.028 A 
HETATM   29  C21 UNL     1      -5.078   1.990  -0.506  1.00  0.00     0.003 A 
HETATM   30  C22 UNL     1      -5.931   1.330   0.343  1.00  0.00     0.017 A 
HETATM   31  C23 UNL     1      -5.361   0.499   1.272  1.00  0.00     0.090 A 
HETATM   32  N4  UNL     1      -4.001   0.327   1.358  1.00  0.00    -0.362 N 
HETATM   33  C24 UNL     1      -3.583  -0.573   2.375  1.00  0.00     0.155 C 
ENDBRANCH   4  27
ENDBRANCH   1   4
TORSDOF 7
