REMARK  4 active torsions:
REMARK  status: ('A' for Active; 'I' for Inactive)
REMARK    1  A    between atoms: N1_1  and  C1_4 
REMARK    2  A    between atoms: C2_9  and  C3_10 
REMARK    3  A    between atoms: C4_11  and  C5_12 
REMARK       I    between atoms: C5_12  and  N4_14 
REMARK    4  A    between atoms: N4_14  and  C6_16 
ROOT
HETATM    1  C3  UNL     1      -1.407  -0.179  -0.181  1.00  0.00     0.044 C 
HETATM    2  C4  UNL     1      -0.611   0.094   0.792  1.00  0.00     0.077 C 
ENDROOT
BRANCH   2   3
HETATM    3  C5  UNL     1       0.825   0.164   0.650  1.00  0.00     0.246 C 
HETATM    4  O1  UNL     1       1.568   0.441   1.658  1.00  0.00    -0.268 OA
HETATM    5  N4  UNL     1       1.432  -0.073  -0.606  1.00  0.00    -0.312 N 
ATOM      6  H4  UNL     1       0.841  -0.292  -1.408  1.00  0.00     0.170 HD
BRANCH   5   7
HETATM    7  C6  UNL     1       2.851  -0.014  -0.785  1.00  0.00     0.107 A 
HETATM    8  N5  UNL     1       3.477  -0.213  -1.892  1.00  0.00    -0.286 N 
HETATM    9  N6  UNL     1       4.850  -0.084  -1.744  1.00  0.00    -0.268 N 
ATOM     10  H5  UNL     1       3.017  -0.439  -2.774  1.00  0.00     0.188 HD
HETATM   11  C7  UNL     1       5.136   0.234  -0.389  1.00  0.00     0.243 A 
ATOM     12  H6  UNL     1       5.541  -0.199  -2.486  1.00  0.00     0.190 HD
HETATM   13  O2  UNL     1       6.221   0.444   0.179  1.00  0.00    -0.271 OA
HETATM   14  C8  UNL     1       3.812   0.279   0.298  1.00  0.00     0.182 A 
ENDBRANCH   5   7
ENDBRANCH   2   3
BRANCH   1  15
HETATM   15  C2  UNL     1      -2.871  -0.220   0.102  1.00  0.00     0.092 A 
HETATM   16  N3  UNL     1      -3.481  -0.006   1.255  1.00  0.00    -0.292 N 
HETATM   17  N2  UNL     1      -4.750  -0.079   1.329  1.00  0.00    -0.279 N 
ATOM     18  H3  UNL     1      -2.934   0.218   2.087  1.00  0.00     0.187 HD
HETATM   19  C1  UNL     1      -5.438  -0.374   0.225  1.00  0.00     0.159 A 
ATOM     20  H2  UNL     1      -5.230   0.085   2.214  1.00  0.00     0.189 HD
HETATM   21  S1  UNL     1      -4.190  -0.543  -0.931  1.00  0.00    -0.034 SA
BRANCH  19  22
HETATM   22  N1  UNL     1      -6.743  -0.488   0.128  1.00  0.00    -0.379 N 
ATOM     23  H12 UNL     1      -7.488  -0.387   0.818  1.00  0.00     0.158 HD
ATOM     24  H11 UNL     1      -7.269  -0.714  -0.716  1.00  0.00     0.158 HD
ENDBRANCH  19  22
ENDBRANCH   1  15
TORSDOF 4
