REMARK  10 active torsions:
REMARK  status: ('A' for Active; 'I' for Inactive)
REMARK    1  A    between atoms: C3_6  and  N2_7 
REMARK    2  A    between atoms: N2_7  and  C4_9 
REMARK    3  A    between atoms: C4_9  and  C5_10 
REMARK    4  A    between atoms: C5_10  and  O1_11 
REMARK    5  A    between atoms: C5_10  and  C6_13 
REMARK    6  A    between atoms: C6_13  and  O2_14 
REMARK    7  A    between atoms: O2_14  and  C7_15 
REMARK    8  A    between atoms: C10_18  and  C11_19 
REMARK    9  A    between atoms: C14_22  and  C15_23 
REMARK   10  A    between atoms: C15_23  and  N3_24 
ROOT
HETATM    1  C7  UNL     1      -1.259  -1.011  -1.156  1.00  0.00     0.069 A 
HETATM    2  C8  UNL     1      -0.381  -1.870  -1.877  1.00  0.00     0.037 A 
HETATM    3  C9  UNL     1       0.959  -1.634  -1.794  1.00  0.00     0.015 A 
HETATM    4  C10 UNL     1       1.520  -0.623  -1.061  1.00  0.00    -0.026 A 
HETATM    5  C22 UNL     1       0.688   0.217  -0.358  1.00  0.00     0.015 A 
HETATM    6  C23 UNL     1      -0.671  -0.007  -0.429  1.00  0.00     0.037 A 
ENDROOT
BRANCH   1   7
HETATM    7  O2  UNL     1      -2.567  -1.292  -1.272  1.00  0.00    -0.345 OA
BRANCH   7   8
HETATM    8  C6  UNL     1      -3.752  -0.804  -0.845  1.00  0.00     0.241 C 
BRANCH   8   9
HETATM    9  C5  UNL     1      -4.217   0.540  -1.305  1.00  0.00     0.082 C 
BRANCH   9  10
HETATM   10  C4  UNL     1      -5.700   0.720  -1.238  1.00  0.00     0.117 C 
BRANCH  10  11
HETATM   11  N2  UNL     1      -6.295   0.973  -0.004  1.00  0.00    -0.392 N 
ATOM     12  H2  UNL     1      -6.626   1.918   0.191  1.00  0.00     0.159 HD
BRANCH  11  13
HETATM   13  C3  UNL     1      -6.461  -0.009   0.983  1.00  0.00     0.089 C 
HETATM   14  C2  UNL     1      -7.417  -1.066   0.421  1.00  0.00     0.100 C 
HETATM   15  C1  UNL     1      -8.645  -0.274   0.047  1.00  0.00     0.072 C 
HETATM   16  N1  UNL     1      -9.229  -0.446  -1.075  1.00  0.00    -0.389 N 
HETATM   17  N4  UNL     1      -9.073   0.651   1.034  1.00  0.00    -0.380 N 
ATOM     18  H12 UNL     1      -8.921  -1.111  -1.785  1.00  0.00     0.157 HD
ATOM     19  H11 UNL     1     -10.059   0.090  -1.328  1.00  0.00     0.157 HD
HETATM   20  C25 UNL     1      -8.529   0.463   2.366  1.00  0.00     0.123 C 
ATOM     21  H4  UNL     1      -9.726   1.405   0.820  1.00  0.00     0.160 HD
HETATM   22  C24 UNL     1      -7.028   0.573   2.272  1.00  0.00     0.045 C 
ENDBRANCH  11  13
ENDBRANCH  10  11
ENDBRANCH   9  10
BRANCH   9  23
HETATM   23  O1  UNL     1      -3.498   1.620  -0.890  1.00  0.00    -0.361 OA
ATOM     24  H1  UNL     1      -2.556   1.506  -0.933  1.00  0.00     0.217 HD
ENDBRANCH   9  23
ENDBRANCH   8   9
ENDBRANCH   7   8
ENDBRANCH   1   7
BRANCH   4  25
HETATM   25  C11 UNL     1       2.968  -0.479  -1.043  1.00  0.00    -0.026 A 
HETATM   26  C12 UNL     1       3.547   0.785  -0.913  1.00  0.00     0.013 A 
HETATM   27  C13 UNL     1       4.907   0.972  -0.866  1.00  0.00     0.010 A 
HETATM   28  C14 UNL     1       5.781  -0.108  -0.949  1.00  0.00    -0.030 A 
HETATM   29  C20 UNL     1       5.219  -1.357  -1.079  1.00  0.00     0.010 A 
HETATM   30  C21 UNL     1       3.853  -1.522  -1.124  1.00  0.00     0.013 A 
BRANCH  28  31
HETATM   31  C15 UNL     1       7.249   0.089  -0.889  1.00  0.00     0.311 C 
BRANCH  31  32
HETATM   32  N3  UNL     1       7.708  -0.293   0.435  1.00  0.00     0.096 N 
HETATM   33  C16 UNL     1       7.128   0.442   1.504  1.00  0.00     0.299 C 
HETATM   34  C17 UNL     1       7.978   1.710   1.670  1.00  0.00     0.198 C 
HETATM   35  O3  UNL     1       9.220   1.360   2.133  1.00  0.00    -0.388 OA
HETATM   36  C18 UNL     1       9.632   0.084   1.833  1.00  0.00     0.198 C 
HETATM   37  C19 UNL     1       9.148  -0.376   0.484  1.00  0.00     0.299 C 
ENDBRANCH  31  32
ENDBRANCH  28  31
ENDBRANCH   4  25
TORSDOF 10
