REMARK  12 active torsions:
REMARK  status: ('A' for Active; 'I' for Inactive)
REMARK    1  A    between atoms: C2_2  and  C3_3 
REMARK    2  A    between atoms: C3_3  and  C4_4 
REMARK    3  A    between atoms: C3_3  and  C5_7 
REMARK    4  A    between atoms: C4_4  and  O1_5 
REMARK    5  A    between atoms: C7_9  and  O2_10 
REMARK    6  A    between atoms: C13_20  and  C14_21 
REMARK    7  A    between atoms: C14_21  and  C15_22 
REMARK    8  A    between atoms: C15_22  and  O6_23 
REMARK    9  A    between atoms: C15_22  and  C16_25 
REMARK   10  A    between atoms: C16_25  and  C17_26 
REMARK       I    between atoms: C17_26  and  N1_28 
REMARK   11  A    between atoms: N1_28  and  C18_30 
REMARK   12  A    between atoms: C18_30  and  C19_31 
ROOT
HETATM    1  C5  UNL     1      -3.294   0.295   0.983  1.00  0.00     0.123 C 
HETATM    2  C6  UNL     1      -4.330  -0.820   0.880  1.00  0.00     0.080 C 
HETATM    3  C7  UNL     1      -3.702  -1.944   1.639  1.00  0.00     0.153 C 
HETATM    4  C8  UNL     1      -2.415  -1.286   2.068  1.00  0.00     0.184 C 
HETATM    5  O3  UNL     1      -2.810   0.032   2.251  1.00  0.00    -0.362 OA
HETATM    6  C9  UNL     1      -1.544  -1.213   0.803  1.00  0.00     0.194 C 
HETATM    7  O4  UNL     1      -1.839  -2.273  -0.035  1.00  0.00    -0.345 OA
HETATM    8  C10 UNL     1      -2.028  -1.771  -1.275  1.00  0.00     0.158 C 
HETATM    9  C11 UNL     1      -0.751  -1.986  -2.069  1.00  0.00     0.078 C 
HETATM   10  C12 UNL     1      -3.073  -2.585  -2.081  1.00  0.00     0.078 C 
HETATM   11  O5  UNL     1      -2.424  -0.481  -1.127  1.00  0.00    -0.339 OA
HETATM   12  C13 UNL     1      -2.085  -0.006   0.143  1.00  0.00     0.131 C 
ENDROOT
BRANCH  12  13
HETATM   13  C14 UNL     1      -1.273   1.213   0.100  1.00  0.00     0.076 C 
BRANCH  13  14
HETATM   14  C15 UNL     1      -0.005   1.383  -0.588  1.00  0.00     0.130 C 
BRANCH  14  15
HETATM   15  O6  UNL     1       0.397   2.763  -0.377  1.00  0.00    -0.395 OA
ATOM     16  H6  UNL     1       1.226   2.874  -0.827  1.00  0.00     0.210 HD
ENDBRANCH  14  15
BRANCH  14  17
HETATM   17  C16 UNL     1       1.185   0.645  -0.032  1.00  0.00     0.134 C 
BRANCH  17  18
HETATM   18  C17 UNL     1       2.423   0.979  -0.860  1.00  0.00     0.220 C 
HETATM   19  O7  UNL     1       2.231   1.771  -1.810  1.00  0.00    -0.274 OA
HETATM   20  N1  UNL     1       3.674   0.424  -0.557  1.00  0.00    -0.361 N 
ATOM     21  H1  UNL     1       3.780  -0.218   0.229  1.00  0.00     0.162 HD
BRANCH  20  22
HETATM   22  C18 UNL     1       4.802   0.773  -1.370  1.00  0.00     0.127 C 
BRANCH  22  23
HETATM   23  C19 UNL     1       6.080   0.106  -0.932  1.00  0.00     0.003 C 
HETATM   24  C20 UNL     1       6.016  -1.383  -0.967  1.00  0.00     0.006 C 
HETATM   25  C21 UNL     1       7.194  -1.802  -0.123  1.00  0.00     0.000 C 
HETATM   26  C22 UNL     1       7.531  -0.629   0.759  1.00  0.00     0.000 C 
HETATM   27  C23 UNL     1       6.425   0.401   0.506  1.00  0.00     0.006 C 
ENDBRANCH  22  23
ENDBRANCH  20  22
ENDBRANCH  17  18
ENDBRANCH  14  17
ENDBRANCH  13  14
ENDBRANCH  12  13
BRANCH   1  28
HETATM   28  C3  UNL     1      -4.005   1.568   0.894  1.00  0.00    -0.020 C 
BRANCH  28  29
HETATM   29  C2  UNL     1      -4.730   1.882  -0.346  1.00  0.00    -0.002 C 
HETATM   30  C1  UNL     1      -6.035   2.110  -0.349  1.00  0.00     0.011 C 
ENDBRANCH  28  29
BRANCH  28  31
HETATM   31  C4  UNL     1      -3.487   2.748   1.675  1.00  0.00     0.201 C 
BRANCH  31  32
HETATM   32  O1  UNL     1      -4.568   3.582   2.076  1.00  0.00    -0.397 OA
ATOM     33  H1  UNL     1      -4.241   4.326   2.568  1.00  0.00     0.209 HD
ENDBRANCH  31  32
ENDBRANCH  28  31
ENDBRANCH   1  28
BRANCH   3  34
HETATM   34  O2  UNL     1      -4.446  -2.331   2.761  1.00  0.00    -0.393 OA
ATOM     35  H2  UNL     1      -4.047  -3.045   3.243  1.00  0.00     0.210 HD
ENDBRANCH   3  34
TORSDOF 12
