REMARK  9 active torsions:
REMARK  status: ('A' for Active; 'I' for Inactive)
REMARK    1  A    between atoms: C4_4  and  C5_5 
REMARK    2  A    between atoms: C5_5  and  C6_6 
REMARK    3  A    between atoms: C6_6  and  C7_7 
REMARK    4  A    between atoms: C9_9  and  C10_10 
REMARK    5  A    between atoms: C10_10  and  C11_11 
REMARK    6  A    between atoms: C11_11  and  C12_12 
REMARK    7  A    between atoms: C14_15  and  C15_16 
REMARK       I    between atoms: N2_20  and  C19_21 
REMARK    8  A    between atoms: C19_21  and  C20_23 
REMARK    9  A    between atoms: C22_25  and  O2_26 
ROOT
HETATM    1  C12 UNL     1      -0.018   1.084   1.293  1.00  0.00     0.019 C 
HETATM    2  C13 UNL     1       0.418   1.683   2.541  1.00  0.00     0.095 C 
HETATM    3  N1  UNL     1       0.752   2.170   3.527  1.00  0.00    -0.192 NA
HETATM    4  C14 UNL     1       0.809   0.881   0.309  1.00  0.00    -0.002 C 
ENDROOT
BRANCH   1   5
HETATM    5  C11 UNL     1      -1.471   0.694   1.158  1.00  0.00     0.053 C 
BRANCH   5   6
HETATM    6  C10 UNL     1      -1.700   0.101  -0.175  1.00  0.00     0.032 C 
BRANCH   6   7
HETATM    7  C9  UNL     1      -3.039  -0.371  -0.528  1.00  0.00    -0.024 C 
HETATM    8  C7  UNL     1      -4.132  -0.465   0.157  1.00  0.00    -0.087 C 
HETATM    9  C8  UNL     1      -4.401  -0.144   1.574  1.00  0.00     0.043 C 
BRANCH   8  10
HETATM   10  C6  UNL     1      -5.338  -1.025  -0.623  1.00  0.00     0.037 C 
BRANCH  10  11
HETATM   11  C5  UNL     1      -6.450  -0.026  -0.654  1.00  0.00     0.031 C 
BRANCH  11  12
HETATM   12  C4  UNL     1      -7.595  -0.582  -1.409  1.00  0.00    -0.024 C 
HETATM   13  C2  UNL     1      -8.793  -0.757  -0.875  1.00  0.00    -0.091 C 
HETATM   14  C1  UNL     1      -9.919  -1.318  -1.663  1.00  0.00     0.042 C 
HETATM   15  C3  UNL     1      -9.034  -0.389   0.543  1.00  0.00     0.042 C 
ENDBRANCH  11  12
ENDBRANCH  10  11
ENDBRANCH   8  10
ENDBRANCH   6   7
ENDBRANCH   5   6
ENDBRANCH   1   5
BRANCH   4  16
HETATM   16  C15 UNL     1       2.253   1.294   0.509  1.00  0.00     0.027 C 
HETATM   17  C16 UNL     1       2.522   2.299  -0.592  1.00  0.00     0.012 C 
HETATM   18  C17 UNL     1       3.973   2.569  -0.788  1.00  0.00     0.021 C 
HETATM   19  C18 UNL     1       4.684   1.239  -1.119  1.00  0.00     0.126 C 
HETATM   20  N2  UNL     1       4.441   0.371  -0.019  1.00  0.00    -0.350 N 
HETATM   21  C19 UNL     1       5.489  -0.211   0.714  1.00  0.00     0.250 C 
HETATM   22  C24 UNL     1       3.081   0.059   0.357  1.00  0.00     0.134 C 
HETATM   23  O1  UNL     1       5.262  -0.958   1.723  1.00  0.00    -0.271 OA
BRANCH  21  24
HETATM   24  C20 UNL     1       6.893   0.049   0.304  1.00  0.00     0.279 C 
HETATM   25  C21 UNL     1       7.100  -0.753  -0.980  1.00  0.00     0.076 C 
HETATM   26  C22 UNL     1       7.815  -1.991  -0.496  1.00  0.00     0.146 C 
HETATM   27  C23 UNL     1       8.720  -1.356   0.570  1.00  0.00     0.264 C 
HETATM   28  N3  UNL     1       7.762  -0.576   1.287  1.00  0.00    -0.060 N 
ATOM     29  H32 UNL     1       8.190   0.095   1.925  1.00  0.00     0.278 HD
ATOM     30  H31 UNL     1       7.251  -1.115   1.986  1.00  0.00     0.278 HD
BRANCH  26  31
HETATM   31  O2  UNL     1       6.913  -2.870   0.087  1.00  0.00    -0.394 OA
ATOM     32  H2  UNL     1       7.363  -3.649   0.392  1.00  0.00     0.210 HD
ENDBRANCH  26  31
ENDBRANCH  21  24
ENDBRANCH   4  16
TORSDOF 9
