REMARK  6 active torsions:
REMARK  status: ('A' for Active; 'I' for Inactive)
REMARK       I    between atoms: C1_2  and  N1_3 
REMARK    1  A    between atoms: C1_2  and  C7_11 
REMARK    2  A    between atoms: N1_3  and  C2_5 
REMARK    3  A    between atoms: C2_5  and  C3_6 
REMARK       I    between atoms: N2_14  and  C10_15 
REMARK       I    between atoms: C10_15  and  N3_17 
REMARK    4  A    between atoms: N3_17  and  C11_19 
REMARK    5  A    between atoms: C11_19  and  C12_20 
REMARK    6  A    between atoms: C12_20  and  C13_21 
ROOT
HETATM    1  C7  UNL     1      -1.833  -1.870   0.590  1.00  0.00     0.182 C 
HETATM    2  C8  UNL     1      -2.470  -3.244   0.612  1.00  0.00     0.055 C 
HETATM    3  C9  UNL     1      -1.817  -3.363  -0.749  1.00  0.00     0.131 C 
HETATM    4  N2  UNL     1      -0.837  -2.407  -0.305  1.00  0.00    -0.321 N 
HETATM    5  C10 UNL     1       0.507  -2.112  -0.603  1.00  0.00     0.319 C 
HETATM    6  O3  UNL     1       1.096  -2.814  -1.474  1.00  0.00    -0.247 OA
HETATM    7  N3  UNL     1       1.189  -1.053   0.054  1.00  0.00    -0.343 N 
ATOM      8  H3  UNL     1       0.692  -0.499   0.752  1.00  0.00     0.164 HD
ENDROOT
BRANCH   1   9
HETATM    9  C1  UNL     1      -2.689  -0.798   0.014  1.00  0.00     0.240 C 
HETATM   10  O1  UNL     1      -2.475  -0.470  -1.169  1.00  0.00    -0.271 OA
HETATM   11  N1  UNL     1      -3.686  -0.194   0.775  1.00  0.00    -0.357 N 
ATOM     12  H1  UNL     1      -3.778  -0.528   1.734  1.00  0.00     0.162 HD
BRANCH  11  13
HETATM   13  C2  UNL     1      -4.590   0.826   0.387  1.00  0.00     0.154 C 
BRANCH  13  14
HETATM   14  C3  UNL     1      -5.554   0.531  -0.704  1.00  0.00     0.139 C 
HETATM   15  C4  UNL     1      -6.540   1.668  -0.916  1.00  0.00     0.035 C 
HETATM   16  C5  UNL     1      -7.016   1.383  -2.320  1.00  0.00     0.029 C 
HETATM   17  C6  UNL     1      -5.861   0.648  -2.913  1.00  0.00     0.168 C 
HETATM   18  O2  UNL     1      -5.019   0.222  -1.906  1.00  0.00    -0.384 OA
ENDBRANCH  13  14
ENDBRANCH  11  13
ENDBRANCH   1   9
BRANCH   7  19
HETATM   19  C11 UNL     1       2.561  -0.742  -0.240  1.00  0.00     0.125 C 
BRANCH  19  20
HETATM   20  C12 UNL     1       2.996   0.415   0.606  1.00  0.00     0.024 C 
BRANCH  20  21
HETATM   21  C13 UNL     1       4.415   0.818   0.373  1.00  0.00    -0.013 C 
HETATM   22  C14 UNL     1       4.759   1.985   1.267  1.00  0.00     0.005 C 
HETATM   23  C15 UNL     1       6.018   2.611   0.739  1.00  0.00     0.000 C 
HETATM   24  C16 UNL     1       7.102   1.588   0.694  1.00  0.00     0.000 C 
HETATM   25  C17 UNL     1       6.714   0.234   1.182  1.00  0.00     0.000 C 
HETATM   26  C18 UNL     1       5.411  -0.269   0.616  1.00  0.00     0.005 C 
ENDBRANCH  20  21
ENDBRANCH  19  20
ENDBRANCH   7  19
TORSDOF 6
