REMARK  17 active torsions:
REMARK  status: ('A' for Active; 'I' for Inactive)
REMARK    1  A    between atoms: N1_1  and  C1_4 
REMARK    2  A    between atoms: C2_7  and  N3_8 
REMARK    3  A    between atoms: N6_16  and  C4_17 
REMARK    4  A    between atoms: C4_17  and  C5_18 
REMARK    5  A    between atoms: C5_18  and  O1_19 
REMARK    6  A    between atoms: C5_18  and  C6_21 
REMARK    7  A    between atoms: C6_21  and  O2_22 
REMARK    8  A    between atoms: C6_21  and  C7_24 
REMARK    9  A    between atoms: C7_24  and  C8_25 
REMARK   10  A    between atoms: N9_30  and  C9_31 
REMARK   11  A    between atoms: C10_35  and  C11_36 
REMARK   12  A    between atoms: C11_36  and  O3_37 
REMARK   13  A    between atoms: C11_36  and  O4_39 
REMARK   14  A    between atoms: C12_41  and  O5_42 
REMARK   15  A    between atoms: C13_44  and  O6_45 
REMARK   16  A    between atoms: C14_47  and  O7_48 
REMARK   17  A    between atoms: C15_50  and  O8_51 
ROOT
HETATM    1  C8  UNL     1      -0.515  -2.101   0.110  1.00  0.00     0.082 A 
HETATM    2  N7  UNL     1      -1.188  -3.208   0.508  1.00  0.00    -0.286 N 
ATOM      3  H7  UNL     1      -0.777  -4.128   0.668  1.00  0.00     0.188 HD
HETATM    4  N8  UNL     1      -2.443  -2.904   0.652  1.00  0.00    -0.236 N 
ATOM      5  H8  UNL     1      -3.162  -3.565   0.946  1.00  0.00     0.208 HD
HETATM    6  N9  UNL     1      -2.676  -1.618   0.368  1.00  0.00    -0.220 N 
HETATM    7  C15 UNL     1      -1.468  -1.105   0.026  1.00  0.00     0.185 A 
ENDROOT
BRANCH   1   8
HETATM    8  C7  UNL     1       0.940  -1.977  -0.175  1.00  0.00     0.097 C 
BRANCH   8   9
HETATM    9  C6  UNL     1       1.700  -1.303   0.930  1.00  0.00     0.154 C 
BRANCH   9  10
HETATM   10  C5  UNL     1       3.162  -1.207   0.585  1.00  0.00     0.167 C 
BRANCH  10  11
HETATM   11  C4  UNL     1       3.407  -0.281  -0.599  1.00  0.00     0.186 C 
BRANCH  11  12
HETATM   12  N6  UNL     1       4.814  -0.325  -0.951  1.00  0.00    -0.257 N 
HETATM   13  N5  UNL     1       5.417  -1.145  -1.786  1.00  0.00    -0.238 N 
HETATM   14  N4  UNL     1       6.711  -0.893  -1.853  1.00  0.00    -0.279 N 
ATOM     15  H5  UNL     1       4.945  -1.880  -2.313  1.00  0.00     0.208 HD
HETATM   16  C3  UNL     1       6.996   0.135  -1.032  1.00  0.00     0.140 A 
ATOM     17  H4  UNL     1       7.384  -1.395  -2.432  1.00  0.00     0.189 HD
HETATM   18  C2  UNL     1       8.172   0.789  -0.728  1.00  0.00     0.147 A 
HETATM   19  C16 UNL     1       5.773   0.486  -0.464  1.00  0.00     0.171 A 
HETATM   20  N2  UNL     1       8.102   1.799   0.153  1.00  0.00    -0.175 N 
HETATM   21  C1  UNL     1       6.934   2.177   0.732  1.00  0.00     0.679 A 
ATOM     22  H2  UNL     1       8.957   2.300   0.396  1.00  0.00     0.186 HD
HETATM   23  N11 UNL     1       5.803   1.509   0.407  1.00  0.00    -0.173 N 
ATOM     24  H11 UNL     1       4.928   1.797   0.846  1.00  0.00     0.186 HD
BRANCH  18  25
HETATM   25  N3  UNL     1       9.306   0.443  -1.273  1.00  0.00    -0.383 N 
ATOM     26  H32 UNL     1      10.176   0.927  -1.048  1.00  0.00     0.157 HD
ATOM     27  H31 UNL     1       9.359  -0.325  -1.943  1.00  0.00     0.157 HD
ENDBRANCH  18  25
BRANCH  21  28
HETATM   28  N1  UNL     1       6.916   3.165   1.583  1.00  0.00    -0.234 N 
ATOM     29  H12 UNL     1       7.769   3.669   1.828  1.00  0.00     0.174 HD
ATOM     30  H11 UNL     1       6.038   3.449   2.018  1.00  0.00     0.174 HD
ENDBRANCH  21  28
ENDBRANCH  11  12
ENDBRANCH  10  11
BRANCH  10  31
HETATM   31  O1  UNL     1       3.926  -0.800   1.679  1.00  0.00    -0.391 OA
ATOM     32  H1  UNL     1       3.773  -1.378   2.418  1.00  0.00     0.210 HD
ENDBRANCH  10  31
ENDBRANCH   9  10
BRANCH   9  33
HETATM   33  O2  UNL     1       1.181  -0.101   1.343  1.00  0.00    -0.393 OA
ATOM     34  H2  UNL     1       0.258  -0.162   1.561  1.00  0.00     0.210 HD
ENDBRANCH   9  33
ENDBRANCH   8   9
ENDBRANCH   1   8
BRANCH   7  35
HETATM   35  O8  UNL     1      -1.175   0.178  -0.351  1.00  0.00    -0.344 OA
ATOM     36  H8  UNL     1      -1.831   0.863  -0.409  1.00  0.00     0.219 HD
ENDBRANCH   7  35
BRANCH   6  37
HETATM   37  C9  UNL     1      -3.942  -0.945   0.418  1.00  0.00     0.342 C 
HETATM   38  N10 UNL     1      -3.768   0.434   0.744  1.00  0.00    -0.038 N 
HETATM   39  C10 UNL     1      -4.986   1.187   0.765  1.00  0.00     0.273 C 
ATOM     40 2H10 UNL     1      -3.271   0.532   1.629  1.00  0.00     0.280 HD
ATOM     41 1H10 UNL     1      -3.090   0.867   0.117  1.00  0.00     0.280 HD
HETATM   42  C12 UNL     1      -6.194   0.377   0.440  1.00  0.00     0.185 C 
HETATM   43  C13 UNL     1      -6.058  -0.502  -0.759  1.00  0.00     0.181 C 
HETATM   44  C14 UNL     1      -4.713  -1.141  -0.868  1.00  0.00     0.201 C 
BRANCH  39  45
HETATM   45  C11 UNL     1      -4.860   2.426  -0.093  1.00  0.00     0.287 C 
BRANCH  45  46
HETATM   46  O3  UNL     1      -6.014   3.182  -0.102  1.00  0.00    -0.369 OA
ATOM     47  H3  UNL     1      -5.935   3.960  -0.641  1.00  0.00     0.212 HD
ENDBRANCH  45  46
BRANCH  45  48
HETATM   48  O4  UNL     1      -4.571   2.096  -1.415  1.00  0.00    -0.369 OA
ATOM     49  H4  UNL     1      -4.492   2.874  -1.954  1.00  0.00     0.212 HD
ENDBRANCH  45  48
ENDBRANCH  39  45
BRANCH  42  50
HETATM   50  O5  UNL     1      -7.301   1.210   0.333  1.00  0.00    -0.391 OA
ATOM     51  H5  UNL     1      -8.071   0.694   0.126  1.00  0.00     0.210 HD
ENDBRANCH  42  50
BRANCH  43  52
HETATM   52  O6  UNL     1      -7.007  -1.539  -0.643  1.00  0.00    -0.390 OA
ATOM     53  H6  UNL     1      -6.920  -2.098  -1.406  1.00  0.00     0.210 HD
ENDBRANCH  43  52
BRANCH  44  54
HETATM   54  O7  UNL     1      -4.816  -2.537  -1.064  1.00  0.00    -0.389 OA
ATOM     55  H7  UNL     1      -5.300  -2.660  -1.872  1.00  0.00     0.210 HD
ENDBRANCH  44  54
ENDBRANCH   6  37
TORSDOF 17
