REMARK  12 active torsions:
REMARK  status: ('A' for Active; 'I' for Inactive)
REMARK    1  A    between atoms: C2_2  and  O2_4 
REMARK    2  A    between atoms: O2_4  and  C3_5 
REMARK    3  A    between atoms: C7_9  and  O3_10 
REMARK    4  A    between atoms: C11_15  and  C12_16 
REMARK    5  A    between atoms: C12_16  and  C13_17 
REMARK    6  A    between atoms: C13_17  and  C14_18 
REMARK    7  A    between atoms: C14_18  and  C15_20 
REMARK    8  A    between atoms: C15_20  and  C16_21 
REMARK    9  A    between atoms: C16_21  and  C17_22 
REMARK   10  A    between atoms: C17_22  and  C18_23 
REMARK   11  A    between atoms: C18_23  and  N1_25 
REMARK   12  A    between atoms: N1_25  and  C20_27 
ROOT
HETATM    1  C3  UNL     1      -3.897   0.981  -0.465  1.00  0.00     0.137 C 
HETATM    2  C4  UNL     1      -4.513   0.397  -1.679  1.00  0.00     0.045 C 
HETATM    3  C5  UNL     1      -4.126  -1.010  -1.980  1.00  0.00    -0.011 C 
HETATM    4  C6  UNL     1      -3.460  -1.107  -3.306  1.00  0.00     0.018 C 
HETATM    5  C7  UNL     1      -5.328  -1.947  -2.029  1.00  0.00     0.126 C 
HETATM    6  C8  UNL     1      -4.698  -3.284  -1.713  1.00  0.00     0.033 C 
HETATM    7  C9  UNL     1      -3.285  -3.021  -1.210  1.00  0.00     0.009 C 
HETATM    8  C10 UNL     1      -3.423  -1.579  -0.816  1.00  0.00     0.005 C 
HETATM    9  C11 UNL     1      -2.247  -0.918  -0.260  1.00  0.00    -0.030 C 
HETATM   10  C24 UNL     1      -2.032  -1.533   1.134  1.00  0.00     0.010 C 
HETATM   11  C25 UNL     1      -3.129  -1.283   2.103  1.00  0.00     0.001 C 
HETATM   12  C26 UNL     1      -3.291   0.207   2.325  1.00  0.00     0.001 C 
HETATM   13  C27 UNL     1      -2.390   0.949   1.405  1.00  0.00     0.008 C 
HETATM   14  C28 UNL     1      -2.545   0.527  -0.070  1.00  0.00     0.024 C 
ENDROOT
BRANCH   9  15
HETATM   15  C12 UNL     1      -0.924  -1.198  -0.969  1.00  0.00     0.018 C 
BRANCH  15  16
HETATM   16  C13 UNL     1       0.209  -0.474  -0.370  1.00  0.00     0.079 C 
BRANCH  16  17
HETATM   17  C14 UNL     1       1.491  -0.813  -1.094  1.00  0.00     0.127 C 
HETATM   18  O4  UNL     1       1.583  -1.517  -2.048  1.00  0.00    -0.298 OA
BRANCH  17  19
HETATM   19  C15 UNL     1       2.712  -0.166  -0.485  1.00  0.00     0.082 C 
BRANCH  19  20
HETATM   20  C16 UNL     1       4.010  -0.592  -1.009  1.00  0.00     0.037 C 
BRANCH  20  21
HETATM   21  C17 UNL     1       5.145   0.094  -0.366  1.00  0.00     0.002 C 
BRANCH  21  22
HETATM   22  C18 UNL     1       5.062   1.099   0.521  1.00  0.00     0.015 C 
HETATM   23  C19 UNL     1       4.037   1.831   1.138  1.00  0.00     0.042 C 
BRANCH  22  24
HETATM   24  N1  UNL     1       6.438   1.529   0.902  1.00  0.00    -0.383 N 
ATOM     25  H1  UNL     1       6.828   2.376   0.489  1.00  0.00     0.160 HD
BRANCH  24  26
HETATM   26  C20 UNL     1       7.212   0.789   1.821  1.00  0.00     0.019 C 
HETATM   27  C21 UNL     1       6.575  -0.400   2.455  1.00  0.00     0.037 C 
HETATM   28  C22 UNL     1       7.653   1.736   2.942  1.00  0.00     0.037 C 
HETATM   29  C23 UNL     1       8.460   0.288   1.086  1.00  0.00     0.037 C 
ENDBRANCH  24  26
ENDBRANCH  22  24
ENDBRANCH  21  22
ENDBRANCH  20  21
ENDBRANCH  19  20
ENDBRANCH  17  19
ENDBRANCH  16  17
ENDBRANCH  15  16
ENDBRANCH   9  15
BRANCH   1  30
HETATM   30  O2  UNL     1      -3.861   2.406  -0.674  1.00  0.00    -0.316 OA
BRANCH  30  31
HETATM   31  C2  UNL     1      -4.717   3.266   0.039  1.00  0.00     0.255 C 
HETATM   32  C1  UNL     1      -4.570   4.717  -0.275  1.00  0.00     0.126 C 
HETATM   33  O1  UNL     1      -5.504   2.771   0.845  1.00  0.00    -0.266 OA
ENDBRANCH  30  31
ENDBRANCH   1  30
BRANCH   5  34
HETATM   34  O3  UNL     1      -5.949  -1.955  -3.285  1.00  0.00    -0.395 OA
ATOM     35  H3  UNL     1      -6.698  -2.539  -3.316  1.00  0.00     0.210 HD
ENDBRANCH   5  34
TORSDOF 12
