REMARK  1 active torsions:
REMARK  status: ('A' for Active; 'I' for Inactive)
REMARK    1  A    between atoms: C13_16  and  O1_17 
ROOT
HETATM    1  C1  UNL     1      -4.352   1.891   0.388  1.00  0.00     0.040 C 
HETATM    2  C2  UNL     1      -3.742   0.545   0.063  1.00  0.00     0.121 C 
HETATM    3  C3  UNL     1      -4.668  -0.588   0.506  1.00  0.00     0.032 C 
HETATM    4  C4  UNL     1      -3.754  -1.714   0.968  1.00  0.00     0.008 C 
HETATM    5  C5  UNL     1      -2.619  -1.764  -0.059  1.00  0.00     0.071 C 
HETATM    6  C6  UNL     1      -1.767  -0.567   0.188  1.00  0.00     0.197 C 
HETATM    7  C7  UNL     1      -1.063  -0.060  -1.052  1.00  0.00     0.074 C 
HETATM    8  C8  UNL     1      -0.131   1.040  -0.587  1.00  0.00     0.047 C 
HETATM    9  C9  UNL     1       1.279   0.547  -0.366  1.00  0.00     0.155 C 
HETATM   10  C10 UNL     1       1.991   0.530  -1.688  1.00  0.00     0.044 C 
HETATM   11  C11 UNL     1       3.267   1.318  -1.474  1.00  0.00     0.038 C 
HETATM   12  C12 UNL     1       3.323   1.446   0.012  1.00  0.00     0.215 C 
HETATM   13  N1  UNL     1       1.956   1.606   0.402  1.00  0.00    -0.057 N 
ATOM     14  H11 UNL     1       1.791   1.578   1.408  1.00  0.00     0.278 HD
ATOM     15  H12 UNL     1       1.578   2.543   0.265  1.00  0.00     0.278 HD
HETATM   16  C13 UNL     1       4.024   0.324   0.708  1.00  0.00     0.149 C 
HETATM   17  C14 UNL     1       3.857  -1.009   0.059  1.00  0.00     0.036 C 
HETATM   18  C15 UNL     1       2.515  -1.595   0.086  1.00  0.00     0.040 C 
HETATM   19  C16 UNL     1       1.379  -0.705   0.413  1.00  0.00     0.196 C 
HETATM   20  O2  UNL     1       0.197  -1.482   0.323  1.00  0.00    -0.230 OA
HETATM   21  O3  UNL     1      -0.740  -0.950   1.080  1.00  0.00    -0.200 OA
HETATM   22  O4  UNL     1      -2.520   0.468   0.706  1.00  0.00    -0.348 OA
ENDROOT
BRANCH  16  23
HETATM   23  O1  UNL     1       3.706   0.324   2.058  1.00  0.00    -0.393 OA
ATOM     24  H1  UNL     1       4.151  -0.389   2.500  1.00  0.00     0.210 HD
ENDBRANCH  16  23
TORSDOF 1
