REMARK  7 active torsions:
REMARK  status: ('A' for Active; 'I' for Inactive)
REMARK    1  A    between atoms: C2_2  and  N1_5 
REMARK    2  A    between atoms: C5_7  and  N2_8 
REMARK    3  A    between atoms: C5_7  and  O3_21 
REMARK       I    between atoms: N2_8  and  C6_10 
REMARK       I    between atoms: C6_10  and  N3_12 
REMARK    4  A    between atoms: N3_12  and  N4_13 
REMARK    5  A    between atoms: N3_12  and  C7_17 
REMARK    6  A    between atoms: N4_13  and  O2_15 
REMARK    7  A    between atoms: O3_21  and  C11_22 
ROOT
HETATM    1  N2  UNL     1       0.320  -0.650  -0.077  1.00  0.00    -0.273 N 
ATOM      2  H2  UNL     1       0.312  -1.617  -0.402  1.00  0.00     0.174 HD
HETATM    3  C6  UNL     1       1.566   0.014   0.033  1.00  0.00     0.346 C 
HETATM    4  O1  UNL     1       1.556   1.204   0.433  1.00  0.00    -0.245 OA
HETATM    5  N3  UNL     1       2.790  -0.631  -0.295  1.00  0.00    -0.214 N 
ENDROOT
BRANCH   1   6
HETATM    6  C5  UNL     1      -0.918  -0.034   0.243  1.00  0.00     0.224 C 
HETATM    7  N1  UNL     1      -2.052  -0.539   0.177  1.00  0.00    -0.348 N 
ATOM      8  H1  UNL     1      -2.788   0.107   0.462  1.00  0.00     0.163 HD
BRANCH   7   9
HETATM    9  C2  UNL     1      -2.550  -1.798  -0.201  1.00  0.00     0.022 C 
HETATM   10  C1  UNL     1      -4.078  -1.833  -0.260  1.00  0.00     0.037 C 
HETATM   11  C3  UNL     1      -2.187  -2.770   0.935  1.00  0.00     0.037 C 
HETATM   12  C4  UNL     1      -2.024  -2.378  -1.458  1.00  0.00     0.037 C 
ENDBRANCH   7   9
BRANCH   6  13
HETATM   13  O3  UNL     1      -0.886   1.286   0.684  1.00  0.00    -0.312 OA
BRANCH  13  14
HETATM   14  C11 UNL     1      -2.023   2.107   0.635  1.00  0.00     0.060 C 
HETATM   15  C12 UNL     1      -2.557   2.290  -0.772  1.00  0.00     0.046 C 
HETATM   16  C13 UNL     1      -3.102   1.732   1.603  1.00  0.00     0.046 C 
HETATM   17  C14 UNL     1      -1.552   3.495   1.061  1.00  0.00     0.046 C 
ENDBRANCH  13  14
ENDBRANCH   6  13
ENDBRANCH   1   6
BRANCH   5  18
HETATM   18  N4  UNL     1       2.704  -1.962  -0.735  1.00  0.00    -0.203 N 
ATOM     19  H4  UNL     1       2.761  -2.712  -0.046  1.00  0.00     0.216 HD
BRANCH  18  20
HETATM   20  O2  UNL     1       2.560  -2.262  -1.943  1.00  0.00    -0.274 OA
ATOM     21  H2  UNL     1       2.502  -3.162  -2.241  1.00  0.00     0.246 HD
ENDBRANCH  18  20
ENDBRANCH   5  18
BRANCH   5  22
HETATM   22  C7  UNL     1       4.071  -0.024  -0.208  1.00  0.00     0.049 C 
HETATM   23  C8  UNL     1       5.130  -1.012  -0.636  1.00  0.00     0.040 C 
HETATM   24  C9  UNL     1       4.204   1.177  -1.141  1.00  0.00     0.040 C 
HETATM   25  C10 UNL     1       4.434   0.449   1.177  1.00  0.00     0.040 C 
ENDBRANCH   5  22
TORSDOF 7
