REMARK  9 active torsions:
REMARK  status: ('A' for Active; 'I' for Inactive)
REMARK    1  A    between atoms: C2_2  and  O2_4 
REMARK    2  A    between atoms: O2_4  and  C3_5 
REMARK    3  A    between atoms: C5_7  and  O3_8 
REMARK    4  A    between atoms: C7_11  and  O4_12 
REMARK    5  A    between atoms: C8_14  and  C10_16 
REMARK    6  A    between atoms: C10_16  and  O5_17 
REMARK    7  A    between atoms: C11_20  and  C12_21 
REMARK    8  A    between atoms: C22_32  and  O7_34 
REMARK    9  A    between atoms: O7_34  and  C24_35 
ROOT
HETATM    1  C3  UNL     1      -1.095  -2.292  -0.521  1.00  0.00     0.068 C 
HETATM    2  C4  UNL     1       0.175  -2.540  -0.590  1.00  0.00     0.066 C 
HETATM    3  C5  UNL     1       1.451  -2.067  -0.141  1.00  0.00     0.055 C 
HETATM    4  C6  UNL     1       2.223  -0.854  -0.311  1.00  0.00     0.110 A 
HETATM    5  C7  UNL     1       3.329  -0.609   0.703  1.00  0.00     0.167 A 
HETATM    6  C8  UNL     1       3.319   0.845   1.069  1.00  0.00     0.106 A 
HETATM    7  C9  UNL     1       3.186   0.866   2.614  1.00  0.00     0.051 C 
HETATM    8  O6  UNL     1       2.274   1.382   0.402  1.00  0.00    -0.362 OA
HETATM    9  C11 UNL     1       1.676   0.481  -0.464  1.00  0.00     0.091 A 
HETATM   10  C14 UNL     1       0.167   0.629  -0.447  1.00  0.00     0.053 C 
HETATM   11  C15 UNL     1      -0.714   0.706   0.635  1.00  0.00    -0.001 A 
HETATM   12  C16 UNL     1      -0.492   0.096   1.886  1.00  0.00     0.019 A 
HETATM   13  C17 UNL     1      -1.568  -0.404   1.149  1.00  0.00     0.013 A 
HETATM   14  C18 UNL     1      -1.959  -1.290   0.118  1.00  0.00     0.010 C 
HETATM   15  C19 UNL     1      -3.177  -2.098   0.708  1.00  0.00     0.023 C 
HETATM   16  C20 UNL     1      -2.700  -0.428  -0.930  1.00  0.00     0.019 C 
HETATM   17  C21 UNL     1      -2.625   1.025  -0.772  1.00  0.00     0.040 C 
HETATM   18  C22 UNL     1      -1.901   1.676   0.340  1.00  0.00     0.075 C 
HETATM   19  C23 UNL     1      -2.673   2.073   1.525  1.00  0.00     0.047 C 
ENDROOT
BRANCH  18  20
HETATM   20  O7  UNL     1      -1.225   2.872  -0.100  1.00  0.00    -0.310 OA
BRANCH  20  21
HETATM   21  C24 UNL     1      -1.878   4.010  -0.514  1.00  0.00     0.255 C 
HETATM   22  C25 UNL     1      -1.125   5.239  -0.955  1.00  0.00     0.126 C 
HETATM   23  O8  UNL     1      -3.132   3.985  -0.509  1.00  0.00    -0.266 OA
ENDBRANCH  20  21
ENDBRANCH  18  20
BRANCH   9  24
HETATM   24  C12 UNL     1       2.041   0.946  -1.908  1.00  0.00     0.113 C 
HETATM   25  C13 UNL     1       1.380   0.041  -2.959  1.00  0.00     0.030 C 
HETATM   26 CL1  UNL     1       3.747   0.696  -2.296  1.00  0.00    -0.122 Cl
ENDBRANCH   9  24
BRANCH   1  27
HETATM   27  O2  UNL     1      -1.923  -3.245  -1.279  1.00  0.00    -0.283 OA
BRANCH  27  28
HETATM   28  C2  UNL     1      -2.094  -4.479  -0.678  1.00  0.00     0.259 C 
HETATM   29  C1  UNL     1      -2.918  -5.558  -1.303  1.00  0.00     0.126 C 
HETATM   30  O1  UNL     1      -1.578  -4.784   0.425  1.00  0.00    -0.265 OA
ENDBRANCH  27  28
ENDBRANCH   1  27
BRANCH   3  31
HETATM   31  O3  UNL     1       2.141  -2.893   0.610  1.00  0.00    -0.364 OA
ATOM     32  H3  UNL     1       2.987  -2.579   0.908  1.00  0.00     0.217 HD
ENDBRANCH   3  31
BRANCH   5  33
HETATM   33  O4  UNL     1       3.300  -1.442   1.811  1.00  0.00    -0.392 OA
ATOM     34  H4  UNL     1       3.991  -1.289   2.445  1.00  0.00     0.210 HD
ENDBRANCH   5  33
BRANCH   6  35
HETATM   35  C10 UNL     1       4.641   1.580   0.964  1.00  0.00     0.204 C 
BRANCH  35  36
HETATM   36  O5  UNL     1       5.672   0.941   1.660  1.00  0.00    -0.398 OA
ATOM     37  H5  UNL     1       6.500   1.402   1.594  1.00  0.00     0.209 HD
ENDBRANCH  35  36
ENDBRANCH   6  35
TORSDOF 9
