REMARK  9 active torsions:
REMARK  status: ('A' for Active; 'I' for Inactive)
REMARK    1  A    between atoms: C2_2  and  O2_4 
REMARK    2  A    between atoms: O2_4  and  C3_5 
REMARK    3  A    between atoms: C9_11  and  C10_12 
REMARK    4  A    between atoms: C9_11  and  O4_15 
REMARK    5  A    between atoms: C10_12  and  O3_13 
REMARK    6  A    between atoms: O4_15  and  C11_16 
REMARK    7  A    between atoms: C11_16  and  C12_18 
REMARK    8  A    between atoms: C12_18  and  N1_19 
REMARK    9  A    between atoms: C19_28  and  O7_29 
ROOT
HETATM    1  C3  UNL     1      -1.891  -0.950   1.179  1.00  0.00     0.176 C 
HETATM    2  C4  UNL     1      -1.607   0.457   1.724  1.00  0.00     0.043 C 
HETATM    3  C5  UNL     1      -2.755   0.741   2.651  1.00  0.00     0.017 C 
HETATM    4  C6  UNL     1      -1.554   1.420   0.597  1.00  0.00    -0.070 C 
HETATM    5  C7  UNL     1      -0.745   1.203  -0.488  1.00  0.00    -0.057 C 
HETATM    6  C8  UNL     1      -0.024  -0.051  -0.307  1.00  0.00     0.119 C 
HETATM    7  C9  UNL     1       0.901  -0.649  -1.207  1.00  0.00     0.205 C 
HETATM    8  O6  UNL     1       0.618  -1.911  -1.750  1.00  0.00    -0.340 OA
HETATM    9  C15 UNL     1      -0.639  -2.193  -2.101  1.00  0.00     0.077 C 
HETATM   10  C16 UNL     1      -0.947  -1.945  -3.567  1.00  0.00     0.047 C 
HETATM   11  C17 UNL     1      -0.814  -3.712  -1.911  1.00  0.00     0.047 C 
HETATM   12  C18 UNL     1      -1.702  -1.452  -1.290  1.00  0.00     0.154 C 
HETATM   13 CL1  UNL     1      -3.206  -2.363  -1.164  1.00  0.00    -0.119 Cl
HETATM   14  C19 UNL     1      -1.043  -1.173   0.012  1.00  0.00     0.117 C 
HETATM   15  C20 UNL     1      -0.998   2.383  -1.317  1.00  0.00    -0.023 C 
HETATM   16  C21 UNL     1      -0.192   3.598  -0.805  1.00  0.00     0.019 C 
HETATM   17  C22 UNL     1      -1.039   2.313  -2.775  1.00  0.00     0.019 C 
HETATM   18  C23 UNL     1      -2.455   2.813  -0.976  1.00  0.00     0.017 C 
HETATM   19  C24 UNL     1      -2.305   2.682   0.482  1.00  0.00     0.036 C 
ENDROOT
BRANCH   7  20
HETATM   20  C10 UNL     1       1.562   0.041  -2.356  1.00  0.00     0.234 C 
BRANCH  20  21
HETATM   21  O3  UNL     1       2.512  -0.871  -2.928  1.00  0.00    -0.395 OA
ATOM     22  H3  UNL     1       2.932  -0.432  -3.658  1.00  0.00     0.209 HD
ENDBRANCH  20  21
ENDBRANCH   7  20
BRANCH   7  23
HETATM   23  O4  UNL     1       2.079  -1.008  -0.408  1.00  0.00    -0.279 OA
BRANCH  23  24
HETATM   24  C11 UNL     1       2.826  -0.075   0.261  1.00  0.00     0.279 C 
HETATM   25  O5  UNL     1       2.526   1.121   0.206  1.00  0.00    -0.263 OA
BRANCH  24  26
HETATM   26  C12 UNL     1       4.030  -0.455   1.084  1.00  0.00     0.227 C 
BRANCH  26  27
HETATM   27  N1  UNL     1       4.597   0.717   1.631  1.00  0.00    -0.412 N 
HETATM   28  C13 UNL     1       3.877   1.428   2.610  1.00  0.00     0.143 C 
HETATM   29  C14 UNL     1       5.640   1.358   0.936  1.00  0.00     0.143 C 
ENDBRANCH  26  27
ENDBRANCH  24  26
ENDBRANCH  23  24
ENDBRANCH   7  23
BRANCH  14  30
HETATM   30  O7  UNL     1      -0.229  -2.291   0.375  1.00  0.00    -0.385 OA
ATOM     31  H7  UNL     1       0.323  -2.436  -0.385  1.00  0.00     0.210 HD
ENDBRANCH  14  30
BRANCH   1  32
HETATM   32  O2  UNL     1      -1.619  -1.790   2.296  1.00  0.00    -0.312 OA
BRANCH  32  33
HETATM   33  C2  UNL     1      -2.571  -2.555   2.946  1.00  0.00     0.255 C 
HETATM   34  C1  UNL     1      -2.245  -3.419   4.113  1.00  0.00     0.126 C 
HETATM   35  O1  UNL     1      -3.735  -2.501   2.521  1.00  0.00    -0.266 OA
ENDBRANCH  32  33
ENDBRANCH   1  32
TORSDOF 9
