REMARK  14 active torsions:
REMARK  status: ('A' for Active; 'I' for Inactive)
REMARK    1  A    between atoms: C2_2  and  C3_3 
REMARK    2  A    between atoms: C3_3  and  C4_4 
REMARK    3  A    between atoms: C4_4  and  N1_5 
REMARK    4  A    between atoms: N1_5  and  C5_7 
REMARK    5  A    between atoms: C6_10  and  N3_11 
REMARK    6  A    between atoms: C12_18  and  O1_19 
REMARK    7  A    between atoms: O1_19  and  C13_20 
REMARK    8  A    between atoms: C16_23  and  C17_24 
REMARK    9  A    between atoms: C17_24  and  O2_25 
REMARK   10  A    between atoms: C17_24  and  C23_31 
REMARK   11  A    between atoms: O2_25  and  C18_26 
REMARK       I    between atoms: C23_31  and  N5_33 
REMARK   12  A    between atoms: N5_33  and  C24_35 
REMARK   13  A    between atoms: C24_35  and  C25_36 
REMARK   14  A    between atoms: C25_36  and  N6_37 
ROOT
HETATM    1  C13 UNL     1      -0.669  -0.931  -0.426  1.00  0.00     0.129 C 
HETATM    2  C14 UNL     1      -0.639   0.259  -1.356  1.00  0.00     0.033 C 
HETATM    3  C15 UNL     1       0.804   0.425  -1.892  1.00  0.00     0.010 C 
HETATM    4  C16 UNL     1       1.605   0.824  -0.678  1.00  0.00     0.024 C 
HETATM    5  C30 UNL     1       1.669  -0.299   0.293  1.00  0.00     0.010 C 
HETATM    6  C31 UNL     1       0.720  -1.402  -0.086  1.00  0.00     0.033 C 
ENDROOT
BRANCH   1   7
HETATM    7  O1  UNL     1      -1.564  -1.890  -0.887  1.00  0.00    -0.340 OA
BRANCH   7   8
HETATM    8  C12 UNL     1      -2.518  -2.552  -0.134  1.00  0.00     0.136 A 
HETATM    9  C6  UNL     1      -3.739  -1.955   0.120  1.00  0.00     0.154 A 
HETATM   10  N2  UNL     1      -4.623  -2.638   0.862  1.00  0.00    -0.174 N 
HETATM   11  C5  UNL     1      -4.419  -3.860   1.377  1.00  0.00     0.683 A 
ATOM     12  H2  UNL     1      -5.522  -2.193   1.050  1.00  0.00     0.186 HD
HETATM   13  N7  UNL     1      -3.195  -4.432   1.103  1.00  0.00    -0.193 N 
HETATM   14  C32 UNL     1      -2.269  -3.812   0.375  1.00  0.00     0.060 A 
ATOM     15  H7  UNL     1      -2.992  -5.362   1.470  1.00  0.00     0.184 HD
HETATM   16  C33 UNL     1      -0.984  -4.559   0.086  1.00  0.00     0.072 C 
BRANCH   9  17
HETATM   17  N3  UNL     1      -4.106  -0.680  -0.430  1.00  0.00    -0.361 N 
HETATM   18  C7  UNL     1      -4.403  -0.582  -1.830  1.00  0.00     0.154 C 
HETATM   19  C8  UNL     1      -4.922   0.813  -2.104  1.00  0.00     0.291 C 
HETATM   20  N4  UNL     1      -5.944   1.195  -1.155  1.00  0.00     0.087 N 
HETATM   21  C9  UNL     1      -7.119   0.373  -1.226  1.00  0.00     0.310 C 
HETATM   22  C10 UNL     1      -5.423   1.302   0.190  1.00  0.00     0.291 C 
HETATM   23  C11 UNL     1      -4.176   0.470   0.409  1.00  0.00     0.154 C 
ENDBRANCH   9  17
BRANCH  11  24
HETATM   24  N1  UNL     1      -5.256  -4.448   2.060  1.00  0.00    -0.205 N 
ATOM     25  H1  UNL     1      -4.843  -5.345   2.314  1.00  0.00     0.183 HD
BRANCH  24  26
HETATM   26  C4  UNL     1      -6.502  -4.420   2.627  1.00  0.00     0.079 C 
BRANCH  26  27
HETATM   27  C3  UNL     1      -7.653  -4.882   1.779  1.00  0.00     0.045 C 
BRANCH  27  28
HETATM   28  C2  UNL     1      -7.949  -4.066   0.572  1.00  0.00     0.001 C 
HETATM   29  C1  UNL     1      -8.354  -2.659   1.017  1.00  0.00     0.005 C 
ENDBRANCH  27  28
ENDBRANCH  26  27
ENDBRANCH  24  26
ENDBRANCH  11  24
ENDBRANCH   7   8
ENDBRANCH   1   7
BRANCH   4  30
HETATM   30  C17 UNL     1       2.941   1.417  -1.051  1.00  0.00     0.217 C 
BRANCH  30  31
HETATM   31  O2  UNL     1       3.706   0.559  -1.727  1.00  0.00    -0.371 OA
BRANCH  31  32
HETATM   32  C18 UNL     1       4.163   0.766  -2.974  1.00  0.00     0.122 C 
HETATM   33  C19 UNL     1       3.791  -0.374  -3.872  1.00  0.00     0.032 C 
HETATM   34  C20 UNL     1       5.094  -1.038  -4.280  1.00  0.00     0.002 C 
HETATM   35  C21 UNL     1       6.012   0.174  -4.347  1.00  0.00     0.002 C 
HETATM   36  C22 UNL     1       5.655   0.881  -3.084  1.00  0.00     0.032 C 
ENDBRANCH  31  32
ENDBRANCH  30  31
BRANCH  30  37
HETATM   37  C23 UNL     1       3.683   1.841   0.169  1.00  0.00     0.247 C 
HETATM   38  O3  UNL     1       4.929   1.537   0.200  1.00  0.00    -0.271 OA
HETATM   39  N5  UNL     1       3.171   2.523   1.272  1.00  0.00    -0.357 N 
ATOM     40  H5  UNL     1       2.178   2.758   1.279  1.00  0.00     0.162 HD
BRANCH  39  41
HETATM   41  C24 UNL     1       3.985   2.917   2.417  1.00  0.00     0.152 C 
BRANCH  41  42
HETATM   42  C25 UNL     1       4.964   3.930   1.983  1.00  0.00     0.292 C 
BRANCH  42  43
HETATM   43  N6  UNL     1       5.873   4.380   3.003  1.00  0.00     0.094 N 
HETATM   44  C26 UNL     1       6.596   5.524   2.478  1.00  0.00     0.298 C 
HETATM   45  C27 UNL     1       7.589   5.213   1.415  1.00  0.00     0.198 C 
HETATM   46  O4  UNL     1       8.542   4.338   1.959  1.00  0.00    -0.388 OA
HETATM   47  C28 UNL     1       7.856   3.149   2.176  1.00  0.00     0.198 C 
HETATM   48  C29 UNL     1       6.886   3.395   3.329  1.00  0.00     0.298 C 
ENDBRANCH  42  43
ENDBRANCH  41  42
ENDBRANCH  39  41
ENDBRANCH  30  37
ENDBRANCH   4  30
TORSDOF 14
