REMARK  17 active torsions:
REMARK  status: ('A' for Active; 'I' for Inactive)
REMARK    1  A    between atoms: C2_2  and  C4_4 
REMARK    2  A    between atoms: C4_4  and  C26_38 
REMARK       I    between atoms: N1_5  and  C5_7 
REMARK    3  A    between atoms: C5_7  and  C6_9 
REMARK    4  A    between atoms: C6_9  and  N2_10 
REMARK    5  A    between atoms: C8_13  and  C9_14 
REMARK    6  A    between atoms: C9_14  and  C10_15 
REMARK    7  A    between atoms: C10_15  and  C11_16 
REMARK    8  A    between atoms: C13_20  and  C14_21 
REMARK    9  A    between atoms: C14_21  and  N4_22 
REMARK       I    between atoms: N5_25  and  C17_26 
REMARK   10  A    between atoms: C17_26  and  O4_28 
REMARK   11  A    between atoms: O4_28  and  C18_29 
REMARK   12  A    between atoms: C18_29  and  C19_30 
REMARK   13  A    between atoms: C19_30  and  C20_31 
REMARK   14  A    between atoms: C20_31  and  C21_32 
REMARK   15  A    between atoms: C26_38  and  C27_40 
REMARK   16  A    between atoms: C27_40  and  O7_41 
REMARK   17  A    between atoms: C27_40  and  N6_43 
ROOT
HETATM    1  N2  UNL     1       0.595  -0.805  -0.737  1.00  0.00    -0.276 N 
HETATM    2  C7  UNL     1       0.808  -2.167  -1.140  1.00  0.00     0.249 C 
HETATM    3  O2  UNL     1       1.770  -2.392  -1.920  1.00  0.00    -0.271 OA
HETATM    4  C8  UNL     1      -0.061  -3.250  -0.657  1.00  0.00     0.170 C 
HETATM    5  N3  UNL     1      -0.596  -2.957   0.605  1.00  0.00    -0.396 N 
ATOM      6  H3  UNL     1      -0.519  -3.610   1.385  1.00  0.00     0.155 HD
HETATM    7  C13 UNL     1      -1.248  -1.710   0.741  1.00  0.00     0.199 C 
HETATM    8  C25 UNL     1      -0.254  -0.585   0.376  1.00  0.00     0.251 C 
HETATM    9  O5  UNL     1      -0.206   0.467   1.038  1.00  0.00    -0.271 OA
ENDROOT
BRANCH   1  10
HETATM   10  C6  UNL     1       1.282   0.251  -1.429  1.00  0.00     0.238 C 
BRANCH  10  11
HETATM   11  C5  UNL     1       2.519   0.629  -0.797  1.00  0.00     0.240 C 
HETATM   12  N1  UNL     1       3.418   1.618  -1.330  1.00  0.00    -0.322 N 
HETATM   13  C4  UNL     1       4.578   2.021  -0.747  1.00  0.00     0.095 C 
ATOM     14  H1  UNL     1       3.164   2.052  -2.217  1.00  0.00     0.169 HD
HETATM   15  O1  UNL     1       2.832   0.054   0.300  1.00  0.00    -0.271 OA
BRANCH  13  16
HETATM   16  C2  UNL     1       3.910   3.640  -0.689  1.00  0.00    -0.040 C 
HETATM   17  C1  UNL     1       2.909   3.712   0.062  1.00  0.00     0.021 C 
HETATM   18  C3  UNL     1       4.592   4.571  -1.542  1.00  0.00     0.050 C 
ENDBRANCH  13  16
BRANCH  13  19
HETATM   19  C26 UNL     1       5.786   2.426  -0.130  1.00  0.00     0.249 C 
HETATM   20  O6  UNL     1       6.107   3.595   0.101  1.00  0.00    -0.281 OA
BRANCH  19  21
HETATM   21  C27 UNL     1       6.782   1.424   0.299  1.00  0.00     0.192 C 
BRANCH  21  22
HETATM   22  O7  UNL     1       6.488   0.193  -0.060  1.00  0.00    -0.343 OA
ATOM     23  H7  UNL     1       7.129  -0.452   0.216  1.00  0.00     0.219 HD
ENDBRANCH  21  22
BRANCH  21  24
HETATM   24  N6  UNL     1       7.964   1.547   0.990  1.00  0.00    -0.359 N 
HETATM   25  C28 UNL     1       8.746   0.344   1.240  1.00  0.00     0.125 C 
HETATM   26  C29 UNL     1      10.198   0.482   1.090  1.00  0.00     0.020 C 
HETATM   27  C30 UNL     1      10.762   1.890   1.196  1.00  0.00     0.003 C 
HETATM   28  C31 UNL     1       9.836   2.960   0.789  1.00  0.00     0.020 C 
HETATM   29  C32 UNL     1       8.501   2.763   1.537  1.00  0.00     0.125 C 
ENDBRANCH  21  24
ENDBRANCH  19  21
ENDBRANCH  13  19
ENDBRANCH  10  11
ENDBRANCH   1  10
BRANCH   4  30
HETATM   30  C9  UNL     1       0.693  -4.572  -0.640  1.00  0.00     0.034 C 
BRANCH  30  31
HETATM   31  C10 UNL     1       1.887  -4.555   0.252  1.00  0.00     0.002 C 
BRANCH  31  32
HETATM   32  C11 UNL     1       2.530  -5.944   0.165  1.00  0.00    -0.004 C 
HETATM   33  C12 UNL     1       1.473  -6.939   0.596  1.00  0.00     0.005 C 
ENDBRANCH  31  32
ENDBRANCH  30  31
ENDBRANCH   4  30
BRANCH   7  34
HETATM   34  C14 UNL     1      -2.420  -1.540  -0.221  1.00  0.00     0.306 C 
BRANCH  34  35
HETATM   35  N4  UNL     1      -3.052  -0.242   0.045  1.00  0.00     0.094 N 
HETATM   36  C15 UNL     1      -4.004   0.130  -0.956  1.00  0.00     0.292 C 
HETATM   37  C16 UNL     1      -5.449  -0.011  -0.653  1.00  0.00     0.158 C 
HETATM   38  N5  UNL     1      -5.801  -0.798   0.481  1.00  0.00    -0.325 N 
HETATM   39  C17 UNL     1      -7.156  -0.973   0.823  1.00  0.00     0.362 C 
HETATM   40  C23 UNL     1      -4.782  -1.361   1.365  1.00  0.00     0.158 C 
HETATM   41  O3  UNL     1      -7.511  -1.778   1.717  1.00  0.00    -0.238 OA
HETATM   42  C24 UNL     1      -3.677  -0.299   1.365  1.00  0.00     0.292 C 
BRANCH  39  43
HETATM   43  O4  UNL     1      -8.127  -0.267   0.180  1.00  0.00    -0.304 OA
BRANCH  43  44
HETATM   44  C18 UNL     1      -9.512  -0.395   0.430  1.00  0.00     0.180 C 
BRANCH  44  45
HETATM   45  C19 UNL     1     -10.181   0.757  -0.323  1.00  0.00     0.027 C 
BRANCH  45  46
HETATM   46  C20 UNL     1      -9.651   2.047   0.339  1.00  0.00     0.002 C 
BRANCH  46  47
HETATM   47  C21 UNL     1     -10.264   3.248  -0.287  1.00  0.00    -0.004 C 
HETATM   48  C22 UNL     1      -9.962   3.431  -1.750  1.00  0.00     0.005 C 
ENDBRANCH  46  47
ENDBRANCH  45  46
ENDBRANCH  44  45
ENDBRANCH  43  44
ENDBRANCH  39  43
ENDBRANCH  34  35
ENDBRANCH   7  34
TORSDOF 17
