REMARK  9 active torsions:
REMARK  status: ('A' for Active; 'I' for Inactive)
REMARK    1  A    between atoms: C2_2  and  O1_3 
REMARK    2  A    between atoms: O1_3  and  C3_4 
REMARK    3  A    between atoms: C3_4  and  C4_6 
REMARK    4  A    between atoms: C6_9  and  N1_10 
REMARK    5  A    between atoms: N1_10  and  C7_12 
REMARK    6  A    between atoms: C9_14  and  O3_15 
REMARK    7  A    between atoms: C11_17  and  O4_18 
REMARK    8  A    between atoms: C13_20  and  O5_21 
REMARK    9  A    between atoms: C15_23  and  O6_24 
ROOT
HETATM    1  C7  UNL     1      -0.935   0.296   0.186  1.00  0.00     0.073 A 
HETATM    2  C8  UNL     1      -1.596   1.502   0.098  1.00  0.00     0.072 A 
HETATM    3  C9  UNL     1      -2.885   1.614  -0.374  1.00  0.00     0.106 A 
HETATM    4  C11 UNL     1      -3.556   0.498  -0.779  1.00  0.00     0.138 A 
HETATM    5  C13 UNL     1      -2.933  -0.729  -0.709  1.00  0.00     0.140 A 
HETATM    6  C15 UNL     1      -1.640  -0.814  -0.231  1.00  0.00     0.131 A 
ENDROOT
BRANCH   1   7
HETATM    7  N1  UNL     1       0.393   0.263   0.684  1.00  0.00    -0.334 N 
ATOM      8  H1  UNL     1       0.580   0.316   1.685  1.00  0.00     0.168 HD
BRANCH   7   9
HETATM    9  C6  UNL     1       1.367   0.163  -0.176  1.00  0.00     0.149 A 
HETATM   10  S1  UNL     1       1.244   0.065  -1.866  1.00  0.00    -0.063 SA
HETATM   11  C5  UNL     1       2.909  -0.038  -2.241  1.00  0.00     0.089 A 
HETATM   12  C4  UNL     1       3.485   0.011  -0.993  1.00  0.00     0.117 A 
HETATM   13  N2  UNL     1       2.675   0.113   0.032  1.00  0.00    -0.331 N 
ATOM     14  H2  UNL     1       3.047   0.154   0.981  1.00  0.00     0.168 HD
BRANCH  12  15
HETATM   15  C3  UNL     1       4.970  -0.052  -0.863  1.00  0.00     0.310 C 
HETATM   16  O2  UNL     1       5.669  -0.148  -1.881  1.00  0.00    -0.258 OA
BRANCH  15  17
HETATM   17  O1  UNL     1       5.599  -0.007   0.356  1.00  0.00    -0.317 OA
BRANCH  17  18
HETATM   18  C2  UNL     1       6.985  -0.062   0.547  1.00  0.00     0.175 C 
HETATM   19  C1  UNL     1       7.258   0.017   2.035  1.00  0.00     0.034 C 
ENDBRANCH  17  18
ENDBRANCH  15  17
ENDBRANCH  12  15
ENDBRANCH   7   9
ENDBRANCH   1   7
BRANCH   6  20
HETATM   20  O6  UNL     1      -1.038  -2.057  -0.171  1.00  0.00    -0.351 OA
HETATM   21  C16 UNL     1      -1.105  -2.912   0.946  1.00  0.00     0.210 C 
ENDBRANCH   6  20
BRANCH   3  22
HETATM   22  O3  UNL     1      -3.544   2.845  -0.457  1.00  0.00    -0.353 OA
HETATM   23  C10 UNL     1      -2.830   3.996  -0.032  1.00  0.00     0.210 C 
ENDBRANCH   3  22
BRANCH   5  24
HETATM   24  O5  UNL     1      -3.659  -1.834  -1.133  1.00  0.00    -0.350 OA
HETATM   25  C14 UNL     1      -4.477  -2.610  -0.311  1.00  0.00     0.210 C 
ENDBRANCH   5  24
BRANCH   4  26
HETATM   26  O4  UNL     1      -4.848   0.600  -1.255  1.00  0.00    -0.351 OA
HETATM   27  C12 UNL     1      -5.901   0.488  -0.295  1.00  0.00     0.210 C 
ENDBRANCH   4  26
TORSDOF 9
