REMARK  12 active torsions:
REMARK  status: ('A' for Active; 'I' for Inactive)
REMARK    1  A    between atoms: C2_2  and  C13_21 
REMARK    2  A    between atoms: C3_3  and  C4_4 
REMARK    3  A    between atoms: C4_4  and  C5_5 
REMARK    4  A    between atoms: C4_4  and  C9_13 
REMARK    5  A    between atoms: C5_5  and  C6_6 
REMARK    6  A    between atoms: C6_6  and  O1_7 
REMARK    7  A    between atoms: C6_6  and  C7_9 
REMARK    8  A    between atoms: C7_9  and  C8_10 
REMARK    9  A    between atoms: C13_21  and  C14_22 
REMARK   10  A    between atoms: C14_22  and  C15_23 
REMARK   11  A    between atoms: C15_23  and  C17_25 
REMARK   12  A    between atoms: C20_28  and  C21_29 
ROOT
HETATM    1  C4  UNL     1      -3.622  -0.869   0.402  1.00  0.00     0.046 C 
ENDROOT
BRANCH   1   2
HETATM    2  C3  UNL     1      -2.810  -0.637  -0.787  1.00  0.00    -0.015 C 
HETATM    3  C2  UNL     1      -1.493  -0.400  -0.802  1.00  0.00    -0.087 C 
HETATM    4  C1  UNL     1      -0.910  -0.195  -2.170  1.00  0.00     0.043 C 
BRANCH   3   5
HETATM    5  C13 UNL     1      -0.642  -0.357   0.401  1.00  0.00     0.034 C 
BRANCH   5   6
HETATM    6  C14 UNL     1       0.053   0.886   0.722  1.00  0.00     0.009 C 
BRANCH   6   7
HETATM    7  C15 UNL     1       1.116   1.480  -0.093  1.00  0.00    -0.014 C 
HETATM    8  C16 UNL     1       1.433   2.844   0.643  1.00  0.00     0.010 C 
BRANCH   7   9
HETATM    9  C17 UNL     1       2.466   0.809  -0.060  1.00  0.00    -0.011 C 
HETATM   10  C18 UNL     1       3.073   0.728   1.321  1.00  0.00     0.005 C 
HETATM   11  C19 UNL     1       4.571   0.658   1.158  1.00  0.00     0.005 C 
HETATM   12  C20 UNL     1       5.028   0.243  -0.206  1.00  0.00    -0.011 C 
HETATM   13  C24 UNL     1       4.157  -0.748  -0.886  1.00  0.00     0.005 C 
HETATM   14  C25 UNL     1       2.678  -0.426  -0.814  1.00  0.00     0.005 C 
BRANCH  12  15
HETATM   15  C21 UNL     1       6.457  -0.265  -0.186  1.00  0.00    -0.019 C 
HETATM   16  C22 UNL     1       6.672  -1.448   0.697  1.00  0.00     0.010 C 
HETATM   17  C23 UNL     1       7.391   0.834   0.285  1.00  0.00     0.010 C 
ENDBRANCH  12  15
ENDBRANCH   7   9
ENDBRANCH   6   7
ENDBRANCH   5   6
ENDBRANCH   3   5
ENDBRANCH   1   2
BRANCH   1  18
HETATM   18  C5  UNL     1      -4.895  -0.035   0.375  1.00  0.00     0.045 C 
BRANCH  18  19
HETATM   19  C6  UNL     1      -4.600   1.422   0.319  1.00  0.00     0.129 C 
BRANCH  19  20
HETATM   20  O1  UNL     1      -3.853   1.752   1.455  1.00  0.00    -0.395 OA
ATOM     21  H1  UNL     1      -3.665   2.682   1.419  1.00  0.00     0.210 HD
ENDBRANCH  19  20
BRANCH  19  22
HETATM   22  C7  UNL     1      -5.804   2.283   0.195  1.00  0.00     0.144 C 
BRANCH  22  23
HETATM   23  C8  UNL     1      -6.641   2.098  -0.977  1.00  0.00     0.175 C 
HETATM   24  O2  UNL     1      -7.739   2.730  -1.050  1.00  0.00    -0.648 OA
HETATM   25  O3  UNL     1      -6.349   1.278  -2.050  1.00  0.00    -0.648 OA
ENDBRANCH  22  23
ENDBRANCH  19  22
ENDBRANCH  18  19
ENDBRANCH   1  18
BRANCH   1  26
HETATM   26  C9  UNL     1      -4.024  -2.295   0.568  1.00  0.00    -0.019 A 
HETATM   27  C10 UNL     1      -4.731  -2.970  -0.405  1.00  0.00     0.098 A 
HETATM   28  N1  UNL     1      -5.075  -4.250  -0.217  1.00  0.00    -0.362 N 
HETATM   29  C11 UNL     1      -4.775  -4.949   0.884  1.00  0.00     0.180 A 
ATOM     30  H1  UNL     1      -5.597  -4.720  -0.957  1.00  0.00     0.166 HD
HETATM   31  N2  UNL     1      -4.076  -4.286   1.849  1.00  0.00    -0.362 N 
HETATM   32  C12 UNL     1      -3.713  -3.008   1.700  1.00  0.00     0.098 A 
ATOM     33  H2  UNL     1      -3.824  -4.778   2.706  1.00  0.00     0.166 HD
ENDBRANCH   1  26
TORSDOF 12
