REMARK  3 active torsions:
REMARK  status: ('A' for Active; 'I' for Inactive)
REMARK    1  A    between atoms: C2_2  and  C4_10 
REMARK    2  A    between atoms: N1_3  and  N2_5 
REMARK       I    between atoms: N2_5  and  C3_7 
REMARK    3  A    between atoms: C4_10  and  C7_13 
ROOT
HETATM    1  C1  UNL     1       0.985  -0.344  -2.128  1.00  0.00     0.066 C 
HETATM    2  C2  UNL     1       0.474  -0.258  -0.751  1.00  0.00     0.008 C 
HETATM    3  N1  UNL     1       1.291  -0.269   0.223  1.00  0.00    -0.305 N 
ATOM      4  H1  UNL     1       0.899  -0.207   1.163  1.00  0.00     0.186 HD
ENDROOT
BRANCH   2   5
HETATM    5  C4  UNL     1      -0.971  -0.159  -0.534  1.00  0.00    -0.001 C 
HETATM    6  C5  UNL     1      -1.632  -1.385  -1.124  1.00  0.00     0.022 C 
HETATM    7  C6  UNL     1      -1.529   1.022  -1.346  1.00  0.00     0.022 C 
BRANCH   5   8
HETATM    8  C7  UNL     1      -1.358   0.059   0.902  1.00  0.00    -0.039 C 
HETATM    9  C8  UNL     1      -0.861  -1.090   1.752  1.00  0.00     0.015 C 
HETATM   10  C9  UNL     1      -0.840   1.330   1.481  1.00  0.00     0.015 C 
HETATM   11  C10 UNL     1      -2.878   0.083   1.051  1.00  0.00     0.015 C 
ENDBRANCH   5   8
ENDBRANCH   2   5
BRANCH   3  12
HETATM   12  N2  UNL     1       2.667  -0.358   0.115  1.00  0.00    -0.254 N 
HETATM   13  C3  UNL     1       3.561   0.695   0.415  1.00  0.00     0.347 C 
HETATM   14  N3  UNL     1       4.960   0.544   0.286  1.00  0.00    -0.038 NA
HETATM   15  O1  UNL     1       3.143   1.822   0.815  1.00  0.00    -0.249 OA
ATOM     16  H2  UNL     1       3.063  -1.243  -0.202  1.00  0.00     0.191 HD
ENDBRANCH   3  12
TORSDOF 3
