REMARK  9 active torsions:
REMARK  status: ('A' for Active; 'I' for Inactive)
REMARK    1  A    between atoms: C3_3  and  C4_4 
REMARK       I    between atoms: C4_4  and  N1_6 
REMARK    2  A    between atoms: N1_6  and  C5_8 
REMARK    3  A    between atoms: C5_8  and  C6_9 
REMARK    4  A    between atoms: C6_9  and  C8_11 
REMARK    5  A    between atoms: C6_9  and  N4_21 
REMARK    6  A    between atoms: C8_11  and  N2_12 
REMARK       I    between atoms: N2_12  and  C9_14 
REMARK    7  A    between atoms: C9_14  and  C10_16 
REMARK    8  A    between atoms: C10_16  and  N3_17 
REMARK       I    between atoms: N4_21  and  C14_23 
REMARK    9  A    between atoms: C14_23  and  C15_25 
ROOT
HETATM    1  C1  UNL     1       5.225  -4.919   0.066  1.00  0.00     0.112 C 
HETATM    2  C2  UNL     1       4.884  -3.524   0.349  1.00  0.00    -0.101 C 
HETATM    3  C3  UNL     1       4.618  -2.371   0.583  1.00  0.00    -0.006 C 
ENDROOT
BRANCH   3   4
HETATM    4  C4  UNL     1       4.273  -0.982   0.854  1.00  0.00     0.296 C 
HETATM    5  O1  UNL     1       4.950  -0.333   1.675  1.00  0.00    -0.258 OA
HETATM    6  N1  UNL     1       3.180  -0.370   0.193  1.00  0.00    -0.348 N 
ATOM      7  H1  UNL     1       2.626  -0.900  -0.479  1.00  0.00     0.163 HD
BRANCH   6   8
HETATM    8  C5  UNL     1       2.858   0.991   0.472  1.00  0.00     0.156 C 
BRANCH   8   9
HETATM    9  C6  UNL     1       1.591   1.334  -0.405  1.00  0.00     0.061 C 
HETATM   10  C7  UNL     1       1.888   1.122  -1.843  1.00  0.00     0.042 C 
BRANCH   9  11
HETATM   11  C8  UNL     1       0.541   0.483   0.189  1.00  0.00     0.154 C 
BRANCH  11  12
HETATM   12  N2  UNL     1      -0.726   0.522  -0.455  1.00  0.00    -0.357 N 
HETATM   13  C9  UNL     1      -1.849  -0.227   0.072  1.00  0.00     0.243 C 
HETATM   14  O2  UNL     1      -1.711  -0.912   1.095  1.00  0.00    -0.272 OA
ATOM     15  H2  UNL     1      -0.846   1.084  -1.298  1.00  0.00     0.162 HD
BRANCH  13  16
HETATM   16  C10 UNL     1      -3.140  -0.164  -0.617  1.00  0.00     0.338 C 
BRANCH  16  17
HETATM   17  N3  UNL     1      -4.107  -0.978   0.073  1.00  0.00    -0.070 N 
HETATM   18  C11 UNL     1      -3.616  -2.349   0.060  1.00  0.00     0.272 C 
HETATM   19  C12 UNL     1      -4.286  -0.486   1.407  1.00  0.00     0.272 C 
HETATM   20  C13 UNL     1      -5.398  -0.941  -0.626  1.00  0.00     0.272 C 
ENDBRANCH  16  17
ENDBRANCH  13  16
ENDBRANCH  11  12
ENDBRANCH   9  11
BRANCH   9  21
HETATM   21  N4  UNL     1       1.460   2.760  -0.160  1.00  0.00    -0.348 N 
HETATM   22  C14 UNL     1       0.652   3.713  -0.733  1.00  0.00     0.228 C 
HETATM   23  O3  UNL     1      -0.169   3.545  -1.632  1.00  0.00    -0.273 OA
ATOM     24  H4  UNL     1       2.079   3.118   0.568  1.00  0.00     0.163 HD
BRANCH  22  25
HETATM   25  C15 UNL     1       0.746   5.141  -0.233  1.00  0.00     0.187 C 
HETATM   26 BR1  UNL     1      -0.464   6.303  -1.163  1.00  0.00    -0.087 Br
ENDBRANCH  22  25
ENDBRANCH   9  21
ENDBRANCH   8   9
ENDBRANCH   6   8
ENDBRANCH   3   4
TORSDOF 9
