REMARK  5 active torsions:
REMARK  status: ('A' for Active; 'I' for Inactive)
REMARK    1  A    between atoms: C3_3  and  O1_4 
REMARK    2  A    between atoms: O1_4  and  C4_5 
REMARK    3  A    between atoms: N4_24  and  C14_26 
REMARK    4  A    between atoms: C14_26  and  C15_27 
REMARK    5  A    between atoms: C15_27  and  N5_28 
ROOT
HETATM    1  C1  UNL     1       0.788   0.919   0.302  1.00  0.00     0.055 C 
HETATM    2  C2  UNL     1       0.803  -0.517   0.052  1.00  0.00     0.018 A 
HETATM    3  C3  UNL     1       2.012  -1.194  -0.195  1.00  0.00     0.108 A 
HETATM    4  C11 UNL     1       1.896  -2.552  -0.388  1.00  0.00     0.084 A 
HETATM    5 CL1  UNL     1       3.281  -3.589  -0.792  1.00  0.00    -0.080 Cl
HETATM    6  C12 UNL     1       0.662  -3.179  -0.335  1.00  0.00     0.116 A 
HETATM    7  N3  UNL     1      -0.452  -2.484  -0.097  1.00  0.00    -0.350 N 
ATOM      8  H3  UNL     1      -1.346  -2.975  -0.065  1.00  0.00     0.166 HD
HETATM    9  C13 UNL     1      -0.429  -1.163   0.100  1.00  0.00     0.113 A 
HETATM   10  N4  UNL     1      -1.498  -0.503   0.320  1.00  0.00    -0.354 N 
ATOM     11  H4  UNL     1      -1.341   0.497   0.448  1.00  0.00     0.166 HD
ENDROOT
BRANCH   3  12
HETATM   12  O1  UNL     1       3.101  -0.541  -0.233  1.00  0.00    -0.306 OA
BRANCH  12  13
HETATM   13  C4  UNL     1       4.197   0.116  -0.271  1.00  0.00     0.108 A 
HETATM   14  C5  UNL     1       4.172   1.416  -0.810  1.00  0.00     0.082 A 
HETATM   15  C6  UNL     1       5.262   2.227  -0.907  1.00  0.00     0.121 A 
HETATM   16  F1  UNL     1       5.194   3.475  -1.434  1.00  0.00    -0.206 F 
HETATM   17  C7  UNL     1       6.463   1.763  -0.459  1.00  0.00     0.074 A 
HETATM   18  C8  UNL     1       6.571   0.516   0.077  1.00  0.00     0.069 A 
HETATM   19  N1  UNL     1       7.657  -0.110   0.592  1.00  0.00    -0.306 N 
HETATM   20  C10 UNL     1       5.453  -0.301   0.172  1.00  0.00     0.097 A 
HETATM   21  C9  UNL     1       7.211  -1.292   0.998  1.00  0.00     0.325 A 
ATOM     22  H1  UNL     1       8.610   0.249   0.654  1.00  0.00     0.171 HD
HETATM   23  O2  UNL     1       7.927  -2.179   1.542  1.00  0.00    -0.247 OA
HETATM   24  N2  UNL     1       5.885  -1.410   0.749  1.00  0.00    -0.304 N 
ATOM     25  H2  UNL     1       5.311  -2.224   0.971  1.00  0.00     0.171 HD
ENDBRANCH  12  13
ENDBRANCH   3  12
BRANCH  10  26
HETATM   26  C14 UNL     1      -2.844  -0.877   0.421  1.00  0.00     0.092 C 
BRANCH  26  27
HETATM   27  C15 UNL     1      -3.687   0.018  -0.474  1.00  0.00     0.317 C 
BRANCH  27  28
HETATM   28  N5  UNL     1      -5.081  -0.258  -0.460  1.00  0.00     0.097 N 
HETATM   29  C16 UNL     1      -5.759   0.578  -1.445  1.00  0.00     0.299 C 
HETATM   30  C17 UNL     1      -5.633   2.041  -1.190  1.00  0.00     0.198 C 
HETATM   31  O3  UNL     1      -5.743   2.380   0.162  1.00  0.00    -0.388 OA
HETATM   32  C18 UNL     1      -6.441   1.362   0.789  1.00  0.00     0.198 C 
HETATM   33  C19 UNL     1      -5.643   0.074   0.843  1.00  0.00     0.299 C 
ENDBRANCH  27  28
ENDBRANCH  26  27
ENDBRANCH  10  26
TORSDOF 5
