REMARK  5 active torsions:
REMARK  status: ('A' for Active; 'I' for Inactive)
REMARK    1  A    between atoms: O1_1  and  C1_3 
REMARK    2  A    between atoms: C4_6  and  O2_7 
REMARK    3  A    between atoms: N1_9  and  C5_10 
REMARK    4  A    between atoms: C5_10  and  C6_11 
REMARK    5  A    between atoms: C6_11  and  N2_12 
ROOT
HETATM    1  C1  UNL     1      -1.272  -0.969   1.094  1.00  0.00     0.151 A 
HETATM    2  C2  UNL     1      -2.533  -0.646   0.707  1.00  0.00     0.008 A 
HETATM    3  C3  UNL     1      -2.422   0.577   0.044  1.00  0.00     0.014 A 
HETATM    4  C4  UNL     1      -1.112   0.976   0.037  1.00  0.00     0.151 A 
HETATM    5  N1  UNL     1      -0.428   0.014   0.685  1.00  0.00    -0.306 N 
HETATM    6  C12 UNL     1      -3.730   1.099  -0.462  1.00  0.00     0.096 C 
HETATM    7  C13 UNL     1      -4.277  -0.015  -1.365  1.00  0.00     0.016 C 
HETATM    8  C14 UNL     1      -4.422  -1.306  -0.636  1.00  0.00     0.010 C 
HETATM    9  C15 UNL     1      -3.907  -1.200   0.789  1.00  0.00     0.029 C 
HETATM   10  C16 UNL     1      -4.761  -0.108   1.450  1.00  0.00     0.089 C 
HETATM   11  C17 UNL     1      -4.686   1.184   0.711  1.00  0.00     0.252 C 
HETATM   12  F1  UNL     1      -4.198   2.203   1.540  1.00  0.00    -0.206 F 
HETATM   13  F2  UNL     1      -5.925   1.562   0.200  1.00  0.00    -0.206 F 
ENDROOT
BRANCH   5  14
HETATM   14  C5  UNL     1       0.996   0.061   0.892  1.00  0.00     0.152 C 
BRANCH  14  15
HETATM   15  C6  UNL     1       1.773  -0.582  -0.219  1.00  0.00     0.137 C 
BRANCH  15  16
HETATM   16  N2  UNL     1       3.172  -0.505   0.043  1.00  0.00    -0.411 N 
HETATM   17  C7  UNL     1       4.006  -1.087  -0.953  1.00  0.00     0.117 C 
HETATM   18  C8  UNL     1       4.847  -0.015  -1.648  1.00  0.00     0.019 C 
HETATM   19  C9  UNL     1       5.779   0.554  -0.609  1.00  0.00     0.003 C 
HETATM   20  C10 UNL     1       5.144   0.634   0.747  1.00  0.00     0.019 C 
HETATM   21  C11 UNL     1       3.627   0.736   0.576  1.00  0.00     0.117 C 
ENDBRANCH  15  16
ENDBRANCH  14  15
ENDBRANCH   5  14
BRANCH   1  22
HETATM   22  O1  UNL     1      -0.959  -2.131   1.793  1.00  0.00    -0.345 OA
ATOM     23  H1  UNL     1      -0.077  -2.357   2.064  1.00  0.00     0.219 HD
ENDBRANCH   1  22
BRANCH   4  24
HETATM   24  O2  UNL     1      -0.656   2.153  -0.543  1.00  0.00    -0.345 OA
ATOM     25  H2  UNL     1       0.253   2.430  -0.548  1.00  0.00     0.219 HD
ENDBRANCH   4  24
TORSDOF 5
