REMARK  10 active torsions:
REMARK  status: ('A' for Active; 'I' for Inactive)
REMARK    1  A    between atoms: C2_2  and  C3_3 
REMARK    2  A    between atoms: C3_3  and  N1_4 
REMARK       I    between atoms: N1_4  and  C4_5 
REMARK    3  A    between atoms: N1_4  and  C18_30 
REMARK       I    between atoms: C4_5  and  N2_7 
REMARK    4  A    between atoms: N2_7  and  C5_9 
REMARK    5  A    between atoms: C9_13  and  C10_14 
REMARK    6  A    between atoms: N3_18  and  C14_19 
REMARK    7  A    between atoms: C14_19  and  O2_20 
REMARK    8  A    between atoms: C14_19  and  C15_22 
REMARK    9  A    between atoms: C15_22  and  O3_24 
REMARK   10  A    between atoms: C15_22  and  C17_26 
ROOT
HETATM    1  C5  UNL     1      -0.549   0.595  -0.923  1.00  0.00     0.093 C 
HETATM    2  C6  UNL     1      -1.017   1.719  -1.849  1.00  0.00     0.077 C 
HETATM    3  C7  UNL     1      -1.678   1.077  -3.053  1.00  0.00     0.013 C 
HETATM    4  C8  UNL     1      -2.597  -0.044  -2.823  1.00  0.00     0.054 C 
HETATM    5  C9  UNL     1      -2.079  -1.002  -1.740  1.00  0.00     0.005 C 
HETATM    6  N3  UNL     1      -1.701  -0.210  -0.588  1.00  0.00    -0.289 N 
ENDROOT
BRANCH   1   7
HETATM    7  N2  UNL     1       0.500   0.843  -0.068  1.00  0.00    -0.298 N 
HETATM    8  C4  UNL     1       1.892   0.526  -0.414  1.00  0.00     0.324 C 
HETATM    9  N1  UNL     1       2.985   0.767   0.430  1.00  0.00    -0.326 N 
HETATM   10  O1  UNL     1       2.105   0.001  -1.552  1.00  0.00    -0.247 OA
ATOM     11  H2  UNL     1       0.304   1.263   0.841  1.00  0.00     0.172 HD
BRANCH   9  12
HETATM   12  C3  UNL     1       2.759   1.356   1.698  1.00  0.00     0.128 C 
BRANCH  12  13
HETATM   13  C2  UNL     1       2.475   0.432   2.831  1.00  0.00     0.015 C 
HETATM   14  C1  UNL     1       2.266   1.310   4.070  1.00  0.00     0.006 C 
ENDBRANCH  12  13
ENDBRANCH   9  12
BRANCH   9  15
HETATM   15  C18 UNL     1       4.312   0.397  -0.067  1.00  0.00     0.026 C 
HETATM   16  C19 UNL     1       4.624   1.155  -1.363  1.00  0.00     0.037 C 
HETATM   17  C20 UNL     1       4.449  -1.057  -0.392  1.00  0.00     0.037 C 
HETATM   18  C21 UNL     1       5.343   0.881   0.948  1.00  0.00     0.037 C 
ENDBRANCH   9  15
ENDBRANCH   1   7
BRANCH   6  19
HETATM   19  C14 UNL     1      -2.384  -0.069   0.603  1.00  0.00     0.168 C 
BRANCH  19  20
HETATM   20  O2  UNL     1      -3.249  -1.023   0.851  1.00  0.00    -0.346 OA
ATOM     21  H2  UNL     1      -3.719  -0.926   1.671  1.00  0.00     0.219 HD
ENDBRANCH  19  20
BRANCH  19  22
HETATM   22  C15 UNL     1      -2.386   0.909   1.676  1.00  0.00     0.217 C 
HETATM   23  C16 UNL     1      -1.791   0.404   2.972  1.00  0.00     0.065 C 
BRANCH  22  24
HETATM   24  O3  UNL     1      -1.882   2.153   1.456  1.00  0.00    -0.374 OA
ATOM     25  H3  UNL     1      -1.883   2.793   2.158  1.00  0.00     0.211 HD
ENDBRANCH  22  24
BRANCH  22  26
HETATM   26  C17 UNL     1      -3.870   1.181   2.034  1.00  0.00     0.425 C 
HETATM   27  F1  UNL     1      -4.452   1.656   0.879  1.00  0.00    -0.167 F 
HETATM   28  F2  UNL     1      -3.902   2.238   2.951  1.00  0.00    -0.167 F 
HETATM   29  F3  UNL     1      -4.477   0.071   2.531  1.00  0.00    -0.167 F 
ENDBRANCH  22  26
ENDBRANCH  19  22
ENDBRANCH   6  19
BRANCH   5  30
HETATM   30  C10 UNL     1      -2.785  -2.268  -1.682  1.00  0.00    -0.012 C 
HETATM   31  C11 UNL     1      -2.529  -2.881  -3.113  1.00  0.00     0.021 C 
HETATM   32  C12 UNL     1      -2.114  -3.275  -0.781  1.00  0.00     0.021 C 
HETATM   33  C13 UNL     1      -4.280  -2.269  -1.604  1.00  0.00     0.021 C 
ENDBRANCH   5  30
TORSDOF 10
