REMARK  3 active torsions:
REMARK  status: ('A' for Active; 'I' for Inactive)
REMARK    1  A    between atoms: C8_10  and  C9_11 
REMARK    2  A    between atoms: C9_11  and  C10_12 
REMARK    3  A    between atoms: C10_12  and  O1_14 
ROOT
HETATM    1  C1  UNL     1      -3.300  -2.387   2.091  1.00  0.00     0.043 C 
HETATM    2  C2  UNL     1      -3.124  -1.680   0.804  1.00  0.00    -0.083 C 
HETATM    3  C3  UNL     1      -2.135  -2.062   0.041  1.00  0.00     0.028 C 
HETATM    4  C4  UNL     1      -1.691  -1.573  -1.283  1.00  0.00     0.245 C 
HETATM    5  N1  UNL     1      -0.593  -2.304  -1.778  1.00  0.00    -0.373 N 
ATOM      6  H1  UNL     1      -0.824  -3.274  -1.992  1.00  0.00     0.161 HD
HETATM    7  C5  UNL     1       0.599  -2.024  -2.012  1.00  0.00     0.065 C 
HETATM    8  C6  UNL     1       1.299  -0.721  -1.830  1.00  0.00     0.049 C 
HETATM    9  C7  UNL     1       2.573  -0.771  -2.671  1.00  0.00     0.018 C 
HETATM   10  C8  UNL     1       1.572  -0.410  -0.404  1.00  0.00     0.133 C 
HETATM   11  O2  UNL     1       1.338   0.810   0.086  1.00  0.00    -0.376 OA
HETATM   12  C12 UNL     1       0.930   1.880  -0.581  1.00  0.00     0.141 C 
HETATM   13  C13 UNL     1       2.172   2.776  -0.825  1.00  0.00     0.044 C 
HETATM   14  C14 UNL     1      -0.041   2.758   0.163  1.00  0.00     0.007 C 
HETATM   15  C15 UNL     1      -1.178   2.399   0.690  1.00  0.00    -0.083 C 
HETATM   16  C16 UNL     1      -2.005   3.457   1.400  1.00  0.00     0.043 C 
HETATM   17  C17 UNL     1      -1.758   1.030   0.667  1.00  0.00     0.065 C 
HETATM   18  C18 UNL     1      -2.282   0.611  -0.683  1.00  0.00     0.128 C 
HETATM   19  C19 UNL     1      -3.736   0.187  -0.631  1.00  0.00     0.036 C 
HETATM   20  C20 UNL     1      -4.122  -0.611   0.554  1.00  0.00     0.036 C 
HETATM   21  O3  UNL     1      -1.498  -0.249  -1.383  1.00  0.00    -0.358 OA
ENDROOT
BRANCH  10  22
HETATM   22  C9  UNL     1       2.931  -0.994   0.017  1.00  0.00     0.064 C 
BRANCH  22  23
HETATM   23  C10 UNL     1       3.266  -0.730   1.442  1.00  0.00     0.116 C 
HETATM   24  C11 UNL     1       4.640  -1.379   1.677  1.00  0.00     0.039 C 
BRANCH  23  25
HETATM   25  O1  UNL     1       3.248   0.576   1.848  1.00  0.00    -0.396 OA
ATOM     26  H1  UNL     1       3.462   0.745   2.758  1.00  0.00     0.210 HD
ENDBRANCH  23  25
ENDBRANCH  22  23
ENDBRANCH  10  22
TORSDOF 3
