REMARK  3 active torsions:
REMARK  status: ('A' for Active; 'I' for Inactive)
REMARK    1  A    between atoms: C2_2  and  N1_3 
REMARK    2  A    between atoms: C5_6  and  N2_7 
REMARK    3  A    between atoms: N2_7  and  C6_9 
ROOT
HETATM    1  C6  UNL     1      -0.785  -0.537  -0.207  1.00  0.00     0.085 C 
HETATM    2  C7  UNL     1      -0.930   0.921   0.009  1.00  0.00     0.030 C 
HETATM    3  C8  UNL     1      -2.037   1.315   0.951  1.00  0.00    -0.012 C 
HETATM    4  C9  UNL     1      -2.379   0.299   1.985  1.00  0.00     0.010 C 
HETATM    5  C10 UNL     1      -3.427  -0.558   1.311  1.00  0.00    -0.006 C 
HETATM    6  C11 UNL     1      -2.726  -1.790   0.787  1.00  0.00     0.012 C 
HETATM    7  C12 UNL     1      -2.110  -1.257  -0.490  1.00  0.00     0.009 C 
HETATM    8  C13 UNL     1      -3.151  -0.400  -1.105  1.00  0.00     0.016 C 
HETATM    9  C14 UNL     1      -3.882   0.183   0.077  1.00  0.00    -0.040 C 
HETATM   10  C15 UNL     1      -5.359   0.159  -0.108  1.00  0.00     0.015 C 
HETATM   11  C16 UNL     1      -3.354   1.579   0.283  1.00  0.00     0.014 C 
ENDROOT
BRANCH   1  12
HETATM   12  N2  UNL     1       0.087  -0.838  -1.266  1.00  0.00    -0.391 N 
ATOM     13  H2  UNL     1      -0.301  -1.287  -2.095  1.00  0.00     0.159 HD
BRANCH  12  14
HETATM   14  C5  UNL     1       1.450  -0.559  -1.249  1.00  0.00    -0.011 C 
HETATM   15  C4  UNL     1       2.206  -1.278  -0.108  1.00  0.00     0.072 C 
HETATM   16  C3  UNL     1       3.667  -1.000  -0.416  1.00  0.00     0.127 C 
HETATM   17  N1  UNL     1       3.897   0.363  -0.012  1.00  0.00    -0.393 N 
HETATM   18  C18 UNL     1       2.965   1.299  -0.494  1.00  0.00     0.063 C 
HETATM   19  C17 UNL     1       1.966   0.799  -1.500  1.00  0.00     0.096 C 
BRANCH  17  20
HETATM   20  C2  UNL     1       5.268   0.742   0.017  1.00  0.00     0.117 C 
HETATM   21  C1  UNL     1       5.982   0.006   1.132  1.00  0.00     0.026 C 
ENDBRANCH  17  20
ENDBRANCH  12  14
ENDBRANCH   1  12
TORSDOF 3
