REMARK  3 active torsions:
REMARK  status: ('A' for Active; 'I' for Inactive)
REMARK    1  A    between atoms: C4_6  and  C5_7 
REMARK    2  A    between atoms: C6_12  and  N3_13 
REMARK    3  A    between atoms: N4_20  and  C13_21 
ROOT
HETATM    1  C5  UNL     1      -4.978  -0.531   0.569  1.00  0.00     0.151 A 
HETATM    2  N1  UNL     1      -5.140  -1.603   1.404  1.00  0.00    -0.270 N 
ATOM      3  H1  UNL     1      -5.973  -1.800   1.958  1.00  0.00     0.189 HD
HETATM    4  N2  UNL     1      -4.055  -2.336   1.378  1.00  0.00    -0.130 N 
ATOM      5  H2  UNL     1      -3.918  -3.194   1.913  1.00  0.00     0.205 HD
HETATM    6  C6  UNL     1      -3.159  -1.804   0.557  1.00  0.00     0.696 A 
HETATM    7  N5  UNL     1      -3.755  -0.676   0.061  1.00  0.00    -0.173 N 
ATOM      8  H5  UNL     1      -3.323  -0.036  -0.605  1.00  0.00     0.186 HD
ENDROOT
BRANCH   6   9
HETATM    9  N3  UNL     1      -1.860  -2.249   0.204  1.00  0.00    -0.216 N 
HETATM   10  C7  UNL     1      -1.706  -2.979  -1.050  1.00  0.00     0.141 C 
HETATM   11  C8  UNL     1      -0.333  -2.721  -1.605  1.00  0.00     0.021 C 
HETATM   12  C9  UNL     1       0.118  -1.351  -1.200  1.00  0.00     0.013 C 
HETATM   13  C10 UNL     1       0.402  -1.257   0.259  1.00  0.00    -0.020 C 
HETATM   14  C11 UNL     1       0.302   0.171   0.758  1.00  0.00     0.041 C 
HETATM   15  C20 UNL     1       1.704  -1.842   0.701  1.00  0.00     0.041 C 
HETATM   16  C21 UNL     1      -0.680  -2.051   1.000  1.00  0.00     0.151 C 
HETATM   17  C12 UNL     1       1.540   0.963   0.378  1.00  0.00     0.273 C 
HETATM   18  N4  UNL     1       2.745   0.310   0.851  1.00  0.00     0.093 N 
HETATM   19  C19 UNL     1       2.874  -1.020   0.289  1.00  0.00     0.273 C 
BRANCH  18  20
HETATM   20  C13 UNL     1       3.877   1.140   0.548  1.00  0.00     0.223 C 
HETATM   21  C14 UNL     1       4.159   1.333  -0.906  1.00  0.00     0.036 C 
HETATM   22  C15 UNL     1       5.251   2.380  -1.035  1.00  0.00     0.002 C 
HETATM   23  C16 UNL     1       6.507   1.779  -0.418  1.00  0.00     0.000 C 
HETATM   24  C17 UNL     1       6.304   1.512   1.054  1.00  0.00     0.002 C 
HETATM   25  C18 UNL     1       5.070   0.676   1.302  1.00  0.00     0.036 C 
ENDBRANCH  18  20
ENDBRANCH   6   9
BRANCH   1  26
HETATM   26  C4  UNL     1      -5.986   0.494   0.321  1.00  0.00     0.070 A 
HETATM   27  C3  UNL     1      -5.861   1.523  -0.571  1.00  0.00     0.135 A 
HETATM   28  C2  UNL     1      -6.871   2.472  -0.758  1.00  0.00     0.085 A 
HETATM   29  F2  UNL     1      -4.735   1.651  -1.318  1.00  0.00    -0.205 F 
HETATM   30  C1  UNL     1      -8.048   2.418  -0.049  1.00  0.00     0.120 A 
HETATM   31  F1  UNL     1      -9.010   3.350  -0.249  1.00  0.00    -0.206 F 
HETATM   32  C23 UNL     1      -8.178   1.387   0.848  1.00  0.00     0.067 A 
HETATM   33  C22 UNL     1      -7.185   0.449   1.036  1.00  0.00     0.054 A 
HETATM   34 CL1  UNL     1      -7.371  -0.857   2.195  1.00  0.00    -0.083 Cl
ENDBRANCH   1  26
TORSDOF 3
