REMARK  4 active torsions:
REMARK  status: ('A' for Active; 'I' for Inactive)
REMARK    1  A    between atoms: C2_2  and  C3_3 
REMARK    2  A    between atoms: C9_9  and  O1_10 
REMARK    3  A    between atoms: C12_14  and  O2_15 
REMARK    4  A    between atoms: C14_17  and  O3_18 
ROOT
HETATM    1  C3  UNL     1      -3.646   0.716  -0.227  1.00  0.00    -0.006 C 
HETATM    2  C4  UNL     1      -4.059  -0.714  -0.340  1.00  0.00     0.006 C 
HETATM    3  C5  UNL     1      -2.770  -1.552  -0.320  1.00  0.00     0.006 C 
HETATM    4  C6  UNL     1      -1.728  -0.523  -0.487  1.00  0.00     0.002 C 
HETATM    5  C7  UNL     1      -0.347  -0.868  -0.117  1.00  0.00     0.038 C 
HETATM    6  C8  UNL     1       0.149  -2.120  -0.756  1.00  0.00     0.045 C 
HETATM    7  C9  UNL     1       1.483  -2.024  -1.410  1.00  0.00     0.152 C 
HETATM    8  C10 UNL     1       2.433  -1.125  -0.686  1.00  0.00    -0.017 A 
HETATM    9  C11 UNL     1       3.749  -1.439  -0.468  1.00  0.00     0.050 A 
HETATM   10  C12 UNL     1       4.552  -0.560   0.204  1.00  0.00     0.102 A 
HETATM   11  C14 UNL     1       4.048   0.648   0.666  1.00  0.00     0.102 A 
HETATM   12  C16 UNL     1       2.727   0.956   0.443  1.00  0.00     0.050 A 
HETATM   13  C17 UNL     1       1.915   0.071  -0.234  1.00  0.00    -0.007 A 
HETATM   14  C18 UNL     1       0.506   0.356  -0.494  1.00  0.00     0.135 C 
HETATM   15  F1  UNL     1       0.289   0.562  -1.861  1.00  0.00    -0.237 F 
HETATM   16  C19 UNL     1       0.045   1.553   0.256  1.00  0.00     0.050 C 
HETATM   17  C20 UNL     1      -1.423   1.808   0.201  1.00  0.00     0.013 C 
HETATM   18  C21 UNL     1      -2.267   0.599   0.402  1.00  0.00    -0.036 C 
HETATM   19  C22 UNL     1      -2.453   0.182   1.816  1.00  0.00     0.016 C 
ENDROOT
BRANCH   1  20
HETATM   20  C2  UNL     1      -4.572   1.555   0.608  1.00  0.00     0.001 C 
HETATM   21  C1  UNL     1      -5.967   1.600   0.088  1.00  0.00     0.005 C 
ENDBRANCH   1  20
BRANCH   7  22
HETATM   22  O1  UNL     1       2.076  -3.308  -1.386  1.00  0.00    -0.391 OA
ATOM     23  H1  UNL     1       2.927  -3.247  -1.803  1.00  0.00     0.210 HD
ENDBRANCH   7  22
BRANCH  11  24
HETATM   24  O3  UNL     1       4.907   1.515   1.347  1.00  0.00    -0.353 OA
HETATM   25  C15 UNL     1       4.373   2.740   1.810  1.00  0.00     0.210 C 
ENDBRANCH  11  24
BRANCH  10  26
HETATM   26  O2  UNL     1       5.899  -0.848   0.445  1.00  0.00    -0.353 OA
HETATM   27  C13 UNL     1       6.417  -2.079  -0.025  1.00  0.00     0.210 C 
ENDBRANCH  10  26
TORSDOF 4
