REMARK  10 active torsions:
REMARK  status: ('A' for Active; 'I' for Inactive)
REMARK    1  A    between atoms: C3_5  and  N2_6 
REMARK    2  A    between atoms: C4_11  and  N4_12 
REMARK    3  A    between atoms: C5_15  and  N5_16 
REMARK    4  A    between atoms: C6_19  and  C7_20 
REMARK       I    between atoms: C7_20  and  N7_22 
REMARK    5  A    between atoms: N7_22  and  C8_23 
REMARK       I    between atoms: N8_24  and  C9_26 
REMARK    6  A    between atoms: C9_26  and  C10_28 
REMARK    7  A    between atoms: C10_28  and  O3_29 
REMARK    8  A    between atoms: C10_28  and  N9_31 
REMARK    9  A    between atoms: C11_33  and  C13_35 
REMARK   10  A    between atoms: C15_43  and  N13_44 
ROOT
HETATM    1  N5  UNL     1      -3.172  -0.196  -0.330  1.00  0.00    -0.164 N 
HETATM    2  N6  UNL     1      -2.388  -1.216  -0.877  1.00  0.00    -0.253 N 
ATOM      3  H6  UNL     1      -2.614  -1.783  -1.694  1.00  0.00     0.191 HD
HETATM    4  C6  UNL     1      -1.346  -1.303  -0.167  1.00  0.00     0.247 A 
HETATM    5  N10 UNL     1      -1.376  -0.411   0.803  1.00  0.00    -0.145 N 
HETATM    6  N11 UNL     1      -0.675  -0.119   1.926  1.00  0.00    -0.260 N 
ATOM      7  H11 UNL     1       0.207  -0.535   2.225  1.00  0.00     0.190 HD
HETATM    8  C14 UNL     1      -1.350   0.792   2.540  1.00  0.00     0.180 A 
HETATM    9  N12 UNL     1      -1.059   1.142   3.934  1.00  0.00    -0.077 NA
HETATM   10  C15 UNL     1      -2.522   1.134   1.824  1.00  0.00     0.186 A 
HETATM   11  N14 UNL     1      -2.511   0.335   0.751  1.00  0.00    -0.131 N 
ENDROOT
BRANCH   4  12
HETATM   12  C7  UNL     1       0.011  -2.166  -0.158  1.00  0.00     0.366 C 
HETATM   13  O1  UNL     1      -0.243  -3.068   0.586  1.00  0.00    -0.247 OA
HETATM   14  N7  UNL     1       0.687  -1.515  -0.930  1.00  0.00    -0.359 NA
BRANCH  14  15
HETATM   15  C8  UNL     1       1.495  -0.783  -1.820  1.00  0.00     0.282 C 
HETATM   16  N8  UNL     1       2.794  -0.950  -1.635  1.00  0.00    -0.305 N 
HETATM   17  C9  UNL     1       3.572  -0.500  -0.564  1.00  0.00     0.298 C 
ATOM     18  H8  UNL     1       3.287  -1.470  -2.361  1.00  0.00     0.171 HD
HETATM   19  O2  UNL     1       3.141   0.259   0.385  1.00  0.00    -0.263 OA
BRANCH  17  20
HETATM   20  C10 UNL     1       4.995  -0.987  -0.557  1.00  0.00     0.210 C 
BRANCH  20  21
HETATM   21  O3  UNL     1       5.460  -1.047  -1.851  1.00  0.00    -0.342 OA
ATOM     22  H3  UNL     1       6.359  -1.355  -1.847  1.00  0.00     0.219 HD
ENDBRANCH  20  21
BRANCH  20  23
HETATM   23  N9  UNL     1       5.904  -0.611   0.410  1.00  0.00    -0.331 N 
HETATM   24  C11 UNL     1       6.658   0.527   0.393  1.00  0.00     0.084 C 
HETATM   25  C12 UNL     1       6.063   1.878   0.417  1.00  0.00     0.076 C 
ATOM     26  H9  UNL     1       6.023  -1.237   1.206  1.00  0.00     0.168 HD
BRANCH  24  27
HETATM   27  C13 UNL     1       7.845   0.407  -0.569  1.00  0.00     0.222 C 
HETATM   28  O4  UNL     1       8.409  -0.759  -0.551  1.00  0.00    -0.643 OA
HETATM   29  O5  UNL     1       8.186   1.450  -1.354  1.00  0.00    -0.643 OA
ENDBRANCH  24  27
ENDBRANCH  20  23
ENDBRANCH  17  20
ENDBRANCH  14  15
ENDBRANCH   4  12
BRANCH   1  30
HETATM   30  C5  UNL     1      -4.522  -0.092  -0.540  1.00  0.00     0.143 A 
HETATM   31  C2  UNL     1      -5.254   0.975  -0.993  1.00  0.00     0.057 A 
HETATM   32  C1  UNL     1      -4.606   2.231  -1.478  1.00  0.00     0.071 C 
HETATM   33  N1  UNL     1      -6.554   0.832  -1.138  1.00  0.00    -0.194 N 
HETATM   34  C3  UNL     1      -7.270  -0.370  -0.847  1.00  0.00     0.677 A 
ATOM     35  H1  UNL     1      -7.086   1.632  -1.481  1.00  0.00     0.184 HD
HETATM   36  N3  UNL     1      -6.548  -1.370  -0.438  1.00  0.00    -0.175 N 
HETATM   37  C4  UNL     1      -5.278  -1.284  -0.301  1.00  0.00     0.147 A 
ATOM     38  H3  UNL     1      -7.009  -2.253  -0.219  1.00  0.00     0.186 HD
BRANCH  34  39
HETATM   39  N2  UNL     1      -8.471  -0.217  -0.722  1.00  0.00    -0.234 N 
ATOM     40  H22 UNL     1      -9.038   0.568  -1.043  1.00  0.00     0.174 HD
ATOM     41  H21 UNL     1      -8.982  -1.075  -0.514  1.00  0.00     0.174 HD
ENDBRANCH  34  39
BRANCH  37  42
HETATM   42  N4  UNL     1      -4.412  -2.307  -0.067  1.00  0.00    -0.383 N 
ATOM     43  H42 UNL     1      -4.951  -3.156   0.103  1.00  0.00     0.157 HD
ATOM     44  H41 UNL     1      -3.400  -2.238   0.042  1.00  0.00     0.157 HD
ENDBRANCH  37  42
ENDBRANCH   1  30
BRANCH  10  45
HETATM   45  N13 UNL     1      -3.483   1.825   2.210  1.00  0.00    -0.380 N 
ATOM     46 2H13 UNL     1      -3.491   2.434   3.028  1.00  0.00     0.158 HD
ATOM     47 1H13 UNL     1      -4.328   2.071   1.694  1.00  0.00     0.158 HD
ENDBRANCH  10  45
TORSDOF 10
