REMARK  10 active torsions:
REMARK  status: ('A' for Active; 'I' for Inactive)
REMARK    1  A    between atoms: C3_3  and  C4_4 
REMARK    2  A    between atoms: C4_4  and  C5_5 
REMARK    3  A    between atoms: C5_5  and  O1_6 
REMARK    4  A    between atoms: C6_8  and  C7_9 
REMARK    5  A    between atoms: C7_9  and  C8_10 
REMARK    6  A    between atoms: C8_10  and  O2_11 
REMARK    7  A    between atoms: O2_11  and  C9_12 
REMARK    8  A    between atoms: C9_12  and  C10_13 
REMARK    9  A    between atoms: C10_13  and  C11_14 
REMARK   10  A    between atoms: C11_14  and  O3_15 
ROOT
HETATM    1  C8  UNL     1      -0.418  -1.775   1.633  1.00  0.00     0.171 C 
ENDROOT
BRANCH   1   2
HETATM    2  C7  UNL     1       0.876  -1.124   2.145  1.00  0.00     0.056 C 
BRANCH   2   3
HETATM    3  C6  UNL     1       1.594  -0.648   0.934  1.00  0.00     0.007 C 
HETATM    4  C5  UNL     1       2.802  -1.116   0.669  1.00  0.00     0.043 C 
BRANCH   4   5
HETATM    5  C4  UNL     1       3.490  -0.613  -0.555  1.00  0.00     0.090 C 
BRANCH   5   6
HETATM    6  C3  UNL     1       4.763   0.061  -0.267  1.00  0.00    -0.025 C 
HETATM    7  C2  UNL     1       4.924   1.331  -0.614  1.00  0.00    -0.035 C 
HETATM    8  C1  UNL     1       6.193   2.034  -0.336  1.00  0.00     0.036 C 
ENDBRANCH   5   6
ENDBRANCH   4   5
BRANCH   4   9
HETATM    9  O1  UNL     1       3.384  -2.039   1.513  1.00  0.00    -0.365 OA
ATOM     10  H1  UNL     1       2.946  -2.359   2.293  1.00  0.00     0.217 HD
ENDBRANCH   4   9
ENDBRANCH   2   3
ENDBRANCH   1   2
BRANCH   1  11
HETATM   11  O2  UNL     1      -1.104  -0.796   0.964  1.00  0.00    -0.390 OA
BRANCH  11  12
HETATM   12  C9  UNL     1      -2.314  -1.232   0.433  1.00  0.00     0.179 C 
BRANCH  12  13
HETATM   13  C10 UNL     1      -3.044  -0.148  -0.292  1.00  0.00     0.002 C 
HETATM   14  C12 UNL     1      -3.349   1.049   0.551  1.00  0.00     0.014 C 
HETATM   15  C13 UNL     1      -3.567   2.127  -0.491  1.00  0.00     0.001 C 
HETATM   16  C14 UNL     1      -2.453   1.876  -1.464  1.00  0.00     0.001 C 
HETATM   17  C15 UNL     1      -2.165   0.391  -1.376  1.00  0.00     0.014 C 
BRANCH  13  18
HETATM   18  C11 UNL     1      -4.342  -0.714  -0.831  1.00  0.00     0.175 C 
BRANCH  18  19
HETATM   19  O3  UNL     1      -5.157  -1.197   0.177  1.00  0.00    -0.400 OA
ATOM     20  H3  UNL     1      -5.971  -1.552  -0.161  1.00  0.00     0.209 HD
ENDBRANCH  18  19
ENDBRANCH  13  18
ENDBRANCH  12  13
ENDBRANCH  11  12
ENDBRANCH   1  11
TORSDOF 10
