REMARK  7 active torsions:
REMARK  status: ('A' for Active; 'I' for Inactive)
REMARK    1  A    between atoms: C2_2  and  C3_3 
REMARK    2  A    between atoms: C3_3  and  C4_4 
REMARK    3  A    between atoms: C4_4  and  N1_5 
REMARK       I    between atoms: N1_5  and  C5_7 
REMARK       I    between atoms: C5_7  and  N2_9 
REMARK    4  A    between atoms: N2_9  and  C6_11 
REMARK    5  A    between atoms: C7_16  and  S1_17 
REMARK    6  A    between atoms: S1_17  and  C8_18 
REMARK    7  A    between atoms: C8_18  and  C9_19 
ROOT
HETATM    1  C6  UNL     1       0.045  -0.666   0.548  1.00  0.00     0.169 A 
HETATM    2  N3  UNL     1       0.057   0.031  -0.594  1.00  0.00    -0.278 N 
ATOM      3  H3  UNL     1       0.828  -0.076  -1.253  1.00  0.00     0.189 HD
HETATM    4  N4  UNL     1      -0.891   0.820  -0.848  1.00  0.00    -0.286 N 
ATOM      5  H4  UNL     1      -0.884   1.351  -1.719  1.00  0.00     0.188 HD
HETATM    6  C7  UNL     1      -1.912   0.971   0.014  1.00  0.00     0.130 A 
HETATM    7  S2  UNL     1      -1.411  -0.128   1.253  1.00  0.00    -0.026 SA
ENDROOT
BRANCH   1   8
HETATM    8  N2  UNL     1       0.923  -1.515   0.964  1.00  0.00    -0.288 N 
HETATM    9  C5  UNL     1       2.059  -1.802   0.187  1.00  0.00     0.322 C 
HETATM   10  N1  UNL     1       3.116  -0.859   0.103  1.00  0.00    -0.343 N 
HETATM   11  O1  UNL     1       2.179  -2.877  -0.446  1.00  0.00    -0.247 OA
ATOM     12  H1  UNL     1       3.040   0.024   0.608  1.00  0.00     0.164 HD
ATOM     13  H2  UNL     1       0.792  -1.981   1.862  1.00  0.00     0.172 HD
BRANCH  10  14
HETATM   14  C4  UNL     1       4.317  -1.130  -0.696  1.00  0.00     0.124 C 
BRANCH  14  15
HETATM   15  C3  UNL     1       5.239   0.034  -0.569  1.00  0.00     0.019 C 
BRANCH  15  16
HETATM   16  C2  UNL     1       5.637   0.209   0.865  1.00  0.00    -0.003 C 
HETATM   17  C1  UNL     1       6.580   1.405   0.976  1.00  0.00     0.005 C 
ENDBRANCH  15  16
ENDBRANCH  14  15
ENDBRANCH  10  14
ENDBRANCH   1   8
BRANCH   6  18
HETATM   18  S1  UNL     1      -3.284   2.090  -0.102  1.00  0.00    -0.103 SA
BRANCH  18  19
HETATM   19  C8  UNL     1      -4.605   1.529  -1.107  1.00  0.00     0.086 C 
BRANCH  19  20
HETATM   20  C9  UNL     1      -5.498   0.439  -0.727  1.00  0.00    -0.005 C 
HETATM   21  C10 UNL     1      -6.287   0.586   0.568  1.00  0.00     0.005 C 
HETATM   22  C11 UNL     1      -5.938  -0.870   0.880  1.00  0.00     0.001 C 
HETATM   23  C12 UNL     1      -4.963  -0.863  -0.312  1.00  0.00     0.005 C 
ENDBRANCH  19  20
ENDBRANCH  18  19
ENDBRANCH   6  18
TORSDOF 7
