REMARK  9 active torsions:
REMARK  status: ('A' for Active; 'I' for Inactive)
REMARK    1  A    between atoms: C2_2  and  C3_3 
REMARK    2  A    between atoms: C3_3  and  C4_5 
REMARK    3  A    between atoms: C4_5  and  N1_6 
REMARK    4  A    between atoms: C4_5  and  N2_10 
REMARK    5  A    between atoms: N2_10  and  C5_12 
REMARK    6  A    between atoms: C5_12  and  C6_13 
REMARK    7  A    between atoms: C6_13  and  N3_14 
REMARK       I    between atoms: N3_14  and  C7_16 
REMARK       I    between atoms: C7_16  and  N4_18 
REMARK    8  A    between atoms: N4_18  and  C8_20 
REMARK    9  A    between atoms: C8_20  and  C9_21 
ROOT
HETATM    1  C5  UNL     1      -0.784   0.931   1.195  1.00  0.00     0.135 C 
ENDROOT
BRANCH   1   2
HETATM    2  N2  UNL     1      -1.296  -0.246   0.598  1.00  0.00    -0.392 N 
ATOM      3  H2  UNL     1      -0.685  -1.024   0.347  1.00  0.00     0.155 HD
BRANCH   2   4
HETATM    4  C4  UNL     1      -2.699  -0.299   0.362  1.00  0.00     0.315 C 
BRANCH   4   5
HETATM    5  C3  UNL     1      -3.248   0.699  -0.574  1.00  0.00     0.241 C 
HETATM    6  F1  UNL     1      -2.710   0.458  -1.842  1.00  0.00    -0.241 F 
BRANCH   5   7
HETATM    7  C2  UNL     1      -4.711   0.512  -0.711  1.00  0.00     0.003 C 
HETATM    8  C1  UNL     1      -5.480  -0.195   0.092  1.00  0.00     0.010 C 
ENDBRANCH   5   7
ENDBRANCH   4   5
BRANCH   4   9
HETATM    9  N1  UNL     1      -2.989  -1.624  -0.174  1.00  0.00    -0.056 N 
ATOM     10  H13 UNL     1      -3.981  -1.765  -0.364  1.00  0.00     0.276 HD
ATOM     11  H12 UNL     1      -2.649  -1.748  -1.128  1.00  0.00     0.276 HD
ATOM     12  H11 UNL     1      -2.609  -2.314   0.474  1.00  0.00     0.276 HD
ENDBRANCH   4   9
ENDBRANCH   2   4
ENDBRANCH   1   2
BRANCH   1  13
HETATM   13  C6  UNL     1       0.717   0.781   1.350  1.00  0.00     0.143 C 
BRANCH  13  14
HETATM   14  N3  UNL     1       1.378   0.588   0.093  1.00  0.00    -0.342 N 
HETATM   15  C7  UNL     1       2.806   0.431   0.088  1.00  0.00     0.316 C 
HETATM   16  O1  UNL     1       3.418   0.467   1.160  1.00  0.00    -0.247 OA
HETATM   17  N4  UNL     1       3.489   0.240  -1.132  1.00  0.00    -0.338 N 
ATOM     18  H4  UNL     1       2.960   0.222  -2.004  1.00  0.00     0.164 HD
ATOM     19  H3  UNL     1       0.847   0.563  -0.778  1.00  0.00     0.164 HD
BRANCH  17  20
HETATM   20  C8  UNL     1       4.907   0.071  -1.170  1.00  0.00     0.195 C 
BRANCH  20  21
HETATM   21  C9  UNL     1       5.387  -1.131  -0.436  1.00  0.00     0.370 C 
HETATM   22  F2  UNL     1       4.780  -2.242  -1.037  1.00  0.00    -0.213 F 
HETATM   23  F3  UNL     1       6.759  -1.286  -0.590  1.00  0.00    -0.213 F 
ENDBRANCH  20  21
ENDBRANCH  17  20
ENDBRANCH  13  14
ENDBRANCH   1  13
TORSDOF 9
