REMARK  6 active torsions:
REMARK  status: ('A' for Active; 'I' for Inactive)
REMARK    1  A    between atoms: C8_10  and  N2_11 
REMARK    2  A    between atoms: C11_14  and  N3_15 
REMARK    3  A    between atoms: C14_21  and  N5_22 
REMARK    4  A    between atoms: C15_27  and  O1_28 
REMARK    5  A    between atoms: O1_28  and  C16_29 
REMARK    6  A    between atoms: C16_29  and  C17_30 
ROOT
HETATM    1  N3  UNL     1      -1.056   2.827   0.207  1.00  0.00    -0.306 N 
HETATM    2  C12 UNL     1      -0.619   4.021   0.641  1.00  0.00     0.158 A 
HETATM    3 BR1  UNL     1       1.181   4.511   1.049  1.00  0.00    -0.010 Br
HETATM    4  N4  UNL     1      -1.645   4.880   0.763  1.00  0.00    -0.330 N 
ATOM      5  H4  UNL     1      -1.586   5.850   1.074  1.00  0.00     0.168 HD
HETATM    6  C13 UNL     1      -2.758   4.231   0.402  1.00  0.00     0.123 A 
HETATM    7  C14 UNL     1      -4.082   4.636   0.340  1.00  0.00     0.133 A 
HETATM    8  N6  UNL     1      -4.992   3.740  -0.069  1.00  0.00    -0.306 N 
ATOM      9  H6  UNL     1      -5.972   4.018  -0.123  1.00  0.00     0.171 HD
HETATM   10  C15 UNL     1      -4.651   2.491  -0.409  1.00  0.00     0.226 A 
HETATM   11  N7  UNL     1      -3.367   2.125  -0.340  1.00  0.00    -0.306 N 
ATOM     12  H7  UNL     1      -3.115   1.172  -0.601  1.00  0.00     0.171 HD
HETATM   13  C22 UNL     1      -2.395   2.962   0.059  1.00  0.00     0.144 A 
ENDROOT
BRANCH   1  14
HETATM   14  C11 UNL     1      -0.275   1.639  -0.053  1.00  0.00     0.097 C 
HETATM   15  C10 UNL     1       0.419   1.077   1.139  1.00  0.00     0.045 C 
HETATM   16  C9  UNL     1       1.848   0.653   0.782  1.00  0.00     0.125 C 
HETATM   17  N2  UNL     1       1.900  -0.084  -0.462  1.00  0.00    -0.380 N 
HETATM   18  C24 UNL     1       1.180   0.470  -1.596  1.00  0.00     0.125 C 
HETATM   19  C23 UNL     1       0.731   1.865  -1.190  1.00  0.00     0.045 C 
BRANCH  17  20
HETATM   20  C8  UNL     1       2.626  -1.298  -0.574  1.00  0.00     0.042 A 
HETATM   21  C7  UNL     1       1.985  -2.475  -0.884  1.00  0.00     0.047 A 
HETATM   22  C6  UNL     1       2.753  -3.625  -0.975  1.00  0.00     0.090 A 
HETATM   23  N1  UNL     1       4.081  -3.624  -0.773  1.00  0.00    -0.368 N 
HETATM   24  C5  UNL     1       4.716  -2.482  -0.471  1.00  0.00     0.022 A 
ATOM     25  H1  UNL     1       4.608  -4.494  -0.850  1.00  0.00     0.165 HD
HETATM   26  C4  UNL     1       6.176  -2.510  -0.255  1.00  0.00     0.095 C 
HETATM   27  C25 UNL     1       3.984  -1.322  -0.372  1.00  0.00     0.015 A 
HETATM   28  C2  UNL     1       6.678  -1.205   0.341  1.00  0.00     0.059 C 
HETATM   29  C1  UNL     1       6.464  -1.260   1.832  1.00  0.00     0.046 C 
HETATM   30  C3  UNL     1       8.180  -1.066   0.084  1.00  0.00     0.046 C 
HETATM   31  O2  UNL     1       6.054  -0.146  -0.278  1.00  0.00    -0.376 OA
HETATM   32  C26 UNL     1       4.692  -0.065  -0.042  1.00  0.00     0.211 C 
ENDBRANCH  17  20
ENDBRANCH   1  14
BRANCH   7  33
HETATM   33  N5  UNL     1      -4.429   5.857   0.671  1.00  0.00    -0.383 N 
ATOM     34  H52 UNL     1      -3.737   6.539   0.982  1.00  0.00     0.157 HD
ATOM     35  H51 UNL     1      -5.403   6.155   0.625  1.00  0.00     0.157 HD
ENDBRANCH   7  33
BRANCH  10  36
HETATM   36  O1  UNL     1      -5.664   1.637  -0.819  1.00  0.00    -0.321 OA
BRANCH  36  37
HETATM   37  C16 UNL     1      -5.516   0.310  -1.210  1.00  0.00     0.183 C 
BRANCH  37  38
HETATM   38  C17 UNL     1      -4.943  -0.601  -0.176  1.00  0.00     0.010 C 
HETATM   39  C18 UNL     1      -5.785  -0.667   1.079  1.00  0.00     0.007 C 
HETATM   40  C19 UNL     1      -6.793  -1.772   0.843  1.00  0.00     0.000 C 
HETATM   41  C20 UNL     1      -6.370  -2.535  -0.368  1.00  0.00     0.000 C 
HETATM   42  C21 UNL     1      -5.009  -2.019  -0.757  1.00  0.00     0.007 C 
ENDBRANCH  37  38
ENDBRANCH  36  37
ENDBRANCH  10  36
TORSDOF 6
