REMARK  2 active torsions:
REMARK  status: ('A' for Active; 'I' for Inactive)
REMARK    1  A    between atoms: N1_1  and  N2_4 
REMARK    2  A    between atoms: N2_4  and  N3_5 
ROOT
HETATM    1  N3  UNL     1       2.452   0.003  -0.281  1.00  0.00    -0.218 N 
HETATM    2  C1  UNL     1       2.021   0.229   1.070  1.00  0.00     0.327 C 
HETATM    3  O1  UNL     1       0.739   0.764   0.875  1.00  0.00    -0.357 OA
HETATM    4  C2  UNL     1       0.165   0.018  -0.124  1.00  0.00     0.084 C 
HETATM    5  C3  UNL     1      -0.757   0.861  -0.964  1.00  0.00     0.059 C 
HETATM    6  C4  UNL     1      -2.197   0.543  -0.790  1.00  0.00     0.116 C 
HETATM    7  N4  UNL     1      -2.620   0.272   0.534  1.00  0.00    -0.421 N 
ATOM      8  H4  UNL     1      -3.534   0.567   0.878  1.00  0.00     0.153 HD
HETATM    9  C5  UNL     1      -1.701  -0.434   1.356  1.00  0.00     0.116 C 
HETATM   10  C6  UNL     1      -0.643  -1.086   0.505  1.00  0.00     0.059 C 
HETATM   11  C7  UNL     1       1.313  -0.541  -0.964  1.00  0.00     0.199 C 
ENDROOT
BRANCH   1  12
HETATM   12  N2  UNL     1       3.663   0.252  -0.784  1.00  0.00    -0.244 NA
BRANCH  12  13
HETATM   13  N1  UNL     1       4.692   0.451  -1.219  1.00  0.00    -0.261 N 
ATOM     14  H12 UNL     1       3.896  -0.186  -1.174  1.00  0.00     0.193 HD
ATOM     15  H11 UNL     1       5.617   0.641  -1.603  1.00  0.00     0.193 HD
ENDBRANCH  12  13
ENDBRANCH   1  12
TORSDOF 2
