REMARK  4 active torsions:
REMARK  status: ('A' for Active; 'I' for Inactive)
REMARK    1  A    between atoms: N1_1  and  C1_5 
REMARK    2  A    between atoms: C1_5  and  C2_6 
REMARK    3  A    between atoms: C2_6  and  C3_7 
REMARK    4  A    between atoms: C2_6  and  N2_9 
ROOT
HETATM    1  C1  UNL     1       0.163  -0.063   0.401  1.00  0.00     0.148 C 
HETATM    2  C6  UNL     1      -0.970  -0.836   1.064  1.00  0.00     0.041 C 
HETATM    3  C7  UNL     1      -1.933   0.189   1.565  1.00  0.00     0.002 C 
HETATM    4  C8  UNL     1      -3.052   0.529   0.679  1.00  0.00     0.000 C 
HETATM    5  C9  UNL     1      -2.917   0.322  -0.765  1.00  0.00     0.000 C 
HETATM    6  C10 UNL     1      -1.571   0.319  -1.361  1.00  0.00     0.002 C 
HETATM    7  C11 UNL     1      -0.488   0.935  -0.521  1.00  0.00     0.041 C 
ENDROOT
BRANCH   1   8
HETATM    8  N1  UNL     1       0.866   0.646   1.449  1.00  0.00    -0.068 N 
ATOM      9  H13 UNL     1       1.349   0.017   2.090  1.00  0.00     0.275 HD
ATOM     10  H12 UNL     1       1.684   1.147   1.101  1.00  0.00     0.275 HD
ATOM     11  H11 UNL     1       0.206   1.259   1.926  1.00  0.00     0.275 HD
ENDBRANCH   1   8
BRANCH   1  12
HETATM   12  C2  UNL     1       1.133  -0.964  -0.300  1.00  0.00     0.173 C 
BRANCH  12  13
HETATM   13  C3  UNL     1       1.717  -1.954   0.685  1.00  0.00     0.252 C 
HETATM   14  F1  UNL     1       2.610  -2.771   0.002  1.00  0.00    -0.253 F 
ENDBRANCH  12  13
BRANCH  12  15
HETATM   15  N2  UNL     1       2.234  -0.147  -0.775  1.00  0.00    -0.277 N 
HETATM   16  C4  UNL     1       2.609   0.039  -2.046  1.00  0.00     0.202 A 
HETATM   17  N3  UNL     1       3.682   0.869  -2.093  1.00  0.00    -0.346 N 
HETATM   18  C5  UNL     1       3.964   1.193  -0.819  1.00  0.00     0.198 A 
ATOM     19  H3  UNL     1       4.176   1.184  -2.928  1.00  0.00     0.167 HD
HETATM   20  N4  UNL     1       3.073   0.566  -0.033  1.00  0.00    -0.293 N 
ATOM     21  H4  UNL     1       3.045   0.629   0.985  1.00  0.00     0.188 HD
ENDBRANCH  12  15
ENDBRANCH   1  12
TORSDOF 4
