REMARK  5 active torsions:
REMARK  status: ('A' for Active; 'I' for Inactive)
REMARK    1  A    between atoms: C2_2  and  C3_3 
REMARK    2  A    between atoms: C3_3  and  N1_5 
REMARK    3  A    between atoms: C3_3  and  C9_17 
REMARK    4  A    between atoms: N1_5  and  C5_7 
REMARK    5  A    between atoms: C7_11  and  N3_12 
ROOT
HETATM    1  C5  UNL     1       0.923  -0.161   0.107  1.00  0.00     0.682 A 
HETATM    2  N2  UNL     1       1.256   1.039  -0.388  1.00  0.00    -0.198 N 
ATOM      3  H2  UNL     1       0.596   1.785  -0.606  1.00  0.00     0.183 HD
HETATM    4  C6  UNL     1       2.593   1.115  -0.556  1.00  0.00     0.161 A 
HETATM    5  C7  UNL     1       3.129  -0.088  -0.150  1.00  0.00     0.206 A 
HETATM    6  N4  UNL     1       2.103  -0.839   0.245  1.00  0.00    -0.165 N 
HETATM    7  C8  UNL     1       2.203  -2.181   0.749  1.00  0.00     0.177 C 
ENDROOT
BRANCH   1   8
HETATM    8  N1  UNL     1      -0.231  -0.594   0.391  1.00  0.00    -0.208 N 
ATOM      9  H1  UNL     1      -0.267  -1.544   0.760  1.00  0.00     0.179 HD
BRANCH   8  10
HETATM   10  C3  UNL     1      -1.498   0.071   0.265  1.00  0.00     0.140 C 
HETATM   11  C4  UNL     1      -1.415   1.402   0.977  1.00  0.00     0.048 C 
BRANCH  10  12
HETATM   12  C2  UNL     1      -1.893   0.248  -1.191  1.00  0.00     0.036 C 
HETATM   13  C1  UNL     1      -3.216   0.915  -1.373  1.00  0.00     0.008 C 
ENDBRANCH  10  12
BRANCH  10  14
HETATM   14  C9  UNL     1      -2.588  -0.752   0.949  1.00  0.00     0.412 C 
HETATM   15  F1  UNL     1      -2.727  -1.986   0.350  1.00  0.00    -0.168 F 
HETATM   16  F2  UNL     1      -3.778  -0.101   1.060  1.00  0.00    -0.168 F 
HETATM   17  F3  UNL     1      -2.193  -1.040   2.267  1.00  0.00    -0.168 F 
ENDBRANCH  10  14
ENDBRANCH   8  10
ENDBRANCH   1   8
BRANCH   5  18
HETATM   18  N3  UNL     1       4.529  -0.439  -0.161  1.00  0.00    -0.096 N 
HETATM   19  O1  UNL     1       5.336   0.392  -0.564  1.00  0.00    -0.530 OA
HETATM   20  O2  UNL     1       4.871  -1.691   0.284  1.00  0.00    -0.530 OA
ENDBRANCH   5  18
TORSDOF 5
