REMARK  4 active torsions:
REMARK  status: ('A' for Active; 'I' for Inactive)
REMARK    1  A    between atoms: N1_1  and  C1_5 
REMARK    2  A    between atoms: N2_10  and  C6_11 
REMARK    3  A    between atoms: C6_11  and  C7_12 
REMARK    4  A    between atoms: C7_12  and  C8_13 
ROOT
HETATM    1  C1  UNL     1      -2.497   0.802  -0.691  1.00  0.00     0.417 C 
HETATM    2  C2  UNL     1      -3.766   0.569   0.114  1.00  0.00     0.065 C 
HETATM    3  C3  UNL     1      -3.872  -0.943   0.235  1.00  0.00     0.005 C 
HETATM    4  C4  UNL     1      -2.491  -1.430   0.613  1.00  0.00     0.030 C 
HETATM    5  C5  UNL     1      -1.650  -0.333   1.233  1.00  0.00     0.275 C 
HETATM    6  N2  UNL     1      -1.406   0.762   0.292  1.00  0.00     0.119 N 
ENDROOT
BRANCH   6   7
HETATM    7  C6  UNL     1      -0.136   0.585  -0.391  1.00  0.00     0.275 C 
BRANCH   7   8
HETATM    8  C7  UNL     1       1.061   0.765   0.479  1.00  0.00     0.035 C 
BRANCH   8   9
HETATM    9  C8  UNL     1       2.318   0.537  -0.335  1.00  0.00    -0.013 C 
HETATM   10  C9  UNL     1       2.444  -0.847  -0.894  1.00  0.00     0.005 C 
HETATM   11  C10 UNL     1       3.679  -1.455  -0.242  1.00  0.00     0.000 C 
HETATM   12  C11 UNL     1       4.039  -0.550   0.887  1.00  0.00     0.000 C 
HETATM   13  C12 UNL     1       3.536   0.814   0.499  1.00  0.00     0.005 C 
ENDBRANCH   8   9
ENDBRANCH   7   8
ENDBRANCH   6   7
BRANCH   1  14
HETATM   14  N1  UNL     1      -2.597   2.096  -1.317  1.00  0.00    -0.048 N 
ATOM     15  H13 UNL     1      -3.443   2.199  -1.877  1.00  0.00     0.276 HD
ATOM     16  H12 UNL     1      -2.783   2.844  -0.649  1.00  0.00     0.276 HD
ATOM     17  H11 UNL     1      -1.746   2.252  -1.857  1.00  0.00     0.276 HD
ENDBRANCH   1  14
TORSDOF 4
