REMARK  8 active torsions:
REMARK  status: ('A' for Active; 'I' for Inactive)
REMARK    1  A    between atoms: N2_6  and  C4_8 
REMARK    2  A    between atoms: C4_8  and  C6_10 
REMARK    3  A    between atoms: C6_10  and  C7_11 
REMARK    4  A    between atoms: C7_11  and  C8_12 
REMARK    5  A    between atoms: C8_12  and  C9_13 
REMARK    6  A    between atoms: C9_13  and  C10_14 
REMARK    7  A    between atoms: C10_14  and  C11_15 
REMARK    8  A    between atoms: C13_19  and  N4_20 
ROOT
HETATM    1  C1  UNL     1      -2.156  -3.448   0.894  1.00  0.00     0.064 C 
HETATM    2  C2  UNL     1      -2.136  -2.264   0.302  1.00  0.00     0.127 A 
HETATM    3  N1  UNL     1      -1.050  -1.872  -0.536  1.00  0.00    -0.177 N 
ATOM      4  H1  UNL     1      -0.260  -2.495  -0.702  1.00  0.00     0.185 HD
HETATM    5  C3  UNL     1      -1.109  -0.584  -1.130  1.00  0.00     0.694 A 
HETATM    6  N2  UNL     1      -0.139  -0.205  -1.893  1.00  0.00    -0.221 N 
ATOM      7  H2  UNL     1      -0.197   0.723  -2.312  1.00  0.00     0.178 HD
HETATM    8  N3  UNL     1      -2.224   0.244  -0.871  1.00  0.00    -0.022 N 
ATOM      9  H3  UNL     1      -2.236   1.163  -1.313  1.00  0.00     0.203 HD
HETATM   10  C13 UNL     1      -3.221  -0.062  -0.128  1.00  0.00     0.696 A 
HETATM   11  N5  UNL     1      -3.199  -1.347   0.487  1.00  0.00    -0.176 N 
ATOM     12  H5  UNL     1      -3.980  -1.617   1.084  1.00  0.00     0.185 HD
ENDROOT
BRANCH   6  13
HETATM   13  C4  UNL     1       1.024  -1.011  -2.192  1.00  0.00     0.095 C 
HETATM   14  C5  UNL     1       1.594  -0.429  -3.495  1.00  0.00     0.032 C 
BRANCH  13  15
HETATM   15  C6  UNL     1       2.053  -0.830  -1.070  1.00  0.00     0.025 C 
BRANCH  15  16
HETATM   16  C7  UNL     1       3.285  -1.655  -1.340  1.00  0.00     0.002 C 
BRANCH  16  17
HETATM   17  C8  UNL     1       4.322  -1.503  -0.252  1.00  0.00     0.000 C 
BRANCH  17  18
HETATM   18  C9  UNL     1       4.723  -0.056  -0.172  1.00  0.00     0.000 C 
BRANCH  18  19
HETATM   19  C10 UNL     1       5.779   0.174   0.915  1.00  0.00    -0.000 C 
BRANCH  19  20
HETATM   20  C11 UNL     1       6.075   1.663   0.871  1.00  0.00    -0.005 C 
HETATM   21  C12 UNL     1       7.110   2.060   1.895  1.00  0.00     0.005 C 
ENDBRANCH  19  20
ENDBRANCH  18  19
ENDBRANCH  17  18
ENDBRANCH  16  17
ENDBRANCH  15  16
ENDBRANCH  13  15
ENDBRANCH   6  13
BRANCH  10  22
HETATM   22  N4  UNL     1      -4.320   0.816   0.097  1.00  0.00    -0.217 N 
HETATM   23  C14 UNL     1      -5.486   0.856  -0.763  1.00  0.00     0.141 C 
HETATM   24  C15 UNL     1      -6.778   0.768  -0.012  1.00  0.00     0.020 C 
HETATM   25  C16 UNL     1      -6.780   1.541   1.278  1.00  0.00     0.003 C 
HETATM   26  C17 UNL     1      -5.582   2.477   1.293  1.00  0.00     0.020 C 
HETATM   27  C18 UNL     1      -4.289   1.718   1.232  1.00  0.00     0.141 C 
ENDBRANCH  10  22
TORSDOF 8
