REMARK  5 active torsions:
REMARK  status: ('A' for Active; 'I' for Inactive)
REMARK       I    between atoms: C1_2  and  N5_16 
REMARK    1  A    between atoms: N2_3  and  N3_5 
REMARK    2  A    between atoms: N3_5  and  N4_7 
REMARK    3  A    between atoms: N4_7  and  O1_8 
REMARK    4  A    between atoms: N4_7  and  C2_10 
REMARK    5  A    between atoms: N5_16  and  N6_18 
ROOT
HETATM    1  N3  UNL     1       0.671  -0.835   0.334  1.00  0.00    -0.218 N 
ATOM      2  H3  UNL     1       0.891  -1.374   1.172  1.00  0.00     0.210 HD
ENDROOT
BRANCH   1   3
HETATM    3  N2  UNL     1       1.627   0.026  -0.219  1.00  0.00    -0.256 N 
HETATM    4  C1  UNL     1       2.872  -0.253  -0.274  1.00  0.00     0.228 C 
HETATM    5  N1  UNL     1       3.380  -1.471   0.228  1.00  0.00    -0.060 NA
HETATM    6  N5  UNL     1       3.767   0.676  -0.850  1.00  0.00    -0.212 N 
ATOM      7  H5  UNL     1       3.637   0.933  -1.828  1.00  0.00     0.196 HD
ATOM      8  H2  UNL     1       1.313   0.920  -0.597  1.00  0.00     0.191 HD
BRANCH   6   9
HETATM    9  N6  UNL     1       4.818   1.257  -0.145  1.00  0.00    -0.036 N 
HETATM   10  O3  UNL     1       4.765   2.426   0.269  1.00  0.00    -0.516 OA
HETATM   11  O4  UNL     1       5.939   0.517   0.098  1.00  0.00    -0.516 OA
ENDBRANCH   6   9
ENDBRANCH   1   3
BRANCH   1  12
HETATM   12  N4  UNL     1      -0.546  -0.949  -0.248  1.00  0.00    -0.182 N 
BRANCH  12  13
HETATM   13  O1  UNL     1      -0.667  -0.700  -1.520  1.00  0.00    -0.271 OA
ATOM     14  H1  UNL     1      -1.521  -0.780  -1.928  1.00  0.00     0.246 HD
ENDBRANCH  12  13
BRANCH  12  15
HETATM   15  C2  UNL     1      -1.682  -0.716   0.579  1.00  0.00     0.139 C 
HETATM   16  C3  UNL     1      -2.933  -0.882  -0.217  1.00  0.00     0.055 C 
HETATM   17  C4  UNL     1      -3.500   0.388  -0.759  1.00  0.00     0.169 C 
HETATM   18  O2  UNL     1      -3.685   1.257   0.343  1.00  0.00    -0.391 OA
HETATM   19  C5  UNL     1      -2.411   1.686   0.691  1.00  0.00     0.169 C 
HETATM   20  C6  UNL     1      -1.542   0.609   1.251  1.00  0.00     0.055 C 
ENDBRANCH  12  15
ENDBRANCH   1  12
TORSDOF 5
