REMARK  3 active torsions:
REMARK  status: ('A' for Active; 'I' for Inactive)
REMARK    1  A    between atoms: C2_2  and  C3_3 
REMARK    2  A    between atoms: C3_3  and  O1_4 
REMARK    3  A    between atoms: C13_19  and  O3_20 
ROOT
HETATM    1  C3  UNL     1      -0.703  -0.516   0.278  1.00  0.00     0.090 C 
HETATM    2  C4  UNL     1       0.415  -1.205  -0.450  1.00  0.00     0.078 C 
HETATM    3  C5  UNL     1       1.751  -0.892   0.102  1.00  0.00     0.064 C 
HETATM    4  C6  UNL     1       2.194  -2.048   0.992  1.00  0.00     0.046 C 
HETATM    5  C7  UNL     1       2.784  -0.783  -1.022  1.00  0.00     0.046 C 
HETATM    6  O2  UNL     1       1.834   0.280   0.856  1.00  0.00    -0.333 OA
HETATM    7  C8  UNL     1       1.213   1.531   0.776  1.00  0.00     0.122 A 
HETATM    8  S1  UNL     1       1.802   3.028   1.320  1.00  0.00    -0.051 SA
HETATM    9  C9  UNL     1       0.488   4.015   0.861  1.00  0.00     0.098 A 
HETATM   10 CL1  UNL     1       0.302   5.771   1.079  1.00  0.00    -0.074 Cl
HETATM   11  C10 UNL     1      -0.391   3.126   0.284  1.00  0.00     0.085 A 
HETATM   12  C11 UNL     1      -1.670   3.640  -0.249  1.00  0.00     0.102 C 
HETATM   13  N1  UNL     1      -2.680   4.070  -0.680  1.00  0.00    -0.191 NA
HETATM   14  C12 UNL     1       0.002   1.820   0.246  1.00  0.00     0.037 A 
HETATM   15  C13 UNL     1      -0.943   0.806  -0.384  1.00  0.00     0.190 C 
ENDROOT
BRANCH  15  16
HETATM   16  O3  UNL     1      -2.272   1.172  -0.216  1.00  0.00    -0.388 OA
ATOM     17  H3  UNL     1      -2.424   2.010  -0.636  1.00  0.00     0.210 HD
ENDBRANCH  15  16
BRANCH   1  18
HETATM   18  C2  UNL     1      -1.954  -1.370   0.331  1.00  0.00     0.036 C 
HETATM   19  C1  UNL     1      -2.488  -1.685  -1.031  1.00  0.00     0.008 C 
ENDBRANCH   1  18
BRANCH   1  20
HETATM   20  O1  UNL     1      -0.331  -0.311   1.605  1.00  0.00    -0.387 OA
ATOM     21  H1  UNL     1       0.453   0.224   1.572  1.00  0.00     0.210 HD
ENDBRANCH   1  20
TORSDOF 3
