REMARK  5 active torsions:
REMARK  status: ('A' for Active; 'I' for Inactive)
REMARK    1  A    between atoms: N1_2  and  C4_5 
REMARK    2  A    between atoms: C4_5  and  C5_6 
REMARK    3  A    between atoms: C5_6  and  N2_7 
REMARK    4  A    between atoms: C9_11  and  N3_12 
REMARK    5  A    between atoms: C14_18  and  O1_19 
ROOT
HETATM    1  N2  UNL     1       0.528   0.142   0.285  1.00  0.00    -0.043 N 
HETATM    2  C6  UNL     1       0.458  -0.206   1.691  1.00  0.00     0.275 C 
HETATM    3  C7  UNL     1       0.057  -0.911  -0.557  1.00  0.00     0.242 C 
HETATM    4  C8  UNL     1      -1.374  -1.270  -0.383  1.00  0.00     0.063 C 
HETATM    5  C9  UNL     1      -2.276  -0.058  -0.509  1.00  0.00     0.216 C 
HETATM    6  C13 UNL     1      -1.718   1.145   0.201  1.00  0.00     0.097 C 
HETATM    7  C14 UNL     1      -0.249   1.329   0.015  1.00  0.00     0.324 C 
ENDROOT
BRANCH   1   8
HETATM    8  C5  UNL     1       1.890   0.459  -0.118  1.00  0.00     0.268 C 
BRANCH   8   9
HETATM    9  C4  UNL     1       2.897  -0.510   0.443  1.00  0.00     0.264 C 
BRANCH   9  10
HETATM   10  N1  UNL     1       4.203  -0.085  -0.029  1.00  0.00    -0.077 N 
HETATM   11  C1  UNL     1       4.510   1.273   0.402  1.00  0.00     0.271 C 
HETATM   12  C2  UNL     1       4.225  -0.049  -1.498  1.00  0.00     0.271 C 
HETATM   13  C3  UNL     1       5.268  -0.935   0.398  1.00  0.00     0.271 C 
ENDBRANCH   9  10
ENDBRANCH   8   9
ENDBRANCH   1   8
BRANCH   7  14
HETATM   14  O1  UNL     1       0.068   1.728  -1.303  1.00  0.00    -0.369 OA
ATOM     15  H1  UNL     1      -0.443   2.509  -1.481  1.00  0.00     0.212 HD
ENDBRANCH   7  14
BRANCH   5  16
HETATM   16  N3  UNL     1      -3.619  -0.314  -0.125  1.00  0.00     0.012 N 
HETATM   17  C10 UNL     1      -3.962  -1.678   0.205  1.00  0.00     0.297 C 
HETATM   18  C11 UNL     1      -4.219   0.584   0.831  1.00  0.00     0.278 C 
HETATM   19  C12 UNL     1      -5.493   0.543  -0.022  1.00  0.00     0.172 C 
HETATM   20  N4  UNL     1      -4.568   0.167  -1.069  1.00  0.00    -0.045 NA
ENDBRANCH   5  16
TORSDOF 5
