REMARK  5 active torsions:
REMARK  status: ('A' for Active; 'I' for Inactive)
REMARK    1  A    between atoms: N1_1  and  C1_5 
REMARK    2  A    between atoms: C1_5  and  N2_6 
REMARK    3  A    between atoms: C1_5  and  C2_10 
REMARK    4  A    between atoms: C5_13  and  C6_14 
REMARK    5  A    between atoms: N3_19  and  O1_20 
ROOT
HETATM    1  C2  UNL     1       3.719   0.112   0.005  1.00  0.00    -0.001 A 
HETATM    2  C3  UNL     1       3.114  -0.961  -0.611  1.00  0.00     0.012 A 
HETATM    3  C4  UNL     1       1.741  -1.085  -0.564  1.00  0.00     0.014 A 
HETATM    4  C5  UNL     1       0.908  -0.168   0.086  1.00  0.00    -0.007 A 
HETATM    5  C14 UNL     1       1.529   0.890   0.692  1.00  0.00     0.014 A 
HETATM    6  C15 UNL     1       2.925   1.020   0.646  1.00  0.00     0.012 A 
ENDROOT
BRANCH   4   7
HETATM    7  C6  UNL     1      -0.512  -0.393   0.106  1.00  0.00     0.073 A 
HETATM    8  C7  UNL     1      -0.934  -1.735   0.070  1.00  0.00     0.033 A 
HETATM    9  C8  UNL     1      -2.261  -2.007   0.066  1.00  0.00     0.011 A 
HETATM   10  C9  UNL     1      -3.191  -0.988   0.097  1.00  0.00    -0.030 A 
HETATM   11  C10 UNL     1      -2.721   0.281   0.131  1.00  0.00     0.072 A 
HETATM   12  C13 UNL     1      -4.622  -1.361   0.092  1.00  0.00     0.068 C 
HETATM   13  N3  UNL     1      -1.396   0.610   0.135  1.00  0.00    -0.226 N 
HETATM   14  C11 UNL     1      -3.690   1.425   0.165  1.00  0.00     0.292 C 
HETATM   15  N4  UNL     1      -4.899   0.931  -0.502  1.00  0.00    -0.070 N 
HETATM   16  C12 UNL     1      -5.458  -0.131   0.326  1.00  0.00     0.237 C 
ATOM     17  H42 UNL     1      -5.571   1.671  -0.705  1.00  0.00     0.277 HD
ATOM     18  H41 UNL     1      -4.729   0.637  -1.464  1.00  0.00     0.277 HD
BRANCH  13  19
HETATM   19  O1  UNL     1      -1.024   1.936   0.151  1.00  0.00    -0.282 OA
ATOM     20  H1  UNL     1      -1.652   2.649   0.172  1.00  0.00     0.245 HD
ENDBRANCH  13  19
ENDBRANCH   4   7
BRANCH   1  21
HETATM   21  C1  UNL     1       5.200   0.244  -0.047  1.00  0.00     0.411 C 
BRANCH  21  22
HETATM   22  N1  UNL     1       5.589   1.622  -0.368  1.00  0.00    -0.046 N 
ATOM     23  H13 UNL     1       5.341   2.270   0.380  1.00  0.00     0.277 HD
ATOM     24  H12 UNL     1       6.601   1.745  -0.347  1.00  0.00     0.277 HD
ATOM     25  H11 UNL     1       5.191   1.907  -1.263  1.00  0.00     0.277 HD
ENDBRANCH  21  22
BRANCH  21  26
HETATM   26  N2  UNL     1       5.766  -0.162   1.227  1.00  0.00    -0.046 N 
ATOM     27  H23 UNL     1       6.778  -0.039   1.248  1.00  0.00     0.277 HD
ATOM     28  H22 UNL     1       5.518   0.486   1.975  1.00  0.00     0.277 HD
ATOM     29  H21 UNL     1       5.496  -1.120   1.450  1.00  0.00     0.277 HD
ENDBRANCH  21  26
ENDBRANCH   1  21
TORSDOF 5
