REMARK  15 active torsions:
REMARK  status: ('A' for Active; 'I' for Inactive)
REMARK    1  A    between atoms: N1_1  and  C1_4 
REMARK    2  A    between atoms: N4_9  and  C2_10 
REMARK    3  A    between atoms: C2_10  and  C3_11 
REMARK    4  A    between atoms: C3_11  and  O1_12 
REMARK    5  A    between atoms: C4_14  and  N5_15 
REMARK    6  A    between atoms: N5_15  and  O2_17 
REMARK    7  A    between atoms: N6_20  and  C6_21 
REMARK    8  A    between atoms: C9_31  and  S1_32 
REMARK    9  A    between atoms: S1_32  and  C10_33 
REMARK   10  A    between atoms: C10_33  and  C11_34 
REMARK   11  A    between atoms: C11_34  and  N10_35 
REMARK   12  A    between atoms: C11_34  and  C12_39 
REMARK   13  A    between atoms: C14_47  and  C15_48 
REMARK   14  A    between atoms: C15_48  and  O5_49 
REMARK   15  A    between atoms: C16_51  and  O6_52 
ROOT
HETATM    1  C3  UNL     1      -3.924  -0.659   0.002  1.00  0.00     0.146 C 
HETATM    2  C4  UNL     1      -3.058  -1.829   0.215  1.00  0.00     0.067 C 
HETATM    3  C5  UNL     1      -1.887  -1.901  -0.735  1.00  0.00     0.200 C 
HETATM    4  N6  UNL     1      -1.171  -0.656  -0.492  1.00  0.00    -0.203 N 
HETATM    5  C14 UNL     1      -1.761   0.610  -0.255  1.00  0.00     0.158 C 
HETATM    6  C16 UNL     1      -3.172   0.628   0.203  1.00  0.00     0.185 C 
ENDROOT
BRANCH   4   7
HETATM    7  C6  UNL     1       0.252  -0.745  -0.495  1.00  0.00     0.683 A 
HETATM    8  N7  UNL     1       0.924  -1.006   0.665  1.00  0.00    -0.184 N 
HETATM    9  C7  UNL     1       2.238  -1.040   0.392  1.00  0.00     0.137 A 
ATOM     10  H7  UNL     1       0.500  -1.150   1.582  1.00  0.00     0.184 HD
HETATM   11  C8  UNL     1       3.338  -1.262   1.190  1.00  0.00     0.132 A 
HETATM   12  C13 UNL     1       2.374  -0.795  -0.960  1.00  0.00     0.154 A 
HETATM   13  N8  UNL     1       3.214  -1.492   2.450  1.00  0.00    -0.383 N 
HETATM   14  N9  UNL     1       4.543  -1.229   0.597  1.00  0.00    -0.321 N 
ATOM     15  H82 UNL     1       2.299  -1.517   2.900  1.00  0.00     0.157 HD
ATOM     16  H81 UNL     1       4.029  -1.656   3.041  1.00  0.00     0.157 HD
HETATM   17  C9  UNL     1       4.733  -0.994  -0.712  1.00  0.00     0.147 A 
ATOM     18  H9  UNL     1       5.366  -1.393   1.177  1.00  0.00     0.169 HD
HETATM   19  N11 UNL     1       3.609  -0.779  -1.468  1.00  0.00    -0.320 N 
ATOM     20  H11 UNL     1       3.722  -0.598  -2.466  1.00  0.00     0.169 HD
HETATM   21  N12 UNL     1       1.131  -0.618  -1.476  1.00  0.00    -0.174 N 
ATOM     22  H12 UNL     1       0.912  -0.421  -2.453  1.00  0.00     0.186 HD
BRANCH  17  23
HETATM   23  S1  UNL     1       6.300  -0.902  -1.508  1.00  0.00    -0.091 SA
BRANCH  23  24
HETATM   24  C10 UNL     1       7.705  -0.704  -0.442  1.00  0.00     0.126 C 
BRANCH  24  25
HETATM   25  C11 UNL     1       7.907   0.676   0.121  1.00  0.00     0.293 C 
BRANCH  25  26
HETATM   26  N10 UNL     1       8.053   1.589  -1.039  1.00  0.00    -0.064 N 
ATOM     27 3H10 UNL     1       8.789   1.305  -1.685  1.00  0.00     0.275 HD
ATOM     28 2H10 UNL     1       7.276   1.532  -1.698  1.00  0.00     0.275 HD
ATOM     29 1H10 UNL     1       8.190   2.525  -0.657  1.00  0.00     0.275 HD
ENDBRANCH  25  26
BRANCH  25  30
HETATM   30  C12 UNL     1       6.902   1.210   1.007  1.00  0.00     0.205 C 
HETATM   31  O3  UNL     1       6.098   2.099   0.604  1.00  0.00    -0.646 OA
HETATM   32  O4  UNL     1       6.791   0.762   2.342  1.00  0.00    -0.646 OA
ENDBRANCH  25  30
ENDBRANCH  24  25
ENDBRANCH  23  24
ENDBRANCH  17  23
ENDBRANCH   4   7
BRANCH   5  33
HETATM   33  C15 UNL     1      -1.651   1.483  -1.499  1.00  0.00     0.192 C 
BRANCH  33  34
HETATM   34  O5  UNL     1      -2.248   2.724  -1.218  1.00  0.00    -0.399 OA
ATOM     35  H5  UNL     1      -2.179   3.268  -1.994  1.00  0.00     0.209 HD
ENDBRANCH  33  34
ENDBRANCH   5  33
BRANCH   2  36
HETATM   36  N5  UNL     1      -3.209  -2.730   1.088  1.00  0.00    -0.273 N 
ATOM     37  H5  UNL     1      -2.496  -3.459   1.068  1.00  0.00     0.193 HD
BRANCH  36  38
HETATM   38  O2  UNL     1      -4.140  -2.895   2.034  1.00  0.00    -0.290 OA
ATOM     39  H2  UNL     1      -4.254  -3.572   2.690  1.00  0.00     0.244 HD
ENDBRANCH  36  38
ENDBRANCH   2  36
BRANCH   6  40
HETATM   40  O6  UNL     1      -3.192   0.887   1.592  1.00  0.00    -0.390 OA
ATOM     41  H6  UNL     1      -2.717   1.700   1.719  1.00  0.00     0.210 HD
ENDBRANCH   6  40
BRANCH   1  42
HETATM   42  C2  UNL     1      -5.177  -0.701   0.809  1.00  0.00     0.218 C 
BRANCH  42  43
HETATM   43  N4  UNL     1      -6.034   0.430   0.488  1.00  0.00    -0.202 N 
HETATM   44  N3  UNL     1      -6.057   1.628   1.046  1.00  0.00    -0.211 N 
HETATM   45  N2  UNL     1      -6.979   2.389   0.488  1.00  0.00    -0.115 N 
ATOM     46  H3  UNL     1      -5.444   1.924   1.806  1.00  0.00     0.210 HD
HETATM   47  C1  UNL     1      -7.583   1.647  -0.480  1.00  0.00     0.707 A 
ATOM     48  H2  UNL     1      -7.198   3.354   0.736  1.00  0.00     0.207 HD
HETATM   49  N13 UNL     1      -6.971   0.451  -0.445  1.00  0.00    -0.113 N 
ATOM     50  H13 UNL     1      -7.198  -0.334  -1.055  1.00  0.00     0.207 HD
BRANCH  47  51
HETATM   51  N1  UNL     1      -8.536   1.987  -1.274  1.00  0.00    -0.232 N 
ATOM     52  H12 UNL     1      -9.000   2.895  -1.301  1.00  0.00     0.174 HD
ATOM     53  H11 UNL     1      -8.989   1.431  -1.999  1.00  0.00     0.174 HD
ENDBRANCH  47  51
ENDBRANCH  42  43
ENDBRANCH   1  42
BRANCH   1  54
HETATM   54  O1  UNL     1      -4.282  -0.703  -1.368  1.00  0.00    -0.379 OA
ATOM     55  H1  UNL     1      -3.484  -0.676  -1.882  1.00  0.00     0.211 HD
ENDBRANCH   1  54
TORSDOF 15
