REMARK  15 active torsions:
REMARK  status: ('A' for Active; 'I' for Inactive)
REMARK       I    between atoms: C1_4  and  N3_6 
REMARK    1  A    between atoms: N3_6  and  N4_8 
REMARK    2  A    between atoms: N5_10  and  O1_11 
REMARK    3  A    between atoms: N5_10  and  N6_13 
REMARK       I    between atoms: N6_13  and  C2_15 
REMARK       I    between atoms: C2_15  and  N8_19 
REMARK    4  A    between atoms: N8_19  and  C3_21 
REMARK    5  A    between atoms: C4_24  and  N10_25 
REMARK    6  A    between atoms: N12_31  and  N13_32 
REMARK    7  A    between atoms: C6_34  and  C7_35 
REMARK    8  A    between atoms: C8_37  and  C9_38 
REMARK    9  A    between atoms: C9_38  and  O3_39 
REMARK   10  A    between atoms: C9_38  and  O4_41 
REMARK   11  A    between atoms: N14_45  and  C12_47 
REMARK   12  A    between atoms: C12_47  and  O5_48 
REMARK   13  A    between atoms: C12_47  and  C13_50 
REMARK   14  A    between atoms: C13_50  and  N15_51 
REMARK   15  A    between atoms: C14_55  and  O6_56 
ROOT
HETATM    1  C3  UNL     1       3.559   1.597   0.298  1.00  0.00     0.748 A 
HETATM    2  N9  UNL     1       3.891   0.319   0.098  1.00  0.00    -0.019 N 
ATOM      3  H9  UNL     1       4.879   0.071   0.049  1.00  0.00     0.203 HD
HETATM    4  C4  UNL     1       2.952  -0.676  -0.044  1.00  0.00     0.705 A 
HETATM    5  N11 UNL     1       1.635  -0.326   0.025  1.00  0.00    -0.018 N 
ATOM      6  H11 UNL     1       0.913  -1.039  -0.076  1.00  0.00     0.203 HD
HETATM    7  C5  UNL     1       1.294   0.929   0.222  1.00  0.00     0.755 A 
HETATM    8  N12 UNL     1       0.061   1.482   0.323  1.00  0.00    -0.078 N 
HETATM    9  C15 UNL     1       0.306   2.818   0.526  1.00  0.00     0.243 A 
HETATM   10  N16 UNL     1       1.628   3.016   0.540  1.00  0.00    -0.258 N 
ATOM     11  H16 UNL     1       2.085   3.918   0.673  1.00  0.00     0.189 HD
HETATM   12  N17 UNL     1       2.246   1.879   0.357  1.00  0.00     0.094 N 
ENDROOT
BRANCH   8  13
HETATM   13  N13 UNL     1      -1.205   0.961   0.256  1.00  0.00    -0.287 N 
HETATM   14  C6  UNL     1      -1.528  -0.245   0.155  1.00  0.00     0.148 C 
ATOM     15  H13 UNL     1      -1.972   1.632   0.293  1.00  0.00     0.187 HD
BRANCH  14  16
HETATM   16  C7  UNL     1      -2.956  -0.652   0.094  1.00  0.00     0.128 A 
HETATM   17  O2  UNL     1      -3.266  -1.907  -0.015  1.00  0.00    -0.306 OA
HETATM   18  C8  UNL     1      -4.506  -2.343  -0.075  1.00  0.00     0.110 A 
HETATM   19  C10 UNL     1      -5.521  -1.408  -0.018  1.00  0.00     0.070 A 
HETATM   20  C11 UNL     1      -5.263  -0.067   0.097  1.00  0.00     0.069 A 
HETATM   21  N14 UNL     1      -6.191   0.806   0.152  1.00  0.00    -0.360 N 
HETATM   22  C14 UNL     1      -3.931   0.316   0.154  1.00  0.00     0.128 A 
ATOM     23  H14 UNL     1      -5.958   1.795   0.238  1.00  0.00     0.162 HD
BRANCH  18  24
HETATM   24  C9  UNL     1      -4.746  -3.804  -0.200  1.00  0.00     0.312 C 
BRANCH  24  25
HETATM   25  O3  UNL     1      -3.845  -4.262  -1.185  1.00  0.00    -0.365 OA
ATOM     26  H3  UNL     1      -3.998  -5.196  -1.265  1.00  0.00     0.213 HD
ENDBRANCH  24  25
BRANCH  24  27
HETATM   27  O4  UNL     1      -4.315  -4.406   0.999  1.00  0.00    -0.365 OA
ATOM     28  H4  UNL     1      -4.468  -5.340   0.919  1.00  0.00     0.213 HD
ENDBRANCH  24  27
ENDBRANCH  18  24
BRANCH  21  29
HETATM   29  C12 UNL     1      -7.585   0.387   0.091  1.00  0.00     0.243 C 
BRANCH  29  30
HETATM   30  O5  UNL     1      -7.854  -0.241   1.317  1.00  0.00    -0.375 OA
ATOM     31  H5  UNL     1      -8.763  -0.514   1.277  1.00  0.00     0.212 HD
ENDBRANCH  29  30
BRANCH  29  32
HETATM   32  C13 UNL     1      -8.512   1.577  -0.000  1.00  0.00     0.282 C 
BRANCH  32  33
HETATM   33  N15 UNL     1      -9.875   1.034   0.064  1.00  0.00    -0.075 N 
ATOM     34 3H15 UNL     1     -10.061   0.318  -0.638  1.00  0.00     0.274 HD
ATOM     35 2H15 UNL     1     -10.042   0.450   0.883  1.00  0.00     0.274 HD
ATOM     36 1H15 UNL     1     -10.501   1.837   0.003  1.00  0.00     0.274 HD
ENDBRANCH  32  33
ENDBRANCH  29  32
ENDBRANCH  21  29
BRANCH  22  37
HETATM   37  O6  UNL     1      -3.540   1.640   0.271  1.00  0.00    -0.356 OA
ATOM     38  H6  UNL     1      -4.214   2.309   0.312  1.00  0.00     0.218 HD
ENDBRANCH  22  37
ENDBRANCH  14  16
ENDBRANCH   8  13
BRANCH   4  39
HETATM   39  N10 UNL     1       3.351  -1.810  -0.221  1.00  0.00    -0.234 N 
ATOM     40 2H10 UNL     1       4.336  -2.072  -0.273  1.00  0.00     0.174 HD
ATOM     41 1H10 UNL     1       2.655  -2.548  -0.326  1.00  0.00     0.174 HD
ENDBRANCH   4  39
BRANCH   1  42
HETATM   42  N8  UNL     1       4.413   2.536   0.431  1.00  0.00    -0.018 N 
HETATM   43  C2  UNL     1       5.805   2.390   0.391  1.00  0.00     0.708 C 
HETATM   44  N6  UNL     1       6.625   2.850  -0.686  1.00  0.00    -0.089 N 
HETATM   45  N7  UNL     1       6.403   1.810   1.373  1.00  0.00    -0.233 N 
ATOM     46  H6  UNL     1       6.407   3.713  -1.184  1.00  0.00     0.210 HD
ATOM     47  H72 UNL     1       7.417   1.704   1.344  1.00  0.00     0.174 HD
ATOM     48  H71 UNL     1       5.818   1.482   2.141  1.00  0.00     0.174 HD
ATOM     49  H8  UNL     1       4.049   3.477   0.580  1.00  0.00     0.203 HD
BRANCH  44  50
HETATM   50  N5  UNL     1       7.728   2.081  -1.030  1.00  0.00    -0.065 N 
HETATM   51  N4  UNL     1       7.592   0.842  -1.189  1.00  0.00    -0.198 N 
ATOM     52  H4  UNL     1       6.660   0.451  -1.056  1.00  0.00     0.212 HD
BRANCH  51  53
HETATM   53  N3  UNL     1       8.611  -0.036  -1.532  1.00  0.00    -0.256 N 
HETATM   54  C1  UNL     1       8.887  -1.101  -0.631  1.00  0.00     0.202 C 
HETATM   55  N1  UNL     1       8.007  -1.987  -0.385  1.00  0.00    -0.372 N 
HETATM   56  N2  UNL     1      10.151  -1.183   0.002  1.00  0.00    -0.062 NA
ATOM     57  H12 UNL     1       8.205  -2.751   0.261  1.00  0.00     0.158 HD
ATOM     58  H11 UNL     1       7.097  -1.928  -0.841  1.00  0.00     0.158 HD
ATOM     59  H3  UNL     1       9.141   0.078  -2.396  1.00  0.00     0.191 HD
ENDBRANCH  51  53
BRANCH  50  60
HETATM   60  O1  UNL     1       8.956   2.649  -1.198  1.00  0.00    -0.252 OA
ATOM     61  H1  UNL     1       9.059   3.586  -1.078  1.00  0.00     0.248 HD
ENDBRANCH  50  60
ENDBRANCH  44  50
ENDBRANCH   1  42
TORSDOF 15
