REMARK  5 active torsions:
REMARK  status: ('A' for Active; 'I' for Inactive)
REMARK    1  A    between atoms: C6_7  and  C7_8 
REMARK    2  A    between atoms: C7_8  and  O1_9 
REMARK    3  A    between atoms: C7_8  and  C8_11 
REMARK    4  A    between atoms: C7_8  and  C14_18 
REMARK    5  A    between atoms: C8_11  and  N2_12 
ROOT
HETATM    1  N1  UNL     1       6.183   0.543  -0.962  1.00  0.00    -0.191 NA
HETATM    2  C1  UNL     1       5.227  -0.088  -0.757  1.00  0.00     0.099 C 
HETATM    3  C2  UNL     1       4.048  -0.874  -0.481  1.00  0.00     0.045 A 
HETATM    4  C3  UNL     1       4.139  -2.201  -0.083  1.00  0.00     0.022 A 
HETATM    5  C4  UNL     1       2.995  -2.902   0.166  1.00  0.00     0.002 A 
HETATM    6  C5  UNL     1       1.752  -2.284   0.019  1.00  0.00     0.011 A 
HETATM    7  C6  UNL     1       1.627  -0.982  -0.371  1.00  0.00    -0.016 A 
HETATM    8  C20 UNL     1       2.806  -0.292  -0.617  1.00  0.00     0.033 A 
ENDROOT
BRANCH   7   9
HETATM    9  C7  UNL     1       0.301  -0.369  -0.511  1.00  0.00     0.128 C 
BRANCH   9  10
HETATM   10  O1  UNL     1       0.169  -0.023  -1.877  1.00  0.00    -0.378 OA
ATOM     11  H1  UNL     1      -0.689   0.374  -1.968  1.00  0.00     0.211 HD
ENDBRANCH   9  10
BRANCH   9  12
HETATM   12  C8  UNL     1      -0.784  -1.370  -0.180  1.00  0.00     0.175 C 
BRANCH  12  13
HETATM   13  N2  UNL     1      -2.111  -0.786  -0.323  1.00  0.00    -0.363 N 
HETATM   14  C9  UNL     1      -2.742  -0.848  -1.524  1.00  0.00     0.090 A 
HETATM   15  C10 UNL     1      -3.987  -0.329  -1.735  1.00  0.00     0.017 A 
HETATM   16  C11 UNL     1      -4.650   0.284  -0.716  1.00  0.00     0.003 A 
HETATM   17  C12 UNL     1      -4.029   0.364   0.528  1.00  0.00     0.017 A 
HETATM   18  C13 UNL     1      -2.771  -0.180   0.676  1.00  0.00     0.090 A 
ENDBRANCH  12  13
ENDBRANCH   9  12
BRANCH   9  19
HETATM   19  C14 UNL     1       0.182   0.891   0.261  1.00  0.00    -0.018 A 
HETATM   20  C15 UNL     1      -0.347   2.018  -0.326  1.00  0.00     0.010 A 
HETATM   21  C16 UNL     1      -0.476   3.220   0.336  1.00  0.00     0.001 A 
HETATM   22  C17 UNL     1      -0.048   3.277   1.654  1.00  0.00     0.000 A 
HETATM   23  C18 UNL     1       0.489   2.180   2.289  1.00  0.00     0.001 A 
HETATM   24  C19 UNL     1       0.598   1.003   1.590  1.00  0.00     0.010 A 
ENDBRANCH   9  19
ENDBRANCH   7   9
TORSDOF 5
