REMARK  2 active torsions:
REMARK  status: ('A' for Active; 'I' for Inactive)
REMARK    1  A    between atoms: N1_4  and  C4_6 
REMARK    2  A    between atoms: N3_13  and  C8_14 
ROOT
HETATM    1  C1  UNL     1       0.266  -3.128  -0.044  1.00  0.00     0.027 C 
HETATM    2  C2  UNL     1      -0.813  -2.473   0.786  1.00  0.00     0.077 C 
HETATM    3  C3  UNL     1      -0.465  -1.019   0.618  1.00  0.00     0.075 C 
HETATM    4  N1  UNL     1      -1.252  -0.014   0.588  1.00  0.00    -0.373 N 
ATOM      5  H1  UNL     1      -0.832   0.907   0.464  1.00  0.00     0.161 HD
HETATM    6  N3  UNL     1       0.948  -0.934   0.490  1.00  0.00    -0.366 N 
HETATM    7  C13 UNL     1       1.472  -2.260   0.289  1.00  0.00     0.125 C 
ENDROOT
BRANCH   4   8
HETATM    8  C4  UNL     1      -2.677  -0.077   0.715  1.00  0.00     0.110 C 
HETATM    9  C5  UNL     1      -3.228   1.316   0.949  1.00  0.00     0.054 C 
HETATM   10  C6  UNL     1      -3.189   1.883  -0.466  1.00  0.00     0.234 C 
HETATM   11  N2  UNL     1      -3.576   0.788  -1.308  1.00  0.00    -0.073 N 
HETATM   12  C7  UNL     1      -3.354  -0.432  -0.600  1.00  0.00     0.257 C 
ATOM     13  H22 UNL     1      -4.534   0.875  -1.646  1.00  0.00     0.277 HD
ATOM     14  H21 UNL     1      -3.106   0.806  -2.213  1.00  0.00     0.277 HD
ENDBRANCH   4   8
BRANCH   6  15
HETATM   15  C8  UNL     1       1.722   0.286   0.552  1.00  0.00     0.089 C 
HETATM   16  C9  UNL     1       3.194   0.022   0.379  1.00  0.00     0.051 C 
HETATM   17  C10 UNL     1       3.938   1.274   0.796  1.00  0.00     0.169 C 
HETATM   18  O1  UNL     1       3.112   2.405   0.644  1.00  0.00    -0.391 OA
HETATM   19  C11 UNL     1       2.413   2.323  -0.583  1.00  0.00     0.169 C 
HETATM   20  C12 UNL     1       1.263   1.314  -0.461  1.00  0.00     0.051 C 
ENDBRANCH   6  15
TORSDOF 2
