REMARK  1 active torsions:
REMARK  status: ('A' for Active; 'I' for Inactive)
REMARK    1  A    between atoms: C2_2  and  C3_3 
REMARK       I    between atoms: C3_3  and  N1_5 
ROOT
HETATM    1  C3  UNL     1      -2.021   0.911   0.668  1.00  0.00     0.220 C 
HETATM    2  O1  UNL     1      -2.292   1.679   1.655  1.00  0.00    -0.273 OA
HETATM    3  N1  UNL     1      -0.669   0.830   0.275  1.00  0.00    -0.331 N 
HETATM    4  C4  UNL     1      -0.122   0.006  -0.789  1.00  0.00     0.186 C 
HETATM    5  C5  UNL     1       1.298  -0.310  -0.374  1.00  0.00     0.178 C 
HETATM    6  C6  UNL     1       1.466   0.375   0.934  1.00  0.00     0.101 C 
HETATM    7  C7  UNL     1       0.488   1.531   0.836  1.00  0.00     0.199 C 
HETATM    8  C8  UNL     1       0.974   2.584  -0.030  1.00  0.00     0.085 C 
HETATM    9  N2  UNL     1       1.337   3.423  -0.715  1.00  0.00    -0.195 NA
HETATM   10  N3  UNL     1       2.275   0.122  -1.373  1.00  0.00    -0.058 NA
HETATM   11  O2  UNL     1       2.977  -0.978  -1.716  1.00  0.00    -0.258 OA
HETATM   12  C9  UNL     1       2.900  -1.756  -0.563  1.00  0.00     0.367 C 
HETATM   13  O3  UNL     1       1.517  -1.698  -0.292  1.00  0.00    -0.334 OA
ENDROOT
BRANCH   1  14
HETATM   14  C2  UNL     1      -3.126   0.175   0.017  1.00  0.00     0.098 C 
HETATM   15  C1  UNL     1      -3.068  -1.305   0.276  1.00  0.00     0.014 C 
ENDBRANCH   1  14
TORSDOF 1
