REMARK  1 active torsions:
REMARK  status: ('A' for Active; 'I' for Inactive)
REMARK    1  A    between atoms: N1_7  and  C3_9 
ROOT
HETATM    1  O1  UNL     1       4.792  -0.215   1.706  1.00  0.00    -0.196 OA
HETATM    2  S1  UNL     1       3.928  -0.715   0.614  1.00  0.00     0.296 S 
HETATM    3  O2  UNL     1       4.643  -1.675  -0.295  1.00  0.00    -0.196 OA
HETATM    4  C1  UNL     1       3.227   0.627  -0.349  1.00  0.00     0.350 C 
HETATM    5  O3  UNL     1       1.919   0.644   0.189  1.00  0.00    -0.299 OA
HETATM    6  C2  UNL     1       1.470  -0.567   0.618  1.00  0.00     0.277 C 
HETATM    7  N1  UNL     1       0.255  -0.981   0.543  1.00  0.00    -0.345 N 
ATOM      8  H1  UNL     1       0.016  -1.909   0.892  1.00  0.00     0.164 HD
HETATM    9  O4  UNL     1       2.459  -1.374   1.173  1.00  0.00    -0.190 OA
ENDROOT
BRANCH   7  10
HETATM   10  C3  UNL     1      -0.759  -0.159  -0.022  1.00  0.00     0.085 C 
HETATM   11  C4  UNL     1      -1.923  -1.056  -0.423  1.00  0.00     0.025 C 
HETATM   12  C5  UNL     1      -3.122  -0.170  -0.391  1.00  0.00     0.002 C 
HETATM   13  C6  UNL     1      -2.691   1.144   0.245  1.00  0.00     0.002 C 
HETATM   14  C7  UNL     1      -1.406   0.787   0.956  1.00  0.00     0.025 C 
ENDBRANCH   7  10
TORSDOF 1
