REMARK  17 active torsions:
REMARK  status: ('A' for Active; 'I' for Inactive)
REMARK    1  A    between atoms: N1_1  and  N2_4 
REMARK       I    between atoms: C1_6  and  N4_8 
REMARK    2  A    between atoms: N5_10  and  O1_12 
REMARK    3  A    between atoms: O1_12  and  C2_13 
REMARK    4  A    between atoms: C2_13  and  N6_14 
REMARK    5  A    between atoms: C2_13  and  C9_29 
REMARK    6  A    between atoms: N6_14  and  C3_16 
REMARK    7  A    between atoms: C4_18  and  C5_19 
REMARK    8  A    between atoms: C6_22  and  O5_23 
REMARK    9  A    between atoms: C8_26  and  O6_27 
REMARK   10  A    between atoms: C10_31  and  C11_32 
REMARK   11  A    between atoms: C11_32  and  O8_33 
REMARK   12  A    between atoms: C11_32  and  C12_35 
REMARK   13  A    between atoms: C12_35  and  O9_36 
REMARK   14  A    between atoms: C12_35  and  C13_38 
REMARK   15  A    between atoms: C13_38  and  O10_39 
REMARK   16  A    between atoms: C14_41  and  O11_42 
REMARK   17  A    between atoms: C16_46  and  O13_47 
ROOT
HETATM    1  C2  UNL     1      -0.413  -0.060  -0.420  1.00  0.00     0.211 C 
ENDROOT
BRANCH   1   2
HETATM    2  O1  UNL     1      -0.765   0.985   0.414  1.00  0.00    -0.201 OA
BRANCH   2   3
HETATM    3  N5  UNL     1      -1.404   2.148   0.186  1.00  0.00    -0.197 N 
HETATM    4  N4  UNL     1      -2.659   2.351   0.158  1.00  0.00    -0.252 N 
HETATM    5  C1  UNL     1      -3.293   3.562  -0.082  1.00  0.00     0.223 C 
ATOM      6  H4  UNL     1      -3.259   1.544   0.329  1.00  0.00     0.191 HD
HETATM    7  N2  UNL     1      -4.244   3.636  -0.996  1.00  0.00    -0.279 N 
HETATM    8  N3  UNL     1      -3.053   4.797   0.603  1.00  0.00    -0.061 NA
ATOM      9  H2  UNL     1      -4.464   2.793  -1.526  1.00  0.00     0.189 HD
ATOM     10  H5  UNL     1      -0.812   2.961   0.016  1.00  0.00     0.216 HD
BRANCH   7  11
HETATM   11  N1  UNL     1      -4.961   4.786  -1.279  1.00  0.00    -0.343 N 
ATOM     12  H12 UNL     1      -4.728   5.619  -0.739  1.00  0.00     0.176 HD
ATOM     13  H11 UNL     1      -5.695   4.843  -1.985  1.00  0.00     0.176 HD
ENDBRANCH   7  11
ENDBRANCH   2   3
ENDBRANCH   1   2
BRANCH   1  14
HETATM   14  N6  UNL     1      -1.341  -1.080  -0.584  1.00  0.00    -0.311 N 
ATOM     15  H6  UNL     1      -1.183  -1.442  -1.524  1.00  0.00     0.170 HD
BRANCH  14  16
HETATM   16  C3  UNL     1      -2.248  -1.739  -0.133  1.00  0.00     0.184 A 
HETATM   17  O2  UNL     1      -2.811  -2.684  -0.843  1.00  0.00    -0.281 OA
HETATM   18  C4  UNL     1      -3.791  -3.469  -0.492  1.00  0.00     0.187 A 
HETATM   19  C6  UNL     1      -4.368  -3.362   0.757  1.00  0.00     0.109 A 
HETATM   20  C7  UNL     1      -3.833  -2.367   1.596  1.00  0.00     0.080 A 
HETATM   21  C8  UNL     1      -2.780  -1.570   1.148  1.00  0.00     0.120 A 
BRANCH  18  22
HETATM   22  C5  UNL     1      -4.291  -4.477  -1.418  1.00  0.00     0.237 C 
HETATM   23  O3  UNL     1      -3.738  -4.534  -2.575  1.00  0.00    -0.642 OA
HETATM   24  O4  UNL     1      -5.281  -5.358  -1.139  1.00  0.00    -0.642 OA
ENDBRANCH  18  22
BRANCH  19  25
HETATM   25  O5  UNL     1      -5.398  -4.127   1.234  1.00  0.00    -0.358 OA
ATOM     26  H5  UNL     1      -5.795  -4.053   2.094  1.00  0.00     0.217 HD
ENDBRANCH  19  25
BRANCH  21  27
HETATM   27  O6  UNL     1      -2.304  -0.628   2.051  1.00  0.00    -0.357 OA
ATOM     28  H6  UNL     1      -2.666  -0.513   2.922  1.00  0.00     0.218 HD
ENDBRANCH  21  27
ENDBRANCH  14  16
ENDBRANCH   1  14
BRANCH   1  29
HETATM   29  C9  UNL     1       1.033  -0.528  -0.408  1.00  0.00     0.166 A 
HETATM   30  O7  UNL     1       2.028   0.371  -0.498  1.00  0.00    -0.302 OA
HETATM   31  C10 UNL     1       3.300   0.061  -0.523  1.00  0.00     0.122 A 
HETATM   32  C14 UNL     1       3.629  -1.329  -0.452  1.00  0.00     0.152 A 
HETATM   33  C15 UNL     1       2.622  -2.239  -0.354  1.00  0.00     0.243 A 
HETATM   34  O12 UNL     1       2.924  -3.491  -0.302  1.00  0.00    -0.282 OA
HETATM   35  C16 UNL     1       1.319  -1.857  -0.324  1.00  0.00     0.158 A 
BRANCH  31  36
HETATM   36  C11 UNL     1       4.473   0.913  -0.629  1.00  0.00     0.209 C 
BRANCH  36  37
HETATM   37  O8  UNL     1       4.346   1.712  -1.827  1.00  0.00    -0.386 OA
ATOM     38  H8  UNL     1       5.113   2.269  -1.896  1.00  0.00     0.210 HD
ENDBRANCH  36  37
BRANCH  36  39
HETATM   39  C12 UNL     1       4.812   1.838   0.483  1.00  0.00     0.177 C 
BRANCH  39  40
HETATM   40  O9  UNL     1       4.031   2.887   0.747  1.00  0.00    -0.390 OA
ATOM     41  H9  UNL     1       4.248   3.479   1.458  1.00  0.00     0.210 HD
ENDBRANCH  39  40
BRANCH  39  42
HETATM   42  C13 UNL     1       6.286   2.230   0.385  1.00  0.00     0.198 C 
BRANCH  42  43
HETATM   43  O10 UNL     1       6.811   2.701   1.592  1.00  0.00    -0.398 OA
ATOM     44  H10 UNL     1       7.727   2.945   1.531  1.00  0.00     0.209 HD
ENDBRANCH  42  43
ENDBRANCH  39  42
ENDBRANCH  36  39
ENDBRANCH  31  36
BRANCH  32  45
HETATM   45  O11 UNL     1       4.941  -1.763  -0.480  1.00  0.00    -0.355 OA
ATOM     46  H11 UNL     1       5.160  -2.686  -0.433  1.00  0.00     0.218 HD
ENDBRANCH  32  45
BRANCH  35  47
HETATM   47  O13 UNL     1       0.347  -2.860  -0.200  1.00  0.00    -0.355 OA
ATOM     48  H13 UNL     1       0.546  -3.787  -0.141  1.00  0.00     0.218 HD
ENDBRANCH  35  47
ENDBRANCH   1  29
TORSDOF 17
