REMARK  9 active torsions:
REMARK  status: ('A' for Active; 'I' for Inactive)
REMARK    1  A    between atoms: C2_2  and  C4_4 
REMARK    2  A    between atoms: C4_4  and  C5_5 
REMARK    3  A    between atoms: C5_5  and  C6_6 
REMARK    4  A    between atoms: C6_6  and  C7_8 
REMARK    5  A    between atoms: C7_8  and  N1_9 
REMARK    6  A    between atoms: C7_8  and  C25_39 
REMARK    7  A    between atoms: C18_21  and  N2_22 
REMARK    8  A    between atoms: C20_29  and  C21_30 
REMARK    9  A    between atoms: C21_30  and  C23_32 
ROOT
HETATM    1  N1  UNL     1       1.378  -0.840  -1.297  1.00  0.00    -0.359 N 
ATOM      2  H1  UNL     1       1.072  -0.256  -2.075  1.00  0.00     0.162 HD
HETATM    3  C8  UNL     1       0.632  -0.822  -0.205  1.00  0.00     0.080 C 
HETATM    4  C9  UNL     1       1.054  -1.668   0.969  1.00  0.00     0.076 C 
HETATM    5  C10 UNL     1       0.329  -3.026   0.985  1.00  0.00     0.007 C 
HETATM    6  C11 UNL     1      -1.101  -2.778   0.678  1.00  0.00     0.000 C 
HETATM    7  C12 UNL     1      -2.074  -3.893   0.985  1.00  0.00     0.000 C 
HETATM    8  C13 UNL     1      -3.354  -3.517   0.218  1.00  0.00     0.000 C 
HETATM    9  C14 UNL     1      -4.086  -2.383   0.850  1.00  0.00     0.000 C 
HETATM   10  C15 UNL     1      -5.065  -1.667  -0.016  1.00  0.00     0.000 C 
HETATM   11  C16 UNL     1      -4.517  -0.716  -1.015  1.00  0.00     0.002 C 
HETATM   12  C17 UNL     1      -4.856   0.739  -0.786  1.00  0.00     0.043 C 
HETATM   13  C18 UNL     1      -3.754   1.690  -1.220  1.00  0.00     0.282 C 
HETATM   14  C19 UNL     1      -3.330   2.636  -0.162  1.00  0.00     0.290 C 
HETATM   15  O2  UNL     1      -4.294   2.933   0.637  1.00  0.00    -0.263 OA
HETATM   16  O3  UNL     1      -2.111   3.186   0.042  1.00  0.00    -0.304 OA
HETATM   17  C20 UNL     1      -0.850   2.519   0.275  1.00  0.00     0.237 C 
HETATM   18  C24 UNL     1      -1.074   1.054   0.375  1.00  0.00     0.253 C 
HETATM   19  O6  UNL     1      -1.956   0.820   1.292  1.00  0.00    -0.270 OA
HETATM   20  N3  UNL     1      -0.538  -0.035  -0.303  1.00  0.00    -0.315 N 
ATOM     21  H3  UNL     1      -1.142  -0.345  -1.064  1.00  0.00     0.170 HD
ENDROOT
BRANCH   1  22
HETATM   22  C7  UNL     1       2.542  -1.582  -1.484  1.00  0.00     0.259 C 
BRANCH  22  23
HETATM   23  C6  UNL     1       3.838  -1.058  -1.095  1.00  0.00     0.189 C 
HETATM   24  O1  UNL     1       4.788  -1.867  -1.101  1.00  0.00    -0.290 OA
BRANCH  23  25
HETATM   25  C5  UNL     1       4.190   0.339  -0.683  1.00  0.00     0.104 C 
BRANCH  25  26
HETATM   26  C4  UNL     1       5.560   0.470  -0.355  1.00  0.00    -0.148 C 
BRANCH  26  27
HETATM   27  C2  UNL     1       6.790   0.588  -0.061  1.00  0.00     0.048 C 
HETATM   28  C1  UNL     1       7.251  -0.172   1.194  1.00  0.00     0.022 C 
HETATM   29  C3  UNL     1       7.870   1.329  -0.733  1.00  0.00     0.022 C 
ENDBRANCH  26  27
ENDBRANCH  25  26
ENDBRANCH  23  25
ENDBRANCH  22  23
BRANCH  22  30
HETATM   30  C25 UNL     1       2.671  -1.813  -2.983  1.00  0.00     0.204 C 
HETATM   31  O7  UNL     1       3.495  -2.587  -3.486  1.00  0.00    -0.646 OA
HETATM   32  O8  UNL     1       1.808  -1.109  -3.826  1.00  0.00    -0.646 OA
ENDBRANCH  22  30
ENDBRANCH   1  22
BRANCH  17  33
HETATM   33  C21 UNL     1      -0.316   3.089   1.573  1.00  0.00     0.121 C 
HETATM   34  C22 UNL     1      -1.174   2.886   2.764  1.00  0.00     0.024 C 
BRANCH  33  35
HETATM   35  C23 UNL     1      -0.220   4.574   1.356  1.00  0.00     0.179 C 
HETATM   36  O4  UNL     1       0.902   5.134   1.469  1.00  0.00    -0.648 OA
HETATM   37  O5  UNL     1      -1.316   5.355   1.039  1.00  0.00    -0.648 OA
ENDBRANCH  33  35
ENDBRANCH  17  33
BRANCH  13  38
HETATM   38  N2  UNL     1      -4.336   2.493  -2.313  1.00  0.00    -0.066 N 
ATOM     39  H23 UNL     1      -4.719   1.933  -3.075  1.00  0.00     0.275 HD
ATOM     40  H22 UNL     1      -5.206   2.961  -2.060  1.00  0.00     0.275 HD
ATOM     41  H21 UNL     1      -3.596   3.132  -2.604  1.00  0.00     0.275 HD
ENDBRANCH  13  38
TORSDOF 9
