REMARK  9 active torsions:
REMARK  status: ('A' for Active; 'I' for Inactive)
REMARK    1  A    between atoms: C2_2  and  C3_3 
REMARK    2  A    between atoms: C3_3  and  O1_4 
REMARK    3  A    between atoms: O1_4  and  C4_5 
REMARK    4  A    between atoms: C6_7  and  N1_8 
REMARK    5  A    between atoms: N1_8  and  C7_10 
REMARK    6  A    between atoms: C8_13  and  N3_14 
REMARK    7  A    between atoms: N3_14  and  C9_15 
REMARK    8  A    between atoms: N6_28  and  C18_29 
REMARK    9  A    between atoms: C26_41  and  C27_42 
REMARK       I    between atoms: C27_42  and  N8_44 
ROOT
HETATM    1  C7  UNL     1      -0.435   1.077   0.345  1.00  0.00     0.686 A 
HETATM    2  N2  UNL     1      -0.507  -0.219   0.059  1.00  0.00    -0.163 N 
ATOM      3  H2  UNL     1       0.359  -0.758   0.076  1.00  0.00     0.187 HD
HETATM    4  C8  UNL     1      -1.661  -0.879  -0.256  1.00  0.00     0.203 A 
HETATM    5  C14 UNL     1      -2.823  -0.088  -0.265  1.00  0.00     0.089 A 
HETATM    6  C15 UNL     1      -4.144  -0.376  -0.527  1.00  0.00     0.079 A 
HETATM    7  C16 UNL     1      -4.672  -1.653  -0.876  1.00  0.00     0.102 C 
HETATM    8  N5  UNL     1      -5.118  -2.680  -1.156  1.00  0.00    -0.191 NA
HETATM    9  C17 UNL     1      -4.870   0.792  -0.389  1.00  0.00     0.117 A 
HETATM   10  N6  UNL     1      -4.032   1.789  -0.050  1.00  0.00    -0.336 N 
HETATM   11  C24 UNL     1      -2.783   1.255   0.026  1.00  0.00     0.140 A 
HETATM   12  N7  UNL     1      -1.594   1.805   0.324  1.00  0.00    -0.175 N 
ATOM     13  H7  UNL     1      -1.554   2.801   0.542  1.00  0.00     0.186 HD
ENDROOT
BRANCH   4  14
HETATM   14  N3  UNL     1      -1.711  -2.046  -0.470  1.00  0.00    -0.423 NA
BRANCH  14  15
HETATM   15  C9  UNL     1      -1.416  -3.350  -0.648  1.00  0.00     0.168 C 
HETATM   16  C10 UNL     1       0.018  -3.737  -0.968  1.00  0.00     0.067 C 
HETATM   17  C11 UNL     1      -0.007  -5.226  -1.331  1.00  0.00     0.235 C 
HETATM   18  N4  UNL     1      -1.320  -5.788  -1.345  1.00  0.00    -0.075 N 
HETATM   19  C12 UNL     1      -2.051  -5.642  -0.102  1.00  0.00     0.235 C 
ATOM     20  H42 UNL     1      -1.861  -5.407  -2.121  1.00  0.00     0.277 HD
ATOM     21  H41 UNL     1      -1.283  -6.769  -1.622  1.00  0.00     0.277 HD
HETATM   22  C13 UNL     1      -1.825  -4.276   0.504  1.00  0.00     0.067 C 
ENDBRANCH  14  15
ENDBRANCH   4  14
BRANCH  10  23
HETATM   23  C18 UNL     1      -4.394   3.161   0.196  1.00  0.00     0.091 C 
HETATM   24  C19 UNL     1      -4.314   3.988  -1.051  1.00  0.00     0.032 C 
HETATM   25  C20 UNL     1      -5.454   4.982  -1.153  1.00  0.00     0.081 C 
HETATM   26  C21 UNL     1      -5.795   5.590   0.191  1.00  0.00     0.243 C 
HETATM   27  F1  UNL     1      -4.723   6.277   0.687  1.00  0.00    -0.206 F 
HETATM   28  F2  UNL     1      -6.799   6.539  -0.068  1.00  0.00    -0.206 F 
HETATM   29  C22 UNL     1      -6.273   4.547   1.153  1.00  0.00     0.081 C 
HETATM   30  C23 UNL     1      -5.812   3.154   0.769  1.00  0.00     0.032 C 
ENDBRANCH  10  23
BRANCH   1  31
HETATM   31  N1  UNL     1       0.636   1.725   0.629  1.00  0.00    -0.191 N 
ATOM     32  H1  UNL     1       0.513   2.718   0.826  1.00  0.00     0.184 HD
BRANCH  31  33
HETATM   33  C6  UNL     1       1.943   1.253   0.704  1.00  0.00     0.052 A 
HETATM   34  C5  UNL     1       2.380   0.182   1.438  1.00  0.00     0.066 A 
HETATM   35  C4  UNL     1       3.715  -0.245   1.453  1.00  0.00     0.071 A 
HETATM   36  C29 UNL     1       4.639   0.426   0.710  1.00  0.00     0.054 A 
HETATM   37  C26 UNL     1       4.239   1.514  -0.046  1.00  0.00     0.036 A 
HETATM   38  C25 UNL     1       2.896   1.917  -0.042  1.00  0.00     0.047 A 
BRANCH  35  39
HETATM   39  O1  UNL     1       4.019  -1.325   2.228  1.00  0.00    -0.351 OA
BRANCH  39  40
HETATM   40  C3  UNL     1       5.193  -2.001   2.424  1.00  0.00     0.175 C 
BRANCH  40  41
HETATM   41  C2  UNL     1       5.708  -2.702   1.189  1.00  0.00     0.022 C 
HETATM   42  C1  UNL     1       7.030  -3.394   1.553  1.00  0.00     0.007 C 
ENDBRANCH  40  41
ENDBRANCH  39  40
ENDBRANCH  35  39
BRANCH  37  43
HETATM   43  C27 UNL     1       5.218   2.236  -0.836  1.00  0.00     0.251 C 
HETATM   44  O2  UNL     1       4.817   3.248  -1.491  1.00  0.00    -0.268 OA
HETATM   45  N8  UNL     1       6.589   1.916  -0.946  1.00  0.00    -0.361 N 
HETATM   46  C28 UNL     1       7.504   2.701  -1.764  1.00  0.00     0.149 C 
ATOM     47  H8  UNL     1       6.950   1.110  -0.437  1.00  0.00     0.162 HD
ENDBRANCH  37  43
ENDBRANCH  31  33
ENDBRANCH   1  31
TORSDOF 9
