REMARK  14 active torsions:
REMARK  status: ('A' for Active; 'I' for Inactive)
REMARK    1  A    between atoms: S1_2  and  C2_3 
REMARK    2  A    between atoms: C3_4  and  O1_5 
REMARK    3  A    between atoms: C4_7  and  O2_8 
REMARK    4  A    between atoms: C5_10  and  O3_11 
REMARK    5  A    between atoms: C6_13  and  N1_14 
REMARK    6  A    between atoms: N1_14  and  C7_15 
REMARK    7  A    between atoms: C7_15  and  O4_16 
REMARK    8  A    between atoms: C7_15  and  C8_18 
REMARK    9  A    between atoms: C8_18  and  C13_26 
REMARK   10  A    between atoms: N2_19  and  O5_21 
REMARK   11  A    between atoms: O5_21  and  C9_22 
REMARK   12  A    between atoms: C14_29  and  O8_30 
REMARK   13  A    between atoms: O8_30  and  C15_31 
REMARK   14  A    between atoms: C19_35  and  N3_36 
ROOT
HETATM    1  C2  UNL     1      -3.151  -1.458  -0.350  1.00  0.00     0.110 C 
HETATM    2  C3  UNL     1      -3.169  -1.935  -1.772  1.00  0.00     0.165 C 
HETATM    3  C4  UNL     1      -2.022  -2.879  -1.944  1.00  0.00     0.180 C 
HETATM    4  C5  UNL     1      -0.782  -2.123  -1.630  1.00  0.00     0.188 C 
HETATM    5  C6  UNL     1      -0.920  -0.701  -1.225  1.00  0.00     0.227 C 
HETATM    6  C14 UNL     1      -1.948  -0.550  -0.095  1.00  0.00     0.176 C 
ENDROOT
BRANCH   5   7
HETATM    7  N1  UNL     1       0.362  -0.217  -0.836  1.00  0.00    -0.412 NA
BRANCH   7   8
HETATM    8  C7  UNL     1       1.549   0.230  -0.476  1.00  0.00     0.245 C 
BRANCH   8   9
HETATM    9  O4  UNL     1       1.585   1.332   0.312  1.00  0.00    -0.334 OA
ATOM     10  H4  UNL     1       2.440   1.654   0.571  1.00  0.00     0.220 HD
ENDBRANCH   8   9
BRANCH   8  11
HETATM   11  C8  UNL     1       2.915  -0.181  -0.747  1.00  0.00     0.196 C 
HETATM   12  N2  UNL     1       3.830   0.520  -0.164  1.00  0.00    -0.255 N 
ATOM     13  H2  UNL     1       3.512   1.286   0.429  1.00  0.00     0.195 HD
BRANCH  12  14
HETATM   14  O5  UNL     1       5.169   0.340  -0.261  1.00  0.00    -0.270 OA
BRANCH  14  15
HETATM   15  C9  UNL     1       6.084   1.259   0.324  1.00  0.00     0.078 C 
HETATM   16  C10 UNL     1       5.907   1.345   1.845  1.00  0.00     0.048 C 
HETATM   17  C11 UNL     1       5.905   2.659  -0.200  1.00  0.00     0.048 C 
HETATM   18  C12 UNL     1       7.492   0.818   0.071  1.00  0.00     0.048 C 
ENDBRANCH  14  15
ENDBRANCH  12  14
BRANCH  11  19
HETATM   19  C13 UNL     1       3.339  -1.205  -1.636  1.00  0.00     0.234 C 
HETATM   20  O6  UNL     1       2.643  -2.007  -2.293  1.00  0.00    -0.643 OA
HETATM   21  O7  UNL     1       4.761  -1.338  -1.813  1.00  0.00    -0.643 OA
ENDBRANCH  11  19
ENDBRANCH   8  11
ENDBRANCH   7   8
ENDBRANCH   5   7
BRANCH   4  22
HETATM   22  O3  UNL     1      -0.068  -2.856  -0.637  1.00  0.00    -0.390 OA
ATOM     23  H3  UNL     1       0.725  -2.373  -0.436  1.00  0.00     0.210 HD
ENDBRANCH   4  22
BRANCH   6  24
HETATM   24  O8  UNL     1      -2.484   0.720  -0.008  1.00  0.00    -0.374 OA
BRANCH  24  25
HETATM   25  C15 UNL     1      -2.386   1.399   1.159  1.00  0.00     0.152 C 
HETATM   26  C16 UNL     1      -1.892   2.825   1.082  1.00  0.00     0.034 C 
HETATM   27  C17 UNL     1      -3.072   3.518   0.384  1.00  0.00     0.005 C 
HETATM   28  C18 UNL     1      -4.297   2.660   0.724  1.00  0.00     0.035 C 
HETATM   29  C19 UNL     1      -3.763   1.739   1.763  1.00  0.00     0.212 C 
BRANCH  29  30
HETATM   30  N3  UNL     1      -4.570   0.687   2.159  1.00  0.00    -0.073 N 
ATOM     31  H33 UNL     1      -4.696   0.047   1.375  1.00  0.00     0.274 HD
ATOM     32  H32 UNL     1      -4.055   0.095   2.810  1.00  0.00     0.274 HD
ATOM     33  H31 UNL     1      -5.481   0.912   2.559  1.00  0.00     0.274 HD
ENDBRANCH  29  30
ENDBRANCH  24  25
ENDBRANCH   6  24
BRANCH   3  34
HETATM   34  O2  UNL     1      -2.237  -4.021  -1.157  1.00  0.00    -0.390 OA
ATOM     35  H2  UNL     1      -1.508  -4.621  -1.266  1.00  0.00     0.210 HD
ENDBRANCH   3  34
BRANCH   1  36
HETATM   36  S1  UNL     1      -3.159  -2.728   0.896  1.00  0.00    -0.163 SA
HETATM   37  C1  UNL     1      -4.670  -3.688   0.969  1.00  0.00     0.090 C 
ENDBRANCH   1  36
BRANCH   2  38
HETATM   38  O1  UNL     1      -4.398  -2.448  -2.145  1.00  0.00    -0.392 OA
ATOM     39  H1  UNL     1      -4.409  -2.750  -3.046  1.00  0.00     0.210 HD
ENDBRANCH   2  38
TORSDOF 14
