REMARK  5 active torsions:
REMARK  status: ('A' for Active; 'I' for Inactive)
REMARK    1  A    between atoms: C2_2  and  C4_4 
REMARK    2  A    between atoms: C4_4  and  C5_5 
REMARK    3  A    between atoms: C5_5  and  N1_6 
REMARK    4  A    between atoms: C5_5  and  C6_10 
REMARK       I    between atoms: C6_10  and  N2_12 
REMARK    5  A    between atoms: N2_12  and  C7_14 
ROOT
HETATM    1  C7  UNL     1      -0.399   0.978  -0.906  1.00  0.00     0.030 C 
HETATM    2  C8  UNL     1      -0.309   1.731  -2.229  1.00  0.00     0.038 C 
HETATM    3  C9  UNL     1      -1.106   1.835   0.165  1.00  0.00     0.035 C 
HETATM    4  C10 UNL     1      -2.312   1.100   0.461  1.00  0.00    -0.010 C 
HETATM    5  C11 UNL     1      -3.371   1.179   1.418  1.00  0.00     0.037 C 
HETATM    6  C12 UNL     1      -3.977  -0.225   1.538  1.00  0.00     0.186 C 
HETATM    7  C13 UNL     1      -5.240  -0.478   0.838  1.00  0.00     0.035 C 
HETATM    8  C14 UNL     1      -4.799  -1.078  -0.510  1.00  0.00     0.035 C 
HETATM    9  C15 UNL     1      -3.322  -1.319  -0.433  1.00  0.00     0.190 C 
HETATM   10  N3  UNL     1      -3.142  -1.270   0.962  1.00  0.00    -0.066 N 
ATOM     11  H31 UNL     1      -3.308  -2.176   1.400  1.00  0.00     0.278 HD
ATOM     12  H32 UNL     1      -2.161  -1.158   1.217  1.00  0.00     0.278 HD
HETATM   13  C16 UNL     1      -2.521  -0.387  -1.310  1.00  0.00     0.019 C 
HETATM   14  C17 UNL     1      -2.981   0.971  -0.884  1.00  0.00     0.011 C 
HETATM   15  C18 UNL     1      -1.040  -0.377  -1.099  1.00  0.00     0.037 C 
ENDROOT
BRANCH   1  16
HETATM   16  N2  UNL     1       0.967   0.815  -0.496  1.00  0.00    -0.350 N 
HETATM   17  C6  UNL     1       1.491   0.173   0.642  1.00  0.00     0.248 C 
HETATM   18  O1  UNL     1       0.760  -0.375   1.489  1.00  0.00    -0.271 OA
ATOM     19  H2  UNL     1       1.660   1.225  -1.122  1.00  0.00     0.163 HD
BRANCH  17  20
HETATM   20  C5  UNL     1       2.959   0.098   0.920  1.00  0.00     0.275 C 
BRANCH  20  21
HETATM   21  C4  UNL     1       3.717  -0.517  -0.214  1.00  0.00     0.046 C 
BRANCH  21  22
HETATM   22  C2  UNL     1       5.191  -0.444   0.016  1.00  0.00    -0.020 C 
HETATM   23  C1  UNL     1       5.718  -1.149   1.226  1.00  0.00     0.009 C 
HETATM   24  C3  UNL     1       5.978  -0.913  -1.201  1.00  0.00     0.009 C 
ENDBRANCH  21  22
ENDBRANCH  20  21
BRANCH  20  25
HETATM   25  N1  UNL     1       3.240  -0.606   2.134  1.00  0.00    -0.066 N 
ATOM     26  H13 UNL     1       3.056  -1.606   2.048  1.00  0.00     0.275 HD
ATOM     27  H12 UNL     1       4.241  -0.655   2.325  1.00  0.00     0.275 HD
ATOM     28  H11 UNL     1       2.723  -0.187   2.907  1.00  0.00     0.275 HD
ENDBRANCH  20  25
ENDBRANCH  17  20
ENDBRANCH   1  16
TORSDOF 5
