REMARK  6 active torsions:
REMARK  status: ('A' for Active; 'I' for Inactive)
REMARK       I    between atoms: C1_2  and  N1_3 
REMARK       I    between atoms: C1_2  and  N2_11 
REMARK    1  A    between atoms: N1_3  and  C2_5 
REMARK    2  A    between atoms: C2_5  and  C3_6 
REMARK    3  A    between atoms: C3_6  and  C4_7 
REMARK    4  A    between atoms: C4_7  and  C5_8 
REMARK    5  A    between atoms: N5_22  and  C12_24 
REMARK    6  A    between atoms: N7_33  and  C19_34 
ROOT
HETATM    1  O1  UNL     1       1.781  -1.459  -2.296  1.00  0.00    -0.247 OA
HETATM    2  C1  UNL     1       2.097  -0.384  -1.675  1.00  0.00     0.322 C 
HETATM    3  N1  UNL     1       3.066  -0.521  -0.699  1.00  0.00    -0.343 N 
ATOM      4  H1  UNL     1       3.357   0.310  -0.184  1.00  0.00     0.164 HD
HETATM    5  N2  UNL     1       1.393   0.797  -2.098  1.00  0.00    -0.300 N 
HETATM    6  C6  UNL     1       0.525   0.471  -3.244  1.00  0.00     0.139 C 
HETATM    7  C7  UNL     1      -0.792  -0.391  -2.990  1.00  0.00     0.065 C 
HETATM    8  C8  UNL     1      -1.492   0.038  -1.916  1.00  0.00     0.011 A 
HETATM    9  C9  UNL     1      -1.420   1.460  -1.919  1.00  0.00     0.035 A 
HETATM   10  N3  UNL     1      -1.910   1.263  -0.881  1.00  0.00    -0.354 N 
ATOM     11  H3  UNL     1      -2.101   0.282  -0.679  1.00  0.00     0.163 HD
HETATM   12  C10 UNL     1      -2.213   1.991  -0.049  1.00  0.00     0.288 A 
HETATM   13  N4  UNL     1      -2.515   0.616   0.347  1.00  0.00    -0.339 N 
ATOM     14  H4  UNL     1      -2.956   0.366   1.232  1.00  0.00     0.165 HD
HETATM   15  C11 UNL     1      -2.126  -0.335  -0.637  1.00  0.00     0.108 A 
HETATM   16  N5  UNL     1      -2.236  -1.567  -0.576  1.00  0.00    -0.371 N 
ATOM     17  H5  UNL     1      -1.872  -2.038  -1.404  1.00  0.00     0.161 HD
HETATM   18  N6  UNL     1      -1.722   3.069  -0.719  1.00  0.00    -0.370 N 
HETATM   19  C17 UNL     1      -1.275   4.153  -0.276  1.00  0.00     0.136 C 
HETATM   20  C18 UNL     1       0.345   4.055  -0.491  1.00  0.00     0.116 C 
HETATM   21  N7  UNL     1       0.857   2.712  -0.446  1.00  0.00    -0.273 NA
HETATM   22  C23 UNL     1       1.689   2.058  -1.420  1.00  0.00     0.158 C 
HETATM   23  C24 UNL     1      -1.276   2.826  -2.185  1.00  0.00     0.178 C 
ENDROOT
BRANCH   3  24
HETATM   24  C2  UNL     1       3.691  -1.794  -0.371  1.00  0.00     0.124 C 
BRANCH  24  25
HETATM   25  C3  UNL     1       2.751  -2.838   0.113  1.00  0.00     0.025 C 
BRANCH  25  26
HETATM   26  C4  UNL     1       3.572  -4.096   0.411  1.00  0.00     0.073 C 
BRANCH  26  27
HETATM   27  C5  UNL     1       2.643  -5.205   0.915  1.00  0.00     0.353 C 
HETATM   28  F1  UNL     1       1.713  -5.476  -0.057  1.00  0.00    -0.214 F 
HETATM   29  F2  UNL     1       1.988  -4.802   2.063  1.00  0.00    -0.214 F 
ENDBRANCH  26  27
ENDBRANCH  25  26
ENDBRANCH  24  25
ENDBRANCH   3  24
BRANCH  21  30
HETATM   30  C19 UNL     1       1.510   2.513   0.863  1.00  0.00     0.063 C 
HETATM   31  C20 UNL     1       2.709   3.407   1.070  1.00  0.00     0.020 C 
HETATM   32  C21 UNL     1       2.244   3.574   2.502  1.00  0.00     0.003 C 
HETATM   33  C22 UNL     1       0.863   3.042   2.074  1.00  0.00     0.020 C 
ENDBRANCH  21  30
BRANCH  16  34
HETATM   34  C12 UNL     1      -2.749  -2.460   0.377  1.00  0.00     0.087 C 
HETATM   35  C13 UNL     1      -2.281  -2.186   1.768  1.00  0.00     0.051 C 
HETATM   36  C14 UNL     1      -3.517  -2.095   2.653  1.00  0.00     0.169 C 
HETATM   37  O2  UNL     1      -4.275  -3.248   2.497  1.00  0.00    -0.391 OA
HETATM   38  C15 UNL     1      -4.905  -3.327   1.262  1.00  0.00     0.169 C 
HETATM   39  C16 UNL     1      -4.280  -2.334   0.338  1.00  0.00     0.051 C 
ENDBRANCH  16  34
TORSDOF 6
