REMARK  7 active torsions:
REMARK  status: ('A' for Active; 'I' for Inactive)
REMARK    1  A    between atoms: C5_10  and  N4_11 
REMARK    2  A    between atoms: N4_11  and  C6_13 
REMARK    3  A    between atoms: C6_13  and  C7_14 
REMARK    4  A    between atoms: N5_17  and  C10_18 
REMARK    5  A    between atoms: C10_18  and  C11_19 
REMARK    6  A    between atoms: C11_19  and  N6_20 
REMARK    7  A    between atoms: N8_31  and  C20_33 
ROOT
HETATM    1  N1  UNL     1      -7.216  -2.848  -1.599  1.00  0.00    -0.191 NA
HETATM    2  C1  UNL     1      -6.142  -2.572  -1.281  1.00  0.00     0.103 C 
HETATM    3  C2  UNL     1      -4.800  -2.256  -0.893  1.00  0.00     0.087 A 
HETATM    4  C3  UNL     1      -3.866  -3.288  -1.002  1.00  0.00     0.114 A 
HETATM    5  N2  UNL     1      -2.583  -3.114  -0.671  1.00  0.00    -0.350 N 
ATOM      6  H2  UNL     1      -1.919  -3.883  -0.759  1.00  0.00     0.166 HD
HETATM    7  C4  UNL     1      -2.183  -1.930  -0.227  1.00  0.00     0.135 A 
HETATM    8  N3  UNL     1      -0.886  -1.782   0.097  1.00  0.00    -0.176 N 
ATOM      9  H3  UNL     1      -0.255  -2.577  -0.006  1.00  0.00     0.186 HD
HETATM   10  C5  UNL     1      -0.397  -0.612   0.554  1.00  0.00     0.679 A 
HETATM   11  N7  UNL     1      -1.257   0.432   0.683  1.00  0.00    -0.201 N 
ATOM     12  H7  UNL     1      -0.907   1.326   1.028  1.00  0.00     0.183 HD
HETATM   13  C17 UNL     1      -2.573   0.314   0.364  1.00  0.00     0.123 A 
HETATM   14  C18 UNL     1      -3.065  -0.888  -0.104  1.00  0.00     0.052 A 
HETATM   15  C19 UNL     1      -4.424  -1.020  -0.438  1.00  0.00     0.066 A 
HETATM   16  N8  UNL     1      -5.157  -0.056  -0.307  1.00  0.00    -0.383 N 
ATOM     17  H8  UNL     1      -4.595   0.718   0.047  1.00  0.00     0.160 HD
ENDROOT
BRANCH  16  18
HETATM   18  C20 UNL     1      -6.454   0.395  -0.452  1.00  0.00     0.082 C 
HETATM   19  C21 UNL     1      -7.384   0.106   0.709  1.00  0.00     0.031 C 
HETATM   20  C22 UNL     1      -8.789   0.334   0.181  1.00  0.00     0.081 C 
HETATM   21  C23 UNL     1      -8.917   1.715  -0.432  1.00  0.00     0.243 C 
HETATM   22  F1  UNL     1      -9.989   2.327   0.190  1.00  0.00    -0.206 F 
HETATM   23  F2  UNL     1      -9.202   1.667  -1.783  1.00  0.00    -0.206 F 
HETATM   24  C24 UNL     1      -7.700   2.562  -0.131  1.00  0.00     0.081 C 
HETATM   25  C25 UNL     1      -6.403   1.941  -0.517  1.00  0.00     0.031 C 
ENDBRANCH  16  18
BRANCH  10  26
HETATM   26  N4  UNL     1       0.848  -0.469   0.863  1.00  0.00    -0.226 N 
ATOM     27  H4  UNL     1       1.202   0.423   1.208  1.00  0.00     0.177 HD
BRANCH  26  28
HETATM   28  C6  UNL     1       1.717  -1.589   0.710  1.00  0.00     0.142 C 
BRANCH  28  29
HETATM   29  C7  UNL     1       3.138  -1.196   0.323  1.00  0.00     0.007 C 
HETATM   30  C8  UNL     1       3.105  -0.468  -0.965  1.00  0.00     0.036 C 
HETATM   31  C9  UNL     1       3.760   0.866  -1.001  1.00  0.00     0.273 C 
HETATM   32  N5  UNL     1       5.029   0.741  -0.262  1.00  0.00     0.090 N 
HETATM   33  C15 UNL     1       4.533   0.740   1.135  1.00  0.00     0.273 C 
HETATM   34  C16 UNL     1       3.891  -0.584   1.435  1.00  0.00     0.036 C 
BRANCH  32  35
HETATM   35  C10 UNL     1       5.876   1.871  -0.501  1.00  0.00     0.302 C 
BRANCH  35  36
HETATM   36  C11 UNL     1       7.196   1.713   0.138  1.00  0.00     0.302 C 
BRANCH  36  37
HETATM   37  N6  UNL     1       8.024   0.645  -0.237  1.00  0.00     0.090 N 
HETATM   38  C12 UNL     1       7.769  -0.703   0.024  1.00  0.00     0.274 C 
HETATM   39  C13 UNL     1       8.529  -0.677   1.335  1.00  0.00     0.060 C 
HETATM   40  C14 UNL     1       9.176   0.551   0.681  1.00  0.00     0.274 C 
ENDBRANCH  36  37
ENDBRANCH  35  36
ENDBRANCH  32  35
ENDBRANCH  28  29
ENDBRANCH  26  28
ENDBRANCH  10  26
TORSDOF 7
