REMARK  4 active torsions:
REMARK  status: ('A' for Active; 'I' for Inactive)
REMARK    1  A    between atoms: C5_5  and  C6_6 
REMARK       I    between atoms: C6_6  and  N1_8 
REMARK    2  A    between atoms: N2_11  and  C9_12 
REMARK    3  A    between atoms: C9_12  and  C10_13 
REMARK    4  A    between atoms: C10_13  and  O2_14 
ROOT
HETATM    1  C6  UNL     1      -0.332  -1.207   0.452  1.00  0.00     0.251 C 
HETATM    2  O1  UNL     1      -0.389  -2.099   1.290  1.00  0.00    -0.271 OA
HETATM    3  N1  UNL     1       0.897  -0.499   0.258  1.00  0.00    -0.344 N 
HETATM    4  C7  UNL     1       1.976  -0.851   1.191  1.00  0.00     0.146 C 
HETATM    5  C8  UNL     1       3.008   0.214   1.179  1.00  0.00     0.141 C 
HETATM    6  N2  UNL     1       3.456   0.398  -0.175  1.00  0.00    -0.388 N 
HETATM    7  C11 UNL     1       2.471   0.902  -1.028  1.00  0.00     0.078 C 
HETATM    8  C12 UNL     1       1.071   0.465  -0.757  1.00  0.00     0.170 C 
ENDROOT
BRANCH   1   9
HETATM    9  C5  UNL     1      -1.586  -0.907  -0.293  1.00  0.00     0.278 C 
HETATM   10  C4  UNL     1      -2.666  -1.411   0.766  1.00  0.00     0.048 C 
HETATM   11  C3  UNL     1      -4.008  -0.877   0.452  1.00  0.00    -0.005 C 
HETATM   12  C2  UNL     1      -4.036   0.617   0.750  1.00  0.00     0.016 C 
HETATM   13  C14 UNL     1      -4.108  -0.478  -1.017  1.00  0.00     0.038 C 
HETATM   14  C1  UNL     1      -5.430   1.159   0.599  1.00  0.00     0.012 C 
HETATM   15  C13 UNL     1      -3.317   0.752  -0.577  1.00  0.00     0.191 C 
HETATM   16  N3  UNL     1      -1.916   0.488  -0.411  1.00  0.00    -0.058 N 
ATOM     17  H32 UNL     1      -1.547   1.010   0.384  1.00  0.00     0.278 HD
ATOM     18  H31 UNL     1      -1.381   0.918  -1.165  1.00  0.00     0.278 HD
ENDBRANCH   1   9
BRANCH   6  19
HETATM   19  C9  UNL     1       4.748   0.955  -0.313  1.00  0.00     0.148 C 
BRANCH  19  20
HETATM   20  C10 UNL     1       5.832  -0.060  -0.249  1.00  0.00     0.183 C 
BRANCH  20  21
HETATM   21  O2  UNL     1       5.774  -0.849   0.888  1.00  0.00    -0.399 OA
ATOM     22  H2  UNL     1       6.467  -1.498   0.929  1.00  0.00     0.209 HD
ENDBRANCH  20  21
ENDBRANCH  19  20
ENDBRANCH   6  19
TORSDOF 4
