REMARK  5 active torsions:
REMARK  status: ('A' for Active; 'I' for Inactive)
REMARK    1  A    between atoms: O1_2  and  C2_3 
REMARK       I    between atoms: C2_3  and  N1_5 
REMARK    2  A    between atoms: C5_8  and  N2_9 
REMARK       I    between atoms: N2_9  and  C6_11 
REMARK       I    between atoms: C6_11  and  N4_18 
REMARK    3  A    between atoms: N3_12  and  C7_14 
REMARK    4  A    between atoms: C7_14  and  C8_15 
REMARK    5  A    between atoms: C8_15  and  O3_16 
ROOT
HETATM    1  N2  UNL     1      -0.952  -0.703   0.958  1.00  0.00    -0.222 N 
ATOM      2  H2  UNL     1      -1.143  -1.317   1.750  1.00  0.00     0.178 HD
HETATM    3  C6  UNL     1      -2.085  -0.153   0.323  1.00  0.00     0.671 C 
HETATM    4  N3  UNL     1      -2.440   1.034   0.598  1.00  0.00    -0.224 N 
ATOM      5  H3  UNL     1      -1.850   1.504   1.284  1.00  0.00     0.177 HD
HETATM    6  N4  UNL     1      -2.839  -0.931  -0.557  1.00  0.00    -0.227 N 
HETATM    7  C9  UNL     1      -3.610  -2.068  -0.067  1.00  0.00     0.168 C 
HETATM    8  C10 UNL     1      -2.900  -0.659  -1.969  1.00  0.00     0.168 C 
ENDROOT
BRANCH   1   9
HETATM    9  C5  UNL     1       0.423  -0.515   0.641  1.00  0.00     0.102 C 
HETATM   10  C4  UNL     1       1.275  -1.213   1.682  1.00  0.00     0.045 C 
HETATM   11  C3  UNL     1       2.634  -1.563   1.135  1.00  0.00     0.130 C 
HETATM   12  N1  UNL     1       3.030  -0.588   0.144  1.00  0.00    -0.328 N 
HETATM   13  C2  UNL     1       4.163   0.257   0.329  1.00  0.00     0.362 C 
HETATM   14  C12 UNL     1       2.219  -0.513  -1.049  1.00  0.00     0.130 C 
HETATM   15  O2  UNL     1       4.480   1.097  -0.559  1.00  0.00    -0.238 OA
HETATM   16  C11 UNL     1       0.850  -1.068  -0.697  1.00  0.00     0.045 C 
BRANCH  13  17
HETATM   17  O1  UNL     1       4.926   0.179   1.464  1.00  0.00    -0.309 OA
HETATM   18  C1  UNL     1       6.069   1.022   1.668  1.00  0.00     0.215 C 
ENDBRANCH  13  17
ENDBRANCH   1   9
BRANCH   4  19
HETATM   19  C7  UNL     1      -3.513   1.816   0.116  1.00  0.00     0.164 C 
BRANCH  19  20
HETATM   20  C8  UNL     1      -3.079   2.912  -0.832  1.00  0.00     0.184 C 
BRANCH  20  21
HETATM   21  O3  UNL     1      -4.128   3.666  -1.293  1.00  0.00    -0.399 OA
ATOM     22  H3  UNL     1      -3.855   4.354  -1.888  1.00  0.00     0.209 HD
ENDBRANCH  20  21
ENDBRANCH  19  20
ENDBRANCH   4  19
TORSDOF 5
