REMARK  8 active torsions:
REMARK  status: ('A' for Active; 'I' for Inactive)
REMARK    1  A    between atoms: C2_2  and  C4_5 
REMARK    2  A    between atoms: C4_5  and  N1_6 
REMARK    3  A    between atoms: N1_6  and  C5_8 
REMARK    4  A    between atoms: C6_11  and  C7_12 
REMARK    5  A    between atoms: C7_12  and  N3_13 
REMARK    6  A    between atoms: N4_16  and  C10_17 
REMARK    7  A    between atoms: C17_25  and  C18_26 
REMARK    8  A    between atoms: C18_26  and  C19_27 
ROOT
HETATM    1  C5  UNL     1      -1.254   1.183   0.451  1.00  0.00     0.151 A 
HETATM    2  N2  UNL     1      -0.112   0.449   0.644  1.00  0.00    -0.340 N 
ATOM      3  H2  UNL     1       0.641   0.859   1.197  1.00  0.00     0.167 HD
HETATM    4  C6  UNL     1       0.062  -0.776   0.143  1.00  0.00     0.055 A 
HETATM    5  C16 UNL     1      -0.953  -1.333  -0.608  1.00  0.00     0.125 A 
HETATM    6  N5  UNL     1      -2.104  -0.648  -0.830  1.00  0.00    -0.306 N 
HETATM    7  C17 UNL     1      -3.217  -0.957  -1.517  1.00  0.00     0.034 A 
HETATM    8  C23 UNL     1      -4.042   0.138  -1.393  1.00  0.00     0.115 A 
HETATM    9  N6  UNL     1      -3.445   1.086  -0.650  1.00  0.00    -0.347 N 
ATOM     10  H6  UNL     1      -3.827   1.998  -0.399  1.00  0.00     0.167 HD
HETATM   11  C24 UNL     1      -2.242   0.591  -0.304  1.00  0.00     0.157 A 
ENDROOT
BRANCH   4  12
HETATM   12  C7  UNL     1       1.317  -1.533   0.380  1.00  0.00     0.330 C 
BRANCH  12  13
HETATM   13  N3  UNL     1       2.244  -1.385  -0.704  1.00  0.00     0.097 N 
HETATM   14  C8  UNL     1       3.468  -2.116  -0.480  1.00  0.00     0.303 C 
HETATM   15  C9  UNL     1       4.563  -1.206   0.032  1.00  0.00     0.303 C 
HETATM   16  N4  UNL     1       4.955  -0.217  -0.959  1.00  0.00     0.096 N 
HETATM   17  C14 UNL     1       3.781   0.103  -1.733  1.00  0.00     0.303 C 
HETATM   18  C15 UNL     1       2.526   0.020  -0.890  1.00  0.00     0.303 C 
BRANCH  16  19
HETATM   19  C10 UNL     1       5.519   0.894  -0.258  1.00  0.00     0.223 C 
HETATM   20  C11 UNL     1       6.003   2.042  -1.111  1.00  0.00     0.036 C 
HETATM   21  C12 UNL     1       7.242   2.095  -0.212  1.00  0.00     0.004 C 
HETATM   22  C13 UNL     1       6.981   0.619   0.086  1.00  0.00     0.036 C 
ENDBRANCH  16  19
ENDBRANCH  12  13
ENDBRANCH   4  12
BRANCH   1  23
HETATM   23  N1  UNL     1      -1.264   2.320   0.989  1.00  0.00    -0.350 N 
ATOM     24  H1  UNL     1      -0.408   2.535   1.499  1.00  0.00     0.166 HD
BRANCH  23  25
HETATM   25  C4  UNL     1      -2.217   3.356   1.030  1.00  0.00     0.105 C 
BRANCH  25  26
HETATM   26  C2  UNL     1      -2.969   3.438   2.349  1.00  0.00     0.128 C 
HETATM   27  C1  UNL     1      -3.949   4.591   2.227  1.00  0.00     0.057 C 
HETATM   28  C3  UNL     1      -1.980   3.810   3.462  1.00  0.00     0.057 C 
HETATM   29  F1  UNL     1      -3.564   2.268   2.716  1.00  0.00    -0.238 F 
ENDBRANCH  25  26
ENDBRANCH  23  25
ENDBRANCH   1  23
BRANCH   7  30
HETATM   30  C18 UNL     1      -3.477  -2.209  -2.234  1.00  0.00     0.066 C 
BRANCH  30  31
HETATM   31  C19 UNL     1      -4.169  -3.280  -1.507  1.00  0.00     0.017 C 
HETATM   32  C20 UNL     1      -3.527  -3.814  -0.267  1.00  0.00     0.033 C 
HETATM   33  C21 UNL     1      -4.762  -4.531   0.334  1.00  0.00     0.168 C 
HETATM   34  O1  UNL     1      -5.692  -3.499   0.261  1.00  0.00    -0.391 OA
HETATM   35  C22 UNL     1      -5.561  -2.985  -1.024  1.00  0.00     0.172 C 
ENDBRANCH  30  31
ENDBRANCH   7  30
TORSDOF 8
