REMARK  9 active torsions:
REMARK  status: ('A' for Active; 'I' for Inactive)
REMARK    1  A    between atoms: C11_11  and  C12_12 
REMARK    2  A    between atoms: C11_11  and  N2_29 
REMARK    3  A    between atoms: C12_12  and  O1_13 
REMARK    4  A    between atoms: O1_13  and  C13_14 
REMARK    5  A    between atoms: C13_14  and  C14_16 
REMARK    6  A    between atoms: C15_17  and  C16_18 
REMARK    7  A    between atoms: N1_24  and  C20_25 
REMARK    8  A    between atoms: C20_25  and  C21_26 
REMARK    9  A    between atoms: C31_39  and  O7_40 
ROOT
HETATM    1  C1  UNL     1      -6.672  -1.798  -0.710  1.00  0.00     0.018 C 
HETATM    2  C2  UNL     1      -5.854  -0.688  -0.030  1.00  0.00    -0.014 C 
HETATM    3  C3  UNL     1      -4.827  -1.383   0.808  1.00  0.00     0.012 C 
HETATM    4  C4  UNL     1      -3.739  -1.846  -0.176  1.00  0.00     0.007 C 
HETATM    5  C5  UNL     1      -3.006  -0.560  -0.487  1.00  0.00    -0.002 C 
HETATM    6  C6  UNL     1      -3.903   0.394  -1.239  1.00  0.00    -0.005 C 
HETATM    7  C7  UNL     1      -3.298   1.770  -0.997  1.00  0.00     0.006 C 
HETATM    8  C8  UNL     1      -1.779   1.674  -0.955  1.00  0.00     0.006 C 
HETATM    9  C9  UNL     1      -1.263   0.526  -1.790  1.00  0.00    -0.003 C 
HETATM   10  C10 UNL     1       0.205   0.626  -2.014  1.00  0.00     0.045 C 
HETATM   11  C11 UNL     1       1.066   0.267  -0.797  1.00  0.00     0.118 C 
HETATM   12  C24 UNL     1       0.331  -0.560   0.197  1.00  0.00     0.041 C 
HETATM   13  C25 UNL     1      -0.744  -1.433  -0.315  1.00  0.00     0.012 C 
HETATM   14  C26 UNL     1      -1.720  -0.793  -1.241  1.00  0.00    -0.036 C 
HETATM   15  C27 UNL     1      -2.063  -1.719  -2.411  1.00  0.00     0.016 C 
HETATM   16  C28 UNL     1      -5.341   0.308  -0.994  1.00  0.00     0.001 C 
HETATM   17  C29 UNL     1      -5.980   1.621  -0.522  1.00  0.00     0.008 C 
HETATM   18  C30 UNL     1      -6.220   1.409   0.953  1.00  0.00     0.033 C 
HETATM   19  C31 UNL     1      -6.824  -0.001   0.918  1.00  0.00     0.126 C 
ENDROOT
BRANCH  11  20
HETATM   20  C12 UNL     1       2.302  -0.438  -1.288  1.00  0.00     0.216 C 
BRANCH  20  21
HETATM   21  O1  UNL     1       3.317  -0.731  -0.414  1.00  0.00    -0.314 OA
BRANCH  21  22
HETATM   22  C13 UNL     1       4.325  -0.018   0.127  1.00  0.00     0.311 C 
HETATM   23  O2  UNL     1       4.377   1.188  -0.278  1.00  0.00    -0.258 OA
BRANCH  22  24
HETATM   24  C14 UNL     1       5.274  -0.561   1.087  1.00  0.00     0.127 A 
HETATM   25  C15 UNL     1       5.200  -1.902   1.495  1.00  0.00     0.085 A 
HETATM   26  C17 UNL     1       6.145  -2.390   2.415  1.00  0.00     0.189 A 
HETATM   27  O4  UNL     1       6.088  -3.582   2.784  1.00  0.00    -0.287 OA
HETATM   28  C18 UNL     1       7.126  -1.580   2.912  1.00  0.00     0.073 A 
HETATM   29  C19 UNL     1       7.182  -0.283   2.506  1.00  0.00     0.095 A 
HETATM   30  N1  UNL     1       6.258   0.210   1.602  1.00  0.00    -0.351 N 
BRANCH  25  31
HETATM   31  C16 UNL     1       4.211  -2.820   1.030  1.00  0.00     0.276 C 
HETATM   32  O3  UNL     1       4.252  -4.031   1.482  1.00  0.00    -0.301 OA
ENDBRANCH  25  31
BRANCH  30  33
HETATM   33  C20 UNL     1       6.408   1.605   1.266  1.00  0.00     0.133 C 
BRANCH  33  34
HETATM   34  C21 UNL     1       7.279   1.721   0.041  1.00  0.00     0.004 A 
HETATM   35  C22 UNL     1       7.602   3.046  -0.532  1.00  0.00     0.007 A 
HETATM   36  C23 UNL     1       8.646   2.327   0.268  1.00  0.00     0.007 A 
ENDBRANCH  33  34
ENDBRANCH  30  33
ENDBRANCH  22  24
ENDBRANCH  21  22
ENDBRANCH  20  21
ENDBRANCH  11  20
BRANCH  11  37
HETATM   37  N2  UNL     1       1.377   1.517  -0.168  1.00  0.00    -0.143 N 
HETATM   38  O5  UNL     1       1.395   2.607  -0.775  1.00  0.00    -0.536 OA
HETATM   39  O6  UNL     1       1.658   1.510   1.186  1.00  0.00    -0.536 OA
ENDBRANCH  11  37
BRANCH  19  40
HETATM   40  O7  UNL     1      -8.073   0.129   0.333  1.00  0.00    -0.395 OA
ATOM     41  H7  UNL     1      -8.679   0.558   0.925  1.00  0.00     0.210 HD
ENDBRANCH  19  40
TORSDOF 9
