REMARK  3 active torsions:
REMARK  status: ('A' for Active; 'I' for Inactive)
REMARK    1  A    between atoms: C3_3  and  N1_6 
REMARK    2  A    between atoms: C7_11  and  N3_12 
REMARK    3  A    between atoms: N7_23  and  C11_24 
ROOT
HETATM    1  C1  UNL     1      -4.750   0.684   1.139  1.00  0.00     0.015 C 
HETATM    2  C2  UNL     1      -3.937   0.179   0.408  1.00  0.00    -0.086 C 
HETATM    3  C3  UNL     1      -2.902  -0.441  -0.490  1.00  0.00     0.087 C 
HETATM    4  C4  UNL     1      -2.957  -1.917  -0.150  1.00  0.00     0.052 C 
HETATM    5  C5  UNL     1      -3.562  -0.344  -1.883  1.00  0.00     0.052 C 
ENDROOT
BRANCH   3   6
HETATM    6  N1  UNL     1      -1.751   0.247  -0.365  1.00  0.00    -0.354 N 
HETATM    7  C6  UNL     1      -0.571   0.379  -0.100  1.00  0.00     0.150 A 
HETATM    8  N2  UNL     1      -0.001   1.627  -0.253  1.00  0.00    -0.174 N 
HETATM    9  C10 UNL     1       0.310  -0.594   0.352  1.00  0.00     0.140 A 
HETATM   10  C7  UNL     1       1.288   1.862   0.015  1.00  0.00     0.681 A 
ATOM     11  H2  UNL     1      -0.583   2.397  -0.582  1.00  0.00     0.186 HD
HETATM   12  N4  UNL     1       2.124   0.906   0.451  1.00  0.00    -0.173 N 
HETATM   13  C9  UNL     1       1.647  -0.337   0.627  1.00  0.00     0.171 A 
ATOM     14  H4  UNL     1       3.102   1.120   0.645  1.00  0.00     0.186 HD
HETATM   15  N7  UNL     1       2.221  -1.485   1.043  1.00  0.00    -0.260 N 
HETATM   16  N6  UNL     1       1.287  -2.417   1.029  1.00  0.00    -0.238 N 
HETATM   17  N5  UNL     1       0.155  -1.893   0.621  1.00  0.00    -0.279 N 
ATOM     18  H6  UNL     1       1.423  -3.392   1.294  1.00  0.00     0.208 HD
ATOM     19  H5  UNL     1      -0.721  -2.406   0.523  1.00  0.00     0.189 HD
ATOM     20  H1  UNL     1      -2.020   1.187  -0.657  1.00  0.00     0.163 HD
BRANCH  10  21
HETATM   21  N3  UNL     1       1.809   3.042  -0.135  1.00  0.00    -0.230 N 
HETATM   22  C8  UNL     1       1.031   4.173  -0.598  1.00  0.00     0.165 C 
ATOM     23  H3  UNL     1       2.797   3.177   0.080  1.00  0.00     0.177 HD
ENDBRANCH  10  21
BRANCH  15  24
HETATM   24  C11 UNL     1       3.589  -1.715   1.440  1.00  0.00     0.148 C 
HETATM   25  C12 UNL     1       4.424  -2.117   0.250  1.00  0.00     0.028 C 
ENDBRANCH  15  24
ENDBRANCH   3   6
TORSDOF 3
