REMARK  0 active torsions:
REMARK  status: ('A' for Active; 'I' for Inactive)
ROOT
HETATM    1  F1  UNL     1       2.959  -1.204  -0.199  1.00  0.00    -0.206 F 
HETATM    2  C1  UNL     1       1.731  -0.579  -0.474  1.00  0.00     0.247 C 
HETATM    3  F2  UNL     1       1.848  -0.236  -1.832  1.00  0.00    -0.206 F 
HETATM    4  C2  UNL     1       0.607  -1.496  -0.237  1.00  0.00     0.112 C 
HETATM    5  C3  UNL     1      -0.442  -1.087   0.707  1.00  0.00     0.192 C 
HETATM    6  C4  UNL     1      -1.729  -0.709  -0.033  1.00  0.00     0.033 C 
HETATM    7  C5  UNL     1      -1.457   0.473  -0.888  1.00  0.00     0.004 C 
HETATM    8  C6  UNL     1      -0.576   1.508  -0.322  1.00  0.00     0.033 C 
HETATM    9  C7  UNL     1       0.337   1.107   0.763  1.00  0.00     0.192 C 
HETATM   10  C8  UNL     1       1.719   0.697   0.292  1.00  0.00     0.112 C 
HETATM   11  N1  UNL     1      -0.131   0.003   1.575  1.00  0.00    -0.066 N 
ATOM     12  H11 UNL     1       0.530  -0.254   2.308  1.00  0.00     0.278 HD
ATOM     13  H12 UNL     1      -0.912   0.261   2.178  1.00  0.00     0.278 HD
ENDROOT
TORSDOF 0
