REMARK  8 active torsions:
REMARK  status: ('A' for Active; 'I' for Inactive)
REMARK    1  A    between atoms: C2_2  and  C3_3 
REMARK    2  A    between atoms: C3_3  and  C4_4 
REMARK    3  A    between atoms: C4_4  and  C5_5 
REMARK    4  A    between atoms: C5_5  and  N1_6 
REMARK       I    between atoms: N1_6  and  C6_8 
REMARK    5  A    between atoms: C6_8  and  C7_10 
REMARK    6  A    between atoms: C7_10  and  C8_11 
REMARK    7  A    between atoms: C7_10  and  C9_20 
REMARK    8  A    between atoms: C12_27  and  N8_28 
ROOT
HETATM    1  C7  UNL     1      -1.533  -0.146   0.682  1.00  0.00     0.201 C 
ENDROOT
BRANCH   1   2
HETATM    2  C6  UNL     1      -0.343  -0.134  -0.205  1.00  0.00     0.235 C 
HETATM    3  N1  UNL     1       0.886   0.449   0.204  1.00  0.00    -0.360 N 
ATOM      4  H1  UNL     1       0.945   0.870   1.131  1.00  0.00     0.162 HD
HETATM    5  O1  UNL     1      -0.442  -0.655  -1.344  1.00  0.00    -0.272 OA
BRANCH   3   6
HETATM    6  C5  UNL     1       2.067   0.468  -0.653  1.00  0.00     0.123 C 
BRANCH   6   7
HETATM    7  C4  UNL     1       3.165   1.154   0.083  1.00  0.00     0.023 C 
BRANCH   7   8
HETATM    8  C3  UNL     1       4.438   1.220  -0.735  1.00  0.00     0.028 C 
BRANCH   8   9
HETATM    9  C2  UNL     1       4.859  -0.157  -1.038  1.00  0.00    -0.037 C 
HETATM   10  C1  UNL     1       6.030  -0.587  -0.618  1.00  0.00     0.007 C 
ENDBRANCH   8   9
ENDBRANCH   7   8
ENDBRANCH   6   7
ENDBRANCH   3   6
ENDBRANCH   1   2
BRANCH   1  11
HETATM   11  C8  UNL     1      -1.855   1.269   1.002  1.00  0.00     0.132 A 
HETATM   12  N2  UNL     1      -1.756   2.278   0.132  1.00  0.00    -0.271 N 
HETATM   13  N3  UNL     1      -2.121   3.369   0.775  1.00  0.00    -0.227 N 
ATOM     14  H2  UNL     1      -1.456   2.216  -0.841  1.00  0.00     0.190 HD
HETATM   15  N4  UNL     1      -2.443   3.063   2.016  1.00  0.00    -0.227 N 
ATOM     16  H3  UNL     1      -2.150   4.306   0.374  1.00  0.00     0.210 HD
HETATM   17  N5  UNL     1      -2.281   1.765   2.163  1.00  0.00    -0.271 N 
ATOM     18  H4  UNL     1      -2.761   3.715   2.733  1.00  0.00     0.210 HD
ATOM     19  H5  UNL     1      -2.452   1.232   3.016  1.00  0.00     0.190 HD
ENDBRANCH   1  11
BRANCH   1  20
HETATM   20  C9  UNL     1      -2.679  -0.874   0.127  1.00  0.00     0.074 A 
HETATM   21  N6  UNL     1      -3.317  -0.328  -0.951  1.00  0.00    -0.364 N 
HETATM   22  C10 UNL     1      -4.375  -0.951  -1.495  1.00  0.00     0.105 A 
ATOM     23  H6  UNL     1      -2.989   0.555  -1.343  1.00  0.00     0.165 HD
HETATM   24  C11 UNL     1      -4.812  -2.155  -0.949  1.00  0.00     0.106 A 
HETATM   25  N7  UNL     1      -4.190  -2.683   0.098  1.00  0.00    -0.350 N 
HETATM   26  C12 UNL     1      -3.122  -2.055   0.648  1.00  0.00     0.123 A 
ATOM     27  H7  UNL     1      -4.517  -3.566   0.491  1.00  0.00     0.166 HD
BRANCH  26  28
HETATM   28  N8  UNL     1      -2.517  -2.572   1.667  1.00  0.00    -0.384 N 
ATOM     29  H82 UNL     1      -1.713  -2.099   2.081  1.00  0.00     0.157 HD
ATOM     30  H81 UNL     1      -2.848  -3.455   2.056  1.00  0.00     0.157 HD
ENDBRANCH  26  28
ENDBRANCH   1  20
TORSDOF 8
