REMARK  5 active torsions:
REMARK  status: ('A' for Active; 'I' for Inactive)
REMARK    1  A    between atoms: C2_7  and  N4_8 
REMARK    2  A    between atoms: N4_8  and  C3_10 
REMARK    3  A    between atoms: C3_10  and  C4_11 
REMARK    4  A    between atoms: C4_11  and  C5_12 
REMARK    5  A    between atoms: C5_12  and  N5_13 
ROOT
HETATM    1  N1  UNL     1       6.224  -0.061   0.334  1.00  0.00    -0.075 NA
HETATM    2  C1  UNL     1       4.826   0.097   0.132  1.00  0.00     0.200 A 
HETATM    3  N2  UNL     1       4.305   1.189  -0.451  1.00  0.00    -0.269 N 
ATOM      4  H2  UNL     1       4.948   1.921  -0.753  1.00  0.00     0.189 HD
HETATM    5  N3  UNL     1       3.015   1.376  -0.658  1.00  0.00    -0.131 N 
ATOM      6  H3  UNL     1       2.676   2.227  -1.106  1.00  0.00     0.205 HD
HETATM    7  C2  UNL     1       2.164   0.425  -0.267  1.00  0.00     0.695 A 
HETATM    8  N7  UNL     1       2.617  -0.685   0.319  1.00  0.00    -0.152 N 
ATOM      9  H7  UNL     1       1.951  -1.400   0.611  1.00  0.00     0.187 HD
HETATM   10  C9  UNL     1       3.941  -0.887   0.536  1.00  0.00     0.302 A 
HETATM   11  O1  UNL     1       4.400  -1.908   1.078  1.00  0.00    -0.264 OA
ENDROOT
BRANCH   7  12
HETATM   12  N4  UNL     1       0.908   0.588  -0.459  1.00  0.00    -0.225 N 
ATOM     13  H4  UNL     1       0.572   1.440  -0.908  1.00  0.00     0.177 HD
BRANCH  12  14
HETATM   14  C3  UNL     1      -0.034  -0.421  -0.047  1.00  0.00     0.139 C 
BRANCH  14  15
HETATM   15  C4  UNL     1      -1.423   0.151  -0.236  1.00  0.00     0.040 C 
BRANCH  15  16
HETATM   16  C5  UNL     1      -2.493  -0.834   0.169  1.00  0.00     0.131 C 
BRANCH  16  17
HETATM   17  N5  UNL     1      -3.776  -0.162  -0.060  1.00  0.00    -0.352 N 
HETATM   18  C6  UNL     1      -4.460   0.595   0.818  1.00  0.00     0.108 A 
HETATM   19  C7  UNL     1      -5.624   1.056   0.238  1.00  0.00     0.106 A 
HETATM   20  N6  UNL     1      -5.634   0.563  -1.009  1.00  0.00    -0.361 N 
HETATM   21  C8  UNL     1      -4.515  -0.172  -1.183  1.00  0.00     0.182 A 
ATOM     22  H6  UNL     1      -6.362   0.717  -1.706  1.00  0.00     0.166 HD
ENDBRANCH  16  17
ENDBRANCH  15  16
ENDBRANCH  14  15
ENDBRANCH  12  14
ENDBRANCH   7  12
TORSDOF 5
