REMARK  6 active torsions:
REMARK  status: ('A' for Active; 'I' for Inactive)
REMARK    1  A    between atoms: N1_1  and  C1_4 
REMARK    2  A    between atoms: C1_4  and  C2_5 
REMARK    3  A    between atoms: C2_5  and  O1_6 
REMARK    4  A    between atoms: O1_6  and  N2_7 
REMARK    5  A    between atoms: N3_10  and  O4_12 
REMARK    6  A    between atoms: O4_12  and  C3_13 
ROOT
HETATM    1  C1  UNL     1       1.153   1.107   0.527  1.00  0.00     0.121 C 
HETATM    2  N3  UNL     1      -0.111   0.872   0.144  1.00  0.00    -0.252 N 
ATOM      3  H3  UNL     1      -0.834   1.395   0.637  1.00  0.00     0.196 HD
ENDROOT
BRANCH   1   4
HETATM    4  N1  UNL     1       1.475   1.099   1.838  1.00  0.00    -0.386 N 
ATOM      5  H12 UNL     1       2.436   1.278   2.129  1.00  0.00     0.157 HD
ATOM      6  H11 UNL     1       0.647   1.002   2.425  1.00  0.00     0.157 HD
ENDBRANCH   1   4
BRANCH   1   7
HETATM    7  C2  UNL     1       2.402   1.253  -0.359  1.00  0.00     0.285 C 
BRANCH   7   8
HETATM    8  O1  UNL     1       2.950  -0.061  -0.205  1.00  0.00    -0.214 OA
BRANCH   8   9
HETATM    9  N2  UNL     1       4.275  -0.240   0.204  1.00  0.00     0.005 N 
HETATM   10  O2  UNL     1       4.839   0.699   0.844  1.00  0.00    -0.511 OA
HETATM   11  O3  UNL     1       4.796  -1.458   0.051  1.00  0.00    -0.511 OA
ENDBRANCH   8   9
ENDBRANCH   7   8
ENDBRANCH   1   7
BRANCH   2  12
HETATM   12  O4  UNL     1      -0.525   0.056  -0.782  1.00  0.00    -0.274 OA
BRANCH  12  13
HETATM   13  C3  UNL     1      -1.207  -1.082  -0.459  1.00  0.00     0.152 C 
HETATM   14  C4  UNL     1      -2.249  -0.733   0.710  1.00  0.00     0.034 C 
HETATM   15  C5  UNL     1      -3.089  -0.134  -0.441  1.00  0.00     0.005 C 
HETATM   16  C6  UNL     1      -2.403  -1.207  -1.370  1.00  0.00     0.034 C 
ENDBRANCH  12  13
ENDBRANCH   2  12
TORSDOF 6
