REMARK  12 active torsions:
REMARK  status: ('A' for Active; 'I' for Inactive)
REMARK    1  A    between atoms: C2_2  and  C3_3 
REMARK    2  A    between atoms: C3_3  and  C4_4 
REMARK    3  A    between atoms: C14_15  and  C15_16 
REMARK    4  A    between atoms: C15_16  and  O3_18 
REMARK    5  A    between atoms: C18_21  and  C20_23 
REMARK    6  A    between atoms: C23_26  and  C24_27 
REMARK    7  A    between atoms: C24_27  and  C25_28 
REMARK    8  A    between atoms: C25_28  and  N1_29 
REMARK    9  A    between atoms: N1_29  and  C26_30 
REMARK       I    between atoms: N1_29  and  C31_35 
REMARK   10  A    between atoms: C26_30  and  C27_31 
REMARK   11  A    between atoms: C27_31  and  C28_32 
REMARK   12  A    between atoms: C28_32  and  C29_33 
ROOT
HETATM    1  C4  UNL     1      -1.931  -0.748   0.114  1.00  0.00    -0.012 C 
HETATM    2  C5  UNL     1      -2.400   0.613   0.506  1.00  0.00     0.026 C 
HETATM    3  C6  UNL     1      -1.933   1.172   1.778  1.00  0.00     0.012 C 
HETATM    4  C7  UNL     1      -2.365   0.208   2.876  1.00  0.00     0.033 C 
HETATM    5  C8  UNL     1      -1.709  -1.094   2.636  1.00  0.00     0.126 C 
HETATM    6  O1  UNL     1      -2.382  -2.172   3.227  1.00  0.00    -0.385 OA
HETATM    7  C9  UNL     1      -1.482  -3.141   3.663  1.00  0.00     0.168 C 
HETATM    8  C10 UNL     1      -0.460  -3.339   2.575  1.00  0.00     0.027 C 
HETATM    9  C11 UNL     1      -1.012  -2.878   1.210  1.00  0.00     0.010 C 
HETATM   10  C12 UNL     1      -1.240  -1.380   1.233  1.00  0.00     0.025 C 
HETATM   11  C13 UNL     1      -1.842   1.254  -0.677  1.00  0.00    -0.053 C 
HETATM   12  C14 UNL     1      -1.625   2.230  -1.541  1.00  0.00     0.022 C 
HETATM   13  C17 UNL     1      -0.821   2.063  -2.813  1.00  0.00     0.058 C 
HETATM   14  C18 UNL     1      -1.102   0.713  -3.406  1.00  0.00    -0.022 C 
HETATM   15  C19 UNL     1      -2.253   0.973  -4.428  1.00  0.00     0.020 C 
HETATM   16  C22 UNL     1      -1.636  -0.277  -2.388  1.00  0.00     0.028 C 
HETATM   17  C23 UNL     1      -1.121  -0.044  -0.970  1.00  0.00    -0.004 C 
ENDROOT
BRANCH  17  18
HETATM   18  C24 UNL     1       0.326  -0.009  -0.939  1.00  0.00     0.035 C 
BRANCH  18  19
HETATM   19  C25 UNL     1       1.230   0.648  -0.002  1.00  0.00     0.127 C 
BRANCH  19  20
HETATM   20  N1  UNL     1       2.601   0.259  -0.395  1.00  0.00    -0.352 N 
HETATM   21  C31 UNL     1       3.317   1.062  -1.268  1.00  0.00     0.215 C 
HETATM   22  C32 UNL     1       4.676   0.802  -1.821  1.00  0.00     0.117 C 
HETATM   23  O4  UNL     1       2.817   2.172  -1.697  1.00  0.00    -0.274 OA
BRANCH  20  24
HETATM   24  C26 UNL     1       3.167  -0.942   0.157  1.00  0.00     0.125 C 
BRANCH  24  25
HETATM   25  C27 UNL     1       3.848  -0.771   1.484  1.00  0.00     0.020 C 
BRANCH  25  26
HETATM   26  C28 UNL     1       4.998   0.165   1.521  1.00  0.00     0.001 C 
BRANCH  26  27
HETATM   27  C29 UNL     1       5.585   0.241   2.948  1.00  0.00    -0.004 C 
HETATM   28  C30 UNL     1       6.028  -1.146   3.304  1.00  0.00     0.005 C 
ENDBRANCH  26  27
ENDBRANCH  25  26
ENDBRANCH  24  25
ENDBRANCH  20  24
ENDBRANCH  19  20
ENDBRANCH  18  19
ENDBRANCH  17  18
BRANCH   1  29
HETATM   29  C3  UNL     1      -3.019  -1.641  -0.451  1.00  0.00     0.038 C 
BRANCH  29  30
HETATM   30  C2  UNL     1      -4.176  -1.912   0.398  1.00  0.00    -0.036 C 
HETATM   31  C1  UNL     1      -4.729  -3.063   0.716  1.00  0.00     0.007 C 
ENDBRANCH  29  30
ENDBRANCH   1  29
BRANCH  12  32
HETATM   32  C15 UNL     1      -2.279   3.513  -1.260  1.00  0.00     0.289 C 
HETATM   33  O2  UNL     1      -2.059   4.452  -2.094  1.00  0.00    -0.260 OA
BRANCH  32  34
HETATM   34  O3  UNL     1      -3.089   3.792  -0.208  1.00  0.00    -0.323 OA
HETATM   35  C16 UNL     1      -3.682   5.071  -0.017  1.00  0.00     0.213 C 
ENDBRANCH  32  34
ENDBRANCH  12  32
BRANCH  14  36
HETATM   36  C20 UNL     1      -0.052   0.179  -4.296  1.00  0.00    -0.027 C 
HETATM   37  C21 UNL     1       0.534   0.995  -5.142  1.00  0.00     0.007 C 
ENDBRANCH  14  36
TORSDOF 12
