REMARK  9 active torsions:
REMARK  status: ('A' for Active; 'I' for Inactive)
REMARK    1  A    between atoms: C2_2  and  C3_3 
REMARK    2  A    between atoms: C3_3  and  N1_4 
REMARK    3  A    between atoms: N1_4  and  C4_6 
REMARK    4  A    between atoms: C7_9  and  C8_10 
REMARK    5  A    between atoms: C8_10  and  N2_11 
REMARK    6  A    between atoms: C8_10  and  C11_17 
REMARK    7  A    between atoms: N2_11  and  C9_14 
REMARK    8  A    between atoms: C9_14  and  C10_15 
REMARK    9  A    between atoms: C11_17  and  O1_19 
ROOT
HETATM    1  C4  UNL     1       2.409   0.351  -0.643  1.00  0.00     0.072 A 
HETATM    2  C5  UNL     1       1.788  -0.629   0.109  1.00  0.00     0.033 A 
HETATM    3  C6  UNL     1       0.411  -0.887  -0.027  1.00  0.00     0.013 A 
HETATM    4  C7  UNL     1      -0.408  -0.213  -0.878  1.00  0.00    -0.000 A 
HETATM    5  C13 UNL     1       0.232   0.775  -1.636  1.00  0.00     0.083 A 
HETATM    6 CL2  UNL     1      -0.746   1.661  -2.820  1.00  0.00    -0.080 Cl
HETATM    7  C14 UNL     1       1.573   1.037  -1.516  1.00  0.00     0.165 A 
HETATM    8  F1  UNL     1       2.116   2.043  -2.294  1.00  0.00    -0.202 F 
ENDROOT
BRANCH   4   9
HETATM    9  C8  UNL     1      -1.894  -0.362  -0.915  1.00  0.00     0.248 C 
BRANCH   9  10
HETATM   10  N2  UNL     1      -2.412   0.225   0.362  1.00  0.00    -0.063 N 
ATOM     11  H22 UNL     1      -3.091  -0.398   0.800  1.00  0.00     0.278 HD
ATOM     12  H21 UNL     1      -1.691   0.220   1.084  1.00  0.00     0.278 HD
BRANCH  10  13
HETATM   13  C9  UNL     1      -2.946   1.510   0.196  1.00  0.00     0.248 C 
BRANCH  13  14
HETATM   14  C10 UNL     1      -3.472   2.081   1.517  1.00  0.00     0.142 C 
HETATM   15 CL1  UNL     1      -4.759   1.118   2.224  1.00  0.00    -0.129 Cl
ENDBRANCH  13  14
ENDBRANCH  10  13
ENDBRANCH   9  10
BRANCH   9  16
HETATM   16  C11 UNL     1      -2.403  -1.790  -0.916  1.00  0.00     0.149 C 
HETATM   17  C12 UNL     1      -3.890  -1.739  -1.033  1.00  0.00     0.042 C 
BRANCH  16  18
HETATM   18  O1  UNL     1      -1.997  -2.567   0.117  1.00  0.00    -0.394 OA
ATOM     19  H1  UNL     1      -2.316  -3.462   0.116  1.00  0.00     0.210 HD
ENDBRANCH  16  18
ENDBRANCH   9  16
ENDBRANCH   4   9
BRANCH   1  20
HETATM   20  N1  UNL     1       3.778   0.638  -0.630  1.00  0.00    -0.363 N 
ATOM     21  H1  UNL     1       4.060   1.092  -1.499  1.00  0.00     0.165 HD
BRANCH  20  22
HETATM   22  C3  UNL     1       4.857   0.486   0.215  1.00  0.00     0.087 C 
BRANCH  22  23
HETATM   23  C2  UNL     1       4.796  -0.538   1.256  1.00  0.00     0.007 C 
HETATM   24  C1  UNL     1       4.917  -0.123   2.515  1.00  0.00     0.012 C 
ENDBRANCH  22  23
ENDBRANCH  20  22
ENDBRANCH   1  20
TORSDOF 9
