REMARK  12 active torsions:
REMARK  status: ('A' for Active; 'I' for Inactive)
REMARK    1  A    between atoms: C2_2  and  C3_4 
REMARK    2  A    between atoms: C3_4  and  C4_5 
REMARK    3  A    between atoms: C3_4  and  C11_23 
REMARK    4  A    between atoms: C4_5  and  O1_6 
REMARK    5  A    between atoms: C4_5  and  C5_8 
REMARK    6  A    between atoms: C6_11  and  C7_12 
REMARK    7  A    between atoms: C7_12  and  C8_13 
REMARK    8  A    between atoms: C8_13  and  C9_16 
REMARK    9  A    between atoms: C11_23  and  O2_24 
REMARK   10  A    between atoms: C11_23  and  C12_26 
REMARK   11  A    between atoms: C12_26  and  C13_29 
REMARK   12  A    between atoms: C13_29  and  C15_31 
ROOT
HETATM    1  C4  UNL     1       0.378  -0.425   0.968  1.00  0.00     0.181 C 
ENDROOT
BRANCH   1   2
HETATM    2  C3  UNL     1      -0.964  -1.180   0.740  1.00  0.00     0.019 C 
BRANCH   2   3
HETATM    3  C2  UNL     1      -0.939  -2.400  -0.036  1.00  0.00     0.200 C 
HETATM    4  C1  UNL     1      -2.341  -3.077  -0.119  1.00  0.00     0.050 C 
HETATM    5  F1  UNL     1      -0.575  -2.346  -1.352  1.00  0.00    -0.245 F 
ENDBRANCH   2   3
BRANCH   2   6
HETATM    6  C11 UNL     1      -2.133  -0.270   0.695  1.00  0.00     0.123 C 
BRANCH   6   7
HETATM    7  O2  UNL     1      -3.301  -0.932   1.094  1.00  0.00    -0.359 OA
ATOM      8  H2  UNL     1      -4.050  -0.349   1.065  1.00  0.00     0.217 HD
ENDBRANCH   6   7
BRANCH   6   9
HETATM    9  C12 UNL     1      -2.440   0.667  -0.354  1.00  0.00     0.303 C 
HETATM   10  F9  UNL     1      -1.483   1.673  -0.593  1.00  0.00    -0.198 F 
HETATM   11  F10 UNL     1      -2.852   0.142  -1.584  1.00  0.00    -0.198 F 
BRANCH   9  12
HETATM   12  C13 UNL     1      -3.642   1.549   0.037  1.00  0.00     0.168 C 
HETATM   13  C14 UNL     1      -4.902   0.825   0.298  1.00  0.00     0.026 C 
BRANCH  12  14
HETATM   14  C15 UNL     1      -3.901   2.544  -1.076  1.00  0.00     0.397 C 
HETATM   15  F11 UNL     1      -5.007   3.301  -0.644  1.00  0.00    -0.171 F 
HETATM   16  F12 UNL     1      -2.904   3.427  -1.306  1.00  0.00    -0.171 F 
HETATM   17  F13 UNL     1      -4.355   1.916  -2.236  1.00  0.00    -0.171 F 
ENDBRANCH  12  14
ENDBRANCH   9  12
ENDBRANCH   6   9
ENDBRANCH   2   6
ENDBRANCH   1   2
BRANCH   1  18
HETATM   18  O1  UNL     1      -0.026   0.745   1.692  1.00  0.00    -0.389 OA
ATOM     19  H1  UNL     1       0.793   1.206   1.831  1.00  0.00     0.210 HD
ENDBRANCH   1  18
BRANCH   1  20
HETATM   20  C5  UNL     1       1.151  -0.156  -0.253  1.00  0.00     0.185 C 
HETATM   21  N1  UNL     1       2.267   0.782  -0.191  1.00  0.00    -0.400 N 
HETATM   22  C6  UNL     1       3.131  -0.165   0.282  1.00  0.00     0.158 C 
ATOM     23  H1  UNL     1       2.365   1.772  -0.416  1.00  0.00     0.154 HD
HETATM   24  C10 UNL     1       2.259  -1.212  -0.513  1.00  0.00     0.285 C 
HETATM   25  F7  UNL     1       2.663  -1.291  -1.812  1.00  0.00    -0.202 F 
HETATM   26  F8  UNL     1       2.287  -2.318   0.254  1.00  0.00    -0.202 F 
BRANCH  22  27
HETATM   27  C7  UNL     1       4.536  -0.395  -0.052  1.00  0.00     0.119 C 
BRANCH  27  28
HETATM   28  C8  UNL     1       5.584   0.591   0.167  1.00  0.00     0.341 C 
HETATM   29  F2  UNL     1       6.857   0.027  -0.214  1.00  0.00    -0.196 F 
HETATM   30  F3  UNL     1       5.794   0.931   1.493  1.00  0.00    -0.196 F 
BRANCH  28  31
HETATM   31  C9  UNL     1       5.510   1.857  -0.614  1.00  0.00     0.454 C 
HETATM   32  F4  UNL     1       6.696   2.566  -0.227  1.00  0.00    -0.165 F 
HETATM   33  F5  UNL     1       5.497   1.637  -1.962  1.00  0.00    -0.165 F 
HETATM   34  F6  UNL     1       4.481   2.648  -0.179  1.00  0.00    -0.165 F 
ENDBRANCH  28  31
ENDBRANCH  27  28
ENDBRANCH  22  27
ENDBRANCH   1  20
TORSDOF 12
