REMARK  1 active torsions:
REMARK  status: ('A' for Active; 'I' for Inactive)
REMARK    1  A    between atoms: C14_15  and  O2_16 
ROOT
HETATM    1  C1  UNL     1      -4.589  -0.858  -0.051  1.00  0.00     0.010 C 
HETATM    2  C2  UNL     1      -3.492   0.157   0.283  1.00  0.00    -0.014 C 
HETATM    3  C3  UNL     1      -3.771   1.435  -0.379  1.00  0.00     0.005 C 
HETATM    4  C4  UNL     1      -2.628   2.223  -0.875  1.00  0.00     0.001 C 
HETATM    5  C5  UNL     1      -1.466   1.379  -1.365  1.00  0.00     0.005 C 
HETATM    6  C6  UNL     1      -1.053   0.489  -0.232  1.00  0.00    -0.004 C 
HETATM    7  C7  UNL     1      -2.186  -0.491  -0.001  1.00  0.00    -0.006 C 
HETATM    8  C8  UNL     1      -1.895  -1.506   1.045  1.00  0.00     0.008 C 
HETATM    9  C9  UNL     1      -0.505  -2.005   1.105  1.00  0.00     0.033 C 
HETATM   10  C10 UNL     1       0.542  -0.983   0.816  1.00  0.00     0.127 C 
HETATM   11  O1  UNL     1       1.774  -1.475   0.495  1.00  0.00    -0.374 OA
HETATM   12  C11 UNL     1       2.445  -0.352  -0.010  1.00  0.00     0.064 C 
HETATM   13  C12 UNL     1       2.992   0.449   1.124  1.00  0.00     0.040 C 
HETATM   14  C13 UNL     1       4.382   0.838   0.648  1.00  0.00     0.035 C 
HETATM   15  C14 UNL     1       4.823  -0.456  -0.037  1.00  0.00     0.121 C 
HETATM   16  C15 UNL     1       3.596  -0.775  -0.875  1.00  0.00     0.069 C 
HETATM   17  C16 UNL     1       1.403   0.439  -0.805  1.00  0.00     0.045 C 
HETATM   18  C17 UNL     1       0.158  -0.329  -0.523  1.00  0.00     0.022 C 
ENDROOT
BRANCH  15  19
HETATM   19  O2  UNL     1       5.956  -0.278  -0.799  1.00  0.00    -0.395 OA
ATOM     20  H2  UNL     1       6.230  -1.082  -1.225  1.00  0.00     0.210 HD
ENDBRANCH  15  19
TORSDOF 1
