REMARK  0 active torsions:
REMARK  status: ('A' for Active; 'I' for Inactive)
ROOT
HETATM    1  C1  UNL     1      -2.343   0.554   0.031  1.00  0.00     0.002 C 
HETATM    2  C2  UNL     1      -2.134  -0.761  -0.578  1.00  0.00     0.004 C 
HETATM    3  C3  UNL     1      -1.256  -1.769   0.201  1.00  0.00     0.054 C 
HETATM    4  C4  UNL     1       0.096  -1.257   0.056  1.00  0.00     0.280 C 
HETATM    5  N1  UNL     1       1.300  -1.693   0.553  1.00  0.00    -0.396 N 
ATOM      6  H1  UNL     1       1.481  -2.487   1.167  1.00  0.00     0.155 HD
HETATM    7  C5  UNL     1       2.272  -0.734  -0.017  1.00  0.00     0.116 C 
HETATM    8  C6  UNL     1       2.313   0.608   0.554  1.00  0.00     0.021 C 
HETATM    9  C7  UNL     1       1.313   1.639  -0.006  1.00  0.00     0.035 C 
HETATM   10  C8  UNL     1       0.027   0.995  -0.301  1.00  0.00     0.188 C 
HETATM   11  C9  UNL     1      -1.278   1.630  -0.271  1.00  0.00     0.033 C 
HETATM   12  N2  UNL     1      -0.070   0.009   0.735  1.00  0.00    -0.050 N 
ATOM     13  H21 UNL     1       0.581   0.154   1.507  1.00  0.00     0.280 HD
ATOM     14  H22 UNL     1      -0.924   0.073   1.290  1.00  0.00     0.280 HD
ENDROOT
TORSDOF 0
