REMARK  4 active torsions:
REMARK  status: ('A' for Active; 'I' for Inactive)
REMARK    1  A    between atoms: C2_2  and  C3_3 
REMARK       I    between atoms: C3_3  and  N1_5 
REMARK    2  A    between atoms: N1_5  and  C4_7 
REMARK    3  A    between atoms: C4_7  and  C5_9 
REMARK       I    between atoms: N2_14  and  C8_15 
REMARK    4  A    between atoms: C8_15  and  C9_17 
ROOT
HETATM    1  C1  UNL     1       1.268   0.895   1.794  1.00  0.00     0.049 C 
HETATM    2  C2  UNL     1       1.345  -0.237   0.788  1.00  0.00     0.114 C 
HETATM    3  C6  UNL     1       1.290  -1.617   1.403  1.00  0.00     0.061 C 
HETATM    4  C7  UNL     1       0.418  -1.923   0.177  1.00  0.00     0.130 C 
HETATM    5  N2  UNL     1       0.125  -0.525   0.095  1.00  0.00    -0.334 N 
HETATM    6  C8  UNL     1      -0.931   0.237  -0.447  1.00  0.00     0.225 C 
HETATM    7  O2  UNL     1      -0.857   1.508  -0.334  1.00  0.00    -0.273 OA
ENDROOT
BRANCH   2   8
HETATM    8  C3  UNL     1       2.554  -0.096  -0.030  1.00  0.00     0.248 C 
HETATM    9  O1  UNL     1       2.436  -0.239  -1.295  1.00  0.00    -0.271 OA
HETATM   10  N1  UNL     1       3.832   0.190   0.518  1.00  0.00    -0.324 N 
ATOM     11  H1  UNL     1       3.911   0.302   1.529  1.00  0.00     0.165 HD
BRANCH  10  12
HETATM   12  C4  UNL     1       5.024   0.330  -0.282  1.00  0.00     0.337 C 
HETATM   13  F1  UNL     1       5.994  -0.597   0.032  1.00  0.00    -0.221 F 
BRANCH  12  14
HETATM   14  C5  UNL     1       5.654   1.695  -0.154  1.00  0.00     0.406 C 
HETATM   15  F2  UNL     1       6.779   1.708  -0.959  1.00  0.00    -0.209 F 
HETATM   16  F3  UNL     1       6.112   1.903   1.146  1.00  0.00    -0.209 F 
ENDBRANCH  12  14
ENDBRANCH  10  12
ENDBRANCH   2   8
BRANCH   6  17
HETATM   17  C9  UNL     1      -2.103  -0.321  -1.129  1.00  0.00     0.078 C 
HETATM   18  C10 UNL     1      -2.824  -1.224  -0.139  1.00  0.00     0.014 C 
HETATM   19  C11 UNL     1      -4.315  -1.103  -0.255  1.00  0.00     0.001 C 
HETATM   20  C12 UNL     1      -4.858   0.271  -0.033  1.00  0.00     0.000 C 
HETATM   21  C13 UNL     1      -3.831   1.291  -0.381  1.00  0.00     0.001 C 
HETATM   22  C14 UNL     1      -3.017   0.806  -1.549  1.00  0.00     0.014 C 
ENDBRANCH   6  17
TORSDOF 4
