REMARK  4 active torsions:
REMARK  status: ('A' for Active; 'I' for Inactive)
REMARK    1  A    between atoms: C2_2  and  C3_4 
REMARK    2  A    between atoms: C3_4  and  C4_6 
REMARK       I    between atoms: N1_11  and  C9_12 
REMARK       I    between atoms: C9_12  and  N2_14 
REMARK    3  A    between atoms: N2_14  and  C10_16 
REMARK    4  A    between atoms: C10_16  and  C11_17 
ROOT
HETATM    1  C4  UNL     1      -0.948   0.081   0.036  1.00  0.00     0.164 C 
HETATM    2  C5  UNL     1      -2.295  -0.545   0.389  1.00  0.00     0.034 C 
HETATM    3  C6  UNL     1      -2.360  -1.981  -0.023  1.00  0.00     0.004 C 
HETATM    4  C7  UNL     1      -1.330  -2.845   0.614  1.00  0.00     0.020 C 
HETATM    5  C8  UNL     1      -0.239  -1.997   1.208  1.00  0.00     0.128 C 
HETATM    6  N1  UNL     1       0.104  -0.885   0.370  1.00  0.00    -0.322 N 
HETATM    7  C9  UNL     1       1.407  -0.664  -0.151  1.00  0.00     0.322 C 
HETATM    8  O2  UNL     1       2.276  -1.505   0.148  1.00  0.00    -0.247 OA
HETATM    9  N2  UNL     1       1.735   0.439  -0.965  1.00  0.00    -0.320 N 
ATOM     10  H2  UNL     1       0.965   1.077  -1.167  1.00  0.00     0.169 HD
ENDROOT
BRANCH   1  11
HETATM   11  C3  UNL     1      -0.819   1.300   0.862  1.00  0.00     0.192 C 
HETATM   12  O1  UNL     1      -0.036   1.198   1.870  1.00  0.00    -0.289 OA
BRANCH  11  13
HETATM   13  C2  UNL     1      -1.483   2.548   0.627  1.00  0.00     0.072 C 
HETATM   14  C1  UNL     1      -2.294   2.770  -0.386  1.00  0.00     0.040 C 
HETATM   15 CL1  UNL     1      -1.232   3.881   1.748  1.00  0.00    -0.081 Cl
ENDBRANCH  11  13
ENDBRANCH   1  11
BRANCH   9  16
HETATM   16  C10 UNL     1       2.970   0.787  -1.539  1.00  0.00     0.101 C 
BRANCH  16  17
HETATM   17  C11 UNL     1       4.128   1.111  -0.685  1.00  0.00     0.216 C 
HETATM   18 CL2  UNL     1       3.814   2.480   0.420  1.00  0.00    -0.102 Cl
HETATM   19 CL3  UNL     1       4.923  -0.236   0.116  1.00  0.00    -0.102 Cl
ENDBRANCH  16  17
ENDBRANCH   9  16
TORSDOF 4
