REMARK  4 active torsions:
REMARK  status: ('A' for Active; 'I' for Inactive)
REMARK    1  A    between atoms: C2_2  and  C3_3 
REMARK    2  A    between atoms: C3_3  and  C4_5 
REMARK    3  A    between atoms: C4_5  and  N1_6 
REMARK       I    between atoms: N1_6  and  C5_8 
REMARK    4  A    between atoms: C5_8  and  C6_10 
ROOT
HETATM    1  N1  UNL     1      -0.087  -0.524  -0.594  1.00  0.00    -0.335 N 
ATOM      2  H1  UNL     1      -0.733  -0.185  -1.307  1.00  0.00     0.168 HD
HETATM    3  C5  UNL     1      -0.669  -0.537   0.677  1.00  0.00     0.233 C 
HETATM    4  O1  UNL     1      -0.136  -0.851   1.768  1.00  0.00    -0.272 OA
ENDROOT
BRANCH   3   5
HETATM    5  C6  UNL     1      -2.118  -0.127   0.797  1.00  0.00     0.075 A 
HETATM    6  C7  UNL     1      -3.045  -0.850  -0.191  1.00  0.00     0.029 C 
HETATM    7  C8  UNL     1      -2.253   1.407   0.648  1.00  0.00     0.065 A 
HETATM    8  C9  UNL     1      -2.711   0.687   1.870  1.00  0.00     0.130 A 
HETATM    9 CL1  UNL     1      -4.519   0.715   2.018  1.00  0.00    -0.100 Cl
HETATM   10 CL2  UNL     1      -1.883   0.993   3.410  1.00  0.00    -0.100 Cl
ENDBRANCH   3   5
BRANCH   1  11
HETATM   11  C4  UNL     1       1.141  -0.855  -1.125  1.00  0.00     0.109 C 
BRANCH  11  12
HETATM   12  C3  UNL     1       2.423  -0.412  -0.626  1.00  0.00     0.022 C 
HETATM   13 BR1  UNL     1       3.944  -1.082  -1.724  1.00  0.00    -0.050 Br
BRANCH  12  14
HETATM   14  C2  UNL     1       2.701   0.319   0.425  1.00  0.00    -0.011 C 
HETATM   15  C1  UNL     1       4.127   0.629   0.776  1.00  0.00     0.037 C 
ENDBRANCH  12  14
ENDBRANCH  11  12
ENDBRANCH   1  11
TORSDOF 4
