REMARK  9 active torsions:
REMARK  status: ('A' for Active; 'I' for Inactive)
REMARK    1  A    between atoms: N2_3  and  C2_4 
REMARK    2  A    between atoms: N2_3  and  C11_18 
REMARK    3  A    between atoms: C2_4  and  O1_5 
REMARK    4  A    between atoms: C2_4  and  C3_7 
REMARK    5  A    between atoms: C3_7  and  N3_8 
REMARK       I    between atoms: N3_8  and  C4_10 
REMARK    6  A    between atoms: C4_10  and  C5_12 
REMARK    7  A    between atoms: C11_18  and  O3_19 
REMARK    8  A    between atoms: C18_27  and  C19_28 
REMARK    9  A    between atoms: N4_33  and  C23_34 
ROOT
HETATM    1  N1  UNL     1       1.996   4.798  -0.969  1.00  0.00    -0.171 NA
HETATM    2  C1  UNL     1       1.605   3.735  -0.741  1.00  0.00     0.193 C 
HETATM    3  N2  UNL     1       1.079   2.358  -0.463  1.00  0.00    -0.209 N 
ENDROOT
BRANCH   3   4
HETATM    4  C2  UNL     1       2.102   1.547  -0.008  1.00  0.00     0.151 C 
BRANCH   4   5
HETATM    5  O1  UNL     1       3.263   2.181   0.105  1.00  0.00    -0.347 OA
ATOM      6  H1  UNL     1       3.966   1.624   0.418  1.00  0.00     0.219 HD
ENDBRANCH   4   5
BRANCH   4   7
HETATM    7  C3  UNL     1       2.203   0.153   0.378  1.00  0.00     0.208 C 
BRANCH   7   8
HETATM    8  N3  UNL     1       3.579  -0.187   0.757  1.00  0.00    -0.353 N 
HETATM    9  C4  UNL     1       4.600  -0.105  -0.201  1.00  0.00     0.222 C 
HETATM   10  O2  UNL     1       4.481   0.227  -1.404  1.00  0.00    -0.273 OA
ATOM     11  H3  UNL     1       3.792  -0.481   1.710  1.00  0.00     0.162 HD
BRANCH   9  12
HETATM   12  C5  UNL     1       6.000  -0.448   0.231  1.00  0.00     0.078 C 
HETATM   13  C6  UNL     1       6.983  -0.260  -0.900  1.00  0.00     0.014 C 
HETATM   14  C7  UNL     1       8.358  -0.611  -0.349  1.00  0.00     0.001 C 
HETATM   15  C8  UNL     1       8.340  -2.091  -0.062  1.00  0.00     0.000 C 
HETATM   16  C9  UNL     1       7.342  -2.404   1.020  1.00  0.00     0.001 C 
HETATM   17  C10 UNL     1       5.969  -1.883   0.704  1.00  0.00     0.014 C 
ENDBRANCH   9  12
ENDBRANCH   7   8
ENDBRANCH   4   7
ENDBRANCH   3   4
BRANCH   3  18
HETATM   18  C11 UNL     1      -0.271   2.279  -0.746  1.00  0.00     0.160 C 
HETATM   19  C12 UNL     1      -1.347   1.329  -0.671  1.00  0.00    -0.019 C 
HETATM   20  C13 UNL     1      -1.171  -0.068  -1.111  1.00  0.00     0.064 C 
HETATM   21  C17 UNL     1      -2.085   1.438   0.647  1.00  0.00     0.048 C 
HETATM   22  C14 UNL     1      -2.040  -0.909  -0.163  1.00  0.00     0.089 C 
HETATM   23  C15 UNL     1      -1.541  -0.835   1.228  1.00  0.00     0.026 C 
HETATM   24  N4  UNL     1      -3.382  -0.259  -0.346  1.00  0.00    -0.371 N 
HETATM   25  C16 UNL     1      -1.377   0.617   1.679  1.00  0.00     0.013 C 
HETATM   26  C18 UNL     1      -3.502   0.797   0.533  1.00  0.00     0.150 C 
BRANCH  18  27
HETATM   27  O3  UNL     1      -0.715   3.457  -1.238  1.00  0.00    -0.345 OA
ATOM     28  H3  UNL     1      -1.643   3.403  -1.433  1.00  0.00     0.219 HD
ENDBRANCH  18  27
BRANCH  24  29
HETATM   29  C23 UNL     1      -4.293  -1.218  -0.703  1.00  0.00    -0.015 C 
HETATM   30  C24 UNL     1      -4.713  -2.293   0.255  1.00  0.00     0.052 C 
HETATM   31  C25 UNL     1      -6.170  -1.920   0.598  1.00  0.00     0.006 C 
HETATM   32  C26 UNL     1      -6.690  -1.523  -0.762  1.00  0.00     0.006 C 
HETATM   33  C27 UNL     1      -5.526  -0.894  -1.486  1.00  0.00     0.052 C 
ENDBRANCH  24  29
BRANCH  26  34
HETATM   34  C19 UNL     1      -4.502   1.860   0.359  1.00  0.00     0.076 A 
HETATM   35  C20 UNL     1      -4.284   3.184   0.057  1.00  0.00     0.037 A 
HETATM   36  C21 UNL     1      -5.513   3.801   0.001  1.00  0.00     0.027 A 
HETATM   37  C22 UNL     1      -6.432   2.820   0.272  1.00  0.00     0.142 A 
HETATM   38  O4  UNL     1      -5.789   1.712   0.472  1.00  0.00    -0.325 OA
ENDBRANCH  26  34
ENDBRANCH   3  18
TORSDOF 9
