REMARK  1 active torsions:
REMARK  status: ('A' for Active; 'I' for Inactive)
REMARK    1  A    between atoms: O1_2  and  C2_3 
ROOT
HETATM    1  C2  UNL     1       0.535  -0.357   0.063  1.00  0.00     0.262 C 
HETATM    2  C3  UNL     1      -0.264  -0.157  -1.217  1.00  0.00     0.088 C 
HETATM    3  C4  UNL     1      -1.675  -0.648  -0.858  1.00  0.00     0.239 C 
HETATM    4  N1  UNL     1      -2.174   0.339   0.104  1.00  0.00    -0.054 N 
ATOM      5  H11 UNL     1      -3.172   0.250   0.295  1.00  0.00     0.279 HD
ATOM      6  H12 UNL     1      -2.201   1.289  -0.267  1.00  0.00     0.279 HD
HETATM    7  C5  UNL     1      -1.342   0.206   1.295  1.00  0.00     0.402 C 
HETATM    8  O2  UNL     1      -0.282  -0.638   1.129  1.00  0.00    -0.335 OA
ENDROOT
BRANCH   1   9
HETATM    9  O1  UNL     1       1.319   0.738   0.366  1.00  0.00    -0.366 OA
HETATM   10  C1  UNL     1       2.683   0.454   0.349  1.00  0.00     0.204 C 
ENDBRANCH   1   9
TORSDOF 1
