REMARK  1 active torsions:
REMARK  status: ('A' for Active; 'I' for Inactive)
REMARK    1  A    between atoms: N1_4  and  N2_5 
ROOT
HETATM    1  N2  UNL     1       2.191  -0.034  -0.147  1.00  0.00    -0.254 N 
ATOM      2  H2  UNL     1       2.712  -0.803   0.275  1.00  0.00     0.193 HD
HETATM    3  C4  UNL     1       2.710   1.263  -0.053  1.00  0.00     0.193 C 
HETATM    4  N3  UNL     1       3.142   2.347   0.028  1.00  0.00    -0.171 NA
ENDROOT
BRANCH   1   5
HETATM    5  N1  UNL     1       0.994  -0.314  -0.792  1.00  0.00    -0.196 NA
HETATM    6  C3  UNL     1      -0.032   0.644  -0.403  1.00  0.00     0.148 C 
HETATM    7  C2  UNL     1      -1.142  -0.241   0.077  1.00  0.00     0.134 C 
HETATM    8  C1  UNL     1      -2.454   0.410  -0.312  1.00  0.00     0.041 C 
HETATM    9  O1  UNL     1      -0.920  -1.415  -0.632  1.00  0.00    -0.369 OA
HETATM   10  C5  UNL     1       0.469  -1.591  -0.454  1.00  0.00     0.282 C 
ENDBRANCH   1   5
TORSDOF 1
