REMARK  1 active torsions:
REMARK  status: ('A' for Active; 'I' for Inactive)
REMARK    1  A    between atoms: C2_3  and  N2_4 
ROOT
HETATM    1  N1  UNL     1       3.386   2.100   0.071  1.00  0.00    -0.191 NA
HETATM    2  C1  UNL     1       2.835   1.097   0.129  1.00  0.00     0.105 C 
HETATM    3  C2  UNL     1       2.162  -0.171   0.206  1.00  0.00     0.188 C 
ENDROOT
BRANCH   3   4
HETATM    4  N2  UNL     1       0.751  -0.108   0.100  1.00  0.00    -0.341 N 
HETATM    5  C3  UNL     1       0.037  -1.307   0.167  1.00  0.00     0.069 C 
HETATM    6  C4  UNL     1      -1.293  -1.315  -0.545  1.00  0.00     0.045 C 
HETATM    7  C5  UNL     1      -1.809   0.087  -0.796  1.00  0.00     0.010 C 
HETATM    8  C6  UNL     1      -1.376   0.950   0.369  1.00  0.00     0.045 C 
HETATM    9  C7  UNL     1       0.115   1.108   0.318  1.00  0.00     0.069 C 
ENDBRANCH   3   4
TORSDOF 1
