REMARK  2 active torsions:
REMARK  status: ('A' for Active; 'I' for Inactive)
REMARK    1  A    between atoms: C2_2  and  C4_5 
REMARK    2  A    between atoms: C6_7  and  N2_8 
ROOT
HETATM    1  C1  UNL     1      -2.378  -0.907   0.011  1.00  0.00     0.026 C 
HETATM    2  C2  UNL     1      -1.452   0.241   0.361  1.00  0.00     0.093 C 
HETATM    3  C3  UNL     1      -2.170   1.490   0.112  1.00  0.00     0.064 C 
HETATM    4  N1  UNL     1      -2.752   2.489  -0.071  1.00  0.00    -0.197 NA
ENDROOT
BRANCH   2   5
HETATM    5  C4  UNL     1      -0.210   0.248  -0.471  1.00  0.00     0.007 C 
HETATM    6  C5  UNL     1       0.665  -0.975  -0.373  1.00  0.00     0.038 C 
HETATM    7  C6  UNL     1       1.866  -0.019  -0.395  1.00  0.00     0.184 C 
HETATM    8  C7  UNL     1       0.931   1.023   0.168  1.00  0.00     0.038 C 
BRANCH   7   9
HETATM    9  N2  UNL     1       2.933  -0.449   0.431  1.00  0.00    -0.075 N 
ATOM     10  H23 UNL     1       2.612  -0.608   1.386  1.00  0.00     0.274 HD
ATOM     11  H22 UNL     1       3.219  -1.398   0.191  1.00  0.00     0.274 HD
ATOM     12  H21 UNL     1       3.731   0.186   0.416  1.00  0.00     0.274 HD
ENDBRANCH   7   9
ENDBRANCH   2   5
TORSDOF 2
