REMARK  5 active torsions:
REMARK  status: ('A' for Active; 'I' for Inactive)
REMARK    1  A    between atoms: C2_3  and  C3_4 
REMARK    2  A    between atoms: C2_3  and  S1_8 
REMARK    3  A    between atoms: C3_4  and  C4_5 
REMARK    4  A    between atoms: S1_8  and  C5_9 
REMARK    5  A    between atoms: N4_15  and  C7_17 
ROOT
HETATM    1  N1  UNL     1       4.142  -0.266  -2.664  1.00  0.00    -0.196 NA
HETATM    2  C1  UNL     1       4.367  -0.434  -1.555  1.00  0.00     0.075 C 
HETATM    3  C2  UNL     1       4.666  -0.621  -0.157  1.00  0.00     0.171 C 
ENDROOT
BRANCH   3   4
HETATM    4  C3  UNL     1       6.142  -0.682   0.132  1.00  0.00     0.143 C 
BRANCH   4   5
HETATM    5  C4  UNL     1       6.742   0.591  -0.310  1.00  0.00     0.174 C 
HETATM    6  O1  UNL     1       7.328   0.671  -1.411  1.00  0.00    -0.648 OA
HETATM    7  O2  UNL     1       6.656   1.706   0.497  1.00  0.00    -0.648 OA
ENDBRANCH   4   5
ENDBRANCH   3   4
BRANCH   3   8
HETATM    8  S1  UNL     1       3.781  -2.079   0.492  1.00  0.00    -0.083 SA
BRANCH   8   9
HETATM    9  C5  UNL     1       2.027  -1.629   0.443  1.00  0.00     0.131 A 
HETATM   10  N2  UNL     1       1.304  -1.037   1.368  1.00  0.00    -0.286 N 
HETATM   11  N3  UNL     1       0.069  -0.791   1.173  1.00  0.00    -0.279 N 
ATOM     12  H2  UNL     1       1.737  -0.771   2.253  1.00  0.00     0.188 HD
HETATM   13  C6  UNL     1      -0.495  -1.136   0.021  1.00  0.00     0.162 A 
ATOM     14  H3  UNL     1      -0.483  -0.332   1.897  1.00  0.00     0.189 HD
HETATM   15  N4  UNL     1      -1.668  -1.023  -0.449  1.00  0.00    -0.365 N 
HETATM   16  S2  UNL     1       0.877  -1.854  -0.793  1.00  0.00    -0.027 SA
ATOM     17  H4  UNL     1      -1.723  -1.416  -1.389  1.00  0.00     0.162 HD
BRANCH  15  18
HETATM   18  C7  UNL     1      -2.892  -0.520  -0.052  1.00  0.00     0.083 C 
HETATM   19  C8  UNL     1      -2.911   0.544   0.979  1.00  0.00     0.025 C 
HETATM   20  C9  UNL     1      -4.135   1.379   1.074  1.00  0.00     0.002 C 
HETATM   21  C10 UNL     1      -5.162   1.258   0.033  1.00  0.00     0.000 C 
HETATM   22  C11 UNL     1      -5.073   0.084  -0.879  1.00  0.00     0.002 C 
HETATM   23  C12 UNL     1      -3.637  -0.058  -1.330  1.00  0.00     0.025 C 
ENDBRANCH  15  18
ENDBRANCH   8   9
ENDBRANCH   3   8
TORSDOF 5
