REMARK  7 active torsions:
REMARK  status: ('A' for Active; 'I' for Inactive)
REMARK    1  A    between atoms: S1_2  and  C2_3 
REMARK    2  A    between atoms: N4_15  and  C5_16 
REMARK    3  A    between atoms: C5_16  and  O4_17 
REMARK    4  A    between atoms: C5_16  and  C6_19 
REMARK    5  A    between atoms: C6_19  and  N5_20 
REMARK    6  A    between atoms: C6_19  and  C7_24 
REMARK    7  A    between atoms: C8_26  and  C9_27 
ROOT
HETATM    1  C2  UNL     1      -1.565   0.799  -0.807  1.00  0.00     0.239 C 
HETATM    2  O1  UNL     1      -2.318  -0.300  -0.550  1.00  0.00    -0.265 OA
HETATM    3  N1  UNL     1      -2.989  -0.199   0.647  1.00  0.00    -0.056 NA
HETATM    4  C3  UNL     1      -2.309  -1.221   1.469  1.00  0.00     0.347 C 
HETATM    5  N2  UNL     1      -0.953  -0.871   1.495  1.00  0.00    -0.352 N 
ATOM      6  H2  UNL     1      -0.559  -0.291   2.236  1.00  0.00     0.159 HD
HETATM    7  C4  UNL     1      -0.177  -1.360   0.453  1.00  0.00     0.296 C 
HETATM    8  N3  UNL     1      -0.838  -2.309  -0.367  1.00  0.00    -0.278 N 
ATOM      9  H3  UNL     1      -0.504  -2.690  -1.252  1.00  0.00     0.176 HD
HETATM   10  S2  UNL     1      -2.304  -2.687   0.422  1.00  0.00     0.268 S 
HETATM   11  O2  UNL     1      -2.181  -3.899   1.266  1.00  0.00    -0.202 OA
HETATM   12  O3  UNL     1      -3.480  -2.702  -0.492  1.00  0.00    -0.202 OA
HETATM   13  N4  UNL     1       0.565  -0.350  -0.234  1.00  0.00    -0.332 N 
HETATM   14  C8  UNL     1      -0.112   0.625  -0.967  1.00  0.00     0.215 C 
ENDROOT
BRANCH  13  15
HETATM   15  C5  UNL     1       1.639   0.229   0.518  1.00  0.00     0.257 C 
BRANCH  15  16
HETATM   16  O4  UNL     1       1.161   0.887   1.648  1.00  0.00    -0.374 OA
ATOM     17  H4  UNL     1       1.873   1.271   2.146  1.00  0.00     0.212 HD
ENDBRANCH  15  16
BRANCH  15  18
HETATM   18  C6  UNL     1       2.730  -0.699   0.920  1.00  0.00     0.292 C 
BRANCH  18  19
HETATM   19  N5  UNL     1       3.779   0.109   1.532  1.00  0.00    -0.065 N 
ATOM     20  H53 UNL     1       4.101   0.868   0.931  1.00  0.00     0.275 HD
ATOM     21  H52 UNL     1       3.441   0.686   2.302  1.00  0.00     0.275 HD
ATOM     22  H51 UNL     1       4.527  -0.527   1.808  1.00  0.00     0.275 HD
ENDBRANCH  18  19
BRANCH  18  23
HETATM   23  C7  UNL     1       3.322  -1.448  -0.196  1.00  0.00     0.268 C 
HETATM   24  O5  UNL     1       4.481  -1.343  -0.483  1.00  0.00    -0.304 OA
ENDBRANCH  18  23
ENDBRANCH  15  18
ENDBRANCH  13  15
BRANCH  14  25
HETATM   25  C9  UNL     1       0.213   0.428  -2.430  1.00  0.00     0.257 C 
HETATM   26  N6  UNL     1      -0.329   1.263  -3.445  1.00  0.00    -0.060 NA
HETATM   27  O6  UNL     1       0.983  -0.490  -2.823  1.00  0.00    -0.274 OA
ENDBRANCH  14  25
BRANCH   1  28
HETATM   28  S1  UNL     1      -1.974   2.064   0.462  1.00  0.00    -0.137 SA
HETATM   29  C1  UNL     1      -1.036   3.569   0.228  1.00  0.00     0.092 C 
ENDBRANCH   1  28
TORSDOF 7
