REMARK  4 active torsions:
REMARK  status: ('A' for Active; 'I' for Inactive)
REMARK    1  A    between atoms: O1_1  and  C1_3 
REMARK    2  A    between atoms: N2_7  and  C3_9 
REMARK    3  A    between atoms: C9_16  and  C10_17 
REMARK    4  A    between atoms: N3_18  and  N4_20 
ROOT
HETATM    1  C1  UNL     1       0.565   0.375  -1.716  1.00  0.00     0.179 A 
HETATM    2  N1  UNL     1      -0.773   0.457  -1.971  1.00  0.00    -0.300 N 
ATOM      3  H1  UNL     1      -1.197   0.595  -2.888  1.00  0.00     0.171 HD
HETATM    4  C2  UNL     1      -1.432   0.327  -0.820  1.00  0.00     0.227 A 
HETATM    5  N2  UNL     1      -2.704   0.352  -0.668  1.00  0.00    -0.351 N 
ATOM      6  H2  UNL     1      -3.310   0.482  -1.478  1.00  0.00     0.163 HD
HETATM    7  O2  UNL     1      -0.560   0.171   0.120  1.00  0.00    -0.274 OA
HETATM    8  C9  UNL     1       0.666   0.190  -0.351  1.00  0.00     0.146 A 
ENDROOT
BRANCH   8   9
HETATM    9  C10 UNL     1       1.910   0.046   0.390  1.00  0.00     0.148 C 
HETATM   10  N3  UNL     1       3.029   0.088  -0.222  1.00  0.00    -0.311 N 
ATOM     11  H3  UNL     1       3.012   0.224  -1.233  1.00  0.00     0.185 HD
BRANCH  10  12
HETATM   12  N4  UNL     1       4.267  -0.038   0.391  1.00  0.00    -0.324 N 
HETATM   13  C11 UNL     1       4.583  -1.240   1.122  1.00  0.00     0.168 C 
HETATM   14  C12 UNL     1       5.749  -1.913   0.436  1.00  0.00     0.189 C 
HETATM   15  O3  UNL     1       6.387  -1.012  -0.378  1.00  0.00    -0.388 OA
HETATM   16  C13 UNL     1       6.606   0.232   0.211  1.00  0.00     0.189 C 
HETATM   17  C14 UNL     1       5.277   0.995   0.332  1.00  0.00     0.168 C 
ENDBRANCH  10  12
ENDBRANCH   8   9
BRANCH   1  18
HETATM   18  O1  UNL     1       1.594   0.464  -2.655  1.00  0.00    -0.344 OA
ATOM     19  H1  UNL     1       2.526   0.407  -2.477  1.00  0.00     0.219 HD
ENDBRANCH   1  18
BRANCH   5  20
HETATM   20  C3  UNL     1      -3.286   0.197   0.650  1.00  0.00     0.085 C 
HETATM   21  C4  UNL     1      -4.160  -1.029   0.704  1.00  0.00     0.025 C 
HETATM   22  C5  UNL     1      -5.609  -0.718   0.863  1.00  0.00     0.002 C 
HETATM   23  C6  UNL     1      -6.123   0.290  -0.123  1.00  0.00     0.000 C 
HETATM   24  C7  UNL     1      -5.153   1.417  -0.320  1.00  0.00     0.002 C 
HETATM   25  C8  UNL     1      -4.196   1.413   0.854  1.00  0.00     0.025 C 
ENDBRANCH   5  20
TORSDOF 4
