REMARK  13 active torsions:
REMARK  status: ('A' for Active; 'I' for Inactive)
REMARK    1  A    between atoms: C2_2  and  C3_7 
REMARK    2  A    between atoms: N1_3  and  O1_5 
REMARK       I    between atoms: C3_7  and  N2_9 
REMARK    3  A    between atoms: N2_9  and  C4_11 
REMARK    4  A    between atoms: C4_11  and  O3_12 
REMARK    5  A    between atoms: C5_14  and  O4_15 
REMARK    6  A    between atoms: C6_17  and  O5_18 
REMARK    7  A    between atoms: O5_18  and  C7_19 
REMARK    8  A    between atoms: C9_23  and  N3_24 
REMARK    9  A    between atoms: C9_23  and  C10_28 
REMARK   10  A    between atoms: C10_28  and  O9_30 
REMARK   11  A    between atoms: O9_30  and  C11_31 
REMARK   12  A    between atoms: C16_36  and  N4_37 
REMARK   13  A    between atoms: C17_41  and  N5_43 
ROOT
HETATM    1  C4  UNL     1      -3.916   1.022   1.186  1.00  0.00     0.182 C 
HETATM    2  C5  UNL     1      -2.569   1.486   0.683  1.00  0.00     0.206 C 
HETATM    3  C6  UNL     1      -1.900   0.253   0.104  1.00  0.00     0.195 C 
HETATM    4  C17 UNL     1      -2.624  -0.905   0.734  1.00  0.00     0.169 C 
HETATM    5  C18 UNL     1      -3.287  -1.753  -0.329  1.00  0.00     0.051 C 
HETATM    6  C19 UNL     1      -3.613  -0.339   1.713  1.00  0.00     0.178 C 
HETATM    7 CL1  UNL     1      -2.807  -0.186   3.312  1.00  0.00    -0.117 Cl
ENDROOT
BRANCH   3   8
HETATM    8  O5  UNL     1      -0.567   0.184   0.411  1.00  0.00    -0.348 OA
BRANCH   8   9
HETATM    9  C7  UNL     1       0.288   0.188  -0.693  1.00  0.00     0.300 C 
HETATM   10  O6  UNL     1       0.986   1.444  -0.579  1.00  0.00    -0.285 OA
HETATM   11  C8  UNL     1       2.292   1.424  -0.135  1.00  0.00     0.308 C 
HETATM   12  O7  UNL     1       2.720   2.037   0.889  1.00  0.00    -0.262 OA
HETATM   13  C9  UNL     1       3.270   0.612  -0.933  1.00  0.00     0.297 C 
HETATM   14  C15 UNL     1       2.487  -0.519  -1.558  1.00  0.00     0.098 C 
HETATM   15  C16 UNL     1       1.349  -0.881  -0.633  1.00  0.00     0.242 C 
BRANCH  13  16
HETATM   16  N3  UNL     1       3.884   1.448  -1.957  1.00  0.00    -0.051 N 
ATOM     17  H33 UNL     1       3.189   1.902  -2.549  1.00  0.00     0.276 HD
ATOM     18  H32 UNL     1       4.312   2.286  -1.563  1.00  0.00     0.276 HD
ATOM     19  H31 UNL     1       4.549   0.896  -2.499  1.00  0.00     0.276 HD
ENDBRANCH  13  16
BRANCH  13  20
HETATM   20  C10 UNL     1       4.326   0.030  -0.082  1.00  0.00     0.306 C 
HETATM   21  O8  UNL     1       4.119  -0.728   0.896  1.00  0.00    -0.262 OA
BRANCH  20  22
HETATM   22  O9  UNL     1       5.662   0.332  -0.368  1.00  0.00    -0.309 OA
BRANCH  22  23
HETATM   23  C11 UNL     1       6.729  -0.184   0.398  1.00  0.00     0.060 C 
HETATM   24  C12 UNL     1       8.027   0.353  -0.200  1.00  0.00     0.045 C 
HETATM   25  C13 UNL     1       6.678   0.193   1.847  1.00  0.00     0.045 C 
HETATM   26  C14 UNL     1       6.750  -1.690   0.185  1.00  0.00     0.045 C 
ENDBRANCH  22  23
ENDBRANCH  20  22
ENDBRANCH  13  20
BRANCH  15  27
HETATM   27  N4  UNL     1       0.845  -2.173  -1.064  1.00  0.00    -0.070 N 
ATOM     28  H43 UNL     1       0.017  -2.443  -0.533  1.00  0.00     0.274 HD
ATOM     29  H42 UNL     1       0.429  -2.117  -1.993  1.00  0.00     0.274 HD
ATOM     30  H41 UNL     1       1.563  -2.896  -1.023  1.00  0.00     0.274 HD
ENDBRANCH  15  27
ENDBRANCH   8   9
ENDBRANCH   3   8
BRANCH   2  31
HETATM   31  O4  UNL     1      -1.799   2.084   1.662  1.00  0.00    -0.388 OA
ATOM     32  H4  UNL     1      -0.952   2.376   1.346  1.00  0.00     0.210 HD
ENDBRANCH   2  31
BRANCH   4  33
HETATM   33  N5  UNL     1      -1.725  -1.755   1.532  1.00  0.00    -0.067 N 
ATOM     34  H53 UNL     1      -0.930  -2.074   0.978  1.00  0.00     0.275 HD
ATOM     35  H52 UNL     1      -1.225  -1.208   2.232  1.00  0.00     0.275 HD
ATOM     36  H51 UNL     1      -2.216  -2.540   1.959  1.00  0.00     0.275 HD
ENDBRANCH   4  33
BRANCH   1  37
HETATM   37  N2  UNL     1      -4.892   0.933   0.127  1.00  0.00    -0.321 N 
HETATM   38  C3  UNL     1      -6.219   0.535   0.385  1.00  0.00     0.268 C 
HETATM   39  O2  UNL     1      -6.545   0.254   1.576  1.00  0.00    -0.266 OA
ATOM     40  H2  UNL     1      -4.616   1.163  -0.828  1.00  0.00     0.166 HD
BRANCH  38  41
HETATM   41  C2  UNL     1      -7.241   0.426  -0.633  1.00  0.00     0.095 C 
HETATM   42  C1  UNL     1      -6.974   0.729  -2.075  1.00  0.00     0.076 C 
HETATM   43  N1  UNL     1      -8.440   0.059  -0.346  1.00  0.00    -0.268 N 
ATOM     44  H1  UNL     1      -8.651  -0.154   0.629  1.00  0.00     0.194 HD
BRANCH  43  45
HETATM   45  O1  UNL     1      -9.440  -0.064  -1.247  1.00  0.00    -0.290 OA
ATOM     46  H1  UNL     1     -10.325  -0.335  -1.035  1.00  0.00     0.244 HD
ENDBRANCH  43  45
ENDBRANCH  38  41
ENDBRANCH   1  37
BRANCH   1  47
HETATM   47  O3  UNL     1      -4.384   1.888   2.176  1.00  0.00    -0.367 OA
ATOM     48  H3  UNL     1      -3.741   1.947   2.873  1.00  0.00     0.212 HD
ENDBRANCH   1  47
TORSDOF 13
