REMARK  5 active torsions:
REMARK  status: ('A' for Active; 'I' for Inactive)
REMARK       I    between atoms: C1_2  and  N3_14 
REMARK       I    between atoms: N2_3  and  C2_5 
REMARK    1  A    between atoms: C2_5  and  C3_7 
REMARK    2  A    between atoms: C3_7  and  C4_8 
REMARK    3  A    between atoms: N3_14  and  C10_16 
REMARK    4  A    between atoms: C10_16  and  C11_17 
REMARK       I    between atoms: C11_17  and  N4_19 
REMARK    5  A    between atoms: N4_19  and  C12_21 
ROOT
HETATM    1  N1  UNL     1      -1.125  -2.893  -0.325  1.00  0.00    -0.063 NA
HETATM    2  C1  UNL     1      -0.694  -1.694   0.300  1.00  0.00     0.191 C 
HETATM    3  N2  UNL     1      -1.486  -0.966   0.981  1.00  0.00    -0.301 N 
ATOM      4  H2  UNL     1      -1.103  -0.119   1.400  1.00  0.00     0.171 HD
HETATM    5  C2  UNL     1      -2.847  -1.239   1.200  1.00  0.00     0.224 C 
HETATM    6  O1  UNL     1      -3.320  -1.259   2.370  1.00  0.00    -0.273 OA
HETATM    7  N3  UNL     1       0.682  -1.281   0.146  1.00  0.00    -0.356 N 
ATOM      8  H3  UNL     1       1.441  -1.959   0.080  1.00  0.00     0.162 HD
ENDROOT
BRANCH   7   9
HETATM    9  C10 UNL     1       0.925   0.129   0.091  1.00  0.00     0.225 C 
BRANCH   9  10
HETATM   10  C11 UNL     1       2.312   0.546  -0.090  1.00  0.00     0.235 C 
HETATM   11  O2  UNL     1       2.513   1.816  -0.134  1.00  0.00    -0.272 OA
HETATM   12  N4  UNL     1       3.443  -0.299  -0.219  1.00  0.00    -0.355 N 
ATOM     13  H4  UNL     1       3.335  -1.313  -0.189  1.00  0.00     0.162 HD
BRANCH  12  14
HETATM   14  C12 UNL     1       4.743   0.289  -0.392  1.00  0.00     0.084 C 
HETATM   15  C13 UNL     1       5.708  -0.050   0.747  1.00  0.00     0.025 C 
HETATM   16  C14 UNL     1       6.828   0.960   0.613  1.00  0.00     0.002 C 
HETATM   17  C15 UNL     1       7.489   0.972  -0.710  1.00  0.00     0.000 C 
HETATM   18  C16 UNL     1       6.640   0.712  -1.888  1.00  0.00     0.002 C 
HETATM   19  C17 UNL     1       5.450  -0.158  -1.654  1.00  0.00     0.025 C 
ENDBRANCH  12  14
ENDBRANCH   9  10
ENDBRANCH   7   9
BRANCH   5  20
HETATM   20  C3  UNL     1      -3.820  -1.517   0.082  1.00  0.00     0.108 C 
BRANCH  20  21
HETATM   21  C4  UNL     1      -4.930  -0.497   0.271  1.00  0.00    -0.006 C 
HETATM   22  C5  UNL     1      -4.362   0.906   0.177  1.00  0.00     0.005 C 
HETATM   23  C6  UNL     1      -5.444   1.875   0.565  1.00  0.00     0.000 C 
HETATM   24  C7  UNL     1      -6.560   1.768  -0.472  1.00  0.00     0.000 C 
HETATM   25  C8  UNL     1      -7.087   0.359  -0.543  1.00  0.00     0.000 C 
HETATM   26  C9  UNL     1      -5.990  -0.650  -0.779  1.00  0.00     0.005 C 
ENDBRANCH  20  21
ENDBRANCH   5  20
TORSDOF 5
