REMARK  5 active torsions:
REMARK  status: ('A' for Active; 'I' for Inactive)
REMARK    1  A    between atoms: C2_2  and  C4_4 
REMARK    2  A    between atoms: C4_4  and  C5_5 
REMARK    3  A    between atoms: C5_5  and  O1_6 
REMARK    4  A    between atoms: C5_5  and  N1_8 
REMARK    5  A    between atoms: N1_8  and  N2_10 
ROOT
HETATM    1  N2  UNL     1       0.143  -1.528  -0.505  1.00  0.00    -0.307 N 
ATOM      2  H2  UNL     1       0.147  -2.520  -0.743  1.00  0.00     0.186 HD
HETATM    3  C6  UNL     1      -0.956  -0.852  -0.542  1.00  0.00     0.004 C 
HETATM    4  C7  UNL     1      -2.076  -1.754  -0.963  1.00  0.00     0.054 C 
HETATM    5  C8  UNL     1      -2.974  -2.074   0.195  1.00  0.00     0.006 C 
HETATM    6  C9  UNL     1      -3.949  -0.913   0.365  1.00  0.00     0.000 C 
HETATM    7  C10 UNL     1      -3.350   0.144   1.227  1.00  0.00     0.000 C 
HETATM    8  C11 UNL     1      -3.072   1.436   0.519  1.00  0.00     0.000 C 
HETATM    9  C12 UNL     1      -2.062   1.341  -0.571  1.00  0.00     0.006 C 
HETATM   10  C13 UNL     1      -0.818   0.581  -0.170  1.00  0.00     0.054 C 
ENDROOT
BRANCH   1  11
HETATM   11  N1  UNL     1       1.355  -0.869  -0.126  1.00  0.00    -0.280 N 
ATOM     12  H1  UNL     1       1.556  -0.656   0.851  1.00  0.00     0.189 HD
BRANCH  11  13
HETATM   13  C5  UNL     1       2.256  -0.526  -1.141  1.00  0.00     0.154 C 
BRANCH  13  14
HETATM   14  C4  UNL     1       3.520   0.124  -1.075  1.00  0.00     0.059 C 
BRANCH  14  15
HETATM   15  C2  UNL     1       4.174   0.569  -0.069  1.00  0.00    -0.084 C 
HETATM   16  C1  UNL     1       3.762   0.516   1.329  1.00  0.00     0.043 C 
HETATM   17  C3  UNL     1       5.531   1.226  -0.344  1.00  0.00     0.043 C 
ENDBRANCH  14  15
ENDBRANCH  13  14
BRANCH  13  18
HETATM   18  O1  UNL     1       1.810  -0.886  -2.335  1.00  0.00    -0.345 OA
ATOM     19  H1  UNL     1       0.966  -1.320  -2.379  1.00  0.00     0.219 HD
ENDBRANCH  13  18
ENDBRANCH  11  13
ENDBRANCH   1  11
TORSDOF 5
