REMARK  1 active torsions:
REMARK  status: ('A' for Active; 'I' for Inactive)
REMARK    1  A    between atoms: O1_1  and  C1_3 
ROOT
HETATM    1  C1  UNL     1       5.125  -0.400  -0.602  1.00  0.00     0.122 C 
HETATM    2  C2  UNL     1       5.081   1.033  -1.062  1.00  0.00     0.032 C 
HETATM    3  C3  UNL     1       4.069   1.740  -0.149  1.00  0.00     0.007 C 
HETATM    4  C4  UNL     1       2.738   1.153  -0.472  1.00  0.00     0.064 C 
HETATM    5  C5  UNL     1       2.631  -0.317  -0.256  1.00  0.00     0.170 C 
HETATM    6  C6  UNL     1       3.831  -1.108  -0.648  1.00  0.00     0.095 C 
HETATM    7  N1  UNL     1       2.223  -0.569   1.073  1.00  0.00    -0.366 N 
ATOM      8  H1  UNL     1       2.940  -0.700   1.787  1.00  0.00     0.161 HD
HETATM    9  C7  UNL     1       1.032  -0.638   1.410  1.00  0.00     0.107 C 
HETATM   10  C8  UNL     1      -0.106  -0.466   0.463  1.00  0.00     0.180 C 
HETATM   11  O2  UNL     1       0.453  -0.197  -0.721  1.00  0.00    -0.214 OA
HETATM   12  O3  UNL     1       1.554  -0.776  -1.054  1.00  0.00    -0.206 OA
HETATM   13  C9  UNL     1      -0.984   0.537   1.092  1.00  0.00     0.170 C 
HETATM   14  C10 UNL     1      -1.596   1.653   0.259  1.00  0.00     0.042 C 
HETATM   15  C11 UNL     1      -2.987   1.351   0.092  1.00  0.00     0.014 C 
HETATM   16  C12 UNL     1      -4.236   2.004  -0.113  1.00  0.00     0.237 C 
HETATM   17  N2  UNL     1      -5.192   0.860  -0.158  1.00  0.00    -0.074 N 
ATOM     18  H21 UNL     1      -5.518   0.709  -1.113  1.00  0.00     0.277 HD
ATOM     19  H22 UNL     1      -6.072   1.117   0.290  1.00  0.00     0.277 HD
HETATM   20  C13 UNL     1      -4.683  -0.383   0.404  1.00  0.00     0.239 C 
HETATM   21  C14 UNL     1      -3.366  -0.898  -0.201  1.00  0.00     0.045 C 
HETATM   22  C15 UNL     1      -2.983   0.278  -0.985  1.00  0.00     0.015 C 
HETATM   23  C16 UNL     1      -2.360  -1.229   0.823  1.00  0.00     0.161 C 
HETATM   24  O4  UNL     1      -1.964  -0.262   1.722  1.00  0.00    -0.372 OA
HETATM   25  C17 UNL     1      -1.020  -1.708   0.471  1.00  0.00     0.001 C 
HETATM   26  C18 UNL     1      -0.765  -2.752  -0.473  1.00  0.00     0.065 C 
HETATM   27 BR1  UNL     1      -0.798  -2.553  -2.337  1.00  0.00    -0.063 Br
ENDROOT
BRANCH   1  28
HETATM   28  O1  UNL     1       5.712  -0.432   0.664  1.00  0.00    -0.395 OA
ATOM     29  H1  UNL     1       5.740  -1.336   0.954  1.00  0.00     0.210 HD
ENDBRANCH   1  28
TORSDOF 1
