REMARK  5 active torsions:
REMARK  status: ('A' for Active; 'I' for Inactive)
REMARK    1  A    between atoms: C2_2  and  N1_3 
REMARK    2  A    between atoms: C2_2  and  C6_9 
REMARK    3  A    between atoms: N1_3  and  C3_6 
REMARK    4  A    between atoms: C6_9  and  N2_10 
REMARK    5  A    between atoms: C6_9  and  C7_14 
ROOT
HETATM    1  C1  UNL     1      -0.253  -1.840   0.165  1.00  0.00     0.042 C 
HETATM    2  C2  UNL     1      -0.645  -0.417   0.458  1.00  0.00     0.219 C 
ENDROOT
BRANCH   2   3
HETATM    3  N1  UNL     1       0.324   0.515  -0.028  1.00  0.00    -0.065 N 
ATOM      4  H12 UNL     1       0.399   0.455  -1.043  1.00  0.00     0.278 HD
ATOM      5  H11 UNL     1      -0.022   1.470   0.064  1.00  0.00     0.278 HD
BRANCH   3   6
HETATM    6  C3  UNL     1       1.608   0.390   0.575  1.00  0.00     0.186 A 
HETATM    7  C4  UNL     1       2.635   1.387  -0.021  1.00  0.00     0.035 A 
HETATM    8  C5  UNL     1       2.807  -0.113  -0.089  1.00  0.00     0.035 A 
ENDBRANCH   3   6
ENDBRANCH   2   3
BRANCH   2   9
HETATM    9  C6  UNL     1      -2.044  -0.135   0.016  1.00  0.00     0.274 C 
BRANCH   9  10
HETATM   10  N2  UNL     1      -2.292  -0.315  -1.378  1.00  0.00    -0.067 N 
ATOM     11  H23 UNL     1      -1.633   0.239  -1.925  1.00  0.00     0.275 HD
ATOM     12  H22 UNL     1      -2.017  -1.255  -1.664  1.00  0.00     0.275 HD
ATOM     13  H21 UNL     1      -3.247  -0.122  -1.680  1.00  0.00     0.275 HD
ENDBRANCH   9  10
BRANCH   9  14
HETATM   14  C7  UNL     1      -2.499   1.205   0.489  1.00  0.00     0.266 C 
HETATM   15  O1  UNL     1      -2.999   1.966  -0.294  1.00  0.00    -0.305 OA
ENDBRANCH   9  14
ENDBRANCH   2   9
TORSDOF 5
