REMARK  7 active torsions:
REMARK  status: ('A' for Active; 'I' for Inactive)
REMARK    1  A    between atoms: C6_10  and  C7_11 
REMARK    2  A    between atoms: C7_11  and  C10_14 
REMARK    3  A    between atoms: C14_18  and  C15_19 
REMARK    4  A    between atoms: C15_19  and  O2_21 
REMARK    5  A    between atoms: O2_21  and  C16_22 
REMARK    6  A    between atoms: C16_22  and  C17_23 
REMARK    7  A    between atoms: C17_23  and  C18_25 
ROOT
HETATM    1  C1  UNL     1       0.674  -3.311   0.689  1.00  0.00     0.051 C 
HETATM    2  C2  UNL     1      -0.658  -2.653   0.521  1.00  0.00    -0.020 A 
HETATM    3  C3  UNL     1      -1.763  -3.466   0.525  1.00  0.00     0.090 A 
HETATM    4  C4  UNL     1      -1.653  -4.886   0.682  1.00  0.00     0.103 C 
HETATM    5  N1  UNL     1      -1.578  -6.046   0.815  1.00  0.00    -0.191 NA
HETATM    6  C5  UNL     1      -2.984  -2.854   0.372  1.00  0.00     0.125 A 
HETATM    7 CL1  UNL     1      -4.452  -3.849   0.368  1.00  0.00    -0.063 Cl
HETATM    8  N2  UNL     1      -3.066  -1.529   0.227  1.00  0.00    -0.347 N 
ATOM      9  H2  UNL     1      -3.990  -1.112   0.116  1.00  0.00     0.167 HD
HETATM   10  C6  UNL     1      -1.987  -0.708   0.220  1.00  0.00     0.036 A 
HETATM   11  C14 UNL     1      -0.750  -1.261   0.368  1.00  0.00     0.070 A 
ENDROOT
BRANCH  11  12
HETATM   12  C15 UNL     1       0.489  -0.497   0.358  1.00  0.00     0.296 C 
HETATM   13  O1  UNL     1       1.022  -0.040   1.386  1.00  0.00    -0.259 OA
BRANCH  12  14
HETATM   14  O2  UNL     1       1.108  -0.265  -0.852  1.00  0.00    -0.310 OA
BRANCH  14  15
HETATM   15  C16 UNL     1       2.281   0.439  -1.077  1.00  0.00     0.258 C 
BRANCH  15  16
HETATM   16  C17 UNL     1       3.492  -0.080  -0.412  1.00  0.00     0.158 C 
HETATM   17  O3  UNL     1       3.481  -1.063   0.289  1.00  0.00    -0.295 OA
BRANCH  16  18
HETATM   18  C18 UNL     1       4.779   0.630  -0.611  1.00  0.00     0.012 C 
HETATM   19  C19 UNL     1       5.893  -0.051   0.146  1.00  0.00     0.022 C 
HETATM   20  C20 UNL     1       5.182   0.669  -2.067  1.00  0.00     0.022 C 
HETATM   21  C21 UNL     1       4.615   2.027  -0.040  1.00  0.00     0.022 C 
ENDBRANCH  16  18
ENDBRANCH  15  16
ENDBRANCH  14  15
ENDBRANCH  12  14
ENDBRANCH  11  12
BRANCH  10  22
HETATM   22  C7  UNL     1      -2.178   0.758   0.059  1.00  0.00     0.003 C 
HETATM   23  C8  UNL     1      -1.670   1.519   1.243  1.00  0.00     0.022 C 
HETATM   24  C9  UNL     1      -1.620   1.276  -1.250  1.00  0.00     0.022 C 
BRANCH  22  25
HETATM   25  C10 UNL     1      -3.687   1.047  -0.013  1.00  0.00    -0.039 C 
HETATM   26  C11 UNL     1      -3.871   2.543  -0.171  1.00  0.00     0.015 C 
HETATM   27  C12 UNL     1      -4.385   0.616   1.246  1.00  0.00     0.015 C 
HETATM   28  C13 UNL     1      -4.284   0.387  -1.251  1.00  0.00     0.015 C 
ENDBRANCH  22  25
ENDBRANCH  10  22
TORSDOF 7
