REMARK  14 active torsions:
REMARK  status: ('A' for Active; 'I' for Inactive)
REMARK    1  A    between atoms: C2_2  and  C3_3 
REMARK    2  A    between atoms: C3_3  and  O2_5 
REMARK    3  A    between atoms: O2_5  and  C4_6 
REMARK    4  A    between atoms: C4_6  and  C5_8 
REMARK    5  A    between atoms: C5_8  and  O4_9 
REMARK    6  A    between atoms: O4_9  and  C6_10 
REMARK    7  A    between atoms: C6_10  and  C7_12 
REMARK    8  A    between atoms: C7_12  and  C8_13 
REMARK    9  A    between atoms: C8_13  and  C9_14 
REMARK   10  A    between atoms: C14_20  and  O7_22 
REMARK   11  A    between atoms: C16_24  and  O8_25 
REMARK   12  A    between atoms: C21_33  and  C22_34 
REMARK   13  A    between atoms: C22_34  and  O11_35 
REMARK   14  A    between atoms: C25_39  and  O12_40 
ROOT
HETATM    1  C5  UNL     1      -0.374   0.897  -0.887  1.00  0.00     0.185 C 
HETATM    2  C12 UNL     1      -1.048   1.032  -2.199  1.00  0.00     0.140 C 
HETATM    3  C13 UNL     1      -0.526  -0.182  -2.983  1.00  0.00     0.174 C 
HETATM    4  O6  UNL     1       0.039   0.007  -4.041  1.00  0.00    -0.294 OA
HETATM    5  C14 UNL     1      -0.723  -1.552  -2.432  1.00  0.00     0.150 C 
HETATM    6  C15 UNL     1       0.475  -2.460  -2.579  1.00  0.00     0.058 C 
HETATM    7  C16 UNL     1      -1.285  -1.440  -1.042  1.00  0.00     0.127 C 
HETATM    8  C17 UNL     1      -0.514  -2.165  -0.015  1.00  0.00     0.019 C 
HETATM    9  C18 UNL     1      -0.984  -2.858   0.999  1.00  0.00     0.051 C 
HETATM   10  C19 UNL     1      -2.333  -3.109   1.410  1.00  0.00     0.172 C 
HETATM   11  O9  UNL     1      -2.778  -4.312   1.236  1.00  0.00    -0.291 OA
HETATM   12  C20 UNL     1      -3.300  -2.149   2.025  1.00  0.00     0.251 C 
HETATM   13  O10 UNL     1      -3.959  -1.329   1.185  1.00  0.00    -0.370 OA
HETATM   14  C21 UNL     1      -3.569  -0.070   0.947  1.00  0.00     0.083 C 
HETATM   15  C23 UNL     1      -4.293   0.470  -0.277  1.00  0.00     0.043 C 
HETATM   16  C24 UNL     1      -3.392   1.469  -1.053  1.00  0.00     0.043 C 
HETATM   17  C25 UNL     1      -2.357   0.688  -1.649  1.00  0.00     0.086 C 
HETATM   18  C26 UNL     1      -1.533  -0.038  -0.575  1.00  0.00     0.074 C 
HETATM   19  C27 UNL     1      -2.087   0.144   0.770  1.00  0.00     0.060 C 
ENDROOT
BRANCH   1  20
HETATM   20  C4  UNL     1      -0.165   2.105  -0.122  1.00  0.00     0.304 C 
HETATM   21  O3  UNL     1      -0.906   3.093  -0.186  1.00  0.00    -0.261 OA
BRANCH  20  22
HETATM   22  O2  UNL     1       0.906   2.286   0.785  1.00  0.00    -0.243 OA
BRANCH  22  23
HETATM   23  C3  UNL     1       1.082   3.448   1.508  1.00  0.00     0.265 C 
HETATM   24  O1  UNL     1       0.254   4.373   1.349  1.00  0.00    -0.265 OA
BRANCH  23  25
HETATM   25  C2  UNL     1       2.235   3.608   2.462  1.00  0.00     0.107 C 
HETATM   26  C1  UNL     1       2.174   4.943   3.124  1.00  0.00     0.015 C 
ENDBRANCH  23  25
ENDBRANCH  22  23
ENDBRANCH  20  22
ENDBRANCH   1  20
BRANCH   1  27
HETATM   27  O4  UNL     1       0.897   0.219  -0.824  1.00  0.00    -0.297 OA
BRANCH  27  28
HETATM   28  C6  UNL     1       1.978   0.894  -1.352  1.00  0.00     0.260 C 
HETATM   29  O5  UNL     1       1.717   2.028  -1.885  1.00  0.00    -0.265 OA
BRANCH  28  30
HETATM   30  C7  UNL     1       3.341   0.362  -1.307  1.00  0.00     0.111 C 
BRANCH  30  31
HETATM   31  C8  UNL     1       3.436  -0.824  -0.426  1.00  0.00     0.013 C 
BRANCH  31  32
HETATM   32  C9  UNL     1       4.835  -1.399  -0.309  1.00  0.00    -0.022 C 
HETATM   33  C10 UNL     1       5.841  -0.457   0.248  1.00  0.00     0.009 C 
HETATM   34  C11 UNL     1       4.712  -2.618   0.579  1.00  0.00     0.009 C 
ENDBRANCH  31  32
ENDBRANCH  30  31
ENDBRANCH  28  30
ENDBRANCH  27  28
ENDBRANCH   1  27
BRANCH  17  35
HETATM   35  O12 UNL     1      -3.054  -0.219  -2.518  1.00  0.00    -0.388 OA
ATOM     36  H12 UNL     1      -3.905  -0.443  -2.160  1.00  0.00     0.210 HD
ENDBRANCH  17  35
BRANCH   7  37
HETATM   37  O8  UNL     1      -2.516  -2.136  -1.126  1.00  0.00    -0.381 OA
ATOM     38  H8  UNL     1      -2.871  -2.065  -0.248  1.00  0.00     0.211 HD
ENDBRANCH   7  37
BRANCH   5  39
HETATM   39  O7  UNL     1      -1.629  -2.182  -3.345  1.00  0.00    -0.379 OA
ATOM     40  H7  UNL     1      -1.755  -3.056  -2.994  1.00  0.00     0.211 HD
ENDBRANCH   5  39
BRANCH  14  41
HETATM   41  C22 UNL     1      -4.028   0.833   2.085  1.00  0.00     0.202 C 
BRANCH  41  42
HETATM   42  O11 UNL     1      -3.530   0.522   3.320  1.00  0.00    -0.398 OA
ATOM     43  H11 UNL     1      -3.816   1.085   4.030  1.00  0.00     0.209 HD
ENDBRANCH  41  42
ENDBRANCH  14  41
TORSDOF 14
