REMARK  2 active torsions:
REMARK  status: ('A' for Active; 'I' for Inactive)
REMARK    1  A    between atoms: N1_2  and  O1_4 
REMARK    2  A    between atoms: O1_4  and  C2_5 
ROOT
HETATM    1  O1  UNL     1       0.625   0.608  -0.183  1.00  0.00    -0.275 OA
ENDROOT
BRANCH   1   2
HETATM    2  N1  UNL     1       1.394  -0.344  -0.683  1.00  0.00    -0.306 N 
HETATM    3  C1  UNL     1       2.797  -0.102  -0.614  1.00  0.00     0.175 C 
ATOM      4  H1  UNL     1       1.009  -1.196  -1.091  1.00  0.00     0.186 HD
ENDBRANCH   1   2
BRANCH   1   5
HETATM    5  C2  UNL     1      -0.624   0.190   0.230  1.00  0.00     0.077 C 
HETATM    6  C3  UNL     1      -1.395   1.374   0.777  1.00  0.00     0.048 C 
HETATM    7  C4  UNL     1      -0.613  -0.877   1.264  1.00  0.00     0.048 C 
HETATM    8  C5  UNL     1      -1.426  -0.314  -0.975  1.00  0.00     0.048 C 
ENDBRANCH   1   5
TORSDOF 2
