REMARK  8 active torsions:
REMARK  status: ('A' for Active; 'I' for Inactive)
REMARK    1  A    between atoms: C2_2  and  C3_3 
REMARK    2  A    between atoms: C3_3  and  C4_5 
REMARK    3  A    between atoms: C5_6  and  O2_7 
REMARK    4  A    between atoms: C11_16  and  O4_17 
REMARK    5  A    between atoms: C12_19  and  C13_20 
REMARK    6  A    between atoms: C19_26  and  O5_27 
REMARK    7  A    between atoms: C20_29  and  O6_30 
REMARK    8  A    between atoms: O6_30  and  C21_31 
ROOT
HETATM    1  C4  UNL     1      -1.449  -1.432  -0.243  1.00  0.00     0.101 C 
HETATM    2  C5  UNL     1      -2.322  -2.033   0.880  1.00  0.00     0.131 C 
HETATM    3  C6  UNL     1      -3.276  -1.094   1.496  1.00  0.00     0.040 C 
HETATM    4  C7  UNL     1      -3.283   0.270   1.079  1.00  0.00     0.029 C 
HETATM    5  C8  UNL     1      -3.990   1.249   1.987  1.00  0.00     0.087 C 
HETATM    6  C9  UNL     1      -3.177   2.198   1.168  1.00  0.00     0.154 C 
HETATM    7  O3  UNL     1      -3.635   3.241   0.804  1.00  0.00    -0.296 OA
HETATM    8  C10 UNL     1      -2.083   1.197   1.260  1.00  0.00     0.137 C 
HETATM    9 CL1  UNL     1      -1.563   1.382   2.947  1.00  0.00    -0.107 Cl
HETATM   10  C11 UNL     1      -1.156   0.960   0.181  1.00  0.00     0.120 C 
HETATM   11  C12 UNL     1      -0.162   1.887  -0.396  1.00  0.00    -0.032 C 
HETATM   12  C16 UNL     1       1.200   1.257  -0.304  1.00  0.00    -0.004 C 
HETATM   13  C17 UNL     1       2.154   1.652  -1.430  1.00  0.00     0.021 C 
HETATM   14  C18 UNL     1       2.011   1.454   0.895  1.00  0.00     0.049 C 
HETATM   15  C19 UNL     1       2.918   0.255   0.740  1.00  0.00     0.149 C 
HETATM   16  C20 UNL     1       2.039  -0.844   0.110  1.00  0.00     0.170 C 
HETATM   17  C23 UNL     1       0.819  -0.219  -0.445  1.00  0.00     0.008 C 
HETATM   18  C24 UNL     1       0.604  -0.496  -1.929  1.00  0.00     0.020 C 
HETATM   19  C25 UNL     1      -0.492  -0.430   0.254  1.00  0.00     0.017 C 
HETATM   20  C26 UNL     1      -0.131  -0.886   1.621  1.00  0.00     0.020 C 
ENDROOT
BRANCH   1  21
HETATM   21  C3  UNL     1      -1.078  -2.647  -0.983  1.00  0.00     0.156 C 
HETATM   22  O1  UNL     1      -1.438  -2.841  -2.213  1.00  0.00    -0.293 OA
BRANCH  21  23
HETATM   23  C2  UNL     1      -0.316  -3.795  -0.563  1.00  0.00     0.040 C 
HETATM   24  C1  UNL     1      -0.098  -4.789  -1.403  1.00  0.00     0.015 C 
ENDBRANCH  21  23
ENDBRANCH   1  21
BRANCH   2  25
HETATM   25  O2  UNL     1      -3.108  -2.979   0.156  1.00  0.00    -0.395 OA
ATOM     26  H2  UNL     1      -3.645  -3.349   0.847  1.00  0.00     0.210 HD
ENDBRANCH   2  25
BRANCH  10  27
HETATM   27  O4  UNL     1      -2.113   0.920  -0.930  1.00  0.00    -0.382 OA
ATOM     28  H4  UNL     1      -1.502   0.764  -1.641  1.00  0.00     0.211 HD
ENDBRANCH  10  27
BRANCH  11  29
HETATM   29  C13 UNL     1      -0.226   3.330  -0.214  1.00  0.00    -0.081 C 
HETATM   30  C14 UNL     1      -0.113   4.036   1.052  1.00  0.00     0.043 C 
HETATM   31  C15 UNL     1       0.577   4.188  -1.186  1.00  0.00     0.043 C 
ENDBRANCH  11  29
BRANCH  16  32
HETATM   32  O6  UNL     1       2.837  -1.472  -0.907  1.00  0.00    -0.313 OA
BRANCH  32  33
HETATM   33  C21 UNL     1       3.396  -2.724  -0.787  1.00  0.00     0.255 C 
HETATM   34  C22 UNL     1       4.218  -3.377  -1.831  1.00  0.00     0.126 C 
HETATM   35  O7  UNL     1       3.196  -3.357   0.280  1.00  0.00    -0.266 OA
ENDBRANCH  32  33
ENDBRANCH  16  32
BRANCH  15  36
HETATM   36  O5  UNL     1       3.562  -0.140   1.883  1.00  0.00    -0.393 OA
ATOM     37  H5  UNL     1       4.132  -0.894   1.786  1.00  0.00     0.210 HD
ENDBRANCH  15  36
TORSDOF 8
