REMARK  10 active torsions:
REMARK  status: ('A' for Active; 'I' for Inactive)
REMARK    1  A    between atoms: C2_2  and  C3_3 
REMARK    2  A    between atoms: C3_3  and  C4_4 
REMARK    3  A    between atoms: C4_4  and  C5_5 
REMARK    4  A    between atoms: C6_8  and  O1_9 
REMARK    5  A    between atoms: C24_33  and  C25_34 
REMARK       I    between atoms: C25_34  and  N4_36 
REMARK    6  A    between atoms: N4_36  and  C26_38 
REMARK    7  A    between atoms: C26_38  and  C27_39 
REMARK    8  A    between atoms: C26_38  and  C31_43 
REMARK    9  A    between atoms: C27_39  and  C28_40 
REMARK   10  A    between atoms: C28_40  and  C29_41 
ROOT
HETATM    1  C5  UNL     1       1.493   1.849   0.070  1.00  0.00     0.176 C 
HETATM    2  N1  UNL     1       2.851   2.041  -0.465  1.00  0.00    -0.357 N 
ATOM      3  H1  UNL     1       2.938   2.640  -1.286  1.00  0.00     0.162 HD
HETATM    4  C6  UNL     1       4.045   1.482   0.040  1.00  0.00     0.147 C 
HETATM    5  C7  UNL     1       4.491   0.130   0.390  1.00  0.00     0.018 A 
HETATM    6  C8  UNL     1       5.851  -0.060  -0.003  1.00  0.00     0.039 A 
HETATM    7  C9  UNL     1       6.554  -1.209   0.166  1.00  0.00     0.037 A 
HETATM    8 CL1  UNL     1       8.227  -1.370  -0.342  1.00  0.00    -0.084 Cl
HETATM    9  C10 UNL     1       5.869  -2.236   0.761  1.00  0.00     0.053 A 
HETATM   10  C11 UNL     1       4.515  -2.127   1.179  1.00  0.00     0.030 A 
HETATM   11  C12 UNL     1       3.842  -0.933   0.987  1.00  0.00     0.045 A 
HETATM   12  N2  UNL     1       4.109  -3.379   1.731  1.00  0.00    -0.386 N 
ATOM     13  H2  UNL     1       4.787  -3.799   2.366  1.00  0.00     0.160 HD
HETATM   14  C13 UNL     1       2.893  -4.161   1.544  1.00  0.00     0.077 C 
HETATM   15  C14 UNL     1       1.955  -3.929   2.700  1.00  0.00     0.032 C 
HETATM   16  C15 UNL     1       2.304  -3.877   0.191  1.00  0.00     0.024 C 
HETATM   17  C16 UNL     1       0.912  -3.302   0.349  1.00  0.00     0.002 C 
HETATM   18  C17 UNL     1       0.164  -3.263  -0.951  1.00  0.00     0.007 C 
HETATM   19  C18 UNL     1       0.371  -1.916  -1.605  1.00  0.00     0.021 C 
HETATM   20  C19 UNL     1      -0.002  -1.985  -3.073  1.00  0.00    -0.011 C 
HETATM   21  C20 UNL     1       0.864  -3.085  -3.691  1.00  0.00     0.010 C 
HETATM   22  C21 UNL     1       0.501  -0.705  -3.702  1.00  0.00     0.024 C 
HETATM   23  C22 UNL     1      -0.136   0.491  -3.024  1.00  0.00     0.127 C 
HETATM   24  N3  UNL     1       0.057   0.458  -1.596  1.00  0.00    -0.337 N 
HETATM   25  C23 UNL     1       0.460   1.672  -0.946  1.00  0.00     0.243 C 
HETATM   26  O2  UNL     1      -0.202   2.689  -1.347  1.00  0.00    -0.271 OA
HETATM   27  C24 UNL     1      -0.178  -0.748  -0.867  1.00  0.00     0.183 C 
ENDROOT
BRANCH  27  28
HETATM   28  C25 UNL     1      -1.552  -0.885  -0.362  1.00  0.00     0.241 C 
HETATM   29  O3  UNL     1      -1.829  -1.846   0.391  1.00  0.00    -0.271 OA
HETATM   30  N4  UNL     1      -2.621  -0.001  -0.661  1.00  0.00    -0.354 N 
ATOM     31  H4  UNL     1      -2.430   0.796  -1.268  1.00  0.00     0.162 HD
BRANCH  30  32
HETATM   32  C26 UNL     1      -3.959  -0.164  -0.157  1.00  0.00     0.087 C 
BRANCH  32  33
HETATM   33  C27 UNL     1      -4.416   0.966   0.728  1.00  0.00     0.025 C 
BRANCH  33  34
HETATM   34  C28 UNL     1      -3.523   1.121   1.948  1.00  0.00     0.002 C 
BRANCH  34  35
HETATM   35  C29 UNL     1      -4.072   2.283   2.761  1.00  0.00    -0.004 C 
HETATM   36  C30 UNL     1      -5.490   1.961   3.171  1.00  0.00     0.005 C 
ENDBRANCH  34  35
ENDBRANCH  33  34
ENDBRANCH  32  33
BRANCH  32  37
HETATM   37  C31 UNL     1      -4.906  -0.231  -1.337  1.00  0.00     0.000 C 
HETATM   38  C32 UNL     1      -6.337  -0.410  -0.874  1.00  0.00     0.011 C 
HETATM   39  C33 UNL     1      -4.762   0.943  -2.250  1.00  0.00     0.011 C 
ENDBRANCH  32  37
ENDBRANCH  30  32
ENDBRANCH  27  28
BRANCH   1  40
HETATM   40  C4  UNL     1       1.216   3.050   0.923  1.00  0.00     0.035 C 
BRANCH  40  41
HETATM   41  C3  UNL     1       1.301   4.382   0.282  1.00  0.00     0.002 C 
BRANCH  41  42
HETATM   42  C2  UNL     1       1.011   5.497   1.316  1.00  0.00    -0.004 C 
HETATM   43  C1  UNL     1       2.069   5.362   2.401  1.00  0.00     0.005 C 
ENDBRANCH  41  42
ENDBRANCH  40  41
ENDBRANCH   1  40
BRANCH   4  44
HETATM   44  O1  UNL     1       4.932   2.459   0.214  1.00  0.00    -0.346 OA
ATOM     45  H1  UNL     1       5.735   2.083   0.554  1.00  0.00     0.219 HD
ENDBRANCH   4  44
TORSDOF 10
