REMARK  2 active torsions:
REMARK  status: ('A' for Active; 'I' for Inactive)
REMARK       I    between atoms: C1_2  and  N1_3 
REMARK    1  A    between atoms: C1_2  and  C12_18 
REMARK       I    between atoms: N1_3  and  C2_5 
REMARK       I    between atoms: C2_5  and  N2_7 
REMARK    2  A    between atoms: N3_10  and  C5_11 
ROOT
HETATM    1  O1  UNL     1       3.890  -1.537   1.797  1.00  0.00    -0.273 OA
HETATM    2  C1  UNL     1       3.447  -0.632   1.011  1.00  0.00     0.229 C 
HETATM    3  N1  UNL     1       2.044  -0.429   1.002  1.00  0.00    -0.279 N 
ATOM      4  H1  UNL     1       1.485  -1.040   1.597  1.00  0.00     0.173 HD
HETATM    5  C2  UNL     1       1.352   0.534   0.251  1.00  0.00     0.325 C 
HETATM    6  O2  UNL     1       1.965   1.312  -0.510  1.00  0.00    -0.247 OA
HETATM    7  N2  UNL     1      -0.054   0.667   0.322  1.00  0.00    -0.331 N 
HETATM    8  C3  UNL     1      -0.764   1.665  -0.473  1.00  0.00     0.158 C 
HETATM    9  C4  UNL     1      -2.199   1.165  -0.705  1.00  0.00     0.293 C 
HETATM   10  N3  UNL     1      -2.899   1.100   0.540  1.00  0.00     0.096 N 
HETATM   11  C10 UNL     1      -2.050   0.720   1.640  1.00  0.00     0.293 C 
HETATM   12  C11 UNL     1      -0.880  -0.160   1.173  1.00  0.00     0.158 C 
ENDROOT
BRANCH   2  13
HETATM   13  C12 UNL     1       4.444   0.090   0.205  1.00  0.00     0.078 C 
HETATM   14  C13 UNL     1       4.385  -0.334  -1.269  1.00  0.00     0.014 C 
HETATM   15  C14 UNL     1       5.681  -1.079  -1.518  1.00  0.00     0.001 C 
HETATM   16  C15 UNL     1       6.632  -0.286  -0.636  1.00  0.00     0.001 C 
HETATM   17  C16 UNL     1       5.854  -0.257   0.663  1.00  0.00     0.014 C 
ENDBRANCH   2  13
BRANCH  10  18
HETATM   18  C5  UNL     1      -4.091   0.328   0.559  1.00  0.00     0.223 C 
HETATM   19  C6  UNL     1      -5.134   0.915  -0.395  1.00  0.00     0.036 C 
HETATM   20  C7  UNL     1      -5.854  -0.262  -0.997  1.00  0.00     0.002 C 
HETATM   21  C8  UNL     1      -5.446  -1.435  -0.130  1.00  0.00     0.002 C 
HETATM   22  C9  UNL     1      -3.969  -1.097   0.133  1.00  0.00     0.036 C 
ENDBRANCH  10  18
TORSDOF 2
