REMARK  13 active torsions:
REMARK  status: ('A' for Active; 'I' for Inactive)
REMARK    1  A    between atoms: C3_3  and  C4_4 
REMARK    2  A    between atoms: C4_4  and  N1_7 
REMARK    3  A    between atoms: N1_7  and  C7_8 
REMARK    4  A    between atoms: N1_7  and  C15_17 
REMARK    5  A    between atoms: C7_8  and  C8_9 
REMARK    6  A    between atoms: C20_23  and  O1_24 
REMARK    7  A    between atoms: O1_24  and  C21_25 
REMARK    8  A    between atoms: C21_25  and  C22_26 
REMARK    9  A    between atoms: C23_28  and  C24_29 
REMARK   10  A    between atoms: C24_29  and  O3_30 
REMARK   11  A    between atoms: C25_32  and  O4_33 
REMARK   12  A    between atoms: C26_35  and  O5_36 
REMARK   13  A    between atoms: C27_38  and  O6_39 
ROOT
HETATM    1  C1  UNL     1      -1.016  -3.120   3.091  1.00  0.00     0.112 C 
HETATM    2  C2  UNL     1      -1.292  -2.737   1.705  1.00  0.00    -0.108 C 
HETATM    3  C3  UNL     1      -1.504  -2.423   0.548  1.00  0.00    -0.076 C 
ENDROOT
BRANCH   3   4
HETATM    4  C4  UNL     1      -1.788  -2.050  -0.848  1.00  0.00     0.089 C 
HETATM    5  C5  UNL     1      -0.586  -2.323  -1.689  1.00  0.00     0.053 C 
HETATM    6  C6  UNL     1      -2.883  -3.004  -1.352  1.00  0.00     0.053 C 
BRANCH   4   7
HETATM    7  N1  UNL     1      -2.256  -0.682  -0.899  1.00  0.00    -0.355 N 
BRANCH   7   8
HETATM    8  C7  UNL     1      -3.503  -0.414  -0.212  1.00  0.00     0.163 C 
BRANCH   8   9
HETATM    9  C8  UNL     1      -3.954   0.974  -0.257  1.00  0.00    -0.040 A 
HETATM   10  C9  UNL     1      -3.320   1.856   0.625  1.00  0.00     0.010 A 
HETATM   11  C10 UNL     1      -3.667   3.188   0.680  1.00  0.00     0.023 A 
HETATM   12  C11 UNL     1      -4.666   3.611  -0.173  1.00  0.00     0.044 A 
HETATM   13  C12 UNL     1      -5.037   5.009  -0.123  1.00  0.00     0.099 C 
HETATM   14  C13 UNL     1      -5.299   2.743  -1.049  1.00  0.00     0.023 A 
HETATM   15  N2  UNL     1      -5.325   6.131  -0.068  1.00  0.00    -0.191 NA
HETATM   16  C14 UNL     1      -4.950   1.425  -1.098  1.00  0.00     0.010 A 
ENDBRANCH   8   9
ENDBRANCH   7   8
BRANCH   7  17
HETATM   17  C15 UNL     1      -1.558   0.389  -1.553  1.00  0.00     0.068 A 
HETATM   18  C16 UNL     1      -1.998   0.892  -2.747  1.00  0.00     0.074 A 
HETATM   19  C17 UNL     1      -1.333   1.925  -3.376  1.00  0.00     0.118 A 
HETATM   20  F1  UNL     1      -1.795   2.394  -4.551  1.00  0.00    -0.206 F 
HETATM   21  C18 UNL     1      -0.205   2.458  -2.784  1.00  0.00     0.045 A 
HETATM   22  C19 UNL     1       0.246   1.964  -1.588  1.00  0.00     0.042 A 
HETATM   23  C20 UNL     1      -0.408   0.939  -0.960  1.00  0.00     0.095 A 
BRANCH  23  24
HETATM   24  O1  UNL     1      -0.007   0.399   0.238  1.00  0.00    -0.346 OA
BRANCH  24  25
HETATM   25  C21 UNL     1       1.000   0.618   1.109  1.00  0.00     0.210 C 
BRANCH  25  26
HETATM   26  C22 UNL     1       2.428   0.421   0.677  1.00  0.00     0.177 C 
HETATM   27  O2  UNL     1       3.221   0.704   1.748  1.00  0.00    -0.371 OA
HETATM   28  C23 UNL     1       4.434   0.179   1.874  1.00  0.00     0.177 C 
HETATM   29  C25 UNL     1       4.748  -1.075   1.132  1.00  0.00     0.180 C 
HETATM   30  C26 UNL     1       4.073  -1.155  -0.210  1.00  0.00     0.180 C 
HETATM   31  C27 UNL     1       2.594  -0.928   0.074  1.00  0.00     0.180 C 
BRANCH  28  32
HETATM   32  C24 UNL     1       5.471   1.237   1.490  1.00  0.00     0.198 C 
BRANCH  32  33
HETATM   33  O3  UNL     1       6.759   0.748   1.602  1.00  0.00    -0.398 OA
ATOM     34  H3  UNL     1       7.403   1.405   1.364  1.00  0.00     0.209 HD
ENDBRANCH  32  33
ENDBRANCH  28  32
BRANCH  29  35
HETATM   35  O4  UNL     1       4.339  -2.187   1.869  1.00  0.00    -0.390 OA
ATOM     36  H4  UNL     1       4.539  -2.986   1.396  1.00  0.00     0.210 HD
ENDBRANCH  29  35
BRANCH  30  37
HETATM   37  O5  UNL     1       4.575  -0.269  -1.131  1.00  0.00    -0.390 OA
ATOM     38  H5  UNL     1       4.149  -0.320  -1.978  1.00  0.00     0.210 HD
ENDBRANCH  30  37
BRANCH  31  39
HETATM   39  O6  UNL     1       2.161  -1.978   0.852  1.00  0.00    -0.390 OA
ATOM     40  H6  UNL     1       2.267  -2.840   0.467  1.00  0.00     0.210 HD
ENDBRANCH  31  39
ENDBRANCH  25  26
ENDBRANCH  24  25
ENDBRANCH  23  24
ENDBRANCH   7  17
ENDBRANCH   4   7
ENDBRANCH   3   4
TORSDOF 13
