REMARK  15 active torsions:
REMARK  status: ('A' for Active; 'I' for Inactive)
REMARK    1  A    between atoms: C3_3  and  N1_4 
REMARK    2  A    between atoms: C5_6  and  C6_7 
REMARK    3  A    between atoms: C7_10  and  C8_11 
REMARK       I    between atoms: C8_11  and  N3_13 
REMARK    4  A    between atoms: N3_13  and  C9_14 
REMARK    5  A    between atoms: N3_13  and  C11_18 
REMARK    6  A    between atoms: C9_14  and  C10_15 
REMARK    7  A    between atoms: C11_18  and  C12_19 
REMARK    8  A    between atoms: C11_18  and  S1_23 
REMARK    9  A    between atoms: C12_19  and  C13_20 
REMARK   10  A    between atoms: S1_23  and  C16_26 
REMARK   11  A    between atoms: C16_26  and  C17_27 
REMARK   12  A    between atoms: C17_27  and  C18_28 
REMARK   13  A    between atoms: C18_28  and  O7_29 
REMARK   14  A    between atoms: C23_36  and  C24_37 
REMARK   15  A    between atoms: C25_38  and  C26_39 
ROOT
HETATM    1  N1  UNL     1       2.071   0.003  -1.758  1.00  0.00    -0.330 N 
HETATM    2  C4  UNL     1       1.905  -1.320  -1.646  1.00  0.00     0.114 A 
HETATM    3  C5  UNL     1       0.553  -1.652  -1.555  1.00  0.00     0.062 A 
HETATM    4  C7  UNL     1      -0.126  -0.459  -1.616  1.00  0.00     0.065 A 
HETATM    5  C19 UNL     1       0.833   0.520  -1.739  1.00  0.00     0.115 A 
ENDROOT
BRANCH   4   6
HETATM    6  C8  UNL     1      -1.550  -0.225  -1.585  1.00  0.00     0.261 C 
HETATM    7  O2  UNL     1      -2.123  -0.182  -2.696  1.00  0.00    -0.267 OA
HETATM    8  N3  UNL     1      -2.332  -0.046  -0.375  1.00  0.00    -0.298 N 
BRANCH   8   9
HETATM    9  C9  UNL     1      -1.706  -0.085   0.886  1.00  0.00     0.180 C 
BRANCH   9  10
HETATM   10  C10 UNL     1      -1.071   1.087   1.430  1.00  0.00     0.215 C 
HETATM   11  O3  UNL     1      -0.964   2.181   0.840  1.00  0.00    -0.643 OA
HETATM   12  O4  UNL     1      -0.526   1.018   2.711  1.00  0.00    -0.643 OA
ENDBRANCH   9  10
ENDBRANCH   8   9
BRANCH   8  13
HETATM   13  C11 UNL     1      -3.774   0.035  -0.548  1.00  0.00     0.215 C 
BRANCH  13  14
HETATM   14  C12 UNL     1      -4.359  -1.240  -0.046  1.00  0.00     0.045 C 
BRANCH  14  15
HETATM   15  C13 UNL     1      -5.808  -1.459  -0.209  1.00  0.00    -0.020 C 
HETATM   16  C14 UNL     1      -6.171  -2.827   0.405  1.00  0.00     0.009 C 
HETATM   17  C15 UNL     1      -6.133  -1.695  -1.726  1.00  0.00     0.009 C 
ENDBRANCH  14  15
ENDBRANCH  13  14
BRANCH  13  18
HETATM   18  S1  UNL     1      -4.510   1.532  -0.095  1.00  0.00     0.166 S 
HETATM   19  O5  UNL     1      -3.812   2.630  -0.939  1.00  0.00    -0.226 OA
HETATM   20  O6  UNL     1      -5.952   1.624  -0.596  1.00  0.00    -0.226 OA
BRANCH  18  21
HETATM   21  C16 UNL     1      -4.501   2.079   1.538  1.00  0.00     0.144 C 
BRANCH  21  22
HETATM   22  C17 UNL     1      -5.219   1.256   2.547  1.00  0.00     0.041 C 
BRANCH  22  23
HETATM   23  C18 UNL     1      -6.707   1.271   2.401  1.00  0.00     0.165 C 
BRANCH  23  24
HETATM   24  O7  UNL     1      -7.088   2.638   2.580  1.00  0.00    -0.401 OA
ATOM     25  H7  UNL     1      -8.033   2.648   2.487  1.00  0.00     0.209 HD
ENDBRANCH  23  24
ENDBRANCH  22  23
ENDBRANCH  21  22
ENDBRANCH  18  21
ENDBRANCH  13  18
ENDBRANCH   8  13
ENDBRANCH   4   6
BRANCH   3  26
HETATM   26  C6  UNL     1      -0.022  -2.980  -1.424  1.00  0.00     0.267 C 
HETATM   27  N2  UNL     1       0.784  -4.150  -1.363  1.00  0.00    -0.057 NA
HETATM   28  O1  UNL     1      -1.267  -3.100  -1.363  1.00  0.00    -0.271 OA
ENDBRANCH   3  26
BRANCH   1  29
HETATM   29  C3  UNL     1       3.262   0.763  -1.875  1.00  0.00     0.045 A 
HETATM   30  C2  UNL     1       4.269   0.585  -0.957  1.00  0.00    -0.014 A 
HETATM   31  C1  UNL     1       4.113  -0.388   0.140  1.00  0.00     0.052 C 
HETATM   32  C23 UNL     1       5.454   1.321  -1.049  1.00  0.00     0.047 A 
HETATM   33  C22 UNL     1       5.595   2.230  -2.077  1.00  0.00     0.053 A 
HETATM   34  C21 UNL     1       4.588   2.427  -3.018  1.00  0.00     0.028 A 
HETATM   35 CL1  UNL     1       7.065   3.149  -2.199  1.00  0.00    -0.083 Cl
HETATM   36  C20 UNL     1       3.439   1.693  -2.904  1.00  0.00     0.032 A 
BRANCH  32  37
HETATM   37  C24 UNL     1       6.485   1.102  -0.063  1.00  0.00    -0.063 C 
HETATM   38  C25 UNL     1       7.354   0.901   0.765  1.00  0.00    -0.075 C 
BRANCH  38  39
HETATM   39  C26 UNL     1       8.402   0.641   1.752  1.00  0.00     0.093 C 
HETATM   40  C27 UNL     1       9.529   1.647   1.654  1.00  0.00     0.046 C 
HETATM   41  C28 UNL     1       8.985  -0.721   1.447  1.00  0.00     0.046 C 
HETATM   42 CL2  UNL     1       7.740   0.732   3.398  1.00  0.00    -0.106 Cl
ENDBRANCH  38  39
ENDBRANCH  32  37
ENDBRANCH   1  29
TORSDOF 15
