REMARK  12 active torsions:
REMARK  status: ('A' for Active; 'I' for Inactive)
REMARK    1  A    between atoms: C2_2  and  C3_3 
REMARK    2  A    between atoms: C3_3  and  N1_4 
REMARK    3  A    between atoms: N1_4  and  C4_5 
REMARK    4  A    between atoms: N1_4  and  C6_8 
REMARK    5  A    between atoms: C4_5  and  C5_6 
REMARK    6  A    between atoms: C8_10  and  C9_11 
REMARK       I    between atoms: C9_11  and  N2_13 
REMARK    7  A    between atoms: C12_16  and  C13_17 
REMARK    8  A    between atoms: C13_17  and  N3_18 
REMARK    9  A    between atoms: N3_18  and  C15_20 
REMARK   10  A    between atoms: C19_27  and  N5_28 
REMARK   11  A    between atoms: C24_36  and  O3_37 
REMARK   12  A    between atoms: C24_36  and  C25_39 
ROOT
HETATM    1  C6  UNL     1      -2.110   2.319  -0.749  1.00  0.00     0.042 A 
HETATM    2  C7  UNL     1      -0.809   2.159  -1.266  1.00  0.00     0.065 A 
HETATM    3  C8  UNL     1      -0.126   0.964  -1.131  1.00  0.00     0.104 A 
HETATM    4  N4  UNL     1      -0.766  -0.018  -0.488  1.00  0.00    -0.337 N 
ATOM      5  H4  UNL     1      -0.278  -0.907  -0.378  1.00  0.00     0.167 HD
HETATM    6  C19 UNL     1      -1.989   0.079   0.017  1.00  0.00     0.114 A 
HETATM    7  C27 UNL     1      -2.698   1.282  -0.110  1.00  0.00     0.009 A 
HETATM    8  C28 UNL     1      -4.065   1.378   0.443  1.00  0.00     0.054 C 
ENDROOT
BRANCH   3   9
HETATM    9  C9  UNL     1       1.214   0.868  -1.693  1.00  0.00     0.270 C 
HETATM   10  O1  UNL     1       1.648   1.941  -2.274  1.00  0.00    -0.266 OA
HETATM   11  N2  UNL     1       2.090  -0.210  -1.694  1.00  0.00    -0.346 N 
HETATM   12  C10 UNL     1       1.902  -1.511  -1.140  1.00  0.00     0.126 C 
HETATM   13  C18 UNL     1       3.400   0.034  -2.375  1.00  0.00     0.142 C 
HETATM   14  C11 UNL     1       3.005  -1.889  -0.158  1.00  0.00     0.027 C 
HETATM   15  C12 UNL     1       4.200  -0.986  -0.305  1.00  0.00     0.032 C 
HETATM   16  C17 UNL     1       4.453  -0.858  -1.806  1.00  0.00     0.082 C 
HETATM   17  S1  UNL     1       6.113  -0.145  -2.023  1.00  0.00    -0.090 SA
BRANCH  15  18
HETATM   18  C13 UNL     1       5.393  -1.585   0.395  1.00  0.00     0.277 C 
BRANCH  18  19
HETATM   19  N3  UNL     1       5.077  -1.741   1.788  1.00  0.00     0.084 N 
HETATM   20  C14 UNL     1       4.949  -0.461   2.438  1.00  0.00     0.309 C 
BRANCH  19  21
HETATM   21  C15 UNL     1       6.011  -2.610   2.454  1.00  0.00     0.267 C 
HETATM   22  C16 UNL     1       7.394  -2.001   2.556  1.00  0.00     0.037 C 
ENDBRANCH  19  21
ENDBRANCH  18  19
ENDBRANCH  15  18
ENDBRANCH   3   9
BRANCH   1  23
HETATM   23  N1  UNL     1      -2.662   3.616  -0.964  1.00  0.00    -0.379 N 
BRANCH  23  24
HETATM   24  C3  UNL     1      -2.125   4.734  -0.283  1.00  0.00     0.122 C 
BRANCH  24  25
HETATM   25  C2  UNL     1      -2.939   5.476   0.689  1.00  0.00     0.015 C 
HETATM   26  C1  UNL     1      -3.441   4.794   1.892  1.00  0.00     0.006 C 
ENDBRANCH  24  25
ENDBRANCH  23  24
BRANCH  23  27
HETATM   27  C4  UNL     1      -3.731   3.787  -1.916  1.00  0.00     0.138 C 
BRANCH  27  28
HETATM   28  C5  UNL     1      -3.263   4.539  -3.153  1.00  0.00     0.134 C 
HETATM   29 CL1  UNL     1      -4.651   4.692  -4.246  1.00  0.00    -0.129 Cl
ENDBRANCH  27  28
ENDBRANCH  23  27
ENDBRANCH   1  23
BRANCH   6  30
HETATM   30  N5  UNL     1      -2.607  -0.978   0.679  1.00  0.00    -0.339 N 
HETATM   31  C20 UNL     1      -3.259  -1.938   0.152  1.00  0.00     0.101 A 
HETATM   32  C21 UNL     1      -3.537  -2.204  -1.248  1.00  0.00     0.214 A 
HETATM   33  C24 UNL     1      -3.895  -3.027   0.914  1.00  0.00     0.123 A 
HETATM   34  O2  UNL     1      -3.132  -1.456  -2.180  1.00  0.00    -0.285 OA
HETATM   35  C22 UNL     1      -4.321  -3.423  -1.325  1.00  0.00     0.062 A 
HETATM   36 BR1  UNL     1      -4.958  -4.223  -2.948  1.00  0.00    -0.047 Br
HETATM   37  C23 UNL     1      -4.519  -3.879  -0.111  1.00  0.00     0.040 A 
ATOM     38  H5  UNL     1      -2.530  -0.985   1.696  1.00  0.00     0.167 HD
BRANCH  33  39
HETATM   39  O3  UNL     1      -4.821  -2.549   1.843  1.00  0.00    -0.379 OA
ATOM     40  H3  UNL     1      -5.231  -3.251   2.334  1.00  0.00     0.211 HD
ENDBRANCH  33  39
BRANCH  33  41
HETATM   41  C25 UNL     1      -2.815  -3.850   1.585  1.00  0.00     0.044 C 
HETATM   42  C26 UNL     1      -3.505  -4.947   2.352  1.00  0.00     0.009 C 
ENDBRANCH  33  41
ENDBRANCH   6  30
TORSDOF 12
