REMARK  3 active torsions:
REMARK  status: ('A' for Active; 'I' for Inactive)
REMARK    1  A    between atoms: C2_2  and  N1_4 
REMARK    2  A    between atoms: N1_4  and  N2_5 
REMARK    3  A    between atoms: N2_5  and  C4_7 
ROOT
HETATM    1  C4  UNL     1       1.808   0.653   0.973  1.00  0.00     0.153 C 
HETATM    2  N3  UNL     1       0.730   1.071   0.430  1.00  0.00    -0.349 N 
ATOM      3  H3  UNL     1       0.829   1.808  -0.268  1.00  0.00     0.163 HD
HETATM    4  C5  UNL     1      -0.642   0.605   0.702  1.00  0.00     0.186 C 
HETATM    5  C6  UNL     1      -1.518   1.587   0.033  1.00  0.00     0.055 C 
HETATM    6  C7  UNL     1      -2.966   1.282  -0.042  1.00  0.00    -0.042 C 
HETATM    7  C8  UNL     1      -3.559   1.726  -1.378  1.00  0.00     0.015 C 
HETATM    8  C9  UNL     1      -3.761   2.070   1.013  1.00  0.00     0.015 C 
HETATM    9  C10 UNL     1      -3.194  -0.155   0.233  1.00  0.00     0.039 C 
HETATM   10  C11 UNL     1      -2.047  -1.060  -0.242  1.00  0.00     0.027 C 
HETATM   11  C12 UNL     1      -2.617  -2.450  -0.024  1.00  0.00     0.038 C 
HETATM   12  C13 UNL     1      -1.908  -0.961  -1.761  1.00  0.00     0.038 C 
HETATM   13  N4  UNL     1      -0.828  -0.775   0.435  1.00  0.00    -0.363 N 
HETATM   14  C14 UNL     1      -0.514  -1.664   1.478  1.00  0.00     0.071 C 
HETATM   15  C15 UNL     1       0.948  -1.991   1.669  1.00  0.00     0.126 C 
HETATM   16  S1  UNL     1       1.958  -0.614   2.214  1.00  0.00    -0.088 SA
ENDROOT
BRANCH   1  17
HETATM   17  N2  UNL     1       3.039   1.219   0.586  1.00  0.00    -0.284 N 
ATOM     18  H2  UNL     1       3.595   1.743   1.262  1.00  0.00     0.184 HD
BRANCH  17  19
HETATM   19  N1  UNL     1       3.490   1.066  -0.700  1.00  0.00    -0.135 NA
BRANCH  19  20
HETATM   20  C2  UNL     1       4.488   0.037  -0.858  1.00  0.00     0.091 C 
HETATM   21  C1  UNL     1       5.721   0.270  -0.057  1.00  0.00     0.029 C 
HETATM   22  C3  UNL     1       4.871  -0.146  -2.310  1.00  0.00     0.029 C 
ENDBRANCH  19  20
ENDBRANCH  17  19
ENDBRANCH   1  17
TORSDOF 3
