REMARK  4 active torsions:
REMARK  status: ('A' for Active; 'I' for Inactive)
REMARK    1  A    between atoms: N1_6  and  O1_8 
REMARK    2  A    between atoms: C8_12  and  O2_13 
REMARK    3  A    between atoms: O2_13  and  O3_14 
REMARK    4  A    between atoms: C14_21  and  O4_22 
ROOT
HETATM    1  C1  UNL     1       1.876   0.449   1.740  1.00  0.00     0.016 C 
HETATM    2  C2  UNL     1       1.108  -0.468   0.775  1.00  0.00    -0.032 C 
HETATM    3  C3  UNL     1       2.100  -1.601   0.458  1.00  0.00     0.015 C 
HETATM    4  C4  UNL     1       3.189  -0.855  -0.254  1.00  0.00     0.056 C 
HETATM    5  C5  UNL     1       2.484   0.254  -0.938  1.00  0.00     0.015 C 
HETATM    6  N1  UNL     1       3.041   1.081  -1.742  1.00  0.00    -0.277 N 
ATOM      7  H1  UNL     1       2.492   1.822  -2.178  1.00  0.00     0.193 HD
HETATM    8  C6  UNL     1       1.030   0.227  -0.523  1.00  0.00     0.044 C 
HETATM    9  C7  UNL     1       0.588   1.660  -0.456  1.00  0.00     0.051 C 
HETATM   10  C8  UNL     1      -0.759   1.807   0.213  1.00  0.00     0.192 C 
HETATM   11  C9  UNL     1      -1.488   0.524  -0.045  1.00  0.00    -0.018 C 
HETATM   12  C10 UNL     1      -2.260   0.605  -1.110  1.00  0.00    -0.018 C 
HETATM   13  C11 UNL     1      -3.112  -0.473  -1.643  1.00  0.00     0.027 C 
HETATM   14  C12 UNL     1      -3.247  -1.593  -0.620  1.00  0.00     0.007 C 
HETATM   15  C13 UNL     1      -1.840  -1.875  -0.123  1.00  0.00     0.043 C 
HETATM   16  C14 UNL     1      -1.413  -0.702   0.733  1.00  0.00     0.084 C 
HETATM   17  C15 UNL     1      -0.110  -0.988   1.381  1.00  0.00     0.052 C 
ENDROOT
BRANCH   6  18
HETATM   18  O1  UNL     1       4.374   0.964  -2.011  1.00  0.00    -0.290 OA
ATOM     19  H1  UNL     1       4.787   1.577  -2.607  1.00  0.00     0.244 HD
ENDBRANCH   6  18
BRANCH  10  20
HETATM   20  O2  UNL     1      -1.473   2.876  -0.328  1.00  0.00    -0.233 OA
BRANCH  20  21
HETATM   21  O3  UNL     1      -1.761   3.742   0.612  1.00  0.00    -0.250 OA
ATOM     22  H3  UNL     1      -2.247   4.470   0.244  1.00  0.00     0.253 HD
ENDBRANCH  20  21
ENDBRANCH  10  20
BRANCH  16  23
HETATM   23  O4  UNL     1      -2.407  -0.607   1.740  1.00  0.00    -0.385 OA
ATOM     24  H4  UNL     1      -2.358  -1.408   2.248  1.00  0.00     0.211 HD
ENDBRANCH  16  23
TORSDOF 4
