REMARK  4 active torsions:
REMARK  status: ('A' for Active; 'I' for Inactive)
REMARK    1  A    between atoms: C2_2  and  C3_3 
REMARK    2  A    between atoms: C3_3  and  C4_4 
REMARK    3  A    between atoms: C4_4  and  N1_5 
REMARK    4  A    between atoms: N1_5  and  C5_7 
ROOT
HETATM    1  C5  UNL     1       0.157   0.548  -0.338  1.00  0.00     0.101 A 
HETATM    2  C6  UNL     1      -0.134  -0.144  -1.491  1.00  0.00     0.049 A 
HETATM    3  C7  UNL     1      -1.402  -0.623  -1.728  1.00  0.00     0.017 A 
HETATM    4  C8  UNL     1      -2.378  -0.393  -0.780  1.00  0.00    -0.009 A 
HETATM    5  C9  UNL     1      -3.676  -0.849  -0.957  1.00  0.00     0.013 A 
HETATM    6  C10 UNL     1      -4.679  -0.641  -0.035  1.00  0.00     0.001 A 
HETATM    7  C11 UNL     1      -4.377   0.062   1.132  1.00  0.00     0.002 A 
HETATM    8  C12 UNL     1      -3.088   0.516   1.311  1.00  0.00     0.030 A 
HETATM    9  C13 UNL     1      -2.091   0.302   0.381  1.00  0.00     0.043 A 
HETATM   10  N2  UNL     1      -0.827   0.747   0.556  1.00  0.00    -0.342 N 
ATOM     11  H2  UNL     1      -0.608   1.260   1.410  1.00  0.00     0.167 HD
ENDROOT
BRANCH   1  12
HETATM   12  N1  UNL     1       1.319   1.019  -0.062  1.00  0.00    -0.376 N 
ATOM     13  H1  UNL     1       1.420   1.517   0.823  1.00  0.00     0.161 HD
BRANCH  12  14
HETATM   14  C4  UNL     1       2.483   0.909  -0.882  1.00  0.00     0.125 C 
BRANCH  14  15
HETATM   15  C3  UNL     1       3.705   0.855   0.044  1.00  0.00     0.046 C 
BRANCH  15  16
HETATM   16  C2  UNL     1       3.610  -0.321   0.952  1.00  0.00    -0.035 C 
HETATM   17  C1  UNL     1       4.531  -1.261   0.946  1.00  0.00     0.007 C 
ENDBRANCH  15  16
ENDBRANCH  14  15
ENDBRANCH  12  14
ENDBRANCH   1  12
TORSDOF 4
