REMARK  3 active torsions:
REMARK  status: ('A' for Active; 'I' for Inactive)
REMARK       I    between atoms: N1_2  and  C2_4 
REMARK       I    between atoms: C2_4  and  N2_6 
REMARK    1  A    between atoms: C9_13  and  N3_14 
REMARK       I    between atoms: N3_14  and  C10_16 
REMARK       I    between atoms: C10_16  and  N4_18 
REMARK    2  A    between atoms: N4_18  and  C11_20 
REMARK    3  A    between atoms: C18_27  and  O3_28 
ROOT
HETATM    1  C1  UNL     1      -3.352   2.988  -2.888  1.00  0.00     0.151 C 
HETATM    2  N1  UNL     1      -3.168   1.821  -2.024  1.00  0.00    -0.347 N 
ATOM      3  H1  UNL     1      -3.191   1.927  -1.010  1.00  0.00     0.163 HD
HETATM    4  C2  UNL     1      -2.960   0.556  -2.595  1.00  0.00     0.317 C 
HETATM    5  O1  UNL     1      -2.935   0.441  -3.859  1.00  0.00    -0.247 OA
HETATM    6  N2  UNL     1      -2.774  -0.614  -1.796  1.00  0.00    -0.333 N 
HETATM    7  C3  UNL     1      -2.606  -1.803  -2.593  1.00  0.00     0.127 C 
HETATM    8  C4  UNL     1      -3.572  -2.895  -2.234  1.00  0.00     0.020 C 
HETATM    9  C5  UNL     1      -3.701  -3.062  -0.734  1.00  0.00     0.002 C 
HETATM   10  C6  UNL     1      -2.394  -2.846  -0.047  1.00  0.00     0.014 C 
HETATM   11  C7  UNL     1      -2.144  -1.442   0.436  1.00  0.00     0.004 C 
HETATM   12  C8  UNL     1      -0.649  -1.222   0.338  1.00  0.00     0.039 C 
HETATM   13  C9  UNL     1      -0.134  -0.019   1.044  1.00  0.00     0.087 C 
HETATM   14  C16 UNL     1      -0.859   0.298   2.318  1.00  0.00     0.028 C 
HETATM   15  C17 UNL     1      -1.563  -0.948   2.847  1.00  0.00     0.034 C 
HETATM   16  C18 UNL     1      -2.637  -1.273   1.868  1.00  0.00     0.128 C 
HETATM   17  C19 UNL     1      -2.798  -0.368  -0.389  1.00  0.00     0.139 C 
ENDROOT
BRANCH  16  18
HETATM   18  O3  UNL     1      -3.351  -2.423   2.202  1.00  0.00    -0.395 OA
ATOM     19  H3  UNL     1      -3.658  -2.318   3.095  1.00  0.00     0.210 HD
ENDBRANCH  16  18
BRANCH  13  20
HETATM   20  N3  UNL     1       1.287  -0.121   1.343  1.00  0.00    -0.338 N 
HETATM   21  C10 UNL     1       2.223   0.797   0.795  1.00  0.00     0.316 C 
HETATM   22  O2  UNL     1       1.819   1.714   0.039  1.00  0.00    -0.247 OA
HETATM   23  N4  UNL     1       3.603   0.702   1.082  1.00  0.00    -0.339 N 
ATOM     24  H4  UNL     1       3.933  -0.042   1.696  1.00  0.00     0.164 HD
ATOM     25  H3  UNL     1       1.617  -0.865   1.957  1.00  0.00     0.164 HD
BRANCH  23  26
HETATM   26  C11 UNL     1       4.544   1.619   0.535  1.00  0.00     0.086 C 
HETATM   27  C12 UNL     1       5.692   0.912  -0.185  1.00  0.00     0.025 C 
HETATM   28  C13 UNL     1       6.645   2.070  -0.394  1.00  0.00     0.002 C 
HETATM   29  C14 UNL     1       6.623   2.755   0.943  1.00  0.00     0.002 C 
HETATM   30  C15 UNL     1       5.337   2.346   1.630  1.00  0.00     0.025 C 
ENDBRANCH  23  26
ENDBRANCH  13  20
TORSDOF 3
