REMARK  15 active torsions:
REMARK  status: ('A' for Active; 'I' for Inactive)
REMARK    1  A    between atoms: C2_3  and  C3_4 
REMARK    2  A    between atoms: C3_4  and  N2_5 
REMARK    3  A    between atoms: C3_4  and  C14_41 
REMARK    4  A    between atoms: N2_5  and  C4_7 
REMARK    5  A    between atoms: C4_7  and  C5_8 
REMARK    6  A    between atoms: C5_8  and  N3_9 
REMARK    7  A    between atoms: C9_17  and  N6_18 
REMARK    8  A    between atoms: C10_23  and  N8_24 
REMARK    9  A    between atoms: C12_32  and  N11_33 
REMARK   10  A    between atoms: N12_37  and  O1_39 
REMARK       I    between atoms: C14_41  and  N13_43 
REMARK   11  A    between atoms: N13_43  and  C15_45 
REMARK   12  A    between atoms: C16_47  and  C17_48 
REMARK   13  A    between atoms: C17_48  and  O4_49 
REMARK   14  A    between atoms: C17_48  and  O5_51 
REMARK   15  A    between atoms: C20_56  and  O7_57 
ROOT
HETATM    1  N1  UNL     1       1.510  -2.713   1.632  1.00  0.00    -0.197 NA
HETATM    2  C1  UNL     1       1.451  -2.196   0.597  1.00  0.00     0.061 C 
HETATM    3  C2  UNL     1       1.365  -1.533  -0.715  1.00  0.00     0.158 C 
ENDROOT
BRANCH   3   4
HETATM    4  C3  UNL     1       1.777  -0.087  -0.633  1.00  0.00     0.188 C 
BRANCH   4   5
HETATM    5  N2  UNL     1       0.969   0.689   0.263  1.00  0.00    -0.363 N 
ATOM      6  H2  UNL     1       1.439   1.121   1.058  1.00  0.00     0.161 HD
BRANCH   5   7
HETATM    7  C4  UNL     1      -0.426   0.907   0.139  1.00  0.00     0.116 C 
HETATM    8  N12 UNL     1      -1.148   1.032   1.212  1.00  0.00    -0.256 N 
ATOM      9  H12 UNL     1      -2.150   1.187   1.101  1.00  0.00     0.195 HD
BRANCH   7  10
HETATM   10  C5  UNL     1      -1.121   1.003  -1.156  1.00  0.00     0.208 C 
BRANCH  10  11
HETATM   11  N3  UNL     1      -2.524   1.301  -0.996  1.00  0.00    -0.331 N 
HETATM   12  C6  UNL     1      -3.036   2.568  -0.941  1.00  0.00     0.184 A 
HETATM   13  N4  UNL     1      -4.363   2.524  -0.785  1.00  0.00    -0.348 N 
HETATM   14  C7  UNL     1      -4.720   1.227  -0.738  1.00  0.00     0.095 A 
ATOM     15  H4  UNL     1      -4.990   3.326  -0.715  1.00  0.00     0.167 HD
HETATM   16  C8  UNL     1      -5.957   0.607  -0.591  1.00  0.00     0.122 A 
HETATM   17  C13 UNL     1      -3.590   0.489  -0.868  1.00  0.00     0.109 A 
HETATM   18  N5  UNL     1      -6.919   1.548  -0.481  1.00  0.00    -0.185 N 
HETATM   19  C11 UNL     1      -6.008  -0.764  -0.580  1.00  0.00     0.152 A 
HETATM   20  C9  UNL     1      -8.230   1.298  -0.315  1.00  0.00     0.691 C 
ATOM     21  H5  UNL     1      -6.629   2.525  -0.527  1.00  0.00     0.184 HD
HETATM   22  N7  UNL     1      -8.841   0.116  -0.111  1.00  0.00    -0.023 N 
HETATM   23  C10 UNL     1      -8.338  -1.137  -0.040  1.00  0.00     0.692 C 
ATOM     24  H7  UNL     1      -9.852   0.176   0.010  1.00  0.00     0.203 HD
HETATM   25  N9  UNL     1      -7.115  -1.540  -0.448  1.00  0.00    -0.174 N 
ATOM     26  H9  UNL     1      -7.012  -2.528  -0.681  1.00  0.00     0.186 HD
HETATM   27  N10 UNL     1      -4.878  -1.475  -0.710  1.00  0.00    -0.325 N 
HETATM   28  C12 UNL     1      -3.667  -0.901  -0.854  1.00  0.00     0.130 A 
ATOM     29  H10 UNL     1      -4.938  -2.493  -0.699  1.00  0.00     0.169 HD
BRANCH  20  30
HETATM   30  N6  UNL     1      -9.053   2.294  -0.347  1.00  0.00    -0.234 N 
ATOM     31  H62 UNL     1      -8.590   3.190  -0.502  1.00  0.00     0.174 HD
ATOM     32  H61 UNL     1     -10.047   2.104  -0.221  1.00  0.00     0.174 HD
ENDBRANCH  20  30
BRANCH  23  33
HETATM   33  N8  UNL     1      -9.119  -2.033   0.475  1.00  0.00    -0.234 N 
ATOM     34  H82 UNL     1     -10.043  -1.729   0.783  1.00  0.00     0.174 HD
ATOM     35  H81 UNL     1      -8.740  -2.978   0.529  1.00  0.00     0.174 HD
ENDBRANCH  23  33
BRANCH  28  36
HETATM   36  N11 UNL     1      -2.586  -1.559  -0.980  1.00  0.00    -0.384 N 
ATOM     37 2H11 UNL     1      -2.642  -2.577  -0.970  1.00  0.00     0.157 HD
ATOM     38 1H11 UNL     1      -1.670  -1.125  -1.089  1.00  0.00     0.157 HD
ENDBRANCH  28  36
ENDBRANCH  10  11
ENDBRANCH   7  10
BRANCH   8  39
HETATM   39  O1  UNL     1      -0.648   0.969   2.472  1.00  0.00    -0.288 OA
ATOM     40  H1  UNL     1      -1.176   1.060   3.257  1.00  0.00     0.244 HD
ENDBRANCH   8  39
ENDBRANCH   5   7
ENDBRANCH   4   5
BRANCH   4  41
HETATM   41  C14 UNL     1       3.195  -0.064  -0.153  1.00  0.00     0.247 C 
HETATM   42  O2  UNL     1       3.500   0.550   0.873  1.00  0.00    -0.271 OA
HETATM   43  N13 UNL     1       4.230  -0.756  -0.874  1.00  0.00    -0.303 N 
ATOM     44  H13 UNL     1       4.025  -1.276  -1.727  1.00  0.00     0.171 HD
BRANCH  43  45
HETATM   45  C15 UNL     1       5.546  -0.686  -0.352  1.00  0.00     0.188 A 
HETATM   46  O3  UNL     1       5.810  -0.009   0.757  1.00  0.00    -0.290 OA
HETATM   47  C16 UNL     1       6.979   0.099   1.290  1.00  0.00     0.113 A 
HETATM   48  C18 UNL     1       8.077  -0.508   0.716  1.00  0.00     0.096 A 
HETATM   49  C19 UNL     1       7.893  -1.227  -0.431  1.00  0.00     0.211 A 
HETATM   50  O6  UNL     1       8.851  -1.791  -0.982  1.00  0.00    -0.285 OA
HETATM   51  C20 UNL     1       6.601  -1.313  -0.969  1.00  0.00     0.168 A 
BRANCH  47  52
HETATM   52  C17 UNL     1       7.208   0.874   2.536  1.00  0.00     0.312 C 
BRANCH  52  53
HETATM   53  O4  UNL     1       8.022   0.174   3.422  1.00  0.00    -0.365 OA
ATOM     54  H4  UNL     1       8.168   0.670   4.219  1.00  0.00     0.213 HD
ENDBRANCH  52  53
BRANCH  52  55
HETATM   55  O5  UNL     1       7.809   2.085   2.143  1.00  0.00    -0.365 OA
ATOM     56  H5  UNL     1       7.955   2.581   2.940  1.00  0.00     0.213 HD
ENDBRANCH  52  55
ENDBRANCH  47  52
BRANCH  51  57
HETATM   57  O7  UNL     1       6.441  -2.049  -2.135  1.00  0.00    -0.354 OA
ATOM     58  H7  UNL     1       7.171  -2.483  -2.562  1.00  0.00     0.218 HD
ENDBRANCH  51  57
ENDBRANCH  43  45
ENDBRANCH   4  41
ENDBRANCH   3   4
TORSDOF 15
