REMARK  4 active torsions:
REMARK  status: ('A' for Active; 'I' for Inactive)
REMARK    1  A    between atoms: N1_1  and  C1_4 
REMARK    2  A    between atoms: C2_10  and  C3_11 
REMARK    3  A    between atoms: C4_14  and  C5_15 
REMARK    4  A    between atoms: C11_21  and  C12_22 
ROOT
HETATM    1  C3  UNL     1      -1.351   1.577   0.382  1.00  0.00     0.139 A 
HETATM    2  N4  UNL     1      -0.024   1.478   0.548  1.00  0.00    -0.344 N 
ATOM      3  H4  UNL     1       0.475   2.299   0.891  1.00  0.00     0.167 HD
HETATM    4  C4  UNL     1       0.693   0.371   0.293  1.00  0.00     0.017 A 
HETATM    5  C10 UNL     1       0.002  -0.724  -0.170  1.00  0.00     0.050 A 
HETATM    6  C11 UNL     1      -1.364  -0.685  -0.361  1.00  0.00     0.017 A 
HETATM    7  N5  UNL     1      -1.992   0.470  -0.076  1.00  0.00    -0.344 N 
ATOM      8  H5  UNL     1      -3.002   0.517  -0.211  1.00  0.00     0.167 HD
ENDROOT
BRANCH   1   9
HETATM    9  C2  UNL     1      -2.061   2.809   0.679  1.00  0.00     0.145 A 
HETATM   10  C1  UNL     1      -3.397   3.100   0.575  1.00  0.00     0.154 A 
HETATM   11  N2  UNL     1      -3.573   4.394   0.972  1.00  0.00    -0.224 N 
HETATM   12  O1  UNL     1      -2.396   4.839   1.294  1.00  0.00    -0.155 OA
ATOM     13  H2  UNL     1      -4.453   4.909   1.009  1.00  0.00     0.198 HD
HETATM   14  N3  UNL     1      -1.478   3.926   1.132  1.00  0.00    -0.234 N 
ATOM     15  H3  UNL     1      -0.482   4.044   1.319  1.00  0.00     0.197 HD
BRANCH  10  16
HETATM   16  N1  UNL     1      -4.274   2.249   0.165  1.00  0.00    -0.382 N 
ATOM     17  H12 UNL     1      -5.268   2.465   0.088  1.00  0.00     0.157 HD
ATOM     18  H11 UNL     1      -4.142   1.282  -0.132  1.00  0.00     0.157 HD
ENDBRANCH  10  16
ENDBRANCH   1   9
BRANCH   4  19
HETATM   19  C5  UNL     1       2.143   0.405   0.520  1.00  0.00     0.036 C 
HETATM   20  C6  UNL     1       2.821   0.198  -0.809  1.00  0.00     0.011 C 
HETATM   21  C7  UNL     1       3.550  -1.120  -0.670  1.00  0.00     0.001 C 
HETATM   22  C8  UNL     1       3.927  -1.132   0.775  1.00  0.00     0.001 C 
HETATM   23  C9  UNL     1       2.617  -0.691   1.444  1.00  0.00     0.011 C 
ENDBRANCH   4  19
BRANCH   6  24
HETATM   24  C12 UNL     1      -2.104  -1.883  -0.864  1.00  0.00     0.036 A 
HETATM   25  C13 UNL     1      -1.630  -3.246  -0.545  1.00  0.00     0.011 A 
HETATM   26  C14 UNL     1      -1.324  -2.684  -1.875  1.00  0.00     0.011 A 
ENDBRANCH   6  24
TORSDOF 4
