REMARK  6 active torsions:
REMARK  status: ('A' for Active; 'I' for Inactive)
REMARK    1  A    between atoms: C6_11  and  N4_12 
REMARK    2  A    between atoms: N4_12  and  C7_14 
REMARK    3  A    between atoms: C10_17  and  S1_18 
REMARK    4  A    between atoms: S1_18  and  N5_21 
REMARK    5  A    between atoms: N5_21  and  C11_23 
REMARK    6  A    between atoms: C11_23  and  C12_24 
ROOT
HETATM    1  N4  UNL     1      -1.773  -0.699  -0.294  1.00  0.00    -0.342 N 
ATOM      2  H4  UNL     1      -1.959   0.135   0.263  1.00  0.00     0.167 HD
ENDROOT
BRANCH   1   3
HETATM    3  C6  UNL     1      -2.717  -1.545  -0.448  1.00  0.00     0.121 A 
HETATM    4  N3  UNL     1      -2.446  -2.658  -1.198  1.00  0.00    -0.338 N 
HETATM    5  C5  UNL     1      -3.398  -3.579  -1.391  1.00  0.00     0.182 A 
ATOM      6  H3  UNL     1      -1.521  -2.785  -1.609  1.00  0.00     0.168 HD
HETATM    7  N2  UNL     1      -4.617  -3.424  -0.857  1.00  0.00    -0.352 N 
HETATM    8  C4  UNL     1      -4.923  -2.339  -0.110  1.00  0.00     0.047 A 
ATOM      9  H2  UNL     1      -5.328  -4.138  -1.017  1.00  0.00     0.166 HD
HETATM   10  C3  UNL     1      -6.142  -2.296   0.359  1.00  0.00     0.023 A 
HETATM   11  C20 UNL     1      -3.950  -1.355   0.113  1.00  0.00     0.062 A 
HETATM   12  C2  UNL     1      -6.604  -1.188   1.176  1.00  0.00     0.152 A 
HETATM   13  N1  UNL     1      -5.578  -0.209   1.375  1.00  0.00    -0.380 N 
HETATM   14  C1  UNL     1      -5.852   0.986   2.173  1.00  0.00     0.150 C 
HETATM   15  C21 UNL     1      -4.235  -0.293   0.838  1.00  0.00     0.057 A 
HETATM   16  C22 UNL     1      -3.299   0.774   1.123  1.00  0.00    -0.009 A 
HETATM   17  C23 UNL     1      -3.161   1.902   0.339  1.00  0.00     0.014 A 
HETATM   18  C27 UNL     1      -2.531   0.716   2.267  1.00  0.00     0.014 A 
HETATM   19  C24 UNL     1      -2.300   2.928   0.675  1.00  0.00     0.001 A 
HETATM   20  C25 UNL     1      -1.546   2.840   1.826  1.00  0.00     0.000 A 
HETATM   21  C26 UNL     1      -1.667   1.730   2.618  1.00  0.00     0.001 A 
ENDBRANCH   1   3
BRANCH   1  22
HETATM   22  C7  UNL     1      -0.480  -0.857  -0.856  1.00  0.00     0.033 A 
HETATM   23  C8  UNL     1      -0.127  -0.253  -2.025  1.00  0.00     0.031 A 
HETATM   24  C9  UNL     1       1.133  -0.426  -2.544  1.00  0.00     0.027 A 
HETATM   25  C10 UNL     1       2.100  -1.198  -1.938  1.00  0.00     0.079 A 
HETATM   26  C18 UNL     1       1.749  -1.813  -0.753  1.00  0.00     0.027 A 
HETATM   27  C19 UNL     1       0.478  -1.646  -0.218  1.00  0.00     0.031 A 
BRANCH  25  28
HETATM   28  S1  UNL     1       3.656  -1.343  -2.687  1.00  0.00     0.259 S 
HETATM   29  O1  UNL     1       3.480  -1.126  -4.184  1.00  0.00    -0.201 OA
HETATM   30  O2  UNL     1       4.273  -2.682  -2.508  1.00  0.00    -0.201 OA
BRANCH  28  31
HETATM   31  N5  UNL     1       4.751  -0.119  -2.152  1.00  0.00    -0.311 N 
ATOM     32  H5  UNL     1       5.177   0.578  -2.763  1.00  0.00     0.172 HD
BRANCH  31  33
HETATM   33  C11 UNL     1       4.988  -0.208  -0.724  1.00  0.00     0.170 C 
BRANCH  33  34
HETATM   34  C12 UNL     1       5.930   0.869  -0.343  1.00  0.00    -0.040 A 
HETATM   35  C13 UNL     1       6.374   1.832  -1.221  1.00  0.00     0.009 A 
HETATM   36  C14 UNL     1       7.260   2.816  -0.804  1.00  0.00     0.001 A 
HETATM   37  C15 UNL     1       7.731   2.878   0.488  1.00  0.00     0.000 A 
HETATM   38  C16 UNL     1       7.285   1.915   1.359  1.00  0.00     0.001 A 
HETATM   39  C17 UNL     1       6.408   0.932   0.962  1.00  0.00     0.009 A 
ENDBRANCH  33  34
ENDBRANCH  31  33
ENDBRANCH  28  31
ENDBRANCH  25  28
ENDBRANCH   1  22
TORSDOF 6
