REMARK  2 active torsions:
REMARK  status: ('A' for Active; 'I' for Inactive)
REMARK    1  A    between atoms: C2_2  and  C3_3 
REMARK    2  A    between atoms: C6_6  and  C7_7 
ROOT
HETATM    1  C7  UNL     1       0.064   0.418   0.863  1.00  0.00     0.258 C 
HETATM    2  O1  UNL     1       0.082  -0.592   1.854  1.00  0.00    -0.220 OA
HETATM    3  O2  UNL     1      -1.096  -0.689   2.400  1.00  0.00    -0.168 OA
HETATM    4  C8  UNL     1      -1.967  -1.506   1.676  1.00  0.00     0.335 C 
HETATM    5  C9  UNL     1      -2.528  -2.633   2.472  1.00  0.00     0.120 C 
HETATM    6  O3  UNL     1      -1.250  -2.005   0.598  1.00  0.00    -0.168 OA
HETATM    7  O4  UNL     1      -1.172  -1.170  -0.386  1.00  0.00    -0.218 OA
HETATM    8  C10 UNL     1      -1.133   0.168   0.016  1.00  0.00     0.160 C 
HETATM    9  C11 UNL     1      -1.246   1.018  -1.199  1.00  0.00     0.025 C 
HETATM   10  C12 UNL     1      -2.023   0.317  -2.302  1.00  0.00     0.013 C 
HETATM   11  C13 UNL     1      -2.103   2.192  -0.752  1.00  0.00     0.010 C 
HETATM   12  C14 UNL     1      -3.171   1.474   0.062  1.00  0.00     0.036 C 
HETATM   13  C15 UNL     1      -2.360   0.518   0.865  1.00  0.00     0.169 C 
HETATM   14  O5  UNL     1      -2.984  -0.675   1.146  1.00  0.00    -0.321 OA
ENDROOT
BRANCH   1  15
HETATM   15  C6  UNL     1       1.330   0.507   0.148  1.00  0.00     0.088 A 
HETATM   16  C5  UNL     1       1.999   1.672  -0.154  1.00  0.00     0.038 A 
HETATM   17  C4  UNL     1       3.140   1.295  -0.829  1.00  0.00     0.035 A 
HETATM   18  C3  UNL     1       3.117  -0.070  -0.907  1.00  0.00     0.053 A 
HETATM   19  O6  UNL     1       2.030  -0.496  -0.317  1.00  0.00    -0.317 OA
BRANCH  18  20
HETATM   20  C2  UNL     1       4.185  -0.897  -1.570  1.00  0.00     0.060 C 
HETATM   21  C1  UNL     1       5.266  -1.275  -0.583  1.00  0.00     0.012 C 
ENDBRANCH  18  20
ENDBRANCH   1  15
TORSDOF 2
