REMARK  0 active torsions:
REMARK  status: ('A' for Active; 'I' for Inactive)
ROOT
HETATM    1  C1  UNL     1       3.079   0.755   0.442  1.00  0.00     0.128 A 
HETATM    2  N1  UNL     1       2.854  -0.574   0.280  1.00  0.00    -0.357 N 
ATOM      3  H1  UNL     1       3.563  -1.307   0.312  1.00  0.00     0.166 HD
HETATM    4  C2  UNL     1       1.562  -0.758   0.074  1.00  0.00     0.082 A 
HETATM    5  C3  UNL     1       0.968   0.457   0.108  1.00  0.00     0.049 A 
HETATM    6  C4  UNL     1       1.892   1.445   0.336  1.00  0.00     0.121 A 
HETATM    7  O1  UNL     1       1.194   2.683   0.350  1.00  0.00    -0.240 OA
HETATM    8  N2  UNL     1      -0.001   2.474  -0.417  1.00  0.00    -0.068 NA
HETATM    9  C5  UNL     1      -0.308   1.138  -0.012  1.00  0.00     0.138 C 
HETATM   10  C6  UNL     1      -1.105   0.266  -0.942  1.00  0.00     0.052 C 
HETATM   11  C7  UNL     1      -1.292  -0.913   0.056  1.00  0.00     0.008 C 
HETATM   12  C8  UNL     1      -1.008  -2.116  -0.611  1.00  0.00     0.086 C 
HETATM   13  S1  UNL     1       0.803  -2.407  -0.254  1.00  0.00    -0.111 SA
HETATM   14  C9  UNL     1      -2.454  -0.399   0.769  1.00  0.00     0.082 C 
HETATM   15  S2  UNL     1      -1.468   1.095   1.395  1.00  0.00    -0.134 SA
ENDROOT
TORSDOF 0
