REMARK  7 active torsions:
REMARK  status: ('A' for Active; 'I' for Inactive)
REMARK    1  A    between atoms: C2_2  and  N1_3 
REMARK       I    between atoms: N1_3  and  C3_5 
REMARK       I    between atoms: C3_5  and  N2_7 
REMARK    2  A    between atoms: N2_7  and  C4_9 
REMARK    3  A    between atoms: C10_17  and  O2_18 
REMARK    4  A    between atoms: O2_18  and  C11_19 
REMARK    5  A    between atoms: C12_21  and  C13_22 
REMARK    6  A    between atoms: C13_22  and  O5_24 
REMARK    7  A    between atoms: C15_26  and  C16_27 
ROOT
HETATM    1  C4  UNL     1       1.786  -0.899   0.692  1.00  0.00     0.120 C 
HETATM    2  C5  UNL     1       1.403  -1.973   1.649  1.00  0.00     0.048 C 
HETATM    3  C6  UNL     1       0.147  -2.576   1.115  1.00  0.00     0.126 C 
HETATM    4  N3  UNL     1      -0.243  -1.811  -0.053  1.00  0.00    -0.367 N 
HETATM    5  C7  UNL     1       0.905  -1.256  -0.521  1.00  0.00     0.169 C 
HETATM    6  S1  UNL     1       0.994   0.073  -1.660  1.00  0.00    -0.137 SA
HETATM    7  C8  UNL     1      -0.150   1.420  -1.457  1.00  0.00     0.117 C 
HETATM    8  C9  UNL     1      -0.934   1.300  -0.225  1.00  0.00    -0.008 C 
HETATM    9  C10 UNL     1      -1.187   2.471   0.334  1.00  0.00     0.154 C 
HETATM   10  C12 UNL     1      -1.505   0.201   0.550  1.00  0.00     0.071 C 
HETATM   11  C15 UNL     1      -1.512  -1.172   0.036  1.00  0.00     0.033 C 
ENDROOT
BRANCH   1  12
HETATM   12  N2  UNL     1       3.192  -1.000   0.286  1.00  0.00    -0.336 N 
HETATM   13  C3  UNL     1       4.083   0.078   0.364  1.00  0.00     0.316 C 
HETATM   14  N1  UNL     1       5.425  -0.088  -0.044  1.00  0.00    -0.343 N 
HETATM   15  O1  UNL     1       3.691   1.184   0.792  1.00  0.00    -0.247 OA
ATOM     16  H1  UNL     1       5.730  -0.997  -0.392  1.00  0.00     0.164 HD
ATOM     17  H2  UNL     1       3.535  -1.893  -0.068  1.00  0.00     0.164 HD
BRANCH  14  18
HETATM   18  C2  UNL     1       6.392   1.017   0.021  1.00  0.00     0.120 C 
HETATM   19  C1  UNL     1       5.887   2.134  -0.846  1.00  0.00     0.026 C 
ENDBRANCH  14  18
ENDBRANCH   1  12
BRANCH  11  20
HETATM   20  C16 UNL     1      -2.378  -1.638  -1.041  1.00  0.00    -0.008 C 
HETATM   21  C17 UNL     1      -3.766  -1.123  -1.170  1.00  0.00     0.021 C 
HETATM   22  C18 UNL     1      -2.600  -3.164  -0.782  1.00  0.00     0.021 C 
HETATM   23  C19 UNL     1      -1.805  -1.689  -2.442  1.00  0.00     0.021 C 
ENDBRANCH  11  20
BRANCH  10  24
HETATM   24  C13 UNL     1      -2.704   0.631   1.297  1.00  0.00     0.295 C 
HETATM   25  O4  UNL     1      -2.829   0.388   2.541  1.00  0.00    -0.259 OA
BRANCH  24  26
HETATM   26  O5  UNL     1      -3.786   1.317   0.765  1.00  0.00    -0.322 OA
HETATM   27  C14 UNL     1      -4.906   1.707   1.510  1.00  0.00     0.213 C 
ENDBRANCH  24  26
ENDBRANCH  10  24
BRANCH   9  28
HETATM   28  O2  UNL     1      -0.736   3.656  -0.229  1.00  0.00    -0.298 OA
BRANCH  28  29
HETATM   29  C11 UNL     1      -0.979   4.903   0.321  1.00  0.00     0.402 C 
HETATM   30  O3  UNL     1      -1.646   4.969   1.394  1.00  0.00    -0.276 OA
ENDBRANCH  28  29
ENDBRANCH   9  28
TORSDOF 7
