REMARK  6 active torsions:
REMARK  status: ('A' for Active; 'I' for Inactive)
REMARK    1  A    between atoms: N2_3  and  C2_5 
REMARK    2  A    between atoms: C4_7  and  C5_8 
REMARK    3  A    between atoms: C6_11  and  N4_12 
REMARK    4  A    between atoms: N6_22  and  C14_23 
REMARK    5  A    between atoms: C14_23  and  C15_24 
REMARK    6  A    between atoms: C15_24  and  O1_25 
ROOT
HETATM    1  N1  UNL     1      -1.443   7.190   2.822  1.00  0.00    -0.172 NA
HETATM    2  C1  UNL     1      -1.653   6.176   2.320  1.00  0.00     0.183 C 
HETATM    3  N2  UNL     1      -1.933   4.947   1.723  1.00  0.00    -0.278 N 
ATOM      4  H2  UNL     1      -2.879   4.773   1.383  1.00  0.00     0.179 HD
ENDROOT
BRANCH   3   5
HETATM    5  C2  UNL     1      -1.051   4.026   1.584  1.00  0.00     0.131 A 
HETATM    6  C3  UNL     1      -1.339   2.795   0.984  1.00  0.00     0.083 A 
HETATM    7  C4  UNL     1      -0.239   1.998   0.966  1.00  0.00     0.079 A 
HETATM    8  N7  UNL     1       0.706   2.792   1.566  1.00  0.00    -0.297 N 
HETATM    9  N8  UNL     1       0.215   3.953   1.914  1.00  0.00    -0.284 N 
ATOM     10  H7  UNL     1       1.674   2.511   1.722  1.00  0.00     0.187 HD
ATOM     11  H8  UNL     1       0.741   4.695   2.376  1.00  0.00     0.188 HD
BRANCH   7  12
HETATM   12  C5  UNL     1       0.172   0.740   0.354  1.00  0.00     0.075 A 
HETATM   13  N3  UNL     1       1.487   0.493   0.338  1.00  0.00    -0.339 N 
HETATM   14  C6  UNL     1       2.046  -0.480  -0.370  1.00  0.00     0.118 A 
ATOM     15  H3  UNL     1       2.095   1.087   0.902  1.00  0.00     0.167 HD
HETATM   16  C12 UNL     1       1.216  -1.268  -1.127  1.00  0.00     0.054 A 
HETATM   17  C13 UNL     1       1.510  -2.295  -1.982  1.00  0.00     0.124 A 
HETATM   18  C16 UNL     1      -0.186  -1.098  -1.175  1.00  0.00     0.079 A 
HETATM   19  N5  UNL     1       0.388  -2.697  -2.498  1.00  0.00    -0.308 N 
HETATM   20  N6  UNL     1      -0.683  -1.973  -2.020  1.00  0.00    -0.289 N 
ATOM     21  H5  UNL     1       0.309  -3.456  -3.175  1.00  0.00     0.186 HD
HETATM   22  C17 UNL     1      -0.721  -0.039  -0.373  1.00  0.00     0.025 A 
HETATM   23  C18 UNL     1      -2.072  -0.132   0.087  1.00  0.00    -0.065 C 
HETATM   24  C19 UNL     1      -3.392   0.075  -0.442  1.00  0.00     0.035 C 
HETATM   25  C23 UNL     1      -2.172  -0.297   1.615  1.00  0.00     0.035 C 
HETATM   26  C20 UNL     1      -4.412  -0.877   0.280  1.00  0.00     0.004 C 
HETATM   27  C21 UNL     1      -4.640  -0.471   1.679  1.00  0.00     0.001 C 
HETATM   28  C22 UNL     1      -3.414   0.143   2.268  1.00  0.00     0.004 C 
BRANCH  14  29
HETATM   29  N4  UNL     1       3.445  -0.743  -0.316  1.00  0.00    -0.366 N 
HETATM   30  C7  UNL     1       3.863  -1.826   0.522  1.00  0.00     0.124 C 
HETATM   31  C8  UNL     1       5.321  -1.728   0.915  1.00  0.00     0.020 C 
HETATM   32  C9  UNL     1       5.686  -0.248   0.904  1.00  0.00     0.003 C 
HETATM   33  C10 UNL     1       5.706   0.174  -0.540  1.00  0.00     0.020 C 
HETATM   34  C11 UNL     1       4.315   0.072  -1.109  1.00  0.00     0.124 C 
ENDBRANCH  14  29
BRANCH  20  35
HETATM   35  C14 UNL     1      -1.982  -2.233  -2.498  1.00  0.00     0.175 C 
BRANCH  35  36
HETATM   36  C15 UNL     1      -2.208  -1.387  -3.762  1.00  0.00     0.185 C 
BRANCH  36  37
HETATM   37  O1  UNL     1      -3.523  -1.681  -4.172  1.00  0.00    -0.399 OA
ATOM     38  H1  UNL     1      -3.663  -1.158  -4.953  1.00  0.00     0.209 HD
ENDBRANCH  36  37
ENDBRANCH  35  36
ENDBRANCH  20  35
ENDBRANCH   7  12
ENDBRANCH   3   5
TORSDOF 6
