REMARK  5 active torsions:
REMARK  status: ('A' for Active; 'I' for Inactive)
REMARK    1  A    between atoms: C2_2  and  C3_3 
REMARK    2  A    between atoms: C14_17  and  S1_18 
REMARK    3  A    between atoms: S1_18  and  C15_19 
REMARK    4  A    between atoms: C15_19  and  C16_20 
REMARK    5  A    between atoms: C16_20  and  C17_21 
ROOT
HETATM    1  C3  UNL     1      -2.723  -0.565  -0.880  1.00  0.00     0.058 C 
HETATM    2  C4  UNL     1      -1.946   0.522  -0.228  1.00  0.00     0.106 C 
HETATM    3  C5  UNL     1      -2.273   0.311   1.246  1.00  0.00     0.054 C 
HETATM    4  C6  UNL     1      -3.686  -0.166   1.316  1.00  0.00    -0.008 C 
HETATM    5  C7  UNL     1      -4.620   1.004   1.511  1.00  0.00     0.018 C 
HETATM    6  C8  UNL     1      -3.840  -1.213   2.374  1.00  0.00     0.038 C 
HETATM    7  C9  UNL     1      -3.639  -2.490   1.589  1.00  0.00     0.169 C 
HETATM    8  O1  UNL     1      -3.947  -2.241   0.279  1.00  0.00    -0.379 OA
HETATM    9  C10 UNL     1      -3.895  -0.898   0.034  1.00  0.00     0.071 C 
HETATM   10  C11 UNL     1      -5.226  -0.487  -0.607  1.00  0.00     0.047 C 
HETATM   11  O2  UNL     1      -2.316   1.796  -0.648  1.00  0.00    -0.347 OA
HETATM   12  C12 UNL     1      -1.145   2.515  -0.349  1.00  0.00     0.258 C 
HETATM   13  C13 UNL     1      -1.163   3.878  -0.999  1.00  0.00     0.071 C 
HETATM   14  O3  UNL     1      -0.181   1.727  -0.970  1.00  0.00    -0.343 OA
HETATM   15  C14 UNL     1      -0.461   0.461  -0.415  1.00  0.00     0.221 C 
ENDROOT
BRANCH  15  16
HETATM   16  S1  UNL     1       0.352   0.362   1.203  1.00  0.00    -0.134 SA
BRANCH  16  17
HETATM   17  C15 UNL     1       2.142   0.293   1.052  1.00  0.00     0.083 C 
BRANCH  17  18
HETATM   18  C16 UNL     1       2.507  -1.020   0.373  1.00  0.00     0.077 C 
BRANCH  18  19
HETATM   19  C17 UNL     1       3.997  -1.035   0.271  1.00  0.00     0.079 A 
HETATM   20  C18 UNL     1       4.644  -2.021   0.869  1.00  0.00     0.039 A 
HETATM   21  C19 UNL     1       6.100  -2.090   0.805  1.00  0.00     0.055 A 
HETATM   22  C20 UNL     1       6.802  -1.165   0.145  1.00  0.00     0.155 A 
HETATM   23  N1  UNL     1       8.198  -0.981  -0.082  1.00  0.00    -0.310 N 
HETATM   24  N4  UNL     1       6.106  -0.127  -0.484  1.00  0.00    -0.136 N 
HETATM   25  C21 UNL     1       8.338   0.196  -0.865  1.00  0.00     0.195 A 
ATOM     26  H1  UNL     1       8.952  -1.580   0.254  1.00  0.00     0.170 HD
HETATM   27  N2  UNL     1       9.461   0.721  -1.295  1.00  0.00    -0.370 N 
HETATM   28  N3  UNL     1       7.039   0.710  -1.104  1.00  0.00    -0.242 N 
ATOM     29  H22 UNL     1      10.396   0.351  -1.123  1.00  0.00     0.159 HD
ATOM     30  H21 UNL     1       9.562   1.566  -1.857  1.00  0.00     0.159 HD
ATOM     31  H3  UNL     1       6.821   1.551  -1.639  1.00  0.00     0.192 HD
HETATM   32  O4  UNL     1       4.709  -0.078  -0.412  1.00  0.00    -0.218 OA
ENDBRANCH  18  19
ENDBRANCH  17  18
ENDBRANCH  16  17
ENDBRANCH  15  16
BRANCH   1  33
HETATM   33  C2  UNL     1      -3.186  -0.274  -2.271  1.00  0.00     0.006 C 
HETATM   34  C1  UNL     1      -2.100  -0.000  -3.258  1.00  0.00     0.006 C 
ENDBRANCH   1  33
TORSDOF 5
