REMARK  7 active torsions:
REMARK  status: ('A' for Active; 'I' for Inactive)
REMARK    1  A    between atoms: C2_2  and  O1_3 
REMARK    2  A    between atoms: C2_2  and  C3_5 
REMARK    3  A    between atoms: C3_5  and  N1_6 
REMARK    4  A    between atoms: C6_9  and  C7_10 
REMARK    5  A    between atoms: C7_10  and  O3_12 
REMARK    6  A    between atoms: O3_12  and  C8_13 
REMARK    7  A    between atoms: C14_20  and  O5_21 
ROOT
HETATM    1  C8  UNL     1      -1.009   0.161  -1.022  1.00  0.00     0.137 C 
HETATM    2  C9  UNL     1      -1.016   1.403  -1.906  1.00  0.00     0.043 C 
HETATM    3  C10 UNL     1      -1.427   2.631  -1.162  1.00  0.00     0.062 C 
HETATM    4  C11 UNL     1      -2.384   3.444  -2.027  1.00  0.00     0.093 A 
HETATM    5  C12 UNL     1      -2.198   4.898  -2.199  1.00  0.00     0.049 C 
HETATM    6  O4  UNL     1      -3.487   2.757  -2.478  1.00  0.00    -0.366 OA
HETATM    7  C13 UNL     1      -3.550   2.994  -1.136  1.00  0.00     0.192 A 
HETATM    8  C14 UNL     1      -2.499   2.494  -0.176  1.00  0.00     0.097 C 
HETATM    9  C15 UNL     1      -2.739   1.159   0.446  1.00  0.00     0.030 C 
HETATM   10  C16 UNL     1      -4.200   1.051   0.818  1.00  0.00     0.009 C 
HETATM   11  C17 UNL     1      -4.809  -0.255   0.409  1.00  0.00     0.010 C 
HETATM   12  C18 UNL     1      -3.928  -1.400   0.859  1.00  0.00    -0.037 C 
HETATM   13  C19 UNL     1      -3.997  -1.459   2.371  1.00  0.00     0.016 C 
HETATM   14  C20 UNL     1      -4.436  -2.703   0.337  1.00  0.00    -0.010 C 
HETATM   15  C21 UNL     1      -5.069  -2.605  -1.032  1.00  0.00     0.011 C 
HETATM   16  C22 UNL     1      -3.177  -3.512   0.198  1.00  0.00     0.005 C 
HETATM   17  C23 UNL     1      -2.255  -2.512  -0.473  1.00  0.00     0.006 C 
HETATM   18  C24 UNL     1      -2.506  -1.268   0.360  1.00  0.00     0.001 C 
HETATM   19  C25 UNL     1      -2.371  -0.007  -0.412  1.00  0.00     0.027 C 
ENDROOT
BRANCH   1  20
HETATM   20  O3  UNL     1       0.044   0.243  -0.101  1.00  0.00    -0.315 OA
BRANCH  20  21
HETATM   21  C7  UNL     1       1.135  -0.612  -0.167  1.00  0.00     0.263 C 
HETATM   22  O2  UNL     1       1.150  -1.464  -1.086  1.00  0.00    -0.265 OA
BRANCH  21  23
HETATM   23  C6  UNL     1       2.256  -0.555   0.783  1.00  0.00     0.092 C 
HETATM   24  C5  UNL     1       2.962   0.786   0.527  1.00  0.00     0.045 C 
HETATM   25  C4  UNL     1       4.426   0.715   1.000  1.00  0.00     0.273 C 
HETATM   26  N1  UNL     1       5.150  -0.112   0.121  1.00  0.00     0.091 N 
HETATM   27  C28 UNL     1       4.325  -1.180  -0.451  1.00  0.00     0.277 C 
HETATM   28  C26 UNL     1       3.283  -1.611   0.573  1.00  0.00     0.023 C 
HETATM   29  C27 UNL     1       2.767  -2.961   0.187  1.00  0.00     0.012 C 
BRANCH  26  30
HETATM   30  C3  UNL     1       6.409  -0.572   0.542  1.00  0.00     0.303 C 
BRANCH  30  31
HETATM   31  C2  UNL     1       7.464   0.487   0.593  1.00  0.00     0.142 C 
HETATM   32  C1  UNL     1       7.272   1.573   1.614  1.00  0.00     0.041 C 
BRANCH  31  33
HETATM   33  O1  UNL     1       8.708  -0.122   0.967  1.00  0.00    -0.394 OA
ATOM     34  H1  UNL     1       8.829  -0.808   0.322  1.00  0.00     0.210 HD
ENDBRANCH  31  33
ENDBRANCH  30  31
ENDBRANCH  26  30
ENDBRANCH  21  23
ENDBRANCH  20  21
ENDBRANCH   1  20
BRANCH   8  35
HETATM   35  O5  UNL     1      -2.355   3.453   0.857  1.00  0.00    -0.386 OA
ATOM     36  H5  UNL     1      -3.051   3.364   1.497  1.00  0.00     0.210 HD
ENDBRANCH   8  35
TORSDOF 7
