REMARK  9 active torsions:
REMARK  status: ('A' for Active; 'I' for Inactive)
REMARK    1  A    between atoms: O1_2  and  C2_3 
REMARK    2  A    between atoms: C5_6  and  N1_7 
REMARK    3  A    between atoms: C9_17  and  C10_18 
REMARK    4  A    between atoms: C11_19  and  C12_20 
REMARK    5  A    between atoms: C12_20  and  C13_21 
REMARK    6  A    between atoms: C13_21  and  C14_22 
REMARK    7  A    between atoms: C14_22  and  N4_23 
REMARK    8  A    between atoms: C15_24  and  N5_25 
REMARK    9  A    between atoms: N5_25  and  C17_27 
ROOT
HETATM    1  C12 UNL     1      -0.390   1.830  -0.479  1.00  0.00     0.096 C 
ENDROOT
BRANCH   1   2
HETATM    2  C11 UNL     1       0.929   1.257  -0.262  1.00  0.00    -0.101 C 
HETATM    3  C10 UNL     1       2.028   0.803  -0.078  1.00  0.00    -0.064 C 
BRANCH   3   4
HETATM    4  C9  UNL     1       3.341   0.286   0.132  1.00  0.00     0.053 A 
HETATM    5  C2  UNL     1       4.371   0.643  -0.721  1.00  0.00     0.088 A 
HETATM    6  C3  UNL     1       5.630   0.143  -0.513  1.00  0.00     0.055 A 
HETATM    7  C4  UNL     1       5.891  -0.703   0.525  1.00  0.00     0.037 A 
HETATM    8  C5  UNL     1       7.155  -1.231   0.770  1.00  0.00     0.112 A 
HETATM    9  C7  UNL     1       4.849  -1.045   1.364  1.00  0.00     0.048 A 
HETATM   10  N2  UNL     1       7.297  -2.060   1.828  1.00  0.00    -0.338 N 
HETATM   11  C6  UNL     1       6.275  -2.375   2.624  1.00  0.00     0.182 A 
ATOM     12  H2  UNL     1       8.216  -2.457   2.024  1.00  0.00     0.168 HD
HETATM   13  N3  UNL     1       5.065  -1.870   2.390  1.00  0.00    -0.351 N 
ATOM     14  H3  UNL     1       4.290  -2.118   3.006  1.00  0.00     0.166 HD
HETATM   15  C8  UNL     1       3.561  -0.564   1.191  1.00  0.00     0.054 A 
BRANCH   5  16
HETATM   16  O1  UNL     1       4.077   1.505  -1.768  1.00  0.00    -0.354 OA
HETATM   17  C1  UNL     1       5.079   1.912  -2.679  1.00  0.00     0.210 C 
ENDBRANCH   5  16
BRANCH   8  18
HETATM   18  N1  UNL     1       8.134  -0.940   0.024  1.00  0.00    -0.385 N 
ATOM     19  H12 UNL     1       8.027  -0.314  -0.774  1.00  0.00     0.157 HD
ATOM     20  H11 UNL     1       9.060  -1.327   0.204  1.00  0.00     0.157 HD
ENDBRANCH   8  18
ENDBRANCH   3   4
ENDBRANCH   1   2
BRANCH   1  21
HETATM   21  C13 UNL     1      -1.232   0.998  -1.354  1.00  0.00     0.033 C 
BRANCH  21  22
HETATM   22  C14 UNL     1      -1.664  -0.344  -0.944  1.00  0.00     0.149 C 
BRANCH  22  23
HETATM   23  N4  UNL     1      -2.519  -0.473   0.197  1.00  0.00    -0.181 N 
HETATM   24  C15 UNL     1      -3.881  -0.352   0.148  1.00  0.00     0.683 A 
HETATM   25  N6  UNL     1      -4.300  -0.573   1.418  1.00  0.00    -0.189 N 
HETATM   26  C20 UNL     1      -3.286  -0.823   2.243  1.00  0.00     0.078 A 
ATOM     27  H6  UNL     1      -5.278  -0.550   1.707  1.00  0.00     0.184 HD
HETATM   28  C21 UNL     1      -3.203  -1.117   3.595  1.00  0.00     0.058 A 
HETATM   29  C25 UNL     1      -2.148  -0.758   1.452  1.00  0.00     0.080 A 
HETATM   30  C22 UNL     1      -1.987  -1.358   4.204  1.00  0.00     0.058 A 
HETATM   31 CL1  UNL     1      -1.909  -1.728   5.917  1.00  0.00    -0.082 Cl
HETATM   32  C23 UNL     1      -0.835  -1.304   3.448  1.00  0.00     0.058 A 
HETATM   33 CL2  UNL     1       0.699  -1.613   4.231  1.00  0.00    -0.082 Cl
HETATM   34  C24 UNL     1      -0.945  -1.010   2.111  1.00  0.00     0.058 A 
BRANCH  24  35
HETATM   35  N5  UNL     1      -4.731  -0.076  -0.958  1.00  0.00    -0.218 N 
HETATM   36  C16 UNL     1      -5.214  -1.138  -1.795  1.00  0.00     0.169 C 
BRANCH  35  37
HETATM   37  C17 UNL     1      -5.148   1.273  -1.220  1.00  0.00     0.093 C 
HETATM   38  C18 UNL     1      -6.667   1.281  -0.945  1.00  0.00     0.032 C 
HETATM   39  C19 UNL     1      -5.003   1.616  -2.699  1.00  0.00     0.032 C 
ENDBRANCH  35  37
ENDBRANCH  24  35
ENDBRANCH  22  23
ENDBRANCH  21  22
ENDBRANCH   1  21
TORSDOF 9
