REMARK  8 active torsions:
REMARK  status: ('A' for Active; 'I' for Inactive)
REMARK    1  A    between atoms: C2_2  and  C4_4 
REMARK    2  A    between atoms: C4_4  and  C5_5 
REMARK    3  A    between atoms: C5_5  and  C6_6 
REMARK    4  A    between atoms: C6_6  and  S1_7 
REMARK    5  A    between atoms: S1_7  and  C7_8 
REMARK    6  A    between atoms: C7_8  and  N1_10 
REMARK    7  A    between atoms: N1_10  and  C8_12 
REMARK    8  A    between atoms: C13_19  and  C14_20 
ROOT
HETATM    1  C7  UNL     1      -0.631   0.219  -0.256  1.00  0.00     0.139 C 
HETATM    2  S2  UNL     1      -0.626   1.619  -1.088  1.00  0.00    -0.053 SA
ENDROOT
BRANCH   1   3
HETATM    3  S1  UNL     1       0.550  -1.058  -0.546  1.00  0.00    -0.098 SA
BRANCH   3   4
HETATM    4  C6  UNL     1       1.925  -0.655  -1.563  1.00  0.00     0.112 C 
BRANCH   4   5
HETATM    5  C5  UNL     1       3.025   0.164  -1.006  1.00  0.00     0.107 C 
HETATM    6  S3  UNL     1       2.508   1.827  -0.502  1.00  0.00    -0.048 SA
HETATM    7  C18 UNL     1       3.955   2.700  -1.069  1.00  0.00     0.287 C 
HETATM    8  O1  UNL     1       4.206   3.892  -0.903  1.00  0.00    -0.260 OA
HETATM    9  N2  UNL     1       4.723   1.726  -1.734  1.00  0.00    -0.287 N 
HETATM   10  C19 UNL     1       3.994   0.568  -2.089  1.00  0.00     0.245 C 
ATOM     11  H2  UNL     1       5.715   1.845  -1.941  1.00  0.00     0.172 HD
HETATM   12  O2  UNL     1       4.090  -0.102  -3.170  1.00  0.00    -0.271 OA
BRANCH   5  13
HETATM   13  C4  UNL     1       3.703  -0.440   0.186  1.00  0.00     0.035 C 
BRANCH  13  14
HETATM   14  C2  UNL     1       4.334  -1.761   0.027  1.00  0.00    -0.021 C 
HETATM   15  C1  UNL     1       4.928  -2.118   1.407  1.00  0.00     0.009 C 
HETATM   16  C3  UNL     1       5.470  -1.869  -0.937  1.00  0.00     0.009 C 
ENDBRANCH  13  14
ENDBRANCH   5  13
ENDBRANCH   4   5
ENDBRANCH   3   4
ENDBRANCH   1   3
BRANCH   1  17
HETATM   17  N1  UNL     1      -1.663   0.045   0.726  1.00  0.00    -0.340 N 
ATOM     18  H1  UNL     1      -1.691  -0.822   1.262  1.00  0.00     0.167 HD
BRANCH  17  19
HETATM   19  C8  UNL     1      -2.641   1.033   0.976  1.00  0.00     0.061 A 
HETATM   20  C9  UNL     1      -2.270   2.189   1.672  1.00  0.00     0.038 A 
HETATM   21 BR1  UNL     1      -0.454   2.359   2.252  1.00  0.00    -0.049 Br
HETATM   22  C10 UNL     1      -3.183   3.163   1.956  1.00  0.00     0.024 A 
HETATM   23  C11 UNL     1      -4.471   2.983   1.544  1.00  0.00     0.044 A 
HETATM   24  C12 UNL     1      -4.880   1.842   0.849  1.00  0.00     0.125 A 
HETATM   25  F1  UNL     1      -6.203   1.807   0.501  1.00  0.00    -0.205 F 
HETATM   26  C13 UNL     1      -3.960   0.863   0.566  1.00  0.00     0.016 A 
BRANCH  26  27
HETATM   27  C14 UNL     1      -4.388  -0.377  -0.102  1.00  0.00    -0.019 C 
HETATM   28  C15 UNL     1      -5.867  -0.413  -0.463  1.00  0.00     0.019 C 
HETATM   29  C16 UNL     1      -3.669  -0.704  -1.389  1.00  0.00     0.019 C 
HETATM   30  C17 UNL     1      -4.177  -1.588   0.809  1.00  0.00     0.019 C 
ENDBRANCH  26  27
ENDBRANCH  17  19
ENDBRANCH   1  17
TORSDOF 8
