REMARK  11 active torsions:
REMARK  status: ('A' for Active; 'I' for Inactive)
REMARK    1  A    between atoms: C3_3  and  C4_4 
REMARK    2  A    between atoms: C4_4  and  N1_5 
REMARK    3  A    between atoms: N1_5  and  C5_6 
REMARK       I    between atoms: N1_5  and  C7_8 
REMARK       I    between atoms: C7_8  and  N2_10 
REMARK    4  A    between atoms: N2_10  and  C8_12 
REMARK    5  A    between atoms: C8_12  and  N3_14 
REMARK    6  A    between atoms: N3_14  and  C9_16 
REMARK    7  A    between atoms: C9_16  and  C10_17 
REMARK    8  A    between atoms: C9_16  and  C13_26 
REMARK    9  A    between atoms: C12_20  and  N4_21 
REMARK   10  A    between atoms: C13_26  and  O2_28 
REMARK   11  A    between atoms: O2_28  and  C15_29 
ROOT
HETATM    1  C9  UNL     1      -2.554   0.315  -0.739  1.00  0.00     0.163 C 
ENDROOT
BRANCH   1   2
HETATM    2  N3  UNL     1      -1.285  -0.338  -0.609  1.00  0.00    -0.354 N 
ATOM      3  H3  UNL     1      -1.180  -1.308  -0.907  1.00  0.00     0.162 HD
BRANCH   2   4
HETATM    4  C8  UNL     1      -0.180   0.355  -0.071  1.00  0.00     0.176 C 
HETATM    5  S1  UNL     1      -0.291   1.903   0.417  1.00  0.00    -0.041 SA
BRANCH   4   6
HETATM    6  N2  UNL     1       1.065  -0.311   0.049  1.00  0.00    -0.285 N 
HETATM    7  C7  UNL     1       2.199   0.351   0.583  1.00  0.00     0.324 C 
HETATM    8  N1  UNL     1       3.453  -0.279   0.717  1.00  0.00    -0.331 N 
HETATM    9  O1  UNL     1       2.139   1.563   0.975  1.00  0.00    -0.247 OA
ATOM     10  H2  UNL     1       1.146  -1.282  -0.254  1.00  0.00     0.173 HD
BRANCH   8  11
HETATM   11  C4  UNL     1       4.584   0.422   1.277  1.00  0.00     0.154 C 
BRANCH  11  12
HETATM   12  C3  UNL     1       5.379   1.130   0.250  1.00  0.00    -0.011 C 
HETATM   13  C2  UNL     1       6.658   0.878   0.018  1.00  0.00    -0.033 C 
HETATM   14  C1  UNL     1       7.425   1.611  -1.024  1.00  0.00     0.036 C 
ENDBRANCH  11  12
ENDBRANCH   8  11
BRANCH   8  15
HETATM   15  C5  UNL     1       3.642  -1.640   0.287  1.00  0.00     0.123 C 
HETATM   16  C6  UNL     1       3.340  -2.639   1.383  1.00  0.00     0.026 C 
ENDBRANCH   8  15
ENDBRANCH   4   6
ENDBRANCH   2   4
ENDBRANCH   1   2
BRANCH   1  17
HETATM   17  C10 UNL     1      -3.055   0.836   0.612  1.00  0.00     0.043 A 
HETATM   18  C11 UNL     1      -3.621   2.083   0.708  1.00  0.00     0.080 A 
HETATM   19  S2  UNL     1      -3.997   2.189   2.364  1.00  0.00    -0.064 SA
HETATM   20  C12 UNL     1      -3.424   0.664   2.850  1.00  0.00     0.142 A 
HETATM   21  N5  UNL     1      -2.967   0.134   1.723  1.00  0.00    -0.338 N 
ATOM     22  H5  UNL     1      -2.555  -0.799   1.717  1.00  0.00     0.168 HD
BRANCH  20  23
HETATM   23  N4  UNL     1      -3.427   0.127   4.053  1.00  0.00    -0.380 N 
ATOM     24  H42 UNL     1      -3.778   0.535   4.920  1.00  0.00     0.158 HD
ATOM     25  H41 UNL     1      -3.083  -0.788   4.345  1.00  0.00     0.158 HD
ENDBRANCH  20  23
ENDBRANCH   1  17
BRANCH   1  26
HETATM   26  C13 UNL     1      -3.605  -0.629  -1.330  1.00  0.00     0.156 C 
HETATM   27  C14 UNL     1      -3.694  -1.923  -0.562  1.00  0.00     0.042 C 
BRANCH  26  28
HETATM   28  O2  UNL     1      -4.839   0.005  -1.467  1.00  0.00    -0.314 OA
BRANCH  28  29
HETATM   29  C15 UNL     1      -5.380   0.209  -2.719  1.00  0.00     0.255 C 
HETATM   30  C16 UNL     1      -6.680   0.873  -2.927  1.00  0.00     0.126 C 
HETATM   31  O3  UNL     1      -4.734  -0.190  -3.712  1.00  0.00    -0.266 OA
ENDBRANCH  28  29
ENDBRANCH  26  28
ENDBRANCH   1  26
TORSDOF 11
