REMARK  13 active torsions:
REMARK  status: ('A' for Active; 'I' for Inactive)
REMARK    1  A    between atoms: C2_2  and  C3_3 
REMARK    2  A    between atoms: C3_3  and  C4_4 
REMARK    3  A    between atoms: C4_4  and  C5_5 
REMARK    4  A    between atoms: C5_5  and  N1_6 
REMARK    5  A    between atoms: N1_6  and  C6_8 
REMARK    6  A    between atoms: C10_16  and  N5_17 
REMARK    7  A    between atoms: N5_17  and  C11_19 
REMARK    8  A    between atoms: C14_22  and  C15_23 
REMARK    9  A    between atoms: C15_23  and  N6_24 
REMARK   10  A    between atoms: N6_24  and  C16_26 
REMARK   11  A    between atoms: C16_26  and  C17_27 
REMARK   12  A    between atoms: C17_27  and  C18_28 
REMARK   13  A    between atoms: C18_28  and  N7_29 
ROOT
HETATM    1  C6  UNL     1       4.910  -1.144   0.062  1.00  0.00     0.681 A 
HETATM    2  N2  UNL     1       5.955  -1.302  -0.733  1.00  0.00    -0.177 N 
ATOM      3  H2  UNL     1       6.894  -1.144  -0.367  1.00  0.00     0.185 HD
HETATM    4  C7  UNL     1       5.796  -1.667  -2.014  1.00  0.00     0.156 A 
HETATM    5  N3  UNL     1       6.901  -1.846  -2.898  1.00  0.00    -0.080 NA
HETATM    6  C8  UNL     1       4.539  -1.894  -2.563  1.00  0.00     0.130 A 
HETATM    7  C9  UNL     1       4.342  -2.283  -3.927  1.00  0.00     0.107 C 
HETATM    8  N4  UNL     1       4.200  -2.610  -5.047  1.00  0.00    -0.191 NA
HETATM    9  C10 UNL     1       3.462  -1.725  -1.725  1.00  0.00     0.145 A 
HETATM   10  N8  UNL     1       3.663  -1.361  -0.455  1.00  0.00    -0.175 N 
ATOM     11  H8  UNL     1       2.853  -1.240   0.153  1.00  0.00     0.186 HD
ENDROOT
BRANCH   9  12
HETATM   12  N5  UNL     1       2.290  -1.930  -2.207  1.00  0.00    -0.341 N 
ATOM     13  H5  UNL     1       2.183  -2.209  -3.182  1.00  0.00     0.167 HD
BRANCH  12  14
HETATM   14  C11 UNL     1       1.148  -1.771  -1.392  1.00  0.00     0.033 A 
HETATM   15  C12 UNL     1       0.378  -0.635  -1.468  1.00  0.00     0.030 A 
HETATM   16  C13 UNL     1      -0.743  -0.529  -0.633  1.00  0.00     0.011 A 
HETATM   17  C14 UNL     1      -1.077  -1.521   0.240  1.00  0.00    -0.041 A 
HETATM   18  C24 UNL     1      -0.303  -2.655   0.312  1.00  0.00     0.011 A 
HETATM   19  C25 UNL     1       0.814  -2.774  -0.511  1.00  0.00     0.030 A 
BRANCH  17  20
HETATM   20  C15 UNL     1      -2.262  -1.413   1.127  1.00  0.00     0.152 C 
BRANCH  20  21
HETATM   21  N6  UNL     1      -3.340  -2.113   0.509  1.00  0.00    -0.417 N 
ATOM     22  H6  UNL     1      -3.234  -2.576  -0.394  1.00  0.00     0.153 HD
BRANCH  21  23
HETATM   23  C16 UNL     1      -4.578  -2.130   1.224  1.00  0.00     0.115 C 
BRANCH  23  24
HETATM   24  C17 UNL     1      -5.172  -0.744   1.240  1.00  0.00     0.049 C 
BRANCH  24  25
HETATM   25  C18 UNL     1      -5.429  -0.249  -0.158  1.00  0.00     0.274 C 
BRANCH  25  26
HETATM   26  N7  UNL     1      -5.999   1.069  -0.188  1.00  0.00     0.088 N 
HETATM   27  C19 UNL     1      -6.223   1.485  -1.532  1.00  0.00     0.272 C 
HETATM   28  C20 UNL     1      -6.970   2.795  -1.641  1.00  0.00     0.030 C 
HETATM   29  C21 UNL     1      -8.346   2.503  -1.040  1.00  0.00     0.003 C 
HETATM   30  C22 UNL     1      -8.115   2.208   0.416  1.00  0.00     0.030 C 
HETATM   31  C23 UNL     1      -7.084   1.210   0.713  1.00  0.00     0.272 C 
ENDBRANCH  25  26
ENDBRANCH  24  25
ENDBRANCH  23  24
ENDBRANCH  21  23
ENDBRANCH  20  21
ENDBRANCH  17  20
ENDBRANCH  12  14
ENDBRANCH   9  12
BRANCH   1  32
HETATM   32  N1  UNL     1       4.971  -0.797   1.297  1.00  0.00    -0.226 N 
ATOM     33  H1  UNL     1       4.077  -0.716   1.780  1.00  0.00     0.177 HD
BRANCH  32  34
HETATM   34  C5  UNL     1       6.123  -0.512   2.076  1.00  0.00     0.138 C 
BRANCH  34  35
HETATM   35  C4  UNL     1       5.997   0.777   2.863  1.00  0.00     0.020 C 
BRANCH  35  36
HETATM   36  C3  UNL     1       5.785   1.967   1.974  1.00  0.00     0.001 C 
BRANCH  36  37
HETATM   37  C2  UNL     1       6.896   2.190   0.998  1.00  0.00    -0.004 C 
HETATM   38  C1  UNL     1       6.527   3.430   0.173  1.00  0.00     0.005 C 
ENDBRANCH  36  37
ENDBRANCH  35  36
ENDBRANCH  34  35
ENDBRANCH  32  34
ENDBRANCH   1  32
TORSDOF 13
