REMARK  17 active torsions:
REMARK  status: ('A' for Active; 'I' for Inactive)
REMARK    1  A    between atoms: C3_3  and  C4_4 
REMARK    2  A    between atoms: C5_5  and  C6_6 
REMARK    3  A    between atoms: C6_6  and  C7_7 
REMARK    4  A    between atoms: C7_7  and  C8_8 
REMARK    5  A    between atoms: C8_8  and  O1_9 
REMARK    6  A    between atoms: C8_8  and  C9_11 
REMARK    7  A    between atoms: C9_11  and  C10_12 
REMARK    8  A    between atoms: C10_12  and  C11_13 
REMARK    9  A    between atoms: C11_13  and  C12_14 
REMARK   10  A    between atoms: C13_15  and  C14_16 
REMARK   11  A    between atoms: C14_16  and  C15_17 
REMARK   12  A    between atoms: C19_21  and  O2_22 
REMARK   13  A    between atoms: O2_22  and  C20_23 
REMARK   14  A    between atoms: C22_25  and  O3_26 
REMARK   15  A    between atoms: C23_28  and  O4_29 
REMARK   16  A    between atoms: C24_31  and  O5_32 
REMARK   17  A    between atoms: C25_34  and  O6_35 
ROOT
HETATM    1  C15 UNL     1      -1.745   0.449  -0.772  1.00  0.00     0.025 C 
HETATM    2  C16 UNL     1      -0.543   1.259  -1.279  1.00  0.00     0.034 C 
HETATM    3  C17 UNL     1      -0.708   2.476  -0.402  1.00  0.00    -0.028 C 
HETATM    4  C18 UNL     1      -1.989   2.632  -0.105  1.00  0.00     0.001 C 
HETATM    5  C19 UNL     1      -2.785   1.554  -0.744  1.00  0.00     0.149 C 
ENDROOT
BRANCH   1   6
HETATM    6  C14 UNL     1      -1.485  -0.147   0.566  1.00  0.00     0.034 C 
BRANCH   6   7
HETATM    7  C13 UNL     1      -0.282  -1.062   0.417  1.00  0.00    -0.030 C 
HETATM    8  C12 UNL     1       0.806  -0.854   1.114  1.00  0.00    -0.031 C 
BRANCH   8   9
HETATM    9  C11 UNL     1       2.066  -1.587   1.134  1.00  0.00     0.027 C 
BRANCH   9  10
HETATM   10  C10 UNL     1       2.231  -2.724   0.182  1.00  0.00     0.006 C 
BRANCH  10  11
HETATM   11  C9  UNL     1       2.244  -2.338  -1.267  1.00  0.00     0.032 C 
BRANCH  11  12
HETATM   12  C8  UNL     1       3.397  -1.366  -1.527  1.00  0.00     0.118 C 
BRANCH  12  13
HETATM   13  C7  UNL     1       4.707  -2.004  -1.183  1.00  0.00     0.035 C 
BRANCH  13  14
HETATM   14  C6  UNL     1       5.815  -1.008  -1.529  1.00  0.00     0.029 C 
BRANCH  14  15
HETATM   15  C5  UNL     1       5.691   0.245  -0.787  1.00  0.00    -0.027 C 
HETATM   16  C4  UNL     1       6.612   0.691   0.022  1.00  0.00    -0.004 C 
BRANCH  16  17
HETATM   17  C3  UNL     1       7.868   0.051   0.318  1.00  0.00    -0.005 C 
HETATM   18  C2  UNL     1       8.745   0.601   1.169  1.00  0.00    -0.031 C 
HETATM   19  C1  UNL     1       8.430   1.890   1.824  1.00  0.00     0.036 C 
ENDBRANCH  16  17
ENDBRANCH  14  15
ENDBRANCH  13  14
ENDBRANCH  12  13
BRANCH  12  20
HETATM   20  O1  UNL     1       3.419  -1.064  -2.917  1.00  0.00    -0.396 OA
ATOM     21  H1  UNL     1       2.588  -0.659  -3.135  1.00  0.00     0.210 HD
ENDBRANCH  12  20
ENDBRANCH  11  12
ENDBRANCH  10  11
ENDBRANCH   9  10
ENDBRANCH   8   9
ENDBRANCH   6   7
ENDBRANCH   1   6
BRANCH   5  22
HETATM   22  O2  UNL     1      -3.794   1.179   0.052  1.00  0.00    -0.374 OA
BRANCH  22  23
HETATM   23  C20 UNL     1      -5.057   1.063  -0.376  1.00  0.00     0.156 C 
HETATM   24  C21 UNL     1      -6.039   2.059   0.186  1.00  0.00     0.069 C 
HETATM   25  C22 UNL     1      -6.643   1.669   1.495  1.00  0.00     0.152 C 
HETATM   26  C23 UNL     1      -7.115   0.258   1.574  1.00  0.00     0.178 C 
HETATM   27  C24 UNL     1      -6.208  -0.749   0.951  1.00  0.00     0.180 C 
HETATM   28  C25 UNL     1      -5.671  -0.304  -0.382  1.00  0.00     0.178 C 
BRANCH  25  29
HETATM   29  O3  UNL     1      -5.814   2.007   2.590  1.00  0.00    -0.393 OA
ATOM     30  H3  UNL     1      -6.198   1.759   3.423  1.00  0.00     0.210 HD
ENDBRANCH  25  29
BRANCH  26  31
HETATM   31  O4  UNL     1      -8.407   0.187   1.012  1.00  0.00    -0.390 OA
ATOM     32  H4  UNL     1      -8.708  -0.713   1.062  1.00  0.00     0.210 HD
ENDBRANCH  26  31
BRANCH  27  33
HETATM   33  O5  UNL     1      -7.011  -1.883   0.665  1.00  0.00    -0.390 OA
ATOM     34  H5  UNL     1      -6.433  -2.524   0.268  1.00  0.00     0.210 HD
ENDBRANCH  27  33
BRANCH  28  35
HETATM   35  O6  UNL     1      -4.873  -1.272  -0.931  1.00  0.00    -0.390 OA
ATOM     36  H6  UNL     1      -5.262  -2.139  -0.935  1.00  0.00     0.210 HD
ENDBRANCH  28  35
ENDBRANCH  22  23
ENDBRANCH   5  22
TORSDOF 17
