REMARK  7 active torsions:
REMARK  status: ('A' for Active; 'I' for Inactive)
REMARK    1  A    between atoms: O1_2  and  C2_3 
REMARK    2  A    between atoms: C2_3  and  C3_4 
REMARK    3  A    between atoms: C3_4  and  N1_5 
REMARK    4  A    between atoms: C3_4  and  C12_19 
REMARK       I    between atoms: N1_5  and  C4_7 
REMARK       I    between atoms: C4_7  and  N2_9 
REMARK    5  A    between atoms: N2_9  and  C5_11 
REMARK    6  A    between atoms: C5_11  and  C6_12 
REMARK    7  A    between atoms: C14_22  and  N3_23 
REMARK       I    between atoms: N3_23  and  C15_25 
ROOT
HETATM    1  C3  UNL     1       1.417  -1.307   0.003  1.00  0.00     0.160 C 
ENDROOT
BRANCH   1   2
HETATM    2  C2  UNL     1       1.618  -2.685  -0.538  1.00  0.00     0.198 C 
BRANCH   2   3
HETATM    3  O1  UNL     1       1.758  -2.737  -1.915  1.00  0.00    -0.394 OA
HETATM    4  C1  UNL     1       1.936  -4.104  -2.231  1.00  0.00     0.201 C 
ENDBRANCH   2   3
ENDBRANCH   1   2
BRANCH   1   5
HETATM    5  N1  UNL     1       0.235  -0.651  -0.514  1.00  0.00    -0.331 N 
HETATM    6  C4  UNL     1      -0.839  -0.234   0.312  1.00  0.00     0.317 C 
HETATM    7  O2  UNL     1      -0.753  -0.447   1.546  1.00  0.00    -0.247 OA
HETATM    8  N2  UNL     1      -1.988   0.405  -0.195  1.00  0.00    -0.327 N 
ATOM      9  H2  UNL     1      -2.031   0.567  -1.201  1.00  0.00     0.165 HD
ATOM     10  H1  UNL     1       0.172  -0.481  -1.518  1.00  0.00     0.165 HD
BRANCH   8  11
HETATM   11  C5  UNL     1      -3.095   0.843   0.590  1.00  0.00     0.087 C 
HETATM   12  C7  UNL     1      -2.717   1.822   1.672  1.00  0.00     0.038 C 
HETATM   13  C8  UNL     1      -3.399   1.524   2.991  1.00  0.00     0.003 C 
HETATM   14  C9  UNL     1      -4.874   1.243   2.797  1.00  0.00     0.000 C 
HETATM   15  C10 UNL     1      -5.070   0.054   1.907  1.00  0.00     0.003 C 
HETATM   16  C11 UNL     1      -3.767  -0.359   1.252  1.00  0.00     0.038 C 
BRANCH  11  17
HETATM   17  C6  UNL     1      -4.129   1.478  -0.263  1.00  0.00     0.262 C 
HETATM   18  O3  UNL     1      -3.926   1.546  -1.459  1.00  0.00    -0.304 OA
ENDBRANCH  11  17
ENDBRANCH   8  11
ENDBRANCH   1   5
BRANCH   1  19
HETATM   19  C12 UNL     1       2.644  -0.449  -0.303  1.00  0.00     0.043 A 
HETATM   20  C13 UNL     1       3.592  -0.273   0.677  1.00  0.00     0.080 A 
HETATM   21  S1  UNL     1       4.731   0.728  -0.102  1.00  0.00    -0.064 SA
HETATM   22  C14 UNL     1       3.954   0.867  -1.608  1.00  0.00     0.151 A 
HETATM   23  N6  UNL     1       2.850   0.137  -1.450  1.00  0.00    -0.338 N 
ATOM     24  H6  UNL     1       2.179   0.038  -2.212  1.00  0.00     0.168 HD
BRANCH  22  25
HETATM   25  N3  UNL     1       4.328   1.528  -2.687  1.00  0.00    -0.311 N 
HETATM   26  C15 UNL     1       5.553   2.227  -2.589  1.00  0.00     0.187 C 
HETATM   27  N4  UNL     1       6.375   2.301  -3.568  1.00  0.00    -0.373 N 
HETATM   28  N5  UNL     1       5.874   2.863  -1.368  1.00  0.00    -0.064 NA
ATOM     29  H42 UNL     1       6.143   1.842  -4.449  1.00  0.00     0.158 HD
ATOM     30  H41 UNL     1       7.259   2.805  -3.497  1.00  0.00     0.158 HD
ATOM     31  H3  UNL     1       3.768   1.534  -3.539  1.00  0.00     0.170 HD
ENDBRANCH  22  25
ENDBRANCH   1  19
TORSDOF 7
