REMARK  6 active torsions:
REMARK  status: ('A' for Active; 'I' for Inactive)
REMARK    1  A    between atoms: C2_3  and  N2_4 
REMARK    2  A    between atoms: N5_14  and  N6_15 
REMARK       I    between atoms: N6_15  and  C6_17 
REMARK    3  A    between atoms: C6_17  and  C7_19 
REMARK    4  A    between atoms: C7_19  and  N7_20 
REMARK    5  A    between atoms: N7_20  and  N8_22 
REMARK       I    between atoms: N8_22  and  C8_23 
REMARK       I    between atoms: C8_23  and  N9_25 
REMARK    6  A    between atoms: C9_28  and  N10_29 
ROOT
HETATM    1  C1  UNL     1      -4.843  -1.416   1.805  1.00  0.00     0.177 C 
HETATM    2  N1  UNL     1      -3.975  -0.821   0.809  1.00  0.00    -0.170 N 
HETATM    3  C2  UNL     1      -4.253  -0.236  -0.335  1.00  0.00     0.681 A 
HETATM    4  N3  UNL     1      -3.133   0.179  -0.954  1.00  0.00    -0.180 N 
HETATM    5  C3  UNL     1      -3.101   0.845  -2.205  1.00  0.00     0.176 C 
HETATM    6  C4  UNL     1      -2.080  -0.161  -0.161  1.00  0.00     0.142 A 
HETATM    7  C5  UNL     1      -0.736   0.012  -0.292  1.00  0.00     0.170 A 
HETATM    8  N4  UNL     1      -0.229   0.576  -1.278  1.00  0.00    -0.382 N 
ATOM      9  H41 UNL     1       0.778   0.706  -1.376  1.00  0.00     0.157 HD
ATOM     10  H42 UNL     1      -0.857   0.915  -2.007  1.00  0.00     0.157 HD
HETATM   11  N5  UNL     1       0.124  -0.452   0.707  1.00  0.00    -0.065 N 
HETATM   12  C9  UNL     1      -0.453  -1.051   1.754  1.00  0.00     0.700 A 
HETATM   13  N11 UNL     1      -1.795  -1.225   1.888  1.00  0.00    -0.172 N 
ATOM     14  H11 UNL     1      -2.167  -1.691   2.715  1.00  0.00     0.186 HD
HETATM   15  C10 UNL     1      -2.624  -0.788   0.942  1.00  0.00     0.170 A 
ENDROOT
BRANCH  11  16
HETATM   16  N6  UNL     1       1.469  -0.256   0.530  1.00  0.00    -0.242 N 
HETATM   17  C6  UNL     1       2.611  -0.544   1.250  1.00  0.00     0.278 C 
HETATM   18  O1  UNL     1       2.744  -1.109   2.355  1.00  0.00    -0.265 OA
ATOM     19  H6  UNL     1       1.677   0.219  -0.349  1.00  0.00     0.191 HD
BRANCH  17  20
HETATM   20  C7  UNL     1       3.922  -0.129   0.644  1.00  0.00     0.196 C 
BRANCH  20  21
HETATM   21  N7  UNL     1       3.923   0.462  -0.498  1.00  0.00    -0.236 N 
ATOM     22  H7  UNL     1       3.025   0.628  -0.953  1.00  0.00     0.201 HD
BRANCH  21  23
HETATM   23  N8  UNL     1       5.038   0.875  -1.129  1.00  0.00    -0.261 NA
HETATM   24  C8  UNL     1       6.122   1.276  -1.741  1.00  0.00     0.476 C 
HETATM   25  O2  UNL     1       6.364   2.371  -2.385  1.00  0.00    -0.222 OA
HETATM   26  N9  UNL     1       7.314   0.408  -1.753  1.00  0.00    -0.040 N 
HETATM   27  O3  UNL     1       7.253  -0.690  -1.176  1.00  0.00    -0.527 OA
HETATM   28  O4  UNL     1       8.418   0.848  -2.388  1.00  0.00    -0.527 OA
ENDBRANCH  21  23
ENDBRANCH  20  21
ENDBRANCH  17  20
ENDBRANCH  11  16
BRANCH  12  29
HETATM   29  N10 UNL     1       0.269  -1.506   2.719  1.00  0.00    -0.233 N 
ATOM     30 2H10 UNL     1       1.276  -1.375   2.618  1.00  0.00     0.174 HD
ATOM     31 1H10 UNL     1      -0.171  -1.963   3.518  1.00  0.00     0.174 HD
ENDBRANCH  12  29
BRANCH   3  32
HETATM   32  N2  UNL     1      -5.463  -0.085  -0.798  1.00  0.00    -0.234 N 
ATOM     33  H22 UNL     1      -6.312  -0.400  -0.329  1.00  0.00     0.174 HD
ATOM     34  H21 UNL     1      -5.679   0.369  -1.686  1.00  0.00     0.174 HD
ENDBRANCH   3  32
TORSDOF 6
