REMARK  5 active torsions:
REMARK  status: ('A' for Active; 'I' for Inactive)
REMARK    1  A    between atoms: C3_4  and  C4_5 
REMARK    2  A    between atoms: N2_6  and  N3_8 
REMARK    3  A    between atoms: N3_8  and  C5_10 
REMARK    4  A    between atoms: C6_13  and  N5_14 
REMARK    5  A    between atoms: C7_19  and  N7_20 
ROOT
HETATM    1  N3  UNL     1       2.309  -1.759  -0.766  1.00  0.00    -0.131 N 
ATOM      2  H3  UNL     1       2.495  -2.569  -1.357  1.00  0.00     0.205 HD
ENDROOT
BRANCH   1   3
HETATM    3  N2  UNL     1       1.006  -1.371  -0.537  1.00  0.00    -0.297 N 
HETATM    4  C4  UNL     1       0.386  -0.447  -1.191  1.00  0.00     0.120 C 
ATOM      5  H2  UNL     1       0.494  -1.850   0.204  1.00  0.00     0.186 HD
BRANCH   4   6
HETATM    6  C3  UNL     1      -0.994  -0.150  -0.831  1.00  0.00    -0.003 A 
HETATM    7  C2  UNL     1      -1.640  -0.823   0.177  1.00  0.00     0.105 A 
HETATM    8  N1  UNL     1      -2.915  -0.567   0.529  1.00  0.00    -0.346 N 
HETATM    9  C1  UNL     1      -3.526  -1.324   1.607  1.00  0.00     0.157 C 
HETATM   10  C12 UNL     1      -3.570   0.394  -0.146  1.00  0.00     0.117 A 
HETATM   11  C9  UNL     1      -3.005   1.129  -1.178  1.00  0.00     0.010 A 
HETATM   12  N9  UNL     1      -4.843   0.861  -0.013  1.00  0.00    -0.351 N 
HETATM   13  C8  UNL     1      -1.686   0.831  -1.509  1.00  0.00     0.029 A 
HETATM   14  C10 UNL     1      -3.928   2.031  -1.662  1.00  0.00     0.032 A 
HETATM   15  C11 UNL     1      -5.068   1.840  -0.914  1.00  0.00     0.090 A 
ATOM     16  H9  UNL     1      -5.524   0.521   0.666  1.00  0.00     0.166 HD
ENDBRANCH   4   6
ENDBRANCH   1   3
BRANCH   1  17
HETATM   17  C5  UNL     1       3.293  -1.115  -0.246  1.00  0.00     0.725 A 
HETATM   18  N4  UNL     1       4.543  -1.540  -0.504  1.00  0.00    -0.020 N 
HETATM   19  C6  UNL     1       5.599  -0.892   0.023  1.00  0.00     0.705 A 
ATOM     20  H4  UNL     1       4.691  -2.355  -1.100  1.00  0.00     0.203 HD
HETATM   21  N6  UNL     1       5.377   0.174   0.802  1.00  0.00    -0.022 N 
HETATM   22  C7  UNL     1       4.135   0.612   1.070  1.00  0.00     0.705 A 
ATOM     23  H6  UNL     1       6.174   0.668   1.204  1.00  0.00     0.203 HD
HETATM   24  N8  UNL     1       3.078  -0.042   0.539  1.00  0.00    -0.020 N 
ATOM     25  H8  UNL     1       2.127   0.274   0.731  1.00  0.00     0.203 HD
BRANCH  19  26
HETATM   26  N5  UNL     1       6.815  -1.305  -0.228  1.00  0.00    -0.234 N 
ATOM     27  H52 UNL     1       6.984  -2.117  -0.821  1.00  0.00     0.174 HD
ATOM     28  H51 UNL     1       7.615  -0.814   0.171  1.00  0.00     0.174 HD
ENDBRANCH  19  26
BRANCH  22  29
HETATM   29  N7  UNL     1       3.961   1.643   1.824  1.00  0.00    -0.234 N 
ATOM     30  H72 UNL     1       4.759   2.137   2.225  1.00  0.00     0.174 HD
ATOM     31  H71 UNL     1       3.018   1.975   2.027  1.00  0.00     0.174 HD
ENDBRANCH  22  29
ENDBRANCH   1  17
TORSDOF 5
