REMARK  3 active torsions:
REMARK  status: ('A' for Active; 'I' for Inactive)
REMARK    1  A    between atoms: N1_1  and  C1_4 
REMARK    2  A    between atoms: C5_15  and  C6_16 
REMARK    3  A    between atoms: C6_16  and  C7_17 
ROOT
HETATM    1  C1  UNL     1       4.578   0.013   0.442  1.00  0.00     0.133 A 
HETATM    2  N2  UNL     1       5.223   0.227  -0.709  1.00  0.00    -0.293 N 
ATOM      3  H2  UNL     1       6.237   0.123  -0.752  1.00  0.00     0.172 HD
HETATM    4  C2  UNL     1       4.539   0.578  -1.807  1.00  0.00     0.327 A 
HETATM    5  O1  UNL     1       5.171   0.778  -2.895  1.00  0.00    -0.247 OA
HETATM    6  N3  UNL     1       3.213   0.714  -1.756  1.00  0.00    -0.293 N 
ATOM      7  H3  UNL     1       2.722   0.982  -2.609  1.00  0.00     0.172 HD
HETATM    8  C3  UNL     1       2.481   0.514  -0.626  1.00  0.00     0.137 A 
HETATM    9  C4  UNL     1       3.187   0.154   0.502  1.00  0.00     0.118 A 
HETATM   10  N4  UNL     1       2.414  -0.009   1.505  1.00  0.00    -0.362 N 
ATOM     11  H4  UNL     1       2.687  -0.275   2.451  1.00  0.00     0.162 HD
HETATM   12  C5  UNL     1       1.078   0.258   1.034  1.00  0.00     0.188 A 
HETATM   13  N6  UNL     1       1.220   0.591  -0.366  1.00  0.00    -0.353 N 
ATOM     14  H6  UNL     1       0.474   0.837  -1.016  1.00  0.00     0.163 HD
ENDROOT
BRANCH  12  15
HETATM   15  C6  UNL     1       0.163  -0.940   1.245  1.00  0.00     0.103 C 
BRANCH  15  16
HETATM   16  C7  UNL     1      -1.208  -0.646   0.753  1.00  0.00     0.014 A 
HETATM   17  C8  UNL     1      -1.672  -0.879  -0.529  1.00  0.00     0.038 A 
HETATM   18  C9  UNL     1      -3.001  -0.450  -0.521  1.00  0.00    -0.008 A 
HETATM   19  C10 UNL     1      -3.994  -0.417  -1.482  1.00  0.00     0.014 A 
HETATM   20  C14 UNL     1      -3.320   0.026   0.735  1.00  0.00     0.042 A 
HETATM   21  C11 UNL     1      -5.251   0.074  -1.188  1.00  0.00     0.001 A 
HETATM   22  C12 UNL     1      -5.549   0.544   0.069  1.00  0.00     0.002 A 
HETATM   23  C13 UNL     1      -4.572   0.522   1.047  1.00  0.00     0.030 A 
HETATM   24  N5  UNL     1      -2.203  -0.113   1.470  1.00  0.00    -0.359 N 
ATOM     25  H5  UNL     1      -2.124   0.154   2.451  1.00  0.00     0.166 HD
ENDBRANCH  15  16
ENDBRANCH  12  15
BRANCH   1  26
HETATM   26  N1  UNL     1       5.213  -0.325   1.513  1.00  0.00    -0.383 N 
ATOM     27  H12 UNL     1       6.227  -0.428   1.469  1.00  0.00     0.157 HD
ATOM     28  H11 UNL     1       4.721  -0.488   2.391  1.00  0.00     0.157 HD
ENDBRANCH   1  26
TORSDOF 3
