REMARK  4 active torsions:
REMARK  status: ('A' for Active; 'I' for Inactive)
REMARK    1  A    between atoms: N1_2  and  C2_4 
REMARK    2  A    between atoms: C3_7  and  N3_8 
REMARK    3  A    between atoms: N5_15  and  C6_16 
REMARK    4  A    between atoms: C6_16  and  C7_17 
ROOT
HETATM    1  C2  UNL     1       3.056   0.729   0.009  1.00  0.00     0.681 A 
HETATM    2  N2  UNL     1       3.784  -0.273  -0.515  1.00  0.00    -0.175 N 
ATOM      3  H2  UNL     1       4.705  -0.050  -0.893  1.00  0.00     0.186 HD
HETATM    4  C3  UNL     1       3.376  -1.536  -0.570  1.00  0.00     0.145 A 
HETATM    5  C4  UNL     1       2.137  -1.871  -0.066  1.00  0.00     0.123 A 
HETATM    6  N4  UNL     1       1.415  -2.991   0.050  1.00  0.00    -0.346 N 
ATOM      7  H4  UNL     1       1.702  -3.920  -0.259  1.00  0.00     0.167 HD
HETATM    8  C5  UNL     1       0.247  -2.685   0.643  1.00  0.00     0.185 A 
HETATM    9  N5  UNL     1       0.187  -1.365   0.923  1.00  0.00    -0.323 N 
HETATM   10  C13 UNL     1       1.358  -0.855   0.484  1.00  0.00     0.155 A 
HETATM   11  N7  UNL     1       1.847   0.413   0.502  1.00  0.00    -0.174 N 
ATOM     12  H7  UNL     1       1.274   1.154   0.906  1.00  0.00     0.186 HD
ENDROOT
BRANCH   9  13
HETATM   13  C6  UNL     1      -0.901  -0.658   1.556  1.00  0.00     0.167 C 
BRANCH  13  14
HETATM   14  C7  UNL     1      -1.860  -0.170   0.517  1.00  0.00    -0.034 A 
HETATM   15  C8  UNL     1      -3.136  -0.450   0.371  1.00  0.00     0.009 A 
HETATM   16  C9  UNL     1      -3.863  -1.374   1.305  1.00  0.00     0.068 C 
HETATM   17  N6  UNL     1      -3.650   0.240  -0.756  1.00  0.00    -0.367 N 
HETATM   18  C10 UNL     1      -2.743   0.942  -1.322  1.00  0.00    -0.013 A 
ATOM     19  H6  UNL     1      -4.618   0.184  -1.074  1.00  0.00     0.165 HD
HETATM   20  C11 UNL     1      -2.831   1.817  -2.522  1.00  0.00     0.063 C 
HETATM   21  C12 UNL     1      -1.490   0.757  -0.566  1.00  0.00     0.089 A 
ENDBRANCH  13  14
ENDBRANCH   9  13
BRANCH   4  22
HETATM   22  N3  UNL     1       4.122  -2.452  -1.086  1.00  0.00    -0.383 N 
ATOM     23  H32 UNL     1       5.039  -2.204  -1.459  1.00  0.00     0.157 HD
ATOM     24  H31 UNL     1       3.809  -3.422  -1.128  1.00  0.00     0.157 HD
ENDBRANCH   4  22
BRANCH   1  25
HETATM   25  N1  UNL     1       3.459   1.943   0.056  1.00  0.00    -0.230 N 
HETATM   26  C1  UNL     1       2.723   3.035   0.602  1.00  0.00     0.165 C 
ATOM     27  H1  UNL     1       4.382   2.146  -0.328  1.00  0.00     0.177 HD
ENDBRANCH   1  25
TORSDOF 4
