REMARK  5 active torsions:
REMARK  status: ('A' for Active; 'I' for Inactive)
REMARK    1  A    between atoms: N1_2  and  C2_4 
REMARK    2  A    between atoms: C2_4  and  N2_6 
REMARK    3  A    between atoms: N2_6  and  C3_8 
REMARK    4  A    between atoms: C4_9  and  N3_10 
REMARK    5  A    between atoms: S2_16  and  N6_18 
ROOT
HETATM    1  N3  UNL     1      -1.492  -1.119   1.826  1.00  0.00    -0.301 N 
ATOM      2  H3  UNL     1      -2.440  -0.769   1.966  1.00  0.00     0.174 HD
HETATM    3  C5  UNL     1      -1.131  -2.416   2.278  1.00  0.00     0.179 C 
HETATM    4  N4  UNL     1      -0.830  -3.472   2.640  1.00  0.00    -0.172 NA
ENDROOT
BRANCH   1   5
HETATM    5  C4  UNL     1      -0.496  -0.299   1.163  1.00  0.00     0.244 C 
HETATM    6  C3  UNL     1      -0.010  -0.986  -0.056  1.00  0.00     0.037 C 
HETATM    7  C9  UNL     1      -0.685  -0.762  -1.335  1.00  0.00     0.052 A 
HETATM    8  C7  UNL     1      -1.771   0.193  -1.456  1.00  0.00     0.075 A 
HETATM    9  C8  UNL     1      -0.405   0.468  -2.139  1.00  0.00     0.029 A 
HETATM   10  S2  UNL     1      -2.084   1.248  -0.095  1.00  0.00    -0.109 SA
HETATM   11  N5  UNL     1      -1.029   1.000   0.998  1.00  0.00    -0.340 N 
HETATM   12  C6  UNL     1      -3.751   1.050   0.475  1.00  0.00     0.112 C 
ATOM     13  H5  UNL     1      -0.718   1.765   1.597  1.00  0.00     0.170 HD
BRANCH   6  14
HETATM   14  N2  UNL     1       1.413  -1.105  -0.200  1.00  0.00    -0.336 N 
ATOM     15  H2  UNL     1       1.742  -2.017  -0.517  1.00  0.00     0.168 HD
BRANCH  14  16
HETATM   16  C2  UNL     1       2.418  -0.155   0.030  1.00  0.00     0.171 C 
HETATM   17  S1  UNL     1       2.150   1.349   0.588  1.00  0.00    -0.041 SA
BRANCH  16  18
HETATM   18  N1  UNL     1       3.799  -0.483  -0.195  1.00  0.00    -0.371 N 
HETATM   19  C1  UNL     1       4.841   0.469   0.033  1.00  0.00     0.148 C 
ATOM     20  H1  UNL     1       4.042  -1.417  -0.525  1.00  0.00     0.161 HD
ENDBRANCH  16  18
ENDBRANCH  14  16
ENDBRANCH   6  14
BRANCH  10  21
HETATM   21  N6  UNL     1      -1.935   2.748  -0.551  1.00  0.00    -0.376 N 
ATOM     22  H62 UNL     1      -1.260   3.418  -0.181  1.00  0.00     0.164 HD
ATOM     23  H61 UNL     1      -2.634   2.912  -1.275  1.00  0.00     0.164 HD
ENDBRANCH  10  21
ENDBRANCH   1   5
TORSDOF 5
