REMARK  6 active torsions:
REMARK  status: ('A' for Active; 'I' for Inactive)
REMARK    1  A    between atoms: C1_2  and  N2_4 
REMARK    2  A    between atoms: C2_5  and  C3_6 
REMARK    3  A    between atoms: C3_6  and  O1_7 
REMARK    4  A    between atoms: C4_9  and  O2_10 
REMARK    5  A    between atoms: C5_12  and  O3_13 
REMARK    6  A    between atoms: C6_15  and  C7_16 
ROOT
HETATM    1  N2  UNL     1      -1.029  -0.295   0.471  1.00  0.00    -0.340 N 
HETATM    2  C2  UNL     1      -1.754   0.012  -0.696  1.00  0.00     0.142 C 
HETATM    3  C4  UNL     1      -1.453  -1.275  -1.518  1.00  0.00     0.174 C 
HETATM    4  C5  UNL     1       0.087  -1.154  -1.462  1.00  0.00     0.176 C 
HETATM    5  C6  UNL     1       0.287  -0.796  -0.010  1.00  0.00     0.151 C 
ENDROOT
BRANCH   5   6
HETATM    6  C7  UNL     1       1.395   0.094   0.280  1.00  0.00    -0.033 A 
HETATM    7  C8  UNL     1       1.396   1.447   0.157  1.00  0.00     0.009 A 
HETATM    8  C9  UNL     1       2.515   2.183   0.457  1.00  0.00     0.001 A 
HETATM    9  C10 UNL     1       3.686   1.596   0.895  1.00  0.00     0.000 A 
HETATM   10  C11 UNL     1       3.710   0.226   1.028  1.00  0.00     0.001 A 
HETATM   11  C12 UNL     1       2.592  -0.493   0.727  1.00  0.00     0.009 A 
ENDBRANCH   5   6
BRANCH   1  12
HETATM   12  C1  UNL     1      -1.294  -0.265   1.838  1.00  0.00     0.184 C 
HETATM   13  N1  UNL     1      -0.311  -0.639   2.820  1.00  0.00    -0.070 NA
HETATM   14  S1  UNL     1      -2.733   0.160   2.458  1.00  0.00    -0.044 SA
ENDBRANCH   1  12
BRANCH   4  15
HETATM   15  O3  UNL     1       0.424  -0.131  -2.320  1.00  0.00    -0.391 OA
ATOM     16  H3  UNL     1       1.370  -0.057  -2.286  1.00  0.00     0.210 HD
ENDBRANCH   4  15
BRANCH   2  17
HETATM   17  C3  UNL     1      -3.187   0.303  -0.695  1.00  0.00     0.192 C 
BRANCH  17  18
HETATM   18  O1  UNL     1      -3.567   1.431  -0.019  1.00  0.00    -0.399 OA
ATOM     19  H1  UNL     1      -4.498   1.620  -0.018  1.00  0.00     0.209 HD
ENDBRANCH  17  18
ENDBRANCH   2  17
BRANCH   3  20
HETATM   20  O2  UNL     1      -1.920  -1.173  -2.804  1.00  0.00    -0.391 OA
ATOM     21  H2  UNL     1      -1.736  -1.959  -3.306  1.00  0.00     0.210 HD
ENDBRANCH   3  20
TORSDOF 6
