REMARK  1 active torsions:
REMARK  status: ('A' for Active; 'I' for Inactive)
REMARK    1  A    between atoms: N2_6  and  O1_7 
ROOT
HETATM    1  C1  UNL     1      -1.041  -0.933   1.108  1.00  0.00     0.298 C 
HETATM    2  N1  UNL     1      -0.505  -0.183  -0.031  1.00  0.00     0.020 N 
HETATM    3  C2  UNL     1      -1.575  -0.145  -1.020  1.00  0.00     0.298 C 
HETATM    4  C3  UNL     1      -0.104   1.126   0.404  1.00  0.00     0.279 C 
HETATM    5  C4  UNL     1       1.351   1.243   0.050  1.00  0.00     0.173 C 
HETATM    6  N2  UNL     1       1.708  -0.065  -0.401  1.00  0.00    -0.083 NA
HETATM    7  N3  UNL     1       0.579  -0.804  -0.613  1.00  0.00     0.072 NA
ENDROOT
BRANCH   6   8
HETATM    8  O1  UNL     1       2.645  -0.670   0.357  1.00  0.00    -0.295 OA
ATOM      9  H1  UNL     1       2.882  -1.540   0.057  1.00  0.00     0.238 HD
ENDBRANCH   6   8
TORSDOF 1
