REMARK  13 active torsions:
REMARK  status: ('A' for Active; 'I' for Inactive)
REMARK    1  A    between atoms: C2_2  and  O1_5 
REMARK    2  A    between atoms: O1_5  and  C5_6 
REMARK       I    between atoms: C5_6  and  N1_8 
REMARK    3  A    between atoms: C7_10  and  C8_11 
REMARK    4  A    between atoms: C8_11  and  C9_12 
REMARK    5  A    between atoms: C9_12  and  C10_13 
REMARK    6  A    between atoms: C10_13  and  C11_14 
REMARK    7  A    between atoms: C11_14  and  C12_15 
REMARK    8  A    between atoms: C12_15  and  C13_16 
REMARK    9  A    between atoms: C13_16  and  C14_17 
REMARK   10  A    between atoms: C15_20  and  N2_21 
REMARK       I    between atoms: N2_21  and  C16_23 
REMARK   11  A    between atoms: C16_23  and  C17_25 
REMARK   12  A    between atoms: C17_25  and  S1_26 
REMARK   13  A    between atoms: S1_26  and  C18_29 
ROOT
HETATM    1  C17 UNL     1      -3.567  -1.338  -0.820  1.00  0.00     0.185 C 
HETATM    2  C21 UNL     1      -2.987  -2.717  -1.032  1.00  0.00     0.269 C 
HETATM    3  N3  UNL     1      -3.574  -3.268  -2.215  1.00  0.00    -0.072 N 
ATOM      4  H31 UNL     1      -3.611  -4.287  -2.206  1.00  0.00     0.277 HD
ATOM      5  H32 UNL     1      -2.983  -3.166  -3.040  1.00  0.00     0.277 HD
HETATM    6  C22 UNL     1      -4.898  -2.644  -2.372  1.00  0.00     0.253 C 
HETATM    7  C23 UNL     1      -4.614  -1.234  -1.904  1.00  0.00     0.153 C 
HETATM    8  C24 UNL     1      -5.802  -0.525  -1.496  1.00  0.00     0.068 C 
HETATM    9  N4  UNL     1      -6.752   0.056  -1.185  1.00  0.00    -0.197 NA
ENDROOT
BRANCH   1  10
HETATM   10  C16 UNL     1      -2.541  -0.285  -0.931  1.00  0.00     0.245 C 
HETATM   11  N2  UNL     1      -1.364  -0.215  -0.162  1.00  0.00    -0.353 N 
ATOM     12  H2  UNL     1      -1.205  -0.951   0.526  1.00  0.00     0.163 HD
HETATM   13  O5  UNL     1      -2.722   0.629  -1.776  1.00  0.00    -0.271 OA
BRANCH  11  14
HETATM   14  C15 UNL     1      -0.368   0.819  -0.276  1.00  0.00     0.108 C 
HETATM   15  C7  UNL     1       1.018   0.353  -0.521  1.00  0.00     0.028 C 
HETATM   16  C6  UNL     1       1.937   1.201   0.237  1.00  0.00     0.134 C 
HETATM   17  N1  UNL     1       1.100   2.181   0.910  1.00  0.00    -0.326 N 
HETATM   18  C5  UNL     1       1.402   3.467   1.346  1.00  0.00     0.363 C 
HETATM   19  C25 UNL     1      -0.216   1.546   1.062  1.00  0.00     0.153 C 
HETATM   20  O2  UNL     1       2.535   3.969   1.187  1.00  0.00    -0.238 OA
BRANCH  15  21
HETATM   21  C8  UNL     1       1.196  -1.122  -0.453  1.00  0.00     0.008 C 
BRANCH  21  22
HETATM   22  C9  UNL     1       2.476  -1.680  -0.956  1.00  0.00     0.001 C 
BRANCH  22  23
HETATM   23  C10 UNL     1       3.738  -1.254  -0.320  1.00  0.00     0.000 C 
BRANCH  23  24
HETATM   24  C11 UNL     1       4.964  -1.980  -0.914  1.00  0.00     0.001 C 
BRANCH  24  25
HETATM   25  C12 UNL     1       5.132  -1.729  -2.364  1.00  0.00     0.010 C 
BRANCH  25  26
HETATM   26  C13 UNL     1       6.323  -2.409  -2.924  1.00  0.00     0.113 C 
BRANCH  26  27
HETATM   27  C14 UNL     1       6.254  -3.864  -2.836  1.00  0.00     0.172 C 
HETATM   28  O3  UNL     1       5.265  -4.503  -2.436  1.00  0.00    -0.648 OA
HETATM   29  O4  UNL     1       7.362  -4.627  -3.220  1.00  0.00    -0.648 OA
ENDBRANCH  26  27
ENDBRANCH  25  26
ENDBRANCH  24  25
ENDBRANCH  23  24
ENDBRANCH  22  23
ENDBRANCH  21  22
ENDBRANCH  15  21
BRANCH  18  30
HETATM   30  O1  UNL     1       0.441   4.235   1.977  1.00  0.00    -0.294 OA
BRANCH  30  31
HETATM   31  C2  UNL     1       0.711   5.546   2.433  1.00  0.00     0.061 C 
HETATM   32  C1  UNL     1       1.838   5.544   3.455  1.00  0.00     0.046 C 
HETATM   33  C3  UNL     1       0.953   6.514   1.305  1.00  0.00     0.046 C 
HETATM   34  C4  UNL     1      -0.542   5.980   3.203  1.00  0.00     0.046 C 
ENDBRANCH  30  31
ENDBRANCH  18  30
ENDBRANCH  11  14
ENDBRANCH   1  10
BRANCH   1  35
HETATM   35  S1  UNL     1      -4.292  -1.289   0.797  1.00  0.00     0.169 S 
HETATM   36  O6  UNL     1      -3.198  -1.585   1.808  1.00  0.00    -0.226 OA
HETATM   37  O7  UNL     1      -4.837   0.059   1.137  1.00  0.00    -0.226 OA
BRANCH  35  38
HETATM   38  C18 UNL     1      -5.532  -2.528   1.030  1.00  0.00     0.110 A 
HETATM   39  C19 UNL     1      -5.239  -3.742   1.824  1.00  0.00     0.021 A 
HETATM   40  C20 UNL     1      -5.949  -2.658   2.520  1.00  0.00     0.021 A 
ENDBRANCH  35  38
ENDBRANCH   1  35
TORSDOF 13
