REMARK  12 active torsions:
REMARK  status: ('A' for Active; 'I' for Inactive)
REMARK    1  A    between atoms: C3_8  and  N3_9 
REMARK    2  A    between atoms: N3_9  and  C4_11 
REMARK    3  A    between atoms: C4_11  and  C5_12 
REMARK    4  A    between atoms: C5_12  and  O1_13 
REMARK    5  A    between atoms: O1_13  and  C6_14 
REMARK    6  A    between atoms: C6_14  and  C7_15 
REMARK    7  A    between atoms: C7_15  and  N4_16 
REMARK    8  A    between atoms: N4_16  and  C8_19 
REMARK    9  A    between atoms: C8_19  and  C9_20 
REMARK   10  A    between atoms: C9_20  and  O2_21 
REMARK   11  A    between atoms: C9_20  and  C10_23 
REMARK   12  A    between atoms: C12_28  and  O3_29 
ROOT
HETATM    1  C7  UNL     1      -1.030  -0.682   0.103  1.00  0.00     0.258 C 
ENDROOT
BRANCH   1   2
HETATM    2  C6  UNL     1      -0.003  -0.352   1.139  1.00  0.00     0.195 C 
BRANCH   2   3
HETATM    3  O1  UNL     1       1.220  -0.137   0.561  1.00  0.00    -0.388 OA
BRANCH   3   4
HETATM    4  C5  UNL     1       2.202   0.147   1.539  1.00  0.00     0.186 C 
BRANCH   4   5
HETATM    5  C4  UNL     1       3.520   0.370   0.845  1.00  0.00     0.142 C 
BRANCH   5   6
HETATM    6  N3  UNL     1       3.849  -0.815   0.123  1.00  0.00    -0.398 N 
ATOM      7  H3  UNL     1       3.221  -1.618   0.082  1.00  0.00     0.155 HD
BRANCH   6   8
HETATM    8  C3  UNL     1       5.113  -0.806  -0.538  1.00  0.00     0.197 C 
HETATM    9  C2  UNL     1       6.274  -0.702   0.466  1.00  0.00     0.169 C 
HETATM   10  N2  UNL     1       7.358  -0.438  -0.495  1.00  0.00    -0.359 N 
HETATM   11  C1  UNL     1       6.783   0.456  -1.475  1.00  0.00     0.170 C 
ATOM     12  H2  UNL     1       8.309  -0.806  -0.474  1.00  0.00     0.162 HD
HETATM   13  N1  UNL     1       7.505   1.139  -2.292  1.00  0.00    -0.371 N 
HETATM   14  N6  UNL     1       5.373   0.397  -1.320  1.00  0.00    -0.340 N 
ATOM     15  H12 UNL     1       8.518   1.181  -2.403  1.00  0.00     0.159 HD
ATOM     16  H11 UNL     1       7.099   1.770  -2.983  1.00  0.00     0.159 HD
ATOM     17  H6  UNL     1       4.685   1.058  -1.681  1.00  0.00     0.164 HD
ENDBRANCH   6   8
ENDBRANCH   5   6
ENDBRANCH   4   5
ENDBRANCH   3   4
ENDBRANCH   2   3
ENDBRANCH   1   2
BRANCH   1  18
HETATM   18  N4  UNL     1      -2.335  -0.917   0.705  1.00  0.00    -0.071 N 
ATOM     19  H42 UNL     1      -2.956  -1.376   0.039  1.00  0.00     0.277 HD
ATOM     20  H41 UNL     1      -2.272  -1.646   1.416  1.00  0.00     0.277 HD
BRANCH  18  21
HETATM   21  C8  UNL     1      -2.956   0.246   1.241  1.00  0.00     0.268 C 
BRANCH  21  22
HETATM   22  C9  UNL     1      -3.461   1.241   0.250  1.00  0.00     0.200 C 
BRANCH  22  23
HETATM   23  O2  UNL     1      -3.962   2.327   1.031  1.00  0.00    -0.389 OA
ATOM     24  H2  UNL     1      -4.283   2.960   0.400  1.00  0.00     0.210 HD
ENDBRANCH  22  23
BRANCH  22  25
HETATM   25  C10 UNL     1      -4.700   0.748  -0.478  1.00  0.00     0.354 C 
HETATM   26  N5  UNL     1      -4.488  -0.364  -1.356  1.00  0.00    -0.042 N 
HETATM   27  C11 UNL     1      -5.899  -0.570  -1.806  1.00  0.00     0.295 C 
ATOM     28  H52 UNL     1      -3.793  -0.235  -2.091  1.00  0.00     0.280 HD
ATOM     29  H51 UNL     1      -4.018  -1.175  -0.954  1.00  0.00     0.280 HD
HETATM   30  C12 UNL     1      -6.603  -0.325  -0.465  1.00  0.00     0.285 C 
HETATM   31  O4  UNL     1      -5.709   0.349   0.350  1.00  0.00    -0.325 OA
BRANCH  30  32
HETATM   32  O3  UNL     1      -7.767   0.403  -0.681  1.00  0.00    -0.369 OA
ATOM     33  H3  UNL     1      -8.203   0.555   0.149  1.00  0.00     0.212 HD
ENDBRANCH  30  32
ENDBRANCH  22  25
ENDBRANCH  21  22
ENDBRANCH  18  21
ENDBRANCH   1  18
TORSDOF 12
