REMARK  5 active torsions:
REMARK  status: ('A' for Active; 'I' for Inactive)
REMARK    1  A    between atoms: N1_2  and  C2_4 
REMARK    2  A    between atoms: C2_4  and  N4_10 
REMARK    3  A    between atoms: C3_5  and  N2_6 
REMARK    4  A    between atoms: N2_6  and  N3_7 
REMARK    5  A    between atoms: N4_10  and  C4_12 
ROOT
HETATM    1  C4  UNL     1      -1.630   0.660   0.316  1.00  0.00     0.153 A 
HETATM    2  N5  UNL     1      -0.533   0.763   1.046  1.00  0.00    -0.320 N 
ATOM      3  H5  UNL     1      -0.560   1.181   1.976  1.00  0.00     0.169 HD
HETATM    4  C5  UNL     1       0.600   0.309   0.538  1.00  0.00     0.142 A 
HETATM    5  N6  UNL     1       1.841   0.326   1.144  1.00  0.00    -0.338 N 
ATOM      6  H6  UNL     1       1.936   0.721   2.080  1.00  0.00     0.167 HD
HETATM    7  C6  UNL     1       2.918  -0.165   0.527  1.00  0.00     0.060 A 
HETATM    8  C7  UNL     1       4.153  -0.117   1.198  1.00  0.00     0.032 A 
HETATM    9  C8  UNL     1       5.242  -0.632   0.532  1.00  0.00     0.002 A 
HETATM   10  C9  UNL     1       5.183  -1.182  -0.732  1.00  0.00     0.002 A 
HETATM   11  C10 UNL     1       3.969  -1.217  -1.364  1.00  0.00     0.032 A 
HETATM   12  C11 UNL     1       2.876  -0.717  -0.735  1.00  0.00     0.060 A 
HETATM   13  N7  UNL     1       1.674  -0.743  -1.342  1.00  0.00    -0.346 N 
ATOM     14  H7  UNL     1       1.588  -1.140  -2.277  1.00  0.00     0.167 HD
HETATM   15  C12 UNL     1       0.561  -0.238  -0.711  1.00  0.00     0.122 A 
HETATM   16  S1  UNL     1      -1.095  -0.083  -1.114  1.00  0.00    -0.032 SA
ENDROOT
BRANCH   1  17
HETATM   17  N4  UNL     1      -2.851   1.033   0.601  1.00  0.00    -0.321 N 
ATOM     18  H4  UNL     1      -3.051   1.472   1.500  1.00  0.00     0.169 HD
BRANCH  17  19
HETATM   19  C2  UNL     1      -3.894   0.830  -0.332  1.00  0.00     0.134 C 
HETATM   20  C3  UNL     1      -4.347   1.928  -1.157  1.00  0.00     0.256 C 
BRANCH  19  21
HETATM   21  N1  UNL     1      -4.419  -0.333  -0.425  1.00  0.00    -0.379 N 
HETATM   22  C1  UNL     1      -4.032  -1.470   0.350  1.00  0.00     0.147 C 
ATOM     23  H1  UNL     1      -5.170  -0.458  -1.103  1.00  0.00     0.160 HD
ENDBRANCH  19  21
BRANCH  20  24
HETATM   24  N2  UNL     1      -4.845   2.967  -0.646  1.00  0.00    -0.342 NA
BRANCH  24  25
HETATM   25  N3  UNL     1      -5.197   3.949   0.006  1.00  0.00    -0.281 N 
ATOM     26  H32 UNL     1      -4.497   3.694   0.703  1.00  0.00     0.191 HD
ATOM     27  H31 UNL     1      -5.600   4.790   0.420  1.00  0.00     0.191 HD
ENDBRANCH  24  25
ENDBRANCH  20  24
ENDBRANCH  17  19
ENDBRANCH   1  17
TORSDOF 5
