REMARK  9 active torsions:
REMARK  status: ('A' for Active; 'I' for Inactive)
REMARK    1  A    between atoms: C1_2  and  C2_4 
REMARK    2  A    between atoms: C2_4  and  C3_5 
REMARK    3  A    between atoms: C3_5  and  C4_6 
REMARK    4  A    between atoms: C4_6  and  O3_7 
REMARK    5  A    between atoms: O3_7  and  C5_8 
REMARK    6  A    between atoms: N1_18  and  C12_19 
REMARK    7  A    between atoms: C12_19  and  C13_20 
REMARK    8  A    between atoms: C15_22  and  O5_23 
REMARK    9  A    between atoms: C17_27  and  O7_28 
ROOT
HETATM    1  C5  UNL     1       2.491  -0.790  -0.132  1.00  0.00     0.104 A 
HETATM    2  C6  UNL     1       2.273  -1.405   1.064  1.00  0.00     0.046 A 
HETATM    3 BR1  UNL     1       3.793  -1.810   2.159  1.00  0.00    -0.048 Br
HETATM    4  C7  UNL     1       1.023  -1.757   1.525  1.00  0.00     0.034 A 
HETATM    5  C8  UNL     1      -0.072  -1.464   0.713  1.00  0.00     0.009 A 
HETATM    6  C9  UNL     1       0.085  -0.846  -0.501  1.00  0.00     0.063 A 
HETATM    7  C10 UNL     1       1.364  -0.516  -0.911  1.00  0.00     0.062 A 
HETATM    8 BR2  UNL     1       1.565   0.340  -2.597  1.00  0.00    -0.047 Br
HETATM    9  C11 UNL     1      -1.240  -0.685  -1.092  1.00  0.00     0.258 A 
HETATM   10  O4  UNL     1      -1.443  -0.149  -2.213  1.00  0.00    -0.267 OA
HETATM   11  N1  UNL     1      -2.191  -1.224  -0.196  1.00  0.00    -0.315 N 
HETATM   12  C17 UNL     1      -1.508  -1.720   0.946  1.00  0.00     0.258 A 
ENDROOT
BRANCH  11  13
HETATM   13  C12 UNL     1      -3.649  -1.271  -0.394  1.00  0.00     0.161 C 
BRANCH  13  14
HETATM   14  C13 UNL     1      -4.249  -0.007   0.178  1.00  0.00     0.142 C 
HETATM   15  C14 UNL     1      -5.750   0.023   0.023  1.00  0.00     0.067 C 
HETATM   16  C15 UNL     1      -5.942   1.529  -0.214  1.00  0.00     0.144 C 
HETATM   17  C16 UNL     1      -4.729   1.793  -1.088  1.00  0.00     0.200 C 
HETATM   18  O6  UNL     1      -3.738   1.093  -0.451  1.00  0.00    -0.382 OA
BRANCH  16  19
HETATM   19  O5  UNL     1      -7.130   1.817  -0.828  1.00  0.00    -0.393 OA
ATOM     20  H5  UNL     1      -7.249   2.748  -0.975  1.00  0.00     0.210 HD
ENDBRANCH  16  19
ENDBRANCH  13  14
ENDBRANCH  11  13
BRANCH  12  21
HETATM   21  O7  UNL     1      -1.884  -0.960   2.060  1.00  0.00    -0.372 OA
ATOM     22  H7  UNL     1      -2.808  -1.125   2.210  1.00  0.00     0.212 HD
ENDBRANCH  12  21
BRANCH   1  23
HETATM   23  O3  UNL     1       3.721  -0.415  -0.639  1.00  0.00    -0.348 OA
BRANCH  23  24
HETATM   24  C4  UNL     1       4.228   0.900  -0.362  1.00  0.00     0.176 C 
BRANCH  24  25
HETATM   25  C3  UNL     1       5.540   1.111  -1.043  1.00  0.00     0.037 C 
BRANCH  25  26
HETATM   26  C2  UNL     1       6.572   0.149  -0.587  1.00  0.00     0.115 C 
BRANCH  26  27
HETATM   27  C1  UNL     1       6.945   0.233   0.833  1.00  0.00     0.172 C 
HETATM   28  O1  UNL     1       7.679  -0.679   1.293  1.00  0.00    -0.648 OA
HETATM   29  O2  UNL     1       6.498   1.280   1.607  1.00  0.00    -0.648 OA
ENDBRANCH  26  27
ENDBRANCH  25  26
ENDBRANCH  24  25
ENDBRANCH  23  24
ENDBRANCH   1  23
TORSDOF 9
