REMARK  3 active torsions:
REMARK  status: ('A' for Active; 'I' for Inactive)
REMARK    1  A    between atoms: N1_1  and  C1_5 
REMARK    2  A    between atoms: C3_7  and  N2_8 
REMARK    3  A    between atoms: C10_15  and  C11_16 
ROOT
HETATM    1  C1  UNL     1      -2.171  -0.943   0.583  1.00  0.00     0.199 C 
HETATM    2  C2  UNL     1      -1.144  -1.456  -0.371  1.00  0.00     0.058 C 
HETATM    3  C3  UNL     1      -0.422  -0.243  -0.910  1.00  0.00     0.082 C 
HETATM    4  C9  UNL     1      -1.266   0.945  -0.523  1.00  0.00     0.042 C 
HETATM    5  C10 UNL     1      -2.555   0.392   0.036  1.00  0.00     0.119 C 
ENDROOT
BRANCH   3   6
HETATM    6  N2  UNL     1       0.915  -0.185  -0.521  1.00  0.00    -0.408 N 
HETATM    7  C4  UNL     1       1.276  -0.057   0.824  1.00  0.00     0.117 C 
HETATM    8  C5  UNL     1       2.486   0.889   0.932  1.00  0.00     0.019 C 
HETATM    9  C6  UNL     1       3.656   0.375   0.159  1.00  0.00     0.003 C 
HETATM   10  C7  UNL     1       3.210  -0.613  -0.914  1.00  0.00     0.019 C 
HETATM   11  C8  UNL     1       1.925  -0.015  -1.496  1.00  0.00     0.117 C 
ENDBRANCH   3   6
BRANCH   1  12
HETATM   12  N1  UNL     1      -3.286  -1.868   0.692  1.00  0.00    -0.074 N 
ATOM     13  H13 UNL     1      -3.691  -2.079  -0.220  1.00  0.00     0.274 HD
ATOM     14  H12 UNL     1      -2.974  -2.806   0.943  1.00  0.00     0.274 HD
ATOM     15  H11 UNL     1      -3.988  -1.517   1.344  1.00  0.00     0.274 HD
ENDBRANCH   1  12
BRANCH   5  16
HETATM   16  C11 UNL     1      -3.044   1.311   1.085  1.00  0.00     0.179 C 
HETATM   17  O1  UNL     1      -3.216   0.939   2.266  1.00  0.00    -0.648 OA
HETATM   18  O2  UNL     1      -3.320   2.623   0.724  1.00  0.00    -0.648 OA
ENDBRANCH   5  16
TORSDOF 3
