REMARK  4 active torsions:
REMARK  status: ('A' for Active; 'I' for Inactive)
REMARK    1  A    between atoms: C2_2  and  N1_4 
REMARK    2  A    between atoms: C4_6  and  N2_7 
REMARK    3  A    between atoms: C4_6  and  C8_16 
REMARK    4  A    between atoms: N2_7  and  C5_9 
ROOT
HETATM    1  N1  UNL     1       1.329  -1.117  -0.757  1.00  0.00    -0.375 N 
ATOM      2  H1  UNL     1       2.263  -0.819  -1.037  1.00  0.00     0.161 HD
HETATM    3  C4  UNL     1       0.419  -0.192  -0.528  1.00  0.00     0.085 C 
ENDROOT
BRANCH   3   4
HETATM    4  N2  UNL     1       0.919   1.107  -0.719  1.00  0.00    -0.318 N 
ATOM      5  H2  UNL     1       0.640   1.615  -1.558  1.00  0.00     0.170 HD
BRANCH   4   6
HETATM    6  C5  UNL     1       1.809   1.760   0.214  1.00  0.00     0.176 C 
HETATM    7  N3  UNL     1       1.861   1.580   1.480  1.00  0.00    -0.361 N 
HETATM    8  C6  UNL     1       2.862   2.390   2.113  1.00  0.00     0.142 C 
ATOM      9  H3  UNL     1       1.257   0.931   1.984  1.00  0.00     0.162 HD
HETATM   10  C7  UNL     1       3.219   3.440   1.074  1.00  0.00     0.142 C 
HETATM   11  N4  UNL     1       2.798   2.726  -0.115  1.00  0.00    -0.361 N 
ATOM     12  H4  UNL     1       3.160   2.893  -1.054  1.00  0.00     0.162 HD
ENDBRANCH   4   6
ENDBRANCH   3   4
BRANCH   3  13
HETATM   13  C8  UNL     1      -0.938  -0.586  -0.125  1.00  0.00     0.070 A 
HETATM   14  C9  UNL     1      -2.167  -0.341  -0.848  1.00  0.00    -0.029 A 
HETATM   15  C10 UNL     1      -2.351   0.518  -2.039  1.00  0.00     0.016 C 
HETATM   16  C11 UNL     1      -3.307  -1.375  -0.756  1.00  0.00     0.016 C 
HETATM   17  C12 UNL     1      -1.896   0.363   0.467  1.00  0.00    -0.029 A 
HETATM   18  C13 UNL     1      -2.724  -0.070   1.690  1.00  0.00     0.016 C 
HETATM   19  C14 UNL     1      -1.769   1.853   0.400  1.00  0.00     0.016 C 
ENDBRANCH   3  13
BRANCH   1  20
HETATM   20  C2  UNL     1       1.072  -2.515  -0.632  1.00  0.00     0.074 C 
HETATM   21  C1  UNL     1       1.478  -3.058   0.732  1.00  0.00     0.031 C 
HETATM   22  C3  UNL     1       1.978  -3.227  -1.643  1.00  0.00     0.031 C 
ENDBRANCH   1  20
TORSDOF 4
