REMARK  4 active torsions:
REMARK  status: ('A' for Active; 'I' for Inactive)
REMARK    1  A    between atoms: C2_2  and  C3_3 
REMARK    2  A    between atoms: N1_6  and  C5_7 
REMARK    3  A    between atoms: C11_13  and  O2_14 
REMARK    4  A    between atoms: C11_13  and  C12_16 
ROOT
HETATM    1  C3  UNL     1       2.169   0.003  -0.605  1.00  0.00     0.101 C 
HETATM    2  C4  UNL     1       1.848   1.461  -0.955  1.00  0.00     0.215 C 
HETATM    3  O1  UNL     1       0.502   1.536  -0.955  1.00  0.00    -0.274 OA
HETATM    4  N1  UNL     1      -0.056   0.368  -0.501  1.00  0.00    -0.213 N 
HETATM    5  C11 UNL     1       0.848  -0.696  -0.808  1.00  0.00     0.265 C 
ENDROOT
BRANCH   4   6
HETATM    6  C5  UNL     1      -1.322   0.346   0.152  1.00  0.00     0.061 A 
HETATM    7  C6  UNL     1      -2.011  -0.802   0.424  1.00  0.00     0.032 A 
HETATM    8  C7  UNL     1      -3.234  -0.753   1.071  1.00  0.00     0.002 A 
HETATM    9  C8  UNL     1      -3.827   0.420   1.475  1.00  0.00     0.000 A 
HETATM   10  C9  UNL     1      -3.144   1.586   1.207  1.00  0.00     0.002 A 
HETATM   11  C10 UNL     1      -1.930   1.535   0.565  1.00  0.00     0.032 A 
ENDBRANCH   4   6
BRANCH   5  12
HETATM   12  O2  UNL     1       0.791  -1.816  -0.035  1.00  0.00    -0.361 OA
ATOM     13  H2  UNL     1      -0.041  -2.256  -0.163  1.00  0.00     0.213 HD
ENDBRANCH   5  12
BRANCH   5  14
HETATM   14  C12 UNL     1       0.788  -1.077  -2.288  1.00  0.00     0.440 C 
HETATM   15  F1  UNL     1      -0.379  -1.733  -2.600  1.00  0.00    -0.166 F 
HETATM   16  F2  UNL     1       1.820  -1.966  -2.496  1.00  0.00    -0.166 F 
HETATM   17  F3  UNL     1       0.940   0.027  -3.051  1.00  0.00    -0.166 F 
ENDBRANCH   5  14
BRANCH   1  18
HETATM   18  C2  UNL     1       2.749  -0.013   0.732  1.00  0.00    -0.025 C 
HETATM   19  C1  UNL     1       2.343  -0.492   1.863  1.00  0.00     0.007 C 
ENDBRANCH   1  18
TORSDOF 4
