REMARK  9 active torsions:
REMARK  status: ('A' for Active; 'I' for Inactive)
REMARK    1  A    between atoms: C2_2  and  N1_3 
REMARK    2  A    between atoms: N1_3  and  C3_4 
REMARK       I    between atoms: N1_3  and  C5_6 
REMARK    3  A    between atoms: C5_6  and  C6_8 
REMARK    4  A    between atoms: C6_8  and  S1_9 
REMARK    5  A    between atoms: S1_9  and  C7_10 
REMARK    6  A    between atoms: C10_15  and  C11_16 
REMARK    7  A    between atoms: C12_17  and  C13_18 
REMARK    8  A    between atoms: C13_18  and  C14_20 
REMARK    9  A    between atoms: C14_20  and  C15_21 
ROOT
HETATM    1  C7  UNL     1      -1.681  -1.407   0.715  1.00  0.00     0.148 A 
HETATM    2  N2  UNL     1      -0.368  -1.578   1.015  1.00  0.00    -0.334 N 
ATOM      3  H2  UNL     1      -0.096  -2.323   1.657  1.00  0.00     0.168 HD
HETATM    4  C8  UNL     1       0.578  -0.791   0.487  1.00  0.00     0.076 A 
HETATM    5  C9  UNL     1       1.979  -0.735   0.612  1.00  0.00     0.070 A 
HETATM    6  C10 UNL     1       2.482   0.268  -0.149  1.00  0.00     0.078 A 
HETATM    7  O2  UNL     1       1.377   0.819  -0.732  1.00  0.00    -0.303 OA
HETATM    8  C18 UNL     1       0.300   0.226  -0.378  1.00  0.00     0.170 A 
HETATM    9  C19 UNL     1      -1.054   0.408  -0.692  1.00  0.00     0.283 A 
HETATM   10  O3  UNL     1      -1.358   1.327  -1.480  1.00  0.00    -0.265 OA
HETATM   11  N3  UNL     1      -1.954  -0.410  -0.134  1.00  0.00    -0.301 N 
ATOM     12  H3  UNL     1      -2.933  -0.260  -0.377  1.00  0.00     0.171 HD
ENDROOT
BRANCH   1  13
HETATM   13  S1  UNL     1      -2.916  -2.473   1.435  1.00  0.00    -0.084 SA
BRANCH  13  14
HETATM   14  C6  UNL     1      -4.582  -2.077   0.943  1.00  0.00     0.185 C 
BRANCH  14  15
HETATM   15  C5  UNL     1      -4.988  -0.775   1.508  1.00  0.00     0.229 C 
HETATM   16  N1  UNL     1      -6.272  -0.196   1.254  1.00  0.00    -0.352 N 
HETATM   17  O1  UNL     1      -4.186  -0.151   2.235  1.00  0.00    -0.273 OA
BRANCH  16  18
HETATM   18  C2  UNL     1      -6.650   1.082   1.819  1.00  0.00     0.121 C 
HETATM   19  C1  UNL     1      -6.298   2.237   0.929  1.00  0.00     0.026 C 
ENDBRANCH  16  18
BRANCH  16  20
HETATM   20  C3  UNL     1      -7.245  -0.872   0.418  1.00  0.00     0.121 C 
HETATM   21  C4  UNL     1      -7.137  -0.511  -1.029  1.00  0.00     0.026 C 
ENDBRANCH  16  20
ENDBRANCH  14  15
ENDBRANCH  13  14
ENDBRANCH   1  13
BRANCH   6  22
HETATM   22  C11 UNL     1       3.803   0.793  -0.431  1.00  0.00     0.039 C 
HETATM   23  C12 UNL     1       5.010   0.519  -0.282  1.00  0.00     0.026 C 
BRANCH  23  24
HETATM   24  C13 UNL     1       5.797  -0.516   0.269  1.00  0.00     0.032 C 
HETATM   25 CL1  UNL     1       5.109  -2.015   0.968  1.00  0.00    -0.085 Cl
BRANCH  24  26
HETATM   26  C14 UNL     1       7.135  -0.456   0.266  1.00  0.00     0.022 C 
BRANCH  26  27
HETATM   27  C15 UNL     1       7.962   0.596  -0.260  1.00  0.00     0.049 C 
HETATM   28  C16 UNL     1       7.875   0.648  -1.775  1.00  0.00     0.036 C 
HETATM   29  C17 UNL     1       9.438   0.231   0.108  1.00  0.00     0.036 C 
HETATM   30 CL2  UNL     1       7.744   2.204   0.443  1.00  0.00    -0.116 Cl
ENDBRANCH  26  27
ENDBRANCH  24  26
ENDBRANCH  23  24
ENDBRANCH   6  22
TORSDOF 9
