REMARK  1 active torsions:
REMARK  status: ('A' for Active; 'I' for Inactive)
REMARK    1  A    between atoms: N1_1  and  C1_4 
ROOT
HETATM    1  C1  UNL     1      -2.885   0.156   0.406  1.00  0.00     0.679 A 
HETATM    2  N2  UNL     1      -2.649  -1.157   0.519  1.00  0.00    -0.154 N 
ATOM      3  H2  UNL     1      -3.426  -1.792   0.704  1.00  0.00     0.187 HD
HETATM    4  C2  UNL     1      -1.403  -1.655   0.392  1.00  0.00     0.288 A 
HETATM    5  O1  UNL     1      -1.195  -2.882   0.499  1.00  0.00    -0.265 OA
HETATM    6  C3  UNL     1      -0.328  -0.831   0.141  1.00  0.00     0.130 A 
HETATM    7  N3  UNL     1       0.941  -1.312   0.009  1.00  0.00    -0.334 N 
ATOM      8  H3  UNL     1       1.108  -2.314   0.097  1.00  0.00     0.168 HD
HETATM    9  C4  UNL     1       1.977  -0.489  -0.235  1.00  0.00     0.135 A 
HETATM   10  N4  UNL     1       3.233  -0.946  -0.369  1.00  0.00    -0.336 N 
ATOM     11  H4  UNL     1       3.400  -1.948  -0.282  1.00  0.00     0.168 HD
HETATM   12  C5  UNL     1       4.281  -0.135  -0.614  1.00  0.00     0.199 A 
HETATM   13  N5  UNL     1       4.089   1.191  -0.734  1.00  0.00    -0.296 N 
ATOM     14  H5  UNL     1       4.871   1.819  -0.918  1.00  0.00     0.187 HD
HETATM   15  N6  UNL     1       2.854   1.660  -0.606  1.00  0.00    -0.296 N 
ATOM     16  H6  UNL     1       2.704   2.665  -0.698  1.00  0.00     0.187 HD
HETATM   17  C6  UNL     1       1.791   0.872  -0.361  1.00  0.00     0.094 A 
HETATM   18  C7  UNL     1       0.504   1.353  -0.226  1.00  0.00     0.067 A 
HETATM   19  C8  UNL     1      -0.574   0.520   0.026  1.00  0.00     0.084 A 
HETATM   20  N7  UNL     1      -1.830   0.957   0.161  1.00  0.00    -0.190 N 
ATOM     21  H7  UNL     1      -2.000   1.959   0.073  1.00  0.00     0.184 HD
ENDROOT
BRANCH   1  22
HETATM   22  N1  UNL     1      -4.090   0.645   0.528  1.00  0.00    -0.234 N 
ATOM     23  H12 UNL     1      -4.889   0.038   0.714  1.00  0.00     0.174 HD
ATOM     24  H11 UNL     1      -4.270   1.645   0.442  1.00  0.00     0.174 HD
ENDBRANCH   1  22
TORSDOF 1
