REMARK  8 active torsions:
REMARK  status: ('A' for Active; 'I' for Inactive)
REMARK    1  A    between atoms: C1_2  and  C2_3 
REMARK       I    between atoms: C1_2  and  N3_19 
REMARK    2  A    between atoms: C2_3  and  N1_4 
REMARK       I    between atoms: N1_4  and  C3_5 
REMARK    3  A    between atoms: N1_4  and  C9_13 
REMARK    4  A    between atoms: C3_5  and  C4_7 
REMARK    5  A    between atoms: C4_7  and  N2_8 
REMARK    6  A    between atoms: N3_19  and  C15_21 
REMARK    7  A    between atoms: C17_25  and  C18_26 
REMARK       I    between atoms: C18_26  and  N5_28 
REMARK    8  A    between atoms: N5_28  and  C19_30 
ROOT
HETATM    1  O1  UNL     1      -1.584   0.771   2.125  1.00  0.00    -0.271 OA
HETATM    2  C1  UNL     1      -1.270   1.449   1.118  1.00  0.00     0.241 C 
HETATM    3  N3  UNL     1      -0.195   2.366   1.296  1.00  0.00    -0.306 N 
ATOM      4  H3  UNL     1      -0.355   3.322   1.614  1.00  0.00     0.171 HD
ENDROOT
BRANCH   2   5
HETATM    5  C2  UNL     1      -1.944   1.344  -0.199  1.00  0.00     0.229 C 
BRANCH   5   6
HETATM    6  N1  UNL     1      -3.005   0.360  -0.172  1.00  0.00    -0.337 N 
HETATM    7  C3  UNL     1      -4.334   0.711   0.180  1.00  0.00     0.238 C 
HETATM    8  O2  UNL     1      -5.206  -0.174   0.187  1.00  0.00    -0.272 OA
BRANCH   7   9
HETATM    9  C4  UNL     1      -4.602   2.132   0.522  1.00  0.00     0.219 C 
BRANCH   9  10
HETATM   10  N2  UNL     1      -5.951   2.408   0.864  1.00  0.00    -0.404 N 
HETATM   11  C5  UNL     1      -6.917   2.307  -0.168  1.00  0.00     0.117 C 
HETATM   12  C6  UNL     1      -8.251   1.999   0.468  1.00  0.00     0.021 C 
HETATM   13  C7  UNL     1      -7.954   1.714   1.922  1.00  0.00     0.021 C 
HETATM   14  C8  UNL     1      -6.453   1.820   2.054  1.00  0.00     0.117 C 
ENDBRANCH   9  10
ENDBRANCH   7   9
BRANCH   6  15
HETATM   15  C9  UNL     1      -2.670  -0.990  -0.527  1.00  0.00     0.087 C 
HETATM   16  C10 UNL     1      -3.382  -1.415  -1.820  1.00  0.00     0.025 C 
HETATM   17  C11 UNL     1      -2.647  -2.679  -2.284  1.00  0.00     0.002 C 
HETATM   18  C12 UNL     1      -2.745  -3.734  -1.236  1.00  0.00     0.000 C 
HETATM   19  C13 UNL     1      -2.228  -3.285   0.103  1.00  0.00     0.002 C 
HETATM   20  C14 UNL     1      -3.015  -2.022   0.494  1.00  0.00     0.025 C 
ENDBRANCH   6  15
ENDBRANCH   5   6
ENDBRANCH   2   5
BRANCH   3  21
HETATM   21  C15 UNL     1       1.018   1.919   1.029  1.00  0.00     0.151 A 
HETATM   22  N4  UNL     1       2.163   2.596   1.124  1.00  0.00    -0.345 N 
HETATM   23  C16 UNL     1       3.274   1.994   0.819  1.00  0.00     0.115 A 
ATOM     24  H4  UNL     1       2.167   3.569   1.431  1.00  0.00     0.167 HD
HETATM   25  C17 UNL     1       3.206   0.689   0.414  1.00  0.00     0.091 A 
HETATM   26  S1  UNL     1       1.522   0.383   0.492  1.00  0.00    -0.047 SA
BRANCH  25  27
HETATM   27  C18 UNL     1       4.305  -0.217   0.014  1.00  0.00     0.260 C 
HETATM   28  O3  UNL     1       4.045  -1.403  -0.334  1.00  0.00    -0.267 OA
HETATM   29  N5  UNL     1       5.619   0.281   0.035  1.00  0.00    -0.352 N 
ATOM     30  H5  UNL     1       5.805   1.243   0.319  1.00  0.00     0.163 HD
BRANCH  29  31
HETATM   31  C19 UNL     1       6.705  -0.596  -0.354  1.00  0.00     0.084 C 
HETATM   32  C20 UNL     1       7.629  -0.791   0.831  1.00  0.00     0.025 C 
HETATM   33  C21 UNL     1       8.804  -1.659   0.474  1.00  0.00     0.002 C 
HETATM   34  C22 UNL     1       9.178  -1.539  -0.987  1.00  0.00     0.000 C 
HETATM   35  C23 UNL     1       8.867  -0.103  -1.403  1.00  0.00     0.002 C 
HETATM   36  C24 UNL     1       7.374   0.003  -1.547  1.00  0.00     0.025 C 
ENDBRANCH  29  31
ENDBRANCH  25  27
ENDBRANCH   3  21
TORSDOF 8
