REMARK  1 active torsions:
REMARK  status: ('A' for Active; 'I' for Inactive)
REMARK    1  A    between atoms: O1_1  and  C1_3 
ROOT
HETATM    1  C1  UNL     1      -1.348   0.650  -0.412  1.00  0.00     0.356 C 
HETATM    2  C2  UNL     1      -2.415  -0.219   0.266  1.00  0.00     0.064 C 
HETATM    3  C3  UNL     1      -1.870  -1.636   0.220  1.00  0.00     0.007 C 
HETATM    4  C4  UNL     1      -0.522  -1.758   0.837  1.00  0.00     0.036 C 
HETATM    5  C5  UNL     1       0.427  -0.666   0.536  1.00  0.00     0.226 C 
HETATM    6  C6  UNL     1       1.223  -0.868  -0.714  1.00  0.00     0.036 C 
HETATM    7  C7  UNL     1       2.351   0.119  -0.732  1.00  0.00     0.004 C 
HETATM    8  C8  UNL     1       2.071   1.415  -0.094  1.00  0.00     0.030 C 
HETATM    9  C9  UNL     1       0.680   1.710   0.290  1.00  0.00     0.276 C 
HETATM   10  N1  UNL     1      -0.201   0.624   0.463  1.00  0.00     0.121 N 
ENDROOT
BRANCH   1  11
HETATM   11  O1  UNL     1      -1.777   1.936  -0.615  1.00  0.00    -0.368 OA
ATOM     12  H1  UNL     1      -1.116   2.474  -1.035  1.00  0.00     0.212 HD
ENDBRANCH   1  11
TORSDOF 1
