REMARK  14 active torsions:
REMARK  status: ('A' for Active; 'I' for Inactive)
REMARK    1  A    between atoms: C2_2  and  N1_3 
REMARK    2  A    between atoms: N1_3  and  C3_4 
REMARK    3  A    between atoms: N1_3  and  C5_6 
REMARK    4  A    between atoms: C5_6  and  C6_7 
REMARK    5  A    between atoms: C6_7  and  N2_8 
REMARK    6  A    between atoms: N2_8  and  C8_10 
REMARK    7  A    between atoms: C8_10  and  O1_11 
REMARK    8  A    between atoms: C8_10  and  C9_13 
REMARK    9  A    between atoms: C12_16  and  O2_17 
REMARK   10  A    between atoms: C20_26  and  O3_27 
REMARK   11  A    between atoms: C21_29  and  C22_30 
REMARK   12  A    between atoms: C22_30  and  O4_32 
REMARK   13  A    between atoms: C22_30  and  C24_34 
REMARK   14  A    between atoms: C24_34  and  O5_35 
ROOT
HETATM    1  C9  UNL     1       1.856  -0.458  -0.242  1.00  0.00     0.028 C 
HETATM    2  C10 UNL     1       2.837  -0.933  -1.304  1.00  0.00     0.025 C 
HETATM    3  C11 UNL     1       1.371   0.851  -0.763  1.00  0.00     0.050 C 
HETATM    4  C12 UNL     1       0.154   1.426  -0.162  1.00  0.00     0.123 C 
HETATM    5  C13 UNL     1      -0.993   0.641  -0.779  1.00  0.00     0.019 C 
HETATM    6  C14 UNL     1      -2.011   1.614  -1.197  1.00  0.00     0.008 C 
HETATM    7  C15 UNL     1      -3.129   1.825  -0.182  1.00  0.00     0.010 C 
HETATM    8  C16 UNL     1      -3.688   0.632   0.450  1.00  0.00    -0.031 C 
HETATM    9  C17 UNL     1      -3.414   0.706   1.961  1.00  0.00     0.016 C 
HETATM   10  C18 UNL     1      -2.866  -0.647   0.057  1.00  0.00     0.002 C 
HETATM   11  C19 UNL     1      -3.389  -1.062  -1.259  1.00  0.00     0.038 C 
HETATM   12  C20 UNL     1      -4.819  -0.504  -1.253  1.00  0.00     0.126 C 
HETATM   13  C21 UNL     1      -5.013   0.122   0.104  1.00  0.00     0.059 C 
HETATM   14  C26 UNL     1      -1.406  -0.391   0.222  1.00  0.00     0.005 C 
HETATM   15  C27 UNL     1      -0.482  -1.528   0.411  1.00  0.00    -0.035 C 
HETATM   16  C28 UNL     1      -0.614  -1.967   1.883  1.00  0.00     0.016 C 
HETATM   17  C29 UNL     1      -1.174  -2.771  -0.249  1.00  0.00     0.014 C 
HETATM   18  C30 UNL     1      -0.425  -4.048   0.075  1.00  0.00    -0.018 C 
HETATM   19  C31 UNL     1      -1.131  -5.124  -0.769  1.00  0.00     0.010 C 
HETATM   20  C32 UNL     1       0.977  -4.042  -0.340  1.00  0.00     0.005 C 
HETATM   21  C33 UNL     1       1.626  -2.776   0.194  1.00  0.00     0.007 C 
HETATM   22  C34 UNL     1       0.840  -1.539  -0.171  1.00  0.00     0.010 C 
ENDROOT
BRANCH   1  23
HETATM   23  C8  UNL     1       2.617  -0.190   0.997  1.00  0.00     0.122 C 
BRANCH  23  24
HETATM   24  N2  UNL     1       3.775   0.527   1.255  1.00  0.00    -0.367 N 
HETATM   25  C7  UNL     1       4.159   0.639   2.706  1.00  0.00     0.151 C 
BRANCH  24  26
HETATM   26  C6  UNL     1       4.705   1.182   0.391  1.00  0.00     0.154 C 
BRANCH  26  27
HETATM   27  C5  UNL     1       5.952   0.413   0.103  1.00  0.00     0.292 C 
BRANCH  27  28
HETATM   28  N1  UNL     1       6.847   1.012  -0.829  1.00  0.00     0.089 N 
BRANCH  28  29
HETATM   29  C2  UNL     1       7.996   0.088  -0.987  1.00  0.00     0.268 C 
HETATM   30  C1  UNL     1       8.753  -0.149   0.268  1.00  0.00     0.037 C 
ENDBRANCH  28  29
BRANCH  28  31
HETATM   31  C3  UNL     1       7.312   2.308  -0.526  1.00  0.00     0.268 C 
HETATM   32  C4  UNL     1       6.396   3.470  -0.695  1.00  0.00     0.037 C 
ENDBRANCH  28  31
ENDBRANCH  27  28
ENDBRANCH  26  27
ENDBRANCH  24  26
ENDBRANCH  23  24
BRANCH  23  33
HETATM   33  O1  UNL     1       2.141  -0.701   2.106  1.00  0.00    -0.349 OA
ATOM     34  H1  UNL     1       1.347  -1.192   1.929  1.00  0.00     0.219 HD
ENDBRANCH  23  33
ENDBRANCH   1  23
BRANCH   4  35
HETATM   35  O2  UNL     1       0.131   1.514   1.198  1.00  0.00    -0.395 OA
ATOM     36  H2  UNL     1      -0.653   1.885   1.585  1.00  0.00     0.210 HD
ENDBRANCH   4  35
BRANCH  13  37
HETATM   37  C22 UNL     1      -6.326   0.625   0.318  1.00  0.00     0.082 C 
HETATM   38  C23 UNL     1      -6.773   0.852   1.752  1.00  0.00     0.049 C 
BRANCH  37  39
HETATM   39  O4  UNL     1      -7.181  -0.503  -0.028  1.00  0.00    -0.388 OA
ATOM     40  H4  UNL     1      -8.058  -0.167   0.115  1.00  0.00     0.210 HD
ENDBRANCH  37  39
BRANCH  37  41
HETATM   41  C24 UNL     1      -6.996   1.700  -0.461  1.00  0.00     0.204 C 
BRANCH  41  42
HETATM   42  O5  UNL     1      -6.505   2.964  -0.363  1.00  0.00    -0.393 OA
HETATM   43  C25 UNL     1      -7.110   3.929  -1.098  1.00  0.00     0.201 C 
ENDBRANCH  41  42
ENDBRANCH  37  41
ENDBRANCH  13  37
BRANCH  12  44
HETATM   44  O3  UNL     1      -4.977   0.252  -2.337  1.00  0.00    -0.395 OA
ATOM     45  H3  UNL     1      -5.862   0.597  -2.333  1.00  0.00     0.210 HD
ENDBRANCH  12  44
TORSDOF 14
