REMARK  12 active torsions:
REMARK  status: ('A' for Active; 'I' for Inactive)
REMARK    1  A    between atoms: N1_2  and  C3_11 
REMARK    2  A    between atoms: C2_3  and  N2_4 
REMARK    3  A    between atoms: N2_4  and  N3_6 
REMARK    4  A    between atoms: N3_6  and  N4_8 
REMARK    5  A    between atoms: C5_17  and  C6_18 
REMARK    6  A    between atoms: C6_18  and  C7_19 
REMARK       I    between atoms: C7_19  and  N7_21 
REMARK    7  A    between atoms: N7_21  and  C8_22 
REMARK    8  A    between atoms: N7_21  and  C10_26 
REMARK    9  A    between atoms: C8_22  and  C9_23 
REMARK   10  A    between atoms: C9_23  and  O2_24 
REMARK   11  A    between atoms: C10_26  and  C11_27 
REMARK   12  A    between atoms: C11_27  and  O3_28 
ROOT
HETATM    1  C3  UNL     1       2.834  -1.267   0.164  1.00  0.00     0.203 A 
HETATM    2  N5  UNL     1       2.872  -2.476   0.625  1.00  0.00    -0.269 N 
ATOM      3  H5  UNL     1       3.717  -2.935   0.965  1.00  0.00     0.190 HD
HETATM    4  N6  UNL     1       1.629  -3.064   0.599  1.00  0.00    -0.283 N 
ATOM      5  H6  UNL     1       1.405  -4.010   0.909  1.00  0.00     0.188 HD
HETATM    6  C4  UNL     1       0.709  -2.117   0.062  1.00  0.00     0.119 A 
HETATM    7  C5  UNL     1      -0.585  -2.297  -0.127  1.00  0.00     0.032 C 
HETATM    8  N8  UNL     1       1.493  -0.963  -0.215  1.00  0.00    -0.312 N 
ATOM      9  H8  UNL     1       1.159  -0.084  -0.610  1.00  0.00     0.170 HD
ENDROOT
BRANCH   7  10
HETATM   10  C6  UNL     1      -1.445  -1.230  -0.697  1.00  0.00     0.134 C 
BRANCH  10  11
HETATM   11  C7  UNL     1      -2.504  -0.877   0.269  1.00  0.00     0.223 C 
HETATM   12  O1  UNL     1      -2.515  -1.490   1.389  1.00  0.00    -0.273 OA
HETATM   13  N7  UNL     1      -3.472   0.107  -0.044  1.00  0.00    -0.348 N 
BRANCH  13  14
HETATM   14  C8  UNL     1      -4.494   0.382   0.975  1.00  0.00     0.151 C 
BRANCH  14  15
HETATM   15  C9  UNL     1      -5.698  -0.529   0.762  1.00  0.00     0.183 C 
BRANCH  15  16
HETATM   16  O2  UNL     1      -5.329  -1.858   0.854  1.00  0.00    -0.399 OA
ATOM     17  H2  UNL     1      -6.079  -2.426   0.721  1.00  0.00     0.209 HD
ENDBRANCH  15  16
ENDBRANCH  14  15
ENDBRANCH  13  14
BRANCH  13  18
HETATM   18  C10 UNL     1      -3.430   0.790  -1.293  1.00  0.00     0.151 C 
BRANCH  18  19
HETATM   19  C11 UNL     1      -2.631   2.068  -1.295  1.00  0.00     0.183 C 
BRANCH  19  20
HETATM   20  O3  UNL     1      -3.218   2.921  -0.360  1.00  0.00    -0.399 OA
ATOM     21  H3  UNL     1      -2.714   3.727  -0.361  1.00  0.00     0.209 HD
ENDBRANCH  19  20
ENDBRANCH  18  19
ENDBRANCH  13  18
ENDBRANCH  10  11
ENDBRANCH   7  10
BRANCH   1  22
HETATM   22  N1  UNL     1       3.960  -0.405   0.064  1.00  0.00    -0.317 N 
HETATM   23  C1  UNL     1       4.137   0.415  -1.123  1.00  0.00     0.160 C 
HETATM   24  C2  UNL     1       4.845  -0.317   0.996  1.00  0.00     0.203 C 
BRANCH  24  25
HETATM   25  N2  UNL     1       5.971   0.519   0.940  1.00  0.00    -0.282 N 
ATOM     26  H2  UNL     1       6.877   0.074   1.088  1.00  0.00     0.189 HD
BRANCH  25  27
HETATM   27  N3  UNL     1       5.983   1.871   0.707  1.00  0.00    -0.248 N 
ATOM     28  H3  UNL     1       6.535   2.287  -0.043  1.00  0.00     0.207 HD
BRANCH  27  29
HETATM   29  N4  UNL     1       5.205   2.630   1.547  1.00  0.00    -0.331 N 
ATOM     30  H42 UNL     1       4.658   2.200   2.293  1.00  0.00     0.178 HD
ATOM     31  H41 UNL     1       5.214   3.635   1.374  1.00  0.00     0.178 HD
ENDBRANCH  27  29
ENDBRANCH  25  27
ENDBRANCH  24  25
ENDBRANCH   1  22
TORSDOF 12
