REMARK  13 active torsions:
REMARK  status: ('A' for Active; 'I' for Inactive)
REMARK    1  A    between atoms: N1_1  and  C1_5 
REMARK    2  A    between atoms: C1_5  and  C2_6 
REMARK    3  A    between atoms: C3_10  and  C4_11 
REMARK    4  A    between atoms: C4_11  and  N3_12 
REMARK    5  A    between atoms: C6_17  and  N6_18 
REMARK       I    between atoms: N6_18  and  C7_20 
REMARK    6  A    between atoms: C7_20  and  C8_22 
REMARK    7  A    between atoms: C8_22  and  N7_23 
REMARK    8  A    between atoms: N7_23  and  C9_25 
REMARK    9  A    between atoms: C9_25  and  C10_26 
REMARK   10  A    between atoms: C10_26  and  N8_27 
REMARK   11  A    between atoms: N8_27  and  C11_30 
REMARK   12  A    between atoms: C11_30  and  C12_31 
REMARK   13  A    between atoms: C12_31  and  O2_32 
ROOT
HETATM    1  C2  UNL     1      -3.613  -1.414  -0.588  1.00  0.00     0.236 C 
HETATM    2  N2  UNL     1      -4.271  -0.775  -1.679  1.00  0.00    -0.059 N 
ATOM      3  H21 UNL     1      -5.281  -0.636  -1.650  1.00  0.00     0.278 HD
ATOM      4  H22 UNL     1      -4.358  -1.260  -2.572  1.00  0.00     0.278 HD
HETATM    5  C3  UNL     1      -3.395   0.352  -1.564  1.00  0.00     0.228 C 
HETATM    6  C6  UNL     1      -2.510  -0.458  -0.632  1.00  0.00     0.149 C 
ENDROOT
BRANCH   6   7
HETATM    7  N6  UNL     1      -1.272  -0.762  -1.285  1.00  0.00    -0.351 N 
HETATM    8  C7  UNL     1      -0.040  -0.350  -0.661  1.00  0.00     0.235 C 
HETATM    9  O1  UNL     1      -0.083   0.276   0.456  1.00  0.00    -0.272 OA
ATOM     10  H6  UNL     1      -1.263  -1.261  -2.175  1.00  0.00     0.163 HD
BRANCH   8  11
HETATM   11  C8  UNL     1       1.279  -0.626  -1.276  1.00  0.00     0.217 C 
BRANCH  11  12
HETATM   12  N7  UNL     1       2.390  -0.143  -0.551  1.00  0.00    -0.412 N 
ATOM     13  H7  UNL     1       2.950   0.647  -0.871  1.00  0.00     0.153 HD
BRANCH  12  14
HETATM   14  C9  UNL     1       2.670  -0.835   0.653  1.00  0.00     0.142 C 
BRANCH  14  15
HETATM   15  C10 UNL     1       3.795  -0.127   1.431  1.00  0.00     0.251 C 
BRANCH  15  16
HETATM   16  N8  UNL     1       4.978  -0.089   0.592  1.00  0.00    -0.072 N 
ATOM     17  H82 UNL     1       5.284  -1.027   0.334  1.00  0.00     0.277 HD
ATOM     18  H81 UNL     1       4.765   0.269  -0.339  1.00  0.00     0.277 HD
BRANCH  16  19
HETATM   19  C11 UNL     1       6.051   0.668   1.223  1.00  0.00     0.258 C 
BRANCH  19  20
HETATM   20  C12 UNL     1       7.218   0.671   0.292  1.00  0.00     0.191 C 
BRANCH  20  21
HETATM   21  O2  UNL     1       8.310   1.378   0.795  1.00  0.00    -0.399 OA
ATOM     22  H2  UNL     1       9.053   1.380   0.203  1.00  0.00     0.209 HD
ENDBRANCH  20  21
ENDBRANCH  19  20
ENDBRANCH  16  19
ENDBRANCH  15  16
ENDBRANCH  14  15
ENDBRANCH  12  14
ENDBRANCH  11  12
ENDBRANCH   8  11
ENDBRANCH   6   7
BRANCH   1  23
HETATM   23  C1  UNL     1      -3.370  -2.888  -0.731  1.00  0.00     0.264 C 
BRANCH  23  24
HETATM   24  N1  UNL     1      -2.573  -3.281  -1.848  1.00  0.00    -0.077 N 
ATOM     25  H13 UNL     1      -2.975  -2.910  -2.709  1.00  0.00     0.274 HD
ATOM     26  H12 UNL     1      -1.683  -2.782  -1.832  1.00  0.00     0.274 HD
ATOM     27  H11 UNL     1      -2.408  -4.283  -1.945  1.00  0.00     0.274 HD
ENDBRANCH  23  24
ENDBRANCH   1  23
BRANCH   5  28
HETATM   28  C4  UNL     1      -3.978   1.586  -0.906  1.00  0.00     0.157 C 
BRANCH  28  29
HETATM   29  N3  UNL     1      -4.375   1.257   0.443  1.00  0.00    -0.365 N 
HETATM   30  C5  UNL     1      -4.186   2.095   1.429  1.00  0.00     0.197 C 
HETATM   31  N4  UNL     1      -3.593   3.365   1.266  1.00  0.00    -0.067 NA
HETATM   32  N5  UNL     1      -4.619   1.667   2.723  1.00  0.00    -0.067 NA
ATOM     33  H3  UNL     1      -4.811   0.354   0.630  1.00  0.00     0.161 HD
ENDBRANCH  28  29
ENDBRANCH   5  28
TORSDOF 13
