REMARK  16 active torsions:
REMARK  status: ('A' for Active; 'I' for Inactive)
REMARK    1  A    between atoms: C2_2  and  O2_4 
REMARK    2  A    between atoms: O2_4  and  C3_5 
REMARK    3  A    between atoms: C3_5  and  C32_41 
REMARK    4  A    between atoms: C4_6  and  C5_7 
REMARK    5  A    between atoms: C5_7  and  O4_9 
REMARK    6  A    between atoms: O4_9  and  C6_10 
REMARK    7  A    between atoms: C8_12  and  C9_13 
REMARK    8  A    between atoms: C9_13  and  C11_15 
REMARK    9  A    between atoms: C11_15  and  C13_17 
REMARK   10  A    between atoms: C13_17  and  C14_18 
REMARK   11  A    between atoms: C14_18  and  C15_19 
REMARK   12  A    between atoms: C15_19  and  O5_20 
REMARK   13  A    between atoms: C15_19  and  O6_22 
REMARK   14  A    between atoms: C15_19  and  C18_26 
REMARK   15  A    between atoms: O6_22  and  C16_23 
REMARK   16  A    between atoms: C26_35  and  C27_36 
ROOT
HETATM    1  C6  UNL     1      -1.033  -0.898   0.716  1.00  0.00     0.146 C 
HETATM    2  C7  UNL     1      -0.100  -0.960  -0.471  1.00  0.00     0.040 C 
HETATM    3  C8  UNL     1       0.981  -1.817   0.099  1.00  0.00     0.009 C 
HETATM    4  C21 UNL     1       0.314  -2.719   1.057  1.00  0.00    -0.008 C 
HETATM    5  C22 UNL     1       0.910  -2.832   2.427  1.00  0.00     0.021 C 
HETATM    6  C23 UNL     1       0.527  -4.087   0.496  1.00  0.00    -0.012 C 
HETATM    7  C24 UNL     1      -0.312  -4.749  -0.266  1.00  0.00     0.052 C 
HETATM    8  C25 UNL     1      -1.534  -4.001  -0.527  1.00  0.00     0.179 C 
HETATM    9  O8  UNL     1      -2.074  -4.035  -1.666  1.00  0.00    -0.288 OA
HETATM   10  C26 UNL     1      -2.051  -3.233   0.637  1.00  0.00     0.005 C 
HETATM   11  C30 UNL     1      -1.133  -2.303   1.208  1.00  0.00     0.025 C 
HETATM   12  C31 UNL     1      -1.529  -2.100   2.694  1.00  0.00     0.024 C 
ENDROOT
BRANCH   3  13
HETATM   13  C9  UNL     1       2.263  -1.146   0.304  1.00  0.00     0.015 C 
HETATM   14  C10 UNL     1       3.323  -2.042   0.975  1.00  0.00     0.015 C 
BRANCH  13  15
HETATM   15  C11 UNL     1       3.012  -0.684  -0.916  1.00  0.00    -0.083 C 
HETATM   16  C12 UNL     1       3.336  -1.879  -1.833  1.00  0.00     0.043 C 
BRANCH  15  17
HETATM   17  C13 UNL     1       2.665   0.478  -1.701  1.00  0.00    -0.019 C 
BRANCH  17  18
HETATM   18  C14 UNL     1       2.627   1.843  -1.180  1.00  0.00     0.096 C 
BRANCH  18  19
HETATM   19  C15 UNL     1       3.913   2.449  -0.595  1.00  0.00     0.176 C 
BRANCH  19  20
HETATM   20  O5  UNL     1       3.493   3.778  -0.261  1.00  0.00    -0.364 OA
ATOM     21  H5  UNL     1       4.288   4.152   0.101  1.00  0.00     0.213 HD
ENDBRANCH  19  20
BRANCH  19  22
HETATM   22  O6  UNL     1       4.136   1.741   0.566  1.00  0.00    -0.283 OA
BRANCH  22  23
HETATM   23  C16 UNL     1       4.996   1.875   1.579  1.00  0.00     0.257 C 
HETATM   24  C17 UNL     1       5.003   0.894   2.744  1.00  0.00     0.126 C 
HETATM   25  O7  UNL     1       5.813   2.819   1.586  1.00  0.00    -0.266 OA
ENDBRANCH  22  23
ENDBRANCH  19  22
BRANCH  19  26
HETATM   26  C18 UNL     1       4.951   2.527  -1.626  1.00  0.00     0.041 C 
HETATM   27  C19 UNL     1       6.289   3.095  -1.331  1.00  0.00     0.015 C 
HETATM   28  C20 UNL     1       4.472   3.195  -2.912  1.00  0.00     0.015 C 
ENDBRANCH  19  26
ENDBRANCH  18  19
ENDBRANCH  17  18
ENDBRANCH  15  17
ENDBRANCH  13  15
ENDBRANCH   3  13
BRANCH   1  29
HETATM   29  O4  UNL     1      -2.129  -0.117   0.685  1.00  0.00    -0.311 OA
BRANCH  29  30
HETATM   30  C5  UNL     1      -2.329   1.117   1.274  1.00  0.00     0.286 C 
HETATM   31  O3  UNL     1      -1.253   1.497   1.885  1.00  0.00    -0.260 OA
BRANCH  30  32
HETATM   32  C4  UNL     1      -3.508   1.940   1.277  1.00  0.00     0.119 C 
HETATM   33  C3  UNL     1      -4.078   2.483   0.063  1.00  0.00     0.086 C 
BRANCH  33  34
HETATM   34  O2  UNL     1      -5.250   3.295   0.330  1.00  0.00    -0.279 OA
BRANCH  34  35
HETATM   35  C2  UNL     1      -6.492   2.654   0.377  1.00  0.00     0.260 C 
HETATM   36  C1  UNL     1      -7.761   3.354   0.639  1.00  0.00     0.126 C 
HETATM   37  O1  UNL     1      -6.475   1.397   0.176  1.00  0.00    -0.265 OA
ENDBRANCH  34  35
ENDBRANCH  33  34
BRANCH  33  38
HETATM   38  C32 UNL     1      -3.767   2.395  -1.185  1.00  0.00    -0.053 C 
HETATM   39  C33 UNL     1      -2.645   1.658  -1.806  1.00  0.00     0.046 C 
HETATM   40  C34 UNL     1      -4.659   3.123  -2.179  1.00  0.00     0.046 C 
ENDBRANCH  33  38
ENDBRANCH  30  32
ENDBRANCH  29  30
ENDBRANCH   1  29
BRANCH  10  41
HETATM   41  C27 UNL     1      -3.474  -2.965   0.322  1.00  0.00    -0.076 C 
HETATM   42  C28 UNL     1      -3.822  -2.201  -0.887  1.00  0.00     0.044 C 
HETATM   43  C29 UNL     1      -4.372  -2.555   1.455  1.00  0.00     0.044 C 
ENDBRANCH  10  41
TORSDOF 16
