REMARK  6 active torsions:
REMARK  status: ('A' for Active; 'I' for Inactive)
REMARK    1  A    between atoms: C2_2  and  C3_3 
REMARK    2  A    between atoms: C3_3  and  C4_4 
REMARK    3  A    between atoms: C4_4  and  C5_5 
REMARK    4  A    between atoms: C5_5  and  O1_6 
REMARK    5  A    between atoms: C5_5  and  C7_8 
REMARK    6  A    between atoms: N1_11  and  N2_13 
ROOT
HETATM    1  C3  UNL     1       0.488   0.013  -1.570  1.00  0.00     0.005 C 
HETATM    2  N1  UNL     1      -0.641  -0.581  -1.729  1.00  0.00    -0.311 N 
ATOM      3  H1  UNL     1      -0.807  -0.945  -2.667  1.00  0.00     0.186 HD
ENDROOT
BRANCH   2   4
HETATM    4  N2  UNL     1      -1.655  -0.802  -0.837  1.00  0.00    -0.324 N 
HETATM    5  C10 UNL     1      -1.890  -2.050  -0.152  1.00  0.00     0.170 C 
HETATM    6  C11 UNL     1      -2.116  -1.841   1.295  1.00  0.00     0.254 C 
HETATM    7  N3  UNL     1      -2.667  -0.568   1.646  1.00  0.00    -0.064 N 
HETATM    8  C12 UNL     1      -3.475   0.013   0.607  1.00  0.00     0.136 C 
ATOM      9  H32 UNL     1      -3.191  -0.629   2.519  1.00  0.00     0.278 HD
ATOM     10  H31 UNL     1      -1.931   0.077   1.935  1.00  0.00     0.278 HD
HETATM   11  C13 UNL     1      -4.685  -0.794   0.272  1.00  0.00     0.048 C 
HETATM   12  C14 UNL     1      -3.956   1.360   1.163  1.00  0.00     0.048 C 
HETATM   13  C15 UNL     1      -2.583   0.294  -0.574  1.00  0.00     0.180 C 
ENDBRANCH   2   4
BRANCH   1  14
HETATM   14  C2  UNL     1       1.346   0.066  -2.779  1.00  0.00     0.049 C 
HETATM   15  C1  UNL     1       1.602   1.522  -3.196  1.00  0.00     0.011 C 
ENDBRANCH   1  14
BRANCH   1  16
HETATM   16  C4  UNL     1       0.829   0.584  -0.256  1.00  0.00     0.086 C 
BRANCH  16  17
HETATM   17  C5  UNL     1       2.064   0.085   0.396  1.00  0.00     0.129 C 
BRANCH  17  18
HETATM   18  O1  UNL     1       2.038  -1.273   0.591  1.00  0.00    -0.390 OA
HETATM   19  C6  UNL     1       1.987  -1.700   1.892  1.00  0.00     0.202 C 
ENDBRANCH  17  18
BRANCH  17  20
HETATM   20  C7  UNL     1       3.367   0.654  -0.070  1.00  0.00     0.007 C 
HETATM   21  C8  UNL     1       3.441   2.155   0.131  1.00  0.00     0.012 C 
HETATM   22  C9  UNL     1       4.511   0.088   0.799  1.00  0.00     0.012 C 
ENDBRANCH  17  20
ENDBRANCH  16  17
ENDBRANCH   1  16
TORSDOF 6
