REMARK  18 active torsions:
REMARK  status: ('A' for Active; 'I' for Inactive)
REMARK    1  A    between atoms: C2_2  and  C3_3 
REMARK    2  A    between atoms: C3_3  and  C4_4 
REMARK    3  A    between atoms: C4_4  and  C6_6 
REMARK    4  A    between atoms: C6_6  and  C7_7 
REMARK    5  A    between atoms: C7_7  and  C8_8 
REMARK    6  A    between atoms: C8_8  and  C9_9 
REMARK    7  A    between atoms: C9_9  and  C12_12 
REMARK    8  A    between atoms: C13_13  and  C14_14 
REMARK    9  A    between atoms: C14_14  and  C15_15 
REMARK   10  A    between atoms: C15_15  and  O1_16 
REMARK   11  A    between atoms: C15_15  and  C16_18 
REMARK   12  A    between atoms: C16_18  and  C18_20 
REMARK   13  A    between atoms: C18_20  and  C19_21 
REMARK   14  A    between atoms: C19_21  and  C20_22 
REMARK   15  A    between atoms: C21_23  and  O2_24 
REMARK   16  A    between atoms: C22_26  and  O3_27 
REMARK   17  A    between atoms: C23_29  and  O4_30 
REMARK   18  A    between atoms: C24_32  and  O5_33 
ROOT
HETATM    1  C20 UNL     1      -4.062   0.127  -0.297  1.00  0.00     0.049 C 
HETATM    2  C21 UNL     1      -4.693  -0.933  -1.136  1.00  0.00     0.156 C 
HETATM    3  C22 UNL     1      -5.760  -1.709  -0.383  1.00  0.00     0.178 C 
HETATM    4  C23 UNL     1      -6.909  -0.832  -0.021  1.00  0.00     0.180 C 
HETATM    5  C24 UNL     1      -6.539  -0.102   1.249  1.00  0.00     0.179 C 
HETATM    6  C25 UNL     1      -5.928   1.224   1.016  1.00  0.00     0.087 C 
HETATM    7  C26 UNL     1      -6.957   2.339   0.871  1.00  0.00     0.044 C 
HETATM    8  N1  UNL     1      -5.098   1.578   2.146  1.00  0.00    -0.323 N 
ATOM      9  H1  UNL     1      -5.253   1.328   3.123  1.00  0.00     0.165 HD
HETATM   10  C27 UNL     1      -4.037   2.334   1.629  1.00  0.00     0.361 C 
HETATM   11  O6  UNL     1      -3.122   2.838   2.333  1.00  0.00    -0.238 OA
HETATM   12  O7  UNL     1      -4.190   2.416   0.229  1.00  0.00    -0.295 OA
HETATM   13  C28 UNL     1      -5.010   1.298  -0.165  1.00  0.00     0.170 C 
ENDROOT
BRANCH   1  14
HETATM   14  C19 UNL     1      -2.839   0.678  -1.022  1.00  0.00     0.010 C 
BRANCH  14  15
HETATM   15  C18 UNL     1      -1.780  -0.304  -1.306  1.00  0.00     0.007 C 
BRANCH  15  16
HETATM   16  C16 UNL     1      -0.563   0.141  -2.025  1.00  0.00     0.011 C 
HETATM   17  C17 UNL     1      -0.814   0.605  -3.455  1.00  0.00     0.012 C 
BRANCH  16  18
HETATM   18  C15 UNL     1       0.260   1.223  -1.358  1.00  0.00     0.125 C 
BRANCH  18  19
HETATM   19  C14 UNL     1       0.585   0.954   0.074  1.00  0.00     0.059 C 
BRANCH  19  20
HETATM   20  C13 UNL     1       1.473  -0.148   0.410  1.00  0.00    -0.027 C 
HETATM   21  C12 UNL     1       2.128  -0.913  -0.399  1.00  0.00    -0.022 C 
BRANCH  21  22
HETATM   22  C9  UNL     1       3.000  -2.009   0.053  1.00  0.00    -0.030 C 
HETATM   23  C10 UNL     1       2.108  -3.284   0.141  1.00  0.00     0.019 C 
HETATM   24  C11 UNL     1       4.006  -2.359  -1.024  1.00  0.00     0.019 C 
BRANCH  22  25
HETATM   25  C8  UNL     1       3.548  -1.831   1.407  1.00  0.00     0.013 C 
BRANCH  25  26
HETATM   26  C7  UNL     1       4.411  -0.696   1.739  1.00  0.00     0.001 C 
BRANCH  26  27
HETATM   27  C6  UNL     1       5.668  -0.642   0.944  1.00  0.00     0.004 C 
BRANCH  27  28
HETATM   28  C4  UNL     1       6.550   0.531   1.373  1.00  0.00    -0.019 C 
HETATM   29  C5  UNL     1       6.888   0.320   2.837  1.00  0.00     0.010 C 
BRANCH  28  30
HETATM   30  C3  UNL     1       7.793   0.511   0.536  1.00  0.00     0.004 C 
BRANCH  30  31
HETATM   31  C2  UNL     1       7.528   0.720  -0.925  1.00  0.00    -0.004 C 
HETATM   32  C1  UNL     1       6.841   2.074  -1.130  1.00  0.00     0.005 C 
ENDBRANCH  30  31
ENDBRANCH  28  30
ENDBRANCH  27  28
ENDBRANCH  26  27
ENDBRANCH  25  26
ENDBRANCH  22  25
ENDBRANCH  21  22
ENDBRANCH  19  20
ENDBRANCH  18  19
BRANCH  18  33
HETATM   33  O1  UNL     1      -0.528   2.410  -1.348  1.00  0.00    -0.395 OA
ATOM     34  H1  UNL     1      -0.735   2.581  -2.259  1.00  0.00     0.210 HD
ENDBRANCH  18  33
ENDBRANCH  16  18
ENDBRANCH  15  16
ENDBRANCH  14  15
ENDBRANCH   1  14
BRANCH   2  35
HETATM   35  O2  UNL     1      -5.330  -0.329  -2.221  1.00  0.00    -0.392 OA
ATOM     36  H2  UNL     1      -5.732  -1.004  -2.755  1.00  0.00     0.210 HD
ENDBRANCH   2  35
BRANCH   3  37
HETATM   37  O3  UNL     1      -6.188  -2.730  -1.227  1.00  0.00    -0.390 OA
ATOM     38  H3  UNL     1      -6.855  -3.215  -0.756  1.00  0.00     0.210 HD
ENDBRANCH   3  37
BRANCH   4  39
HETATM   39  O4  UNL     1      -7.360  -0.012  -1.022  1.00  0.00    -0.390 OA
ATOM     40  H4  UNL     1      -8.093   0.547  -0.791  1.00  0.00     0.210 HD
ENDBRANCH   4  39
BRANCH   5  41
HETATM   41  O5  UNL     1      -7.675   0.040   2.027  1.00  0.00    -0.390 OA
ATOM     42  H5  UNL     1      -7.442   0.499   2.826  1.00  0.00     0.210 HD
ENDBRANCH   5  41
TORSDOF 18
