REMARK  5 active torsions:
REMARK  status: ('A' for Active; 'I' for Inactive)
REMARK    1  A    between atoms: C1_2  and  C2_3 
REMARK       I    between atoms: C1_2  and  N4_20 
REMARK    2  A    between atoms: C2_3  and  S1_4 
REMARK    3  A    between atoms: S1_4  and  C3_5 
REMARK    4  A    between atoms: N3_11  and  C5_13 
REMARK    5  A    between atoms: C5_13  and  C6_14 
ROOT
HETATM    1  C3  UNL     1       0.086  -1.952  -1.040  1.00  0.00     0.130 A 
HETATM    2  N1  UNL     1       1.262  -2.432  -0.677  1.00  0.00    -0.286 N 
ATOM      3  H1  UNL     1       1.317  -3.341  -0.218  1.00  0.00     0.188 HD
HETATM    4  N2  UNL     1       2.325  -1.771  -0.894  1.00  0.00    -0.279 N 
ATOM      5  H2  UNL     1       3.232  -2.144  -0.613  1.00  0.00     0.189 HD
HETATM    6  C4  UNL     1       2.239  -0.584  -1.494  1.00  0.00     0.161 A 
HETATM    7  N3  UNL     1       3.167   0.278  -1.824  1.00  0.00    -0.367 N 
ATOM      8  H3  UNL     1       2.880   1.142  -2.283  1.00  0.00     0.161 HD
HETATM    9  S2  UNL     1       0.532  -0.459  -1.735  1.00  0.00    -0.027 SA
ENDROOT
BRANCH   1  10
HETATM   10  S1  UNL     1      -1.530  -2.727  -0.820  1.00  0.00    -0.094 SA
BRANCH  10  11
HETATM   11  C2  UNL     1      -2.143  -2.163   0.814  1.00  0.00     0.184 C 
BRANCH  11  12
HETATM   12  C1  UNL     1      -2.364  -0.718   0.697  1.00  0.00     0.229 C 
HETATM   13  O1  UNL     1      -1.459   0.084   1.087  1.00  0.00    -0.273 OA
HETATM   14  N4  UNL     1      -3.546  -0.189   0.167  1.00  0.00    -0.351 N 
HETATM   15  C10 UNL     1      -4.603  -1.040  -0.307  1.00  0.00     0.125 C 
HETATM   16  C14 UNL     1      -3.766   1.241   0.072  1.00  0.00     0.125 C 
HETATM   17  C11 UNL     1      -5.865  -0.786   0.493  1.00  0.00     0.020 C 
HETATM   18  C12 UNL     1      -6.176   0.688   0.595  1.00  0.00     0.003 C 
HETATM   19  C13 UNL     1      -4.999   1.555   0.869  1.00  0.00     0.020 C 
ENDBRANCH  11  12
ENDBRANCH  10  11
ENDBRANCH   1  10
BRANCH   7  20
HETATM   20  C5  UNL     1       4.547   0.078  -1.579  1.00  0.00     0.153 C 
BRANCH  20  21
HETATM   21  C6  UNL     1       5.083   1.302  -0.830  1.00  0.00     0.139 C 
HETATM   22  C7  UNL     1       4.367   1.291   0.511  1.00  0.00     0.035 C 
HETATM   23  C8  UNL     1       5.475   0.716   1.405  1.00  0.00     0.029 C 
HETATM   24  C9  UNL     1       6.684   1.369   0.727  1.00  0.00     0.168 C 
HETATM   25  O2  UNL     1       6.419   1.085  -0.610  1.00  0.00    -0.384 OA
ENDBRANCH  20  21
ENDBRANCH   7  20
TORSDOF 5
