REMARK  8 active torsions:
REMARK  status: ('A' for Active; 'I' for Inactive)
REMARK    1  A    between atoms: C2_2  and  C3_3 
REMARK    2  A    between atoms: C3_3  and  N1_4 
REMARK    3  A    between atoms: N2_7  and  C6_8 
REMARK    4  A    between atoms: N4_14  and  C10_16 
REMARK    5  A    between atoms: C10_16  and  C11_17 
REMARK    6  A    between atoms: C10_16  and  C12_20 
REMARK    7  A    between atoms: C11_17  and  O1_18 
REMARK    8  A    between atoms: C15_23  and  C16_24 
ROOT
HETATM    1  C6  UNL     1      -1.907   1.705  -0.109  1.00  0.00     0.120 A 
HETATM    2  C7  UNL     1      -1.794   2.994  -0.565  1.00  0.00     0.066 A 
HETATM    3  C8  UNL     1      -0.542   3.553  -0.814  1.00  0.00     0.110 A 
HETATM    4  N3  UNL     1       0.587   2.827  -0.610  1.00  0.00    -0.202 N 
ATOM      5  H3  UNL     1       1.507   3.229  -0.792  1.00  0.00     0.183 HD
HETATM    6  C9  UNL     1       0.463   1.573  -0.165  1.00  0.00     0.679 A 
HETATM    7  N4  UNL     1       1.488   0.832   0.046  1.00  0.00    -0.219 N 
ATOM      8  H4  UNL     1       1.280  -0.108   0.383  1.00  0.00     0.178 HD
HETATM    9  N5  UNL     1      -0.777   1.021   0.081  1.00  0.00    -0.177 N 
ATOM     10  H5  UNL     1      -0.832   0.060   0.419  1.00  0.00     0.185 HD
ENDROOT
BRANCH   7  11
HETATM   11  C10 UNL     1       2.866   1.119  -0.118  1.00  0.00     0.127 C 
BRANCH  11  12
HETATM   12  C11 UNL     1       3.450   1.484   1.240  1.00  0.00     0.190 C 
BRANCH  12  13
HETATM   13  O1  UNL     1       2.762   2.594   1.703  1.00  0.00    -0.399 OA
ATOM     14  H1  UNL     1       3.126   2.822   2.550  1.00  0.00     0.209 HD
ENDBRANCH  12  13
ENDBRANCH  11  12
BRANCH  11  15
HETATM   15  C12 UNL     1       3.635  -0.046  -0.723  1.00  0.00     0.011 C 
HETATM   16  C13 UNL     1       3.578  -1.282   0.112  1.00  0.00     0.007 C 
HETATM   17  C14 UNL     1       4.302  -2.381  -0.639  1.00  0.00     0.014 C 
HETATM   18  C15 UNL     1       5.731  -2.055  -0.927  1.00  0.00     0.093 C 
HETATM   19  C17 UNL     1       6.077  -0.612  -0.686  1.00  0.00     0.014 C 
HETATM   20  C18 UNL     1       5.004   0.336  -1.147  1.00  0.00     0.007 C 
BRANCH  18  21
HETATM   21  C16 UNL     1       6.596  -2.876   0.028  1.00  0.00     0.391 C 
HETATM   22  F1  UNL     1       6.221  -2.488   1.322  1.00  0.00    -0.171 F 
HETATM   23  F2  UNL     1       6.408  -4.215  -0.127  1.00  0.00    -0.171 F 
HETATM   24  F3  UNL     1       7.931  -2.497  -0.088  1.00  0.00    -0.171 F 
ENDBRANCH  18  21
ENDBRANCH  11  15
ENDBRANCH   7  11
BRANCH   1  25
HETATM   25  N2  UNL     1      -3.162   1.113   0.151  1.00  0.00    -0.363 N 
HETATM   26  C5  UNL     1      -3.250  -0.270   0.622  1.00  0.00     0.154 C 
HETATM   27  C4  UNL     1      -4.385  -0.938  -0.138  1.00  0.00     0.292 C 
HETATM   28  N1  UNL     1      -5.623  -0.307   0.182  1.00  0.00     0.095 N 
HETATM   29  C20 UNL     1      -5.490   1.028   0.690  1.00  0.00     0.292 C 
HETATM   30  C19 UNL     1      -4.417   1.817  -0.024  1.00  0.00     0.154 C 
BRANCH  28  31
HETATM   31  C3  UNL     1      -6.500  -1.062   1.016  1.00  0.00     0.299 C 
BRANCH  31  32
HETATM   32  C2  UNL     1      -7.071  -2.263   0.401  1.00  0.00    -0.007 C 
HETATM   33  C1  UNL     1      -8.377  -2.408   0.269  1.00  0.00     0.008 C 
ENDBRANCH  31  32
ENDBRANCH  28  31
ENDBRANCH   1  25
TORSDOF 8
