REMARK  4 active torsions:
REMARK  status: ('A' for Active; 'I' for Inactive)
REMARK    1  A    between atoms: O1_1  and  C1_3 
REMARK    2  A    between atoms: C1_3  and  C2_4 
REMARK    3  A    between atoms: C2_4  and  C3_5 
REMARK    4  A    between atoms: C3_5  and  C4_6 
ROOT
HETATM    1  C4  UNL     1       1.113  -0.540  -0.228  1.00  0.00     0.023 C 
HETATM    2  C5  UNL     1       1.751  -1.707   0.467  1.00  0.00     0.037 C 
HETATM    3  C6  UNL     1       0.718  -2.151   1.480  1.00  0.00     0.273 C 
HETATM    4  N1  UNL     1      -0.551  -1.591   1.057  1.00  0.00     0.100 N 
HETATM    5  C7  UNL     1      -1.026  -2.370  -0.050  1.00  0.00     0.317 C 
HETATM    6  C8  UNL     1      -2.213  -1.723  -0.694  1.00  0.00     0.088 C 
HETATM    7  N2  UNL     1      -2.291  -0.336  -0.630  1.00  0.00    -0.385 N 
HETATM    8  C9  UNL     1      -3.593   0.153  -0.342  1.00  0.00     0.122 C 
HETATM    9  C10 UNL     1      -3.664   1.599  -0.831  1.00  0.00     0.020 C 
HETATM   10  C11 UNL     1      -2.740   2.407   0.016  1.00  0.00     0.004 C 
HETATM   11  C12 UNL     1      -1.609   1.664   0.615  1.00  0.00     0.027 C 
HETATM   12  C13 UNL     1      -1.203   0.426  -0.194  1.00  0.00     0.117 C 
HETATM   13  C14 UNL     1      -0.152  -0.281   0.593  1.00  0.00     0.250 C 
ENDROOT
BRANCH   1  14
HETATM   14  C3  UNL     1       2.033   0.653  -0.096  1.00  0.00     0.009 C 
BRANCH  14  15
HETATM   15  C2  UNL     1       3.373   0.375  -0.725  1.00  0.00     0.026 C 
BRANCH  15  16
HETATM   16  C1  UNL     1       4.319   1.526  -0.620  1.00  0.00     0.164 C 
BRANCH  16  17
HETATM   17  O1  UNL     1       5.517   1.166  -1.227  1.00  0.00    -0.401 OA
ATOM     18  H1  UNL     1       6.119   1.898  -1.160  1.00  0.00     0.209 HD
ENDBRANCH  16  17
ENDBRANCH  15  16
ENDBRANCH  14  15
ENDBRANCH   1  14
TORSDOF 4
