REMARK  4 active torsions:
REMARK  status: ('A' for Active; 'I' for Inactive)
REMARK    1  A    between atoms: C2_2  and  C3_3 
REMARK    2  A    between atoms: C5_7  and  C6_8 
REMARK    3  A    between atoms: C7_11  and  C8_12 
REMARK    4  A    between atoms: C9_22  and  C10_23 
ROOT
HETATM    1  C3  UNL     1       0.984  -2.126  -0.108  1.00  0.00     0.036 A 
HETATM    2  N1  UNL     1       2.287  -2.437  -0.302  1.00  0.00    -0.365 N 
ATOM      3  H1  UNL     1       2.543  -3.356  -0.662  1.00  0.00     0.165 HD
HETATM    4  C4  UNL     1       3.241  -1.538  -0.022  1.00  0.00     0.121 A 
HETATM    5  C5  UNL     1       2.878  -0.291   0.460  1.00  0.00     0.094 A 
HETATM    6  N5  UNL     1       1.579  -0.039   0.640  1.00  0.00    -0.350 N 
ATOM      7  H5  UNL     1       1.313   0.875   1.006  1.00  0.00     0.166 HD
HETATM    8  C9  UNL     1       0.595  -0.927   0.365  1.00  0.00     0.058 A 
ENDROOT
BRANCH   5   9
HETATM    9  C6  UNL     1       3.901   0.739   0.587  1.00  0.00     0.150 A 
HETATM   10  N2  UNL     1       5.221   0.626   0.246  1.00  0.00    -0.321 N 
HETATM   11  C7  UNL     1       5.766   1.851   0.389  1.00  0.00     0.206 A 
ATOM     12  H2  UNL     1       5.700  -0.221  -0.058  1.00  0.00     0.169 HD
HETATM   13  N3  UNL     1       4.825   2.708   0.806  1.00  0.00    -0.280 N 
HETATM   14  N4  UNL     1       3.715   1.999   0.915  1.00  0.00    -0.282 N 
ATOM     15  H3  UNL     1       4.941   3.703   1.000  1.00  0.00     0.188 HD
ATOM     16  H4  UNL     1       2.820   2.383   1.218  1.00  0.00     0.188 HD
BRANCH  11  17
HETATM   17  C8  UNL     1       7.159   2.232   0.064  1.00  0.00     0.450 C 
HETATM   18  F1  UNL     1       7.500   3.400   0.671  1.00  0.00    -0.163 F 
HETATM   19  F2  UNL     1       7.153   2.469  -1.323  1.00  0.00    -0.163 F 
HETATM   20  F3  UNL     1       7.968   1.180   0.300  1.00  0.00    -0.163 F 
ENDBRANCH  11  17
ENDBRANCH   5   9
BRANCH   8  21
HETATM   21  C10 UNL     1      -0.842  -0.517   0.322  1.00  0.00    -0.049 C 
HETATM   22  C11 UNL     1      -1.745  -0.992   1.376  1.00  0.00     0.039 C 
HETATM   23  C12 UNL     1      -2.575   0.028   2.096  1.00  0.00     0.043 C 
HETATM   24  C13 UNL     1      -3.352   0.930   1.184  1.00  0.00     0.257 C 
HETATM   25  C14 UNL     1      -4.314   0.248   0.272  1.00  0.00     0.205 C 
HETATM   26  N6  UNL     1      -2.479   1.677   0.296  1.00  0.00     0.096 N 
HETATM   27  F4  UNL     1      -5.528   0.964   0.312  1.00  0.00    -0.247 F 
HETATM   28  C15 UNL     1      -3.807   0.413  -1.140  1.00  0.00     0.075 C 
HETATM   29  C16 UNL     1      -2.423   0.991  -0.942  1.00  0.00     0.230 C 
HETATM   30  C17 UNL     1      -1.390  -0.137  -1.002  1.00  0.00     0.072 C 
HETATM   31  C18 UNL     1      -2.923   3.041   0.250  1.00  0.00     0.311 C 
ENDBRANCH   8  21
BRANCH   1  32
HETATM   32  C2  UNL     1       0.058  -3.241  -0.379  1.00  0.00     0.055 C 
HETATM   33  C1  UNL     1      -0.074  -4.135   0.826  1.00  0.00     0.011 C 
ENDBRANCH   1  32
TORSDOF 4
