REMARK  9 active torsions:
REMARK  status: ('A' for Active; 'I' for Inactive)
REMARK    1  A    between atoms: O1_2  and  C2_3 
REMARK    2  A    between atoms: C5_6  and  C6_7 
REMARK    3  A    between atoms: C6_7  and  C7_8 
REMARK    4  A    between atoms: C9_12  and  C10_13 
REMARK    5  A    between atoms: C13_16  and  N2_17 
REMARK       I    between atoms: N2_17  and  C14_19 
REMARK    6  A    between atoms: C14_19  and  C15_21 
REMARK    7  A    between atoms: N3_25  and  N4_26 
REMARK    8  A    between atoms: N5_33  and  C22_34 
REMARK    9  A    between atoms: C27_39  and  O4_40 
ROOT
HETATM    1  C7  UNL     1       2.234   2.107   0.653  1.00  0.00     0.116 A 
HETATM    2  N1  UNL     1       1.246   2.751   1.382  1.00  0.00    -0.337 N 
ATOM      3  H1  UNL     1       1.380   3.589   1.948  1.00  0.00     0.167 HD
HETATM    4  C8  UNL     1       0.089   2.099   1.225  1.00  0.00     0.103 A 
HETATM    5  C9  UNL     1      -1.078   2.410   1.764  1.00  0.00     0.046 C 
HETATM    6  C21 UNL     1       0.351   1.049   0.400  1.00  0.00     0.281 A 
HETATM    7  O3  UNL     1      -0.491   0.200   0.016  1.00  0.00    -0.265 OA
HETATM    8  N5  UNL     1       1.688   1.066   0.051  1.00  0.00    -0.260 N 
ENDROOT
BRANCH   5   9
HETATM    9  C10 UNL     1      -2.259   1.597   1.497  1.00  0.00    -0.034 A 
HETATM   10  C11 UNL     1      -2.612   0.515   2.262  1.00  0.00     0.013 A 
HETATM   11  C12 UNL     1      -3.733  -0.202   1.955  1.00  0.00     0.030 A 
HETATM   12  C13 UNL     1      -4.571   0.108   0.875  1.00  0.00     0.035 A 
HETATM   13  C19 UNL     1      -4.200   1.194   0.123  1.00  0.00     0.030 A 
HETATM   14  C20 UNL     1      -3.049   1.940   0.427  1.00  0.00     0.013 A 
BRANCH  12  15
HETATM   15  N2  UNL     1      -5.699  -0.688   0.635  1.00  0.00    -0.322 N 
HETATM   16  C14 UNL     1      -6.708  -0.546  -0.320  1.00  0.00     0.274 C 
HETATM   17  O2  UNL     1      -6.739   0.377  -1.145  1.00  0.00    -0.266 OA
ATOM     18  H2  UNL     1      -5.798  -1.494   1.252  1.00  0.00     0.169 HD
BRANCH  16  19
HETATM   19  C15 UNL     1      -7.814  -1.522  -0.388  1.00  0.00     0.123 A 
HETATM   20  C16 UNL     1      -7.955  -2.619   0.446  1.00  0.00     0.039 A 
HETATM   21  C17 UNL     1      -9.097  -3.301   0.094  1.00  0.00     0.022 A 
HETATM   22  C18 UNL     1      -9.643  -2.604  -0.959  1.00  0.00     0.116 A 
HETATM   23  N3  UNL     1      -8.862  -1.554  -1.225  1.00  0.00    -0.269 N 
BRANCH  23  24
HETATM   24  N4  UNL     1      -9.095  -0.624  -2.222  1.00  0.00    -0.338 N 
ATOM     25  H42 UNL     1      -8.498   0.178  -2.425  1.00  0.00     0.177 HD
ATOM     26  H41 UNL     1      -9.892  -0.648  -2.858  1.00  0.00     0.177 HD
ENDBRANCH  23  24
ENDBRANCH  16  19
ENDBRANCH  12  15
ENDBRANCH   5   9
BRANCH   1  27
HETATM   27  C6  UNL     1       3.439   2.548   0.648  1.00  0.00     0.060 C 
BRANCH  27  28
HETATM   28  C5  UNL     1       4.618   2.068  -0.014  1.00  0.00    -0.033 A 
HETATM   29  C4  UNL     1       5.467   1.152   0.612  1.00  0.00     0.014 A 
HETATM   30  C3  UNL     1       6.635   0.704   0.041  1.00  0.00     0.037 A 
HETATM   31  C2  UNL     1       6.986   1.180  -1.209  1.00  0.00     0.068 A 
HETATM   32  C30 UNL     1       6.146   2.086  -1.829  1.00  0.00     0.037 A 
HETATM   33  C29 UNL     1       4.983   2.538  -1.270  1.00  0.00     0.014 A 
BRANCH  31  34
HETATM   34  O1  UNL     1       8.162   0.766  -1.849  1.00  0.00    -0.356 OA
HETATM   35  C1  UNL     1       8.990  -0.176  -1.151  1.00  0.00     0.210 C 
ENDBRANCH  31  34
ENDBRANCH  27  28
ENDBRANCH   1  27
BRANCH   8  36
HETATM   36  C22 UNL     1       2.199   0.072  -0.798  1.00  0.00     0.077 A 
HETATM   37  C23 UNL     1       2.275   0.145  -2.176  1.00  0.00     0.033 A 
HETATM   38  C24 UNL     1       2.741  -0.886  -2.954  1.00  0.00     0.002 A 
HETATM   39  C25 UNL     1       3.163  -2.069  -2.395  1.00  0.00     0.003 A 
HETATM   40  C26 UNL     1       3.096  -2.165  -1.019  1.00  0.00     0.039 A 
HETATM   41  C27 UNL     1       2.627  -1.124  -0.241  1.00  0.00     0.095 A 
BRANCH  41  42
HETATM   42  O4  UNL     1       2.564  -1.235   1.148  1.00  0.00    -0.354 OA
HETATM   43  C28 UNL     1       2.999  -2.452   1.722  1.00  0.00     0.210 C 
ENDBRANCH  41  42
ENDBRANCH   8  36
TORSDOF 9
