REMARK  4 active torsions:
REMARK  status: ('A' for Active; 'I' for Inactive)
REMARK    1  A    between atoms: N1_1  and  N2_4 
REMARK    2  A    between atoms: N2_4  and  C1_6 
REMARK    3  A    between atoms: C2_9  and  C3_10 
REMARK       I    between atoms: C3_10  and  N4_12 
REMARK    4  A    between atoms: N4_12  and  N5_14 
ROOT
HETATM    1  C1  UNL     1      -1.556  -0.321   0.238  1.00  0.00     0.711 A 
HETATM    2  N3  UNL     1      -0.237  -0.513   0.048  1.00  0.00    -0.178 N 
ATOM      3  H3  UNL     1       0.098  -1.448  -0.183  1.00  0.00     0.185 HD
HETATM    4  C2  UNL     1       0.655   0.494   0.154  1.00  0.00     0.187 A 
HETATM    5  C4  UNL     1       0.158   1.735   0.465  1.00  0.00     0.293 A 
HETATM    6  O2  UNL     1       0.985   2.687   0.567  1.00  0.00    -0.264 OA
HETATM    7  N6  UNL     1      -1.161   1.894   0.648  1.00  0.00    -0.250 N 
ATOM      8  H6  UNL     1      -1.513   2.823   0.879  1.00  0.00     0.191 HD
HETATM    9  N7  UNL     1      -2.024   0.899   0.542  1.00  0.00    -0.128 N 
ATOM     10  H7  UNL     1      -3.021   1.055   0.688  1.00  0.00     0.205 HD
ENDROOT
BRANCH   4  11
HETATM   11  C3  UNL     1       2.088   0.256  -0.059  1.00  0.00     0.292 C 
HETATM   12  O1  UNL     1       2.852   1.240   0.056  1.00  0.00    -0.264 OA
HETATM   13  N4  UNL     1       2.588  -1.018  -0.378  1.00  0.00    -0.271 N 
ATOM     14  H4  UNL     1       1.955  -1.813  -0.469  1.00  0.00     0.189 HD
BRANCH  13  15
HETATM   15  N5  UNL     1       3.962  -1.184  -0.569  1.00  0.00    -0.342 N 
ATOM     16  H52 UNL     1       4.582  -0.379  -0.474  1.00  0.00     0.176 HD
ATOM     17  H51 UNL     1       4.325  -2.109  -0.801  1.00  0.00     0.176 HD
ENDBRANCH  13  15
ENDBRANCH   4  11
BRANCH   1  18
HETATM   18  N2  UNL     1      -2.311  -1.356   0.112  1.00  0.00    -0.137 N 
ATOM     19  H2  UNL     1      -1.854  -2.238  -0.120  1.00  0.00     0.205 HD
BRANCH  18  20
HETATM   20  N1  UNL     1      -3.675  -1.380   0.262  1.00  0.00    -0.331 N 
ATOM     21  H12 UNL     1      -4.114  -0.489   0.494  1.00  0.00     0.177 HD
ATOM     22  H11 UNL     1      -4.273  -2.200   0.162  1.00  0.00     0.177 HD
ENDBRANCH  18  20
ENDBRANCH   1  18
TORSDOF 4
