REMARK  15 active torsions:
REMARK  status: ('A' for Active; 'I' for Inactive)
REMARK    1  A    between atoms: C2_2  and  N1_5 
REMARK       I    between atoms: C5_7  and  N2_8 
REMARK       I    between atoms: C5_7  and  N4_12 
REMARK    2  A    between atoms: N4_12  and  C7_14 
REMARK    3  A    between atoms: C7_14  and  C8_15 
REMARK    4  A    between atoms: C8_15  and  C9_16 
REMARK    5  A    between atoms: C9_16  and  C10_17 
REMARK    6  A    between atoms: C10_17  and  C11_18 
REMARK    7  A    between atoms: C11_18  and  C12_19 
REMARK    8  A    between atoms: C12_19  and  C13_20 
REMARK    9  A    between atoms: C13_20  and  C14_21 
REMARK   10  A    between atoms: C14_21  and  C15_22 
REMARK   11  A    between atoms: C15_22  and  N5_23 
REMARK   12  A    between atoms: C17_25  and  O1_26 
REMARK   13  A    between atoms: C18_28  and  O2_29 
REMARK   14  A    between atoms: C19_31  and  O3_32 
REMARK   15  A    between atoms: C20_34  and  O4_35 
ROOT
HETATM    1  N1  UNL     1       6.057   0.332  -0.929  1.00  0.00    -0.218 N 
ATOM      2  H1  UNL     1       5.885   0.577  -1.904  1.00  0.00     0.178 HD
HETATM    3  C5  UNL     1       5.220  -0.426  -0.365  1.00  0.00     0.683 C 
HETATM    4  N2  UNL     1       5.387  -0.813   0.988  1.00  0.00    -0.126 N 
ATOM      5  H2  UNL     1       5.377  -0.089   1.706  1.00  0.00     0.197 HD
HETATM    6  C6  UNL     1       5.567  -2.156   1.388  1.00  0.00     0.196 C 
HETATM    7  N3  UNL     1       5.722  -3.262   1.720  1.00  0.00    -0.171 NA
HETATM    8  N4  UNL     1       4.083  -0.898  -1.105  1.00  0.00    -0.226 N 
ATOM      9  H4  UNL     1       4.038  -0.763  -2.115  1.00  0.00     0.177 HD
ENDROOT
BRANCH   1  10
HETATM   10  C2  UNL     1       7.214   0.869  -0.317  1.00  0.00     0.036 C 
HETATM   11  C1  UNL     1       8.003   1.580  -1.434  1.00  0.00     0.038 C 
HETATM   12  C3  UNL     1       8.166  -0.120   0.284  1.00  0.00     0.038 C 
HETATM   13  C4  UNL     1       6.790   1.891   0.726  1.00  0.00     0.038 C 
ENDBRANCH   1  10
BRANCH   8  14
HETATM   14  C7  UNL     1       2.994  -1.571  -0.408  1.00  0.00     0.138 C 
BRANCH  14  15
HETATM   15  C8  UNL     1       2.227  -0.647   0.491  1.00  0.00     0.020 C 
BRANCH  15  16
HETATM   16  C9  UNL     1       1.153  -1.377   1.214  1.00  0.00     0.002 C 
BRANCH  16  17
HETATM   17  C10 UNL     1       0.178  -2.007   0.286  1.00  0.00     0.000 C 
BRANCH  17  18
HETATM   18  C11 UNL     1      -0.480  -0.985  -0.574  1.00  0.00     0.000 C 
BRANCH  18  19
HETATM   19  C12 UNL     1      -1.247   0.080   0.177  1.00  0.00     0.000 C 
BRANCH  19  20
HETATM   20  C13 UNL     1      -2.324  -0.583   0.979  1.00  0.00     0.005 C 
BRANCH  20  21
HETATM   21  C14 UNL     1      -3.193   0.319   1.762  1.00  0.00     0.044 C 
BRANCH  21  22
HETATM   22  C15 UNL     1      -4.009   1.323   1.066  1.00  0.00     0.061 C 
BRANCH  22  23
HETATM   23  N5  UNL     1      -4.997   0.925   0.159  1.00  0.00    -0.363 N 
HETATM   24  C16 UNL     1      -4.684   0.343  -1.079  1.00  0.00     0.159 C 
HETATM   25  C17 UNL     1      -5.781   0.768  -2.079  1.00  0.00     0.167 C 
HETATM   26  C18 UNL     1      -6.981   1.253  -1.298  1.00  0.00     0.181 C 
HETATM   27  C19 UNL     1      -7.261   0.256  -0.195  1.00  0.00     0.198 C 
HETATM   28  C20 UNL     1      -6.087   0.168   0.753  1.00  0.00     0.251 C 
BRANCH  25  29
HETATM   29  O1  UNL     1      -6.112  -0.266  -2.946  1.00  0.00    -0.391 OA
ATOM     30  H1  UNL     1      -6.787  -0.005  -3.561  1.00  0.00     0.210 HD
ENDBRANCH  25  29
BRANCH  26  31
HETATM   31  O2  UNL     1      -6.719   2.514  -0.759  1.00  0.00    -0.390 OA
ATOM     32  H2  UNL     1      -7.473   2.819  -0.268  1.00  0.00     0.210 HD
ENDBRANCH  26  31
BRANCH  27  33
HETATM   33  O3  UNL     1      -8.410   0.632   0.519  1.00  0.00    -0.389 OA
ATOM     34  H3  UNL     1      -8.586   0.006   1.212  1.00  0.00     0.210 HD
ENDBRANCH  27  33
BRANCH  28  35
HETATM   35  O4  UNL     1      -6.393   0.572   2.038  1.00  0.00    -0.374 OA
ATOM     36  H4  UNL     1      -7.105   0.077   2.426  1.00  0.00     0.212 HD
ENDBRANCH  28  35
ENDBRANCH  22  23
ENDBRANCH  21  22
ENDBRANCH  20  21
ENDBRANCH  19  20
ENDBRANCH  18  19
ENDBRANCH  17  18
ENDBRANCH  16  17
ENDBRANCH  15  16
ENDBRANCH  14  15
ENDBRANCH   8  14
TORSDOF 15
