REMARK  6 active torsions:
REMARK  status: ('A' for Active; 'I' for Inactive)
REMARK    1  A    between atoms: C3_3  and  N1_4 
REMARK    2  A    between atoms: N1_4  and  S1_6 
REMARK    3  A    between atoms: S1_6  and  C4_9 
REMARK    4  A    between atoms: C7_12  and  C8_13 
REMARK    5  A    between atoms: C14_19  and  N2_20 
REMARK    6  A    between atoms: N5_28  and  C18_29 
ROOT
HETATM    1  C1  UNL     1      -3.276   0.600  -2.483  1.00  0.00     0.073 C 
HETATM    2  C2  UNL     1      -3.229   0.388  -1.019  1.00  0.00     0.062 A 
HETATM    3  C3  UNL     1      -2.103   0.697  -0.213  1.00  0.00     0.113 A 
HETATM    4  C14 UNL     1      -2.450   0.363   1.026  1.00  0.00     0.157 A 
HETATM    5  N4  UNL     1      -3.729  -0.128   0.970  1.00  0.00    -0.276 N 
ATOM      6  H4  UNL     1      -4.250  -0.462   1.781  1.00  0.00     0.189 HD
HETATM    7  N5  UNL     1      -4.203  -0.116  -0.259  1.00  0.00    -0.257 N 
ENDROOT
BRANCH   3   8
HETATM    8  N1  UNL     1      -0.880   1.197  -0.733  1.00  0.00    -0.275 N 
ATOM      9  H1  UNL     1      -0.738   2.202  -0.631  1.00  0.00     0.179 HD
BRANCH   8  10
HETATM   10  S1  UNL     1       0.367   0.364  -1.493  1.00  0.00     0.263 S 
HETATM   11  O1  UNL     1       0.588   1.046  -2.878  1.00  0.00    -0.200 OA
HETATM   12  O2  UNL     1      -0.090  -1.074  -1.824  1.00  0.00    -0.200 OA
BRANCH  10  13
HETATM   13  C4  UNL     1       1.931   0.273  -0.784  1.00  0.00     0.079 A 
HETATM   14  C5  UNL     1       2.496  -0.964  -0.444  1.00  0.00     0.026 A 
HETATM   15  C6  UNL     1       3.768  -1.098   0.023  1.00  0.00     0.009 A 
HETATM   16  C7  UNL     1       4.601   0.002   0.196  1.00  0.00    -0.051 A 
HETATM   17  C12 UNL     1       4.060   1.226  -0.127  1.00  0.00     0.009 A 
HETATM   18  C13 UNL     1       2.772   1.353  -0.599  1.00  0.00     0.026 A 
BRANCH  16  19
HETATM   19  C8  UNL     1       5.983  -0.196   0.643  1.00  0.00    -0.024 C 
HETATM   20  C9  UNL     1       6.632   1.060   1.188  1.00  0.00     0.019 C 
HETATM   21  C10 UNL     1       6.062  -1.263   1.709  1.00  0.00     0.019 C 
HETATM   22  C11 UNL     1       6.808  -0.651  -0.560  1.00  0.00     0.019 C 
ENDBRANCH  16  19
ENDBRANCH  10  13
ENDBRANCH   8  10
ENDBRANCH   3   8
BRANCH   4  23
HETATM   23  N2  UNL     1      -1.814   0.483   2.306  1.00  0.00    -0.300 N 
HETATM   24  C15 UNL     1      -1.630   1.646   2.932  1.00  0.00     0.116 A 
HETATM   25  C16 UNL     1      -1.056   1.415   4.172  1.00  0.00     0.106 A 
HETATM   26  N3  UNL     1      -0.895   0.092   4.284  1.00  0.00    -0.360 N 
HETATM   27  C17 UNL     1      -1.367  -0.459   3.127  1.00  0.00     0.189 A 
ATOM     28  H3  UNL     1      -0.497  -0.408   5.079  1.00  0.00     0.166 HD
ENDBRANCH   4  23
BRANCH   7  29
HETATM   29  C18 UNL     1      -5.517  -0.559  -0.594  1.00  0.00     0.056 A 
HETATM   30  C19 UNL     1      -6.332   0.127  -1.458  1.00  0.00     0.031 A 
HETATM   31  C20 UNL     1      -7.610  -0.281  -1.771  1.00  0.00     0.002 A 
HETATM   32  C21 UNL     1      -8.120  -1.445  -1.198  1.00  0.00     0.000 A 
HETATM   33  C22 UNL     1      -7.325  -2.141  -0.338  1.00  0.00     0.002 A 
HETATM   34  C23 UNL     1      -6.051  -1.725  -0.029  1.00  0.00     0.031 A 
ENDBRANCH   7  29
TORSDOF 6
