REMARK  6 active torsions:
REMARK  status: ('A' for Active; 'I' for Inactive)
REMARK    1  A    between atoms: C2_2  and  C3_3 
REMARK    2  A    between atoms: C6_6  and  S1_7 
REMARK    3  A    between atoms: S1_7  and  C7_10 
REMARK    4  A    between atoms: C7_10  and  C8_11 
REMARK    5  A    between atoms: C7_10  and  C9_13 
REMARK       I    between atoms: C9_13  and  N1_15 
REMARK    6  A    between atoms: N1_15  and  C11_17 
ROOT
HETATM    1  C7  UNL     1      -0.635  -0.901  -0.297  1.00  0.00     0.214 C 
ENDROOT
BRANCH   1   2
HETATM    2  S1  UNL     1       0.683  -0.303   0.667  1.00  0.00     0.162 S 
HETATM    3  O1  UNL     1       0.415  -0.766   2.101  1.00  0.00    -0.227 OA
HETATM    4  O2  UNL     1       0.657   1.220   0.791  1.00  0.00    -0.227 OA
BRANCH   2   5
HETATM    5  C6  UNL     1       2.290  -0.772   0.272  1.00  0.00     0.109 C 
HETATM    6  C5  UNL     1       2.812  -0.323  -1.058  1.00  0.00     0.020 C 
HETATM    7  C4  UNL     1       3.409   1.071  -0.820  1.00  0.00     0.006 C 
HETATM    8  C3  UNL     1       4.034   0.902   0.525  1.00  0.00    -0.014 C 
HETATM    9  C15 UNL     1       3.265  -0.134   1.273  1.00  0.00     0.024 C 
BRANCH   8  10
HETATM   10  C2  UNL     1       5.477   0.452   0.446  1.00  0.00     0.000 C 
HETATM   11  C1  UNL     1       6.319   1.460  -0.312  1.00  0.00     0.005 C 
ENDBRANCH   8  10
ENDBRANCH   2   5
ENDBRANCH   1   2
BRANCH   1  12
HETATM   12  C8  UNL     1      -0.776  -2.401  -0.204  1.00  0.00     0.144 C 
HETATM   13 CL1  UNL     1       0.629  -3.299  -0.767  1.00  0.00    -0.129 Cl
ENDBRANCH   1  12
BRANCH   1  14
HETATM   14  C9  UNL     1      -1.920  -0.235   0.132  1.00  0.00     0.239 C 
HETATM   15  O3  UNL     1      -1.906   0.422   1.202  1.00  0.00    -0.272 OA
HETATM   16  N1  UNL     1      -3.122  -0.299  -0.571  1.00  0.00    -0.347 N 
HETATM   17  C10 UNL     1      -3.230  -1.010  -1.816  1.00  0.00     0.153 C 
BRANCH  16  18
HETATM   18  C11 UNL     1      -4.284   0.366  -0.035  1.00  0.00     0.024 C 
HETATM   19  C12 UNL     1      -4.050   1.860   0.120  1.00  0.00     0.037 C 
HETATM   20  C13 UNL     1      -4.633  -0.170   1.336  1.00  0.00     0.037 C 
HETATM   21  C14 UNL     1      -5.480   0.140  -0.958  1.00  0.00     0.037 C 
ENDBRANCH  16  18
ENDBRANCH   1  14
TORSDOF 6
