REMARK  7 active torsions:
REMARK  status: ('A' for Active; 'I' for Inactive)
REMARK       I    between atoms: C2_2  and  N1_4 
REMARK    1  A    between atoms: N1_4  and  N2_6 
REMARK    2  A    between atoms: N3_8  and  N4_10 
REMARK    3  A    between atoms: N4_10  and  C3_12 
REMARK    4  A    between atoms: C4_15  and  N6_16 
REMARK    5  A    between atoms: N6_16  and  N7_18 
REMARK    6  A    between atoms: C6_25  and  S1_26 
REMARK    7  A    between atoms: S1_26  and  N9_27 
ROOT
HETATM    1  C3  UNL     1       0.675  -0.644   0.353  1.00  0.00     0.166 A 
HETATM    2  N5  UNL     1       0.305  -0.188  -0.885  1.00  0.00    -0.172 N 
ATOM      3  H5  UNL     1      -0.347  -0.738  -1.444  1.00  0.00     0.186 HD
HETATM    4  C4  UNL     1       0.781   0.967  -1.380  1.00  0.00     0.701 A 
HETATM    5  N8  UNL     1       1.628   1.685  -0.660  1.00  0.00    -0.153 N 
ATOM      6  H8  UNL     1       1.990   2.562  -1.034  1.00  0.00     0.187 HD
HETATM    7  C5  UNL     1       2.017   1.272   0.559  1.00  0.00     0.286 A 
HETATM    8  O2  UNL     1       2.825   1.938   1.267  1.00  0.00    -0.266 OA
HETATM    9  C6  UNL     1       1.552   0.080   1.119  1.00  0.00     0.193 A 
ENDROOT
BRANCH   1  10
HETATM   10  N4  UNL     1       0.152  -1.867   0.855  1.00  0.00    -0.268 N 
ATOM     11  H4  UNL     1       0.691  -2.712   0.667  1.00  0.00     0.190 HD
BRANCH  10  12
HETATM   12  N3  UNL     1      -1.003  -2.015   1.564  1.00  0.00    -0.227 N 
HETATM   13  N2  UNL     1      -2.187  -1.903   1.284  1.00  0.00    -0.226 N 
ATOM     14  H2  UNL     1      -2.813  -2.086   2.068  1.00  0.00     0.210 HD
ATOM     15  H3  UNL     1      -0.845  -2.275   2.537  1.00  0.00     0.210 HD
BRANCH  13  16
HETATM   16  N1  UNL     1      -2.836  -1.580   0.126  1.00  0.00    -0.255 N 
HETATM   17  C2  UNL     1      -3.391  -0.284  -0.042  1.00  0.00     0.233 C 
HETATM   18  C1  UNL     1      -4.094   0.031  -1.329  1.00  0.00     0.119 C 
HETATM   19  O1  UNL     1      -3.285   0.554   0.866  1.00  0.00    -0.272 OA
ATOM     20  H1  UNL     1      -2.922  -2.271  -0.619  1.00  0.00     0.191 HD
ENDBRANCH  13  16
ENDBRANCH  10  12
ENDBRANCH   1  10
BRANCH   9  21
HETATM   21  S1  UNL     1       2.096  -0.395   2.675  1.00  0.00     0.266 S 
HETATM   22  O3  UNL     1       2.513   0.807   3.523  1.00  0.00    -0.200 OA
HETATM   23  O4  UNL     1       1.146  -1.261   3.447  1.00  0.00    -0.200 OA
BRANCH  21  24
HETATM   24  N9  UNL     1       3.550  -1.356   2.511  1.00  0.00    -0.324 N 
ATOM     25  H92 UNL     1       3.993  -1.589   1.622  1.00  0.00     0.169 HD
ATOM     26  H91 UNL     1       3.873  -1.638   3.436  1.00  0.00     0.169 HD
ENDBRANCH  21  24
ENDBRANCH   9  21
BRANCH   4  27
HETATM   27  N6  UNL     1       0.370   1.313  -2.557  1.00  0.00    -0.138 N 
ATOM     28  H6  UNL     1      -0.286   0.695  -3.035  1.00  0.00     0.205 HD
BRANCH  27  29
HETATM   29  N7  UNL     1       0.766   2.474  -3.210  1.00  0.00    -0.331 N 
ATOM     30  H72 UNL     1       1.422   3.080  -2.717  1.00  0.00     0.177 HD
ATOM     31  H71 UNL     1       0.442   2.747  -4.138  1.00  0.00     0.177 HD
ENDBRANCH  27  29
ENDBRANCH   4  27
TORSDOF 7
