REMARK  8 active torsions:
REMARK  status: ('A' for Active; 'I' for Inactive)
REMARK    1  A    between atoms: N2_9  and  C6_10 
REMARK    2  A    between atoms: C7_16  and  C8_17 
REMARK       I    between atoms: C8_17  and  N5_19 
REMARK    3  A    between atoms: N5_19  and  C9_21 
REMARK    4  A    between atoms: C10_22  and  C11_23 
REMARK       I    between atoms: C11_23  and  N6_25 
REMARK       I    between atoms: N6_25  and  C12_27 
REMARK    5  A    between atoms: C14_30  and  O5_31 
REMARK    6  A    between atoms: N7_33  and  N8_34 
REMARK    7  A    between atoms: N8_34  and  C15_35 
REMARK    8  A    between atoms: C16_37  and  O7_38 
ROOT
HETATM    1  C8  UNL     1      -0.679  -0.466  -0.307  1.00  0.00     0.278 C 
HETATM    2  O2  UNL     1      -1.156   0.489  -0.926  1.00  0.00    -0.265 OA
HETATM    3  N5  UNL     1       0.675  -0.498   0.091  1.00  0.00    -0.317 N 
ATOM      4  H5  UNL     1       0.941  -1.345   0.594  1.00  0.00     0.169 HD
ENDROOT
BRANCH   3   5
HETATM    5  C9  UNL     1       1.714   0.412  -0.076  1.00  0.00     0.109 A 
HETATM    6  C10 UNL     1       3.076   0.103   0.070  1.00  0.00     0.117 A 
HETATM    7  C14 UNL     1       3.763   1.253  -0.095  1.00  0.00     0.194 A 
HETATM    8  N7  UNL     1       2.887   2.327  -0.350  1.00  0.00    -0.139 N 
HETATM    9  C16 UNL     1       1.688   1.769  -0.327  1.00  0.00     0.204 A 
BRANCH   6  10
HETATM   10  C11 UNL     1       3.666  -1.231   0.342  1.00  0.00     0.265 C 
HETATM   11  O3  UNL     1       2.939  -2.222   0.454  1.00  0.00    -0.267 OA
HETATM   12  N6  UNL     1       5.051  -1.431   0.482  1.00  0.00    -0.294 N 
HETATM   13  C12 UNL     1       5.606  -2.699   0.693  1.00  0.00     0.220 C 
ATOM     14  H6  UNL     1       5.673  -0.624   0.428  1.00  0.00     0.172 HD
HETATM   15  C13 UNL     1       4.817  -3.932   0.777  1.00  0.00     0.117 C 
HETATM   16  O4  UNL     1       6.887  -2.770   0.818  1.00  0.00    -0.274 OA
ENDBRANCH   6  10
BRANCH   7  17
HETATM   17  O5  UNL     1       5.127   1.483  -0.047  1.00  0.00    -0.343 OA
ATOM     18  H5  UNL     1       5.611   2.292  -0.163  1.00  0.00     0.219 HD
ENDBRANCH   7  17
BRANCH   8  19
HETATM   19  N8  UNL     1       3.433   3.580  -0.529  1.00  0.00    -0.286 NA
BRANCH  19  20
HETATM   20  C15 UNL     1       3.944   4.754  -0.697  1.00  0.00     0.467 C 
HETATM   21  O6  UNL     1       3.431   5.889  -0.968  1.00  0.00    -0.266 OA
ENDBRANCH  19  20
ENDBRANCH   8  19
BRANCH   9  22
HETATM   22  O7  UNL     1       0.487   2.483  -0.534  1.00  0.00    -0.342 OA
ATOM     23  H7  UNL     1       0.469   3.417  -0.707  1.00  0.00     0.219 HD
ENDBRANCH   9  22
ENDBRANCH   3   5
BRANCH   1  24
HETATM   24  C7  UNL     1      -1.563  -1.603   0.029  1.00  0.00     0.170 A 
HETATM   25  C6  UNL     1      -2.911  -1.595   0.106  1.00  0.00     0.164 A 
HETATM   26  N3  UNL     1      -3.254  -2.917   0.390  1.00  0.00    -0.223 N 
HETATM   27  O1  UNL     1      -2.153  -3.594   0.464  1.00  0.00    -0.155 OA
ATOM     28  H3  UNL     1      -4.198  -3.283   0.516  1.00  0.00     0.198 HD
HETATM   29  N4  UNL     1      -1.113  -2.878   0.260  1.00  0.00    -0.232 N 
ATOM     30  H4  UNL     1      -0.143  -3.192   0.268  1.00  0.00     0.197 HD
BRANCH  25  31
HETATM   31  N2  UNL     1      -3.867  -0.561  -0.019  1.00  0.00    -0.331 N 
HETATM   32  C2  UNL     1      -4.994  -0.713  -0.929  1.00  0.00     0.029 C 
HETATM   33  C1  UNL     1      -4.949  -1.577  -1.888  1.00  0.00     0.040 C 
HETATM   34  C3  UNL     1      -6.196   0.138  -0.701  1.00  0.00     0.288 C 
HETATM   35  N1  UNL     1      -5.853   1.527  -0.456  1.00  0.00    -0.068 N 
HETATM   36  C4  UNL     1      -4.427   1.721  -0.258  1.00  0.00     0.253 C 
ATOM     37  H12 UNL     1      -6.206   2.129  -1.200  1.00  0.00     0.277 HD
ATOM     38  H11 UNL     1      -6.387   1.904   0.327  1.00  0.00     0.277 HD
HETATM   39  C5  UNL     1      -3.910   0.669   0.731  1.00  0.00     0.158 C 
ENDBRANCH  25  31
ENDBRANCH   1  24
TORSDOF 8
