REMARK  2 active torsions:
REMARK  status: ('A' for Active; 'I' for Inactive)
REMARK    1  A    between atoms: C1_2  and  C2_4 
REMARK    2  A    between atoms: N5_12  and  C5_14 
ROOT
HETATM    1  C2  UNL     1       1.991   0.375  -0.228  1.00  0.00     0.189 A 
HETATM    2  N2  UNL     1       2.826  -0.677  -0.158  1.00  0.00    -0.311 N 
ATOM      3  H2  UNL     1       3.831  -0.538  -0.266  1.00  0.00     0.170 HD
HETATM    4  C3  UNL     1       2.334  -1.924   0.056  1.00  0.00     0.208 A 
HETATM    5  N3  UNL     1       3.236  -3.005   0.125  1.00  0.00    -0.063 NA
HETATM    6  N4  UNL     1       0.994  -2.077   0.195  1.00  0.00    -0.163 N 
ATOM      7  H4  UNL     1       0.620  -3.012   0.356  1.00  0.00     0.187 HD
HETATM    8  C4  UNL     1       0.141  -1.040   0.128  1.00  0.00     0.686 A 
HETATM    9  N5  UNL     1      -1.116  -1.255   0.267  1.00  0.00    -0.190 N 
ATOM     10  H5  UNL     1      -1.404  -2.221   0.423  1.00  0.00     0.184 HD
HETATM   11  N7  UNL     1       0.683   0.180  -0.087  1.00  0.00    -0.171 N 
ATOM     12  H7  UNL     1       0.061   0.987  -0.144  1.00  0.00     0.186 HD
ENDROOT
BRANCH   9  13
HETATM   13  C5  UNL     1      -2.125  -0.297   0.225  1.00  0.00     0.064 A 
HETATM   14  C6  UNL     1      -2.443   0.425   1.346  1.00  0.00     0.037 A 
HETATM   15  C7  UNL     1      -3.453   1.388   1.317  1.00  0.00     0.076 A 
HETATM   16  C8  UNL     1      -4.102   1.571   0.116  1.00  0.00     0.245 A 
HETATM   17  O2  UNL     1      -5.024   2.442   0.067  1.00  0.00    -0.268 OA
HETATM   18  N6  UNL     1      -3.779   0.851  -0.987  1.00  0.00    -0.332 N 
HETATM   19  C9  UNL     1      -2.796  -0.083  -0.950  1.00  0.00     0.121 A 
ATOM     20  H6  UNL     1      -4.283   1.014  -1.858  1.00  0.00     0.168 HD
ENDBRANCH   9  13
BRANCH   1  21
HETATM   21  C1  UNL     1       2.576   1.703  -0.461  1.00  0.00     0.299 C 
HETATM   22  N1  UNL     1       3.966   1.897  -0.610  1.00  0.00    -0.054 NA
HETATM   23  O1  UNL     1       1.824   2.702  -0.532  1.00  0.00    -0.268 OA
ENDBRANCH   1  21
TORSDOF 2
