REMARK  4 active torsions:
REMARK  status: ('A' for Active; 'I' for Inactive)
REMARK    1  A    between atoms: N1_1  and  C1_4 
REMARK    2  A    between atoms: C4_7  and  C5_8 
REMARK    3  A    between atoms: C5_8  and  N2_9 
REMARK    4  A    between atoms: C10_22  and  N6_23 
ROOT
HETATM    1  C1  UNL     1      -2.927   0.199   0.730  1.00  0.00     0.070 C 
HETATM    2  C2  UNL     1      -2.197   1.319   0.419  1.00  0.00     0.033 C 
HETATM    3  C3  UNL     1      -1.152   1.400  -0.492  1.00  0.00     0.012 C 
HETATM    4  C4  UNL     1      -0.485   0.379  -1.129  1.00  0.00    -0.023 C 
HETATM    5  C9  UNL     1      -0.985  -0.882  -1.394  1.00  0.00     0.098 C 
HETATM    6  N5  UNL     1      -2.067  -1.502  -0.870  1.00  0.00    -0.350 N 
ATOM      7  H5  UNL     1      -2.305  -2.414  -1.259  1.00  0.00     0.166 HD
HETATM    8  C10 UNL     1      -2.867  -1.035   0.120  1.00  0.00     0.125 C 
ENDROOT
BRANCH   4   9
HETATM    9  C5  UNL     1       0.904   0.635  -1.580  1.00  0.00     0.194 C 
BRANCH   9  10
HETATM   10  N2  UNL     1       1.896   0.277  -0.585  1.00  0.00    -0.238 N 
HETATM   11  N3  UNL     1       2.403  -0.965  -0.569  1.00  0.00    -0.300 N 
HETATM   12  C6  UNL     1       3.324  -1.350   0.331  1.00  0.00     0.181 A 
ATOM     13  H3  UNL     1       2.079  -1.639  -1.262  1.00  0.00     0.186 HD
HETATM   14  C7  UNL     1       3.789  -0.469   1.286  1.00  0.00     0.266 A 
HETATM   15  O1  UNL     1       4.654  -0.806   2.143  1.00  0.00    -0.267 OA
HETATM   16  N4  UNL     1       3.279   0.776   1.267  1.00  0.00    -0.273 N 
HETATM   17  C8  UNL     1       2.349   1.134   0.344  1.00  0.00     0.344 A 
ATOM     18  H4  UNL     1       3.595   1.460   1.955  1.00  0.00     0.173 HD
HETATM   19  O2  UNL     1       1.873   2.306   0.331  1.00  0.00    -0.245 OA
ENDBRANCH   9  10
ENDBRANCH   4   9
BRANCH   1  20
HETATM   20  N1  UNL     1      -3.765   0.331   1.712  1.00  0.00    -0.396 N 
ATOM     21  H12 UNL     1      -3.809   1.245   2.164  1.00  0.00     0.156 HD
ATOM     22  H11 UNL     1      -4.307  -0.501   1.943  1.00  0.00     0.156 HD
ENDBRANCH   1  20
BRANCH   8  23
HETATM   23  N6  UNL     1      -3.748  -1.865   0.610  1.00  0.00    -0.384 N 
ATOM     24  H62 UNL     1      -4.350  -1.514   1.355  1.00  0.00     0.157 HD
ATOM     25  H61 UNL     1      -3.704  -2.779   0.158  1.00  0.00     0.157 HD
ENDBRANCH   8  23
TORSDOF 4
