REMARK  7 active torsions:
REMARK  status: ('A' for Active; 'I' for Inactive)
REMARK    1  A    between atoms: C1_2  and  C2_4 
REMARK    2  A    between atoms: C2_4  and  N2_5 
REMARK    3  A    between atoms: C2_4  and  C9_19 
REMARK       I    between atoms: N2_5  and  C3_7 
REMARK    4  A    between atoms: C3_7  and  C4_9 
REMARK    5  A    between atoms: C5_12  and  C6_13 
REMARK       I    between atoms: C9_19  and  N5_21 
REMARK    6  A    between atoms: N5_21  and  C10_23 
REMARK    7  A    between atoms: C10_23  and  C11_24 
ROOT
HETATM    1  N2  UNL     1      -0.100   0.178  -0.710  1.00  0.00    -0.335 N 
ATOM      2  H2  UNL     1      -0.206  -0.633  -1.320  1.00  0.00     0.164 HD
HETATM    3  C3  UNL     1      -1.107   0.529   0.170  1.00  0.00     0.270 C 
HETATM    4  O2  UNL     1      -0.876   1.570   0.899  1.00  0.00    -0.266 OA
ENDROOT
BRANCH   1   5
HETATM    5  C2  UNL     1       1.133   0.995  -0.754  1.00  0.00     0.266 C 
BRANCH   5   6
HETATM    6  C1  UNL     1       1.374   1.492  -2.095  1.00  0.00     0.263 C 
HETATM    7  N1  UNL     1       2.381   2.438  -2.418  1.00  0.00    -0.060 NA
HETATM    8  O1  UNL     1       0.656   1.078  -3.047  1.00  0.00    -0.274 OA
ENDBRANCH   5   6
BRANCH   5   9
HETATM    9  C9  UNL     1       2.236   0.192  -0.132  1.00  0.00     0.249 C 
HETATM   10  O4  UNL     1       1.862  -0.569   0.827  1.00  0.00    -0.271 OA
HETATM   11  N5  UNL     1       3.566   0.237  -0.534  1.00  0.00    -0.354 N 
ATOM     12  H5  UNL     1       3.757   0.856  -1.322  1.00  0.00     0.162 HD
BRANCH  11  13
HETATM   13  C10 UNL     1       4.707  -0.449  -0.016  1.00  0.00     0.193 C 
BRANCH  13  14
HETATM   14  C11 UNL     1       5.072  -0.071   1.364  1.00  0.00     0.370 C 
HETATM   15  F1  UNL     1       5.330   1.294   1.366  1.00  0.00    -0.213 F 
HETATM   16  F2  UNL     1       4.112  -0.348   2.271  1.00  0.00    -0.213 F 
ENDBRANCH  13  14
ENDBRANCH  11  13
ENDBRANCH   5   9
ENDBRANCH   1   5
BRANCH   3  17
HETATM   17  C4  UNL     1      -2.392  -0.124   0.380  1.00  0.00     0.120 A 
HETATM   18  N3  UNL     1      -3.292   0.237   1.350  1.00  0.00    -0.347 N 
HETATM   19  C5  UNL     1      -4.378  -0.536   1.293  1.00  0.00     0.096 A 
ATOM     20  H3  UNL     1      -3.151   0.992   2.022  1.00  0.00     0.166 HD
HETATM   21  C7  UNL     1      -4.241  -1.449   0.276  1.00  0.00     0.096 A 
HETATM   22  N4  UNL     1      -5.160  -2.467  -0.142  1.00  0.00    -0.098 NA
HETATM   23  C8  UNL     1      -2.997  -1.168  -0.274  1.00  0.00     0.069 A 
HETATM   24 BR1  UNL     1      -2.288  -2.140  -1.751  1.00  0.00    -0.046 Br
BRANCH  19  25
HETATM   25  C6  UNL     1      -5.545  -0.437   2.184  1.00  0.00     0.290 C 
HETATM   26  O3  UNL     1      -6.526  -1.212   2.056  1.00  0.00    -0.300 OA
ENDBRANCH  19  25
ENDBRANCH   3  17
TORSDOF 7
