REMARK  11 active torsions:
REMARK  status: ('A' for Active; 'I' for Inactive)
REMARK    1  A    between atoms: N1_1  and  C1_4 
REMARK    2  A    between atoms: C3_14  and  C4_15 
REMARK    3  A    between atoms: C5_18  and  C6_19 
REMARK    4  A    between atoms: C7_22  and  C8_23 
REMARK    5  A    between atoms: C8_23  and  O3_24 
REMARK    6  A    between atoms: C8_23  and  O4_26 
REMARK    7  A    between atoms: N7_28  and  C9_29 
REMARK    8  A    between atoms: C11_31  and  C12_32 
REMARK    9  A    between atoms: C12_32  and  O5_33 
REMARK   10  A    between atoms: C12_32  and  O6_35 
REMARK   11  A    between atoms: C13_41  and  N10_42 
ROOT
HETATM    1  C4  UNL     1       1.201   0.020  -0.050  1.00  0.00     0.162 A 
HETATM    2  N6  UNL     1       2.131   0.869  -0.475  1.00  0.00    -0.332 N 
ATOM      3  H6  UNL     1       3.123   0.643  -0.552  1.00  0.00     0.168 HD
HETATM    4  C5  UNL     1       1.589   2.087  -0.797  1.00  0.00     0.139 A 
HETATM    5  C7  UNL     1       0.248   1.963  -0.548  1.00  0.00     0.107 A 
HETATM    6  N7  UNL     1       0.038   0.691  -0.093  1.00  0.00    -0.287 N 
ENDROOT
BRANCH   1   7
HETATM    7  C3  UNL     1       1.370  -1.379   0.387  1.00  0.00     0.206 A 
HETATM    8  N5  UNL     1       0.424  -2.220   0.811  1.00  0.00    -0.266 N 
HETATM    9  N4  UNL     1       0.940  -3.390   1.119  1.00  0.00    -0.127 N 
ATOM     10  H5  UNL     1      -0.566  -1.987   0.886  1.00  0.00     0.189 HD
HETATM   11  C2  UNL     1       2.260  -3.322   0.894  1.00  0.00     0.735 A 
ATOM     12  H4  UNL     1       0.429  -4.202   1.466  1.00  0.00     0.206 HD
HETATM   13  N3  UNL     1       3.234  -4.227   1.044  1.00  0.00    -0.115 N 
HETATM   14  N11 UNL     1       2.522  -2.067   0.439  1.00  0.00    -0.048 N 
HETATM   15  N2  UNL     1       4.484  -3.940   0.758  1.00  0.00    -0.117 N 
ATOM     16  H3  UNL     1       3.001  -5.159   1.387  1.00  0.00     0.206 HD
HETATM   17  C1  UNL     1       4.763  -2.695   0.303  1.00  0.00     0.706 A 
ATOM     18  H2  UNL     1       5.222  -4.634   0.875  1.00  0.00     0.206 HD
HETATM   19  N12 UNL     1       3.772  -1.794   0.156  1.00  0.00    -0.108 N 
ATOM     20  H12 UNL     1       4.004  -0.863  -0.189  1.00  0.00     0.207 HD
BRANCH  17  21
HETATM   21  N1  UNL     1       5.995  -2.418   0.022  1.00  0.00    -0.232 N 
ATOM     22  H12 UNL     1       6.745  -3.100   0.133  1.00  0.00     0.174 HD
ATOM     23  H11 UNL     1       6.205  -1.481  -0.321  1.00  0.00     0.174 HD
ENDBRANCH  17  21
ENDBRANCH   1   7
BRANCH   6  24
HETATM   24  C9  UNL     1      -1.219   0.156   0.279  1.00  0.00     0.088 A 
HETATM   25  C10 UNL     1      -2.027  -0.463  -0.675  1.00  0.00     0.065 A 
HETATM   26  C11 UNL     1      -3.231  -0.964  -0.253  1.00  0.00     0.082 A 
HETATM   27  N8  UNL     1      -3.623  -0.866   1.030  1.00  0.00    -0.298 N 
HETATM   28  N9  UNL     1      -2.884  -0.289   1.950  1.00  0.00    -0.284 N 
ATOM     29  H8  UNL     1      -4.527  -1.254   1.298  1.00  0.00     0.187 HD
HETATM   30  C13 UNL     1      -1.677   0.227   1.585  1.00  0.00     0.141 A 
ATOM     31  H9  UNL     1      -3.206  -0.229   2.916  1.00  0.00     0.188 HD
BRANCH  26  32
HETATM   32  C12 UNL     1      -4.162  -1.646  -1.219  1.00  0.00     0.306 C 
BRANCH  32  33
HETATM   33  O5  UNL     1      -5.434  -1.157  -0.977  1.00  0.00    -0.366 OA
ATOM     34  H5  UNL     1      -6.022  -1.587  -1.587  1.00  0.00     0.213 HD
ENDBRANCH  32  33
BRANCH  32  35
HETATM   35  O6  UNL     1      -3.729  -1.471  -2.513  1.00  0.00    -0.366 OA
ATOM     36  H6  UNL     1      -4.317  -1.901  -3.123  1.00  0.00     0.213 HD
ENDBRANCH  32  35
ENDBRANCH  26  32
BRANCH  30  37
HETATM   37  N10 UNL     1      -0.934   0.793   2.461  1.00  0.00    -0.383 N 
ATOM     38 2H10 UNL     1      -0.030   1.179   2.188  1.00  0.00     0.157 HD
ATOM     39 1H10 UNL     1      -1.271   0.845   3.422  1.00  0.00     0.157 HD
ENDBRANCH  30  37
ENDBRANCH   6  24
BRANCH   4  40
HETATM   40  C6  UNL     1       2.369   3.216  -1.308  1.00  0.00     0.229 C 
HETATM   41  O1  UNL     1       3.635   3.025  -1.429  1.00  0.00    -0.643 OA
HETATM   42  O2  UNL     1       1.844   4.424  -1.655  1.00  0.00    -0.643 OA
ENDBRANCH   4  40
BRANCH   5  43
HETATM   43  C8  UNL     1      -0.774   3.024  -0.709  1.00  0.00     0.308 C 
BRANCH  43  44
HETATM   44  O3  UNL     1      -0.440   4.234  -0.149  1.00  0.00    -0.366 OA
ATOM     45  H3  UNL     1      -1.095   4.914  -0.252  1.00  0.00     0.213 HD
ENDBRANCH  43  44
BRANCH  43  46
HETATM   46  O4  UNL     1      -2.052   2.604  -0.362  1.00  0.00    -0.366 OA
ATOM     47  H4  UNL     1      -2.707   3.284  -0.465  1.00  0.00     0.213 HD
ENDBRANCH  43  46
ENDBRANCH   5  43
TORSDOF 11
