REMARK  5 active torsions:
REMARK  status: ('A' for Active; 'I' for Inactive)
REMARK    1  A    between atoms: O1_2  and  C2_3 
REMARK    2  A    between atoms: C4_5  and  N1_6 
REMARK    3  A    between atoms: C5_7  and  O2_8 
REMARK    4  A    between atoms: C8_12  and  O3_13 
REMARK    5  A    between atoms: C17_25  and  O4_26 
ROOT
HETATM    1  N1  UNL     1      -0.224   0.572   0.250  1.00  0.00    -0.270 N 
HETATM    2  C5  UNL     1      -0.534   0.106   1.472  1.00  0.00     0.156 A 
HETATM    3  C6  UNL     1      -1.899   0.055   1.664  1.00  0.00     0.005 A 
HETATM    4  C7  UNL     1      -2.454   0.518   0.491  1.00  0.00     0.013 A 
HETATM    5  C8  UNL     1      -1.401   0.824  -0.349  1.00  0.00     0.157 A 
HETATM    6  C9  UNL     1      -3.921   0.516   0.564  1.00  0.00     0.060 A 
HETATM    7  C10 UNL     1      -4.485  -0.729   0.041  1.00  0.00    -0.078 A 
HETATM    8  C11 UNL     1      -4.672  -1.294  -1.327  1.00  0.00     0.044 C 
HETATM    9  C12 UNL     1      -4.786  -1.203   1.242  1.00  0.00    -0.018 A 
HETATM   10  C13 UNL     1      -4.255  -0.008   1.917  1.00  0.00     0.025 A 
HETATM   11  C14 UNL     1      -2.987  -0.303   2.642  1.00  0.00     0.053 A 
ENDROOT
BRANCH   1  12
HETATM   12  C4  UNL     1       1.093   0.758  -0.292  1.00  0.00     0.071 A 
HETATM   13  C3  UNL     1       1.814  -0.323  -0.758  1.00  0.00     0.071 A 
HETATM   14  C2  UNL     1       3.094  -0.150  -1.287  1.00  0.00     0.106 A 
HETATM   15  C17 UNL     1       3.679   1.096  -1.360  1.00  0.00     0.142 A 
HETATM   16  C16 UNL     1       2.959   2.177  -0.893  1.00  0.00     0.176 A 
HETATM   17  C15 UNL     1       1.698   1.995  -0.375  1.00  0.00     0.102 A 
HETATM   18  F1  UNL     1       3.539   3.416  -0.965  1.00  0.00    -0.201 F 
HETATM   19 CL1  UNL     1       0.823   3.394   0.205  1.00  0.00    -0.079 Cl
BRANCH  14  20
HETATM   20  O1  UNL     1       3.842  -1.222  -1.764  1.00  0.00    -0.353 OA
HETATM   21  C1  UNL     1       3.261  -2.507  -1.698  1.00  0.00     0.210 C 
ENDBRANCH  14  20
BRANCH  15  22
HETATM   22  O4  UNL     1       4.962   1.238  -1.893  1.00  0.00    -0.350 OA
HETATM   23  C18 UNL     1       6.091   1.150  -1.050  1.00  0.00     0.210 C 
ENDBRANCH  15  22
ENDBRANCH   1  12
BRANCH   2  24
HETATM   24  O2  UNL     1       0.424  -0.277   2.418  1.00  0.00    -0.345 OA
ATOM     25  H2  UNL     1       0.205  -0.606   3.282  1.00  0.00     0.219 HD
ENDBRANCH   2  24
BRANCH   5  26
HETATM   26  O3  UNL     1      -1.465   1.330  -1.656  1.00  0.00    -0.345 OA
ATOM     27  H3  UNL     1      -2.297   1.508  -2.079  1.00  0.00     0.219 HD
ENDBRANCH   5  26
TORSDOF 5
