REMARK  12 active torsions:
REMARK  status: ('A' for Active; 'I' for Inactive)
REMARK    1  A    between atoms: C2_2  and  O1_3 
REMARK    2  A    between atoms: C2_2  and  C3_5 
REMARK    3  A    between atoms: C3_5  and  N1_6 
REMARK    4  A    between atoms: C3_5  and  C10_22 
REMARK    5  A    between atoms: N1_6  and  N2_8 
REMARK    6  A    between atoms: N2_8  and  C4_10 
REMARK    7  A    between atoms: C7_14  and  O2_15 
REMARK    8  A    between atoms: C8_17  and  N3_18 
REMARK       I    between atoms: C10_22  and  N4_24 
REMARK    9  A    between atoms: N4_24  and  C11_26 
REMARK   10  A    between atoms: C11_26  and  O6_27 
REMARK   11  A    between atoms: C11_26  and  O7_29 
REMARK   12  A    between atoms: O7_29  and  C12_30 
ROOT
HETATM    1  C3  UNL     1       0.882   2.212  -1.326  1.00  0.00     0.144 C 
ENDROOT
BRANCH   1   2
HETATM    2  C2  UNL     1       0.447   3.006  -2.443  1.00  0.00     0.073 C 
HETATM    3  C1  UNL     1      -0.843   3.669  -2.649  1.00  0.00     0.078 C 
BRANCH   2   4
HETATM    4  O1  UNL     1       1.322   3.151  -3.395  1.00  0.00    -0.363 OA
ATOM      5  H1  UNL     1       2.159   2.721  -3.261  1.00  0.00     0.217 HD
ENDBRANCH   2   4
ENDBRANCH   1   2
BRANCH   1   6
HETATM    6  N1  UNL     1       2.094   1.743  -1.421  1.00  0.00    -0.293 N 
ATOM      7  H1  UNL     1       2.609   1.983  -2.268  1.00  0.00     0.187 HD
BRANCH   6   8
HETATM    8  N2  UNL     1       2.753   0.963  -0.508  1.00  0.00    -0.300 N 
ATOM      9  H2  UNL     1       3.074   1.410   0.351  1.00  0.00     0.187 HD
BRANCH   8  10
HETATM   10  C4  UNL     1       3.023  -0.427  -0.669  1.00  0.00     0.051 A 
HETATM   11  C5  UNL     1       3.683  -1.127   0.318  1.00  0.00     0.053 A 
HETATM   12  C6  UNL     1       3.968  -2.480   0.189  1.00  0.00     0.048 A 
HETATM   13 BR1  UNL     1       4.876  -3.377   1.580  1.00  0.00    -0.048 Br
HETATM   14  C7  UNL     1       3.578  -3.133  -0.961  1.00  0.00     0.116 A 
HETATM   15  C8  UNL     1       2.921  -2.461  -1.957  1.00  0.00     0.139 A 
HETATM   16  C9  UNL     1       2.649  -1.115  -1.804  1.00  0.00     0.070 A 
BRANCH  14  17
HETATM   17  O2  UNL     1       3.884  -4.491  -1.052  1.00  0.00    -0.357 OA
ATOM     18  H2  UNL     1       3.615  -4.941  -1.844  1.00  0.00     0.217 HD
ENDBRANCH  14  17
BRANCH  15  19
HETATM   19  N3  UNL     1       2.531  -3.177  -3.144  1.00  0.00    -0.113 N 
HETATM   20  O3  UNL     1       2.233  -4.384  -3.057  1.00  0.00    -0.532 OA
HETATM   21  O4  UNL     1       2.494  -2.511  -4.354  1.00  0.00    -0.532 OA
ENDBRANCH  15  19
ENDBRANCH   8  10
ENDBRANCH   6   8
ENDBRANCH   1   6
BRANCH   1  22
HETATM   22  C10 UNL     1       0.116   1.901  -0.158  1.00  0.00     0.275 C 
HETATM   23  O5  UNL     1       0.702   1.159   0.720  1.00  0.00    -0.266 OA
HETATM   24  N4  UNL     1      -1.190   2.278   0.195  1.00  0.00    -0.307 N 
ATOM     25  H4  UNL     1      -1.751   2.866  -0.422  1.00  0.00     0.167 HD
BRANCH  24  26
HETATM   26  C11 UNL     1      -1.728   1.800   1.484  1.00  0.00     0.371 C 
BRANCH  26  27
HETATM   27  O6  UNL     1      -1.650   2.895   2.358  1.00  0.00    -0.354 OA
ATOM     28  H6  UNL     1      -1.996   2.587   3.187  1.00  0.00     0.214 HD
ENDBRANCH  26  27
BRANCH  26  29
HETATM   29  O7  UNL     1      -2.951   1.243   1.413  1.00  0.00    -0.334 OA
BRANCH  29  30
HETATM   30  C12 UNL     1      -3.143  -0.041   1.812  1.00  0.00     0.055 C 
HETATM   31  C13 UNL     1      -2.258  -0.924   0.940  1.00  0.00     0.045 C 
HETATM   32  C14 UNL     1      -4.561  -0.534   1.607  1.00  0.00     0.045 C 
HETATM   33  C15 UNL     1      -2.776  -0.329   3.236  1.00  0.00     0.045 C 
ENDBRANCH  29  30
ENDBRANCH  26  29
ENDBRANCH  24  26
ENDBRANCH   1  22
TORSDOF 12
