REMARK  3 active torsions:
REMARK  status: ('A' for Active; 'I' for Inactive)
REMARK       I    between atoms: C2_2  and  N1_4 
REMARK    1  A    between atoms: C8_10  and  C9_11 
REMARK       I    between atoms: C9_11  and  N2_13 
REMARK    2  A    between atoms: N2_13  and  C10_15 
REMARK    3  A    between atoms: N3_18  and  S1_19 
ROOT
HETATM    1  C1  UNL     1       5.329   1.693  -1.253  1.00  0.00     0.117 C 
HETATM    2  C2  UNL     1       4.942   1.411   0.154  1.00  0.00     0.215 C 
HETATM    3  O1  UNL     1       5.511   2.093   1.045  1.00  0.00    -0.274 OA
HETATM    4  N1  UNL     1       3.973   0.416   0.453  1.00  0.00    -0.352 N 
HETATM    5  C3  UNL     1       3.530   0.068   1.787  1.00  0.00     0.126 C 
HETATM    6  C4  UNL     1       2.018  -0.045   1.563  1.00  0.00     0.031 C 
HETATM    7  C5  UNL     1       1.821  -0.316   0.113  1.00  0.00    -0.021 C 
HETATM    8  C6  UNL     1       1.150   0.786  -0.660  1.00  0.00     0.014 C 
HETATM    9  C7  UNL     1      -0.178   1.178  -0.121  1.00  0.00     0.036 C 
HETATM   10  C8  UNL     1      -1.340   0.339  -0.669  1.00  0.00     0.187 C 
HETATM   11  N3  UNL     1      -1.298  -1.017  -0.319  1.00  0.00    -0.297 N 
HETATM   12  C13 UNL     1      -0.282  -1.491   0.541  1.00  0.00     0.137 C 
HETATM   13  C14 UNL     1       1.026  -1.576  -0.169  1.00  0.00     0.032 C 
HETATM   14  C15 UNL     1       3.236  -0.444  -0.446  1.00  0.00     0.135 C 
ENDROOT
BRANCH  10  15
HETATM   15  C9  UNL     1      -2.576   1.033  -0.149  1.00  0.00     0.242 C 
HETATM   16  O2  UNL     1      -2.813   2.233  -0.442  1.00  0.00    -0.271 OA
HETATM   17  N2  UNL     1      -3.514   0.369   0.685  1.00  0.00    -0.342 N 
ATOM     18  H2  UNL     1      -3.339  -0.604   0.936  1.00  0.00     0.164 HD
BRANCH  17  19
HETATM   19  C10 UNL     1      -4.698   1.004   1.192  1.00  0.00     0.177 C 
HETATM   20  C11 UNL     1      -4.752   1.030   2.695  1.00  0.00     0.049 C 
HETATM   21 CL1  UNL     1      -6.149   0.142   0.623  1.00  0.00    -0.103 Cl
ENDBRANCH  17  19
ENDBRANCH  10  15
BRANCH  11  22
HETATM   22  S1  UNL     1      -1.737  -2.164  -1.483  1.00  0.00     0.225 S 
HETATM   23  C12 UNL     1      -3.457  -1.870  -1.938  1.00  0.00     0.186 C 
HETATM   24  O3  UNL     1      -1.700  -3.573  -0.957  1.00  0.00    -0.206 OA
HETATM   25  O4  UNL     1      -0.885  -2.158  -2.725  1.00  0.00    -0.206 OA
ENDBRANCH  11  22
TORSDOF 3
