REMARK  2 active torsions:
REMARK  status: ('A' for Active; 'I' for Inactive)
REMARK    1  A    between atoms: N1_2  and  S1_4 
REMARK    2  A    between atoms: S1_4  and  N2_7 
REMARK       I    between atoms: N3_14  and  C8_15 
REMARK       I    between atoms: C8_15  and  N4_17 
ROOT
HETATM    1  N2  UNL     1       3.654   0.229   0.295  1.00  0.00    -0.174 NA
HETATM    2  C2  UNL     1       3.173   0.339  -1.042  1.00  0.00     0.111 C 
HETATM    3  C3  UNL     1       1.695   0.002  -1.023  1.00  0.00     0.029 C 
HETATM    4  C4  UNL     1       1.420  -0.150   0.447  1.00  0.00     0.007 C 
HETATM    5  C5  UNL     1       1.266   1.227   1.055  1.00  0.00     0.016 C 
HETATM    6  C6  UNL     1       0.106   1.207   2.036  1.00  0.00     0.021 C 
HETATM    7  C7  UNL     1      -1.151   0.994   1.159  1.00  0.00     0.127 C 
HETATM    8  N3  UNL     1      -1.017  -0.340   0.628  1.00  0.00    -0.333 N 
HETATM    9  C8  UNL     1      -2.056  -0.992  -0.017  1.00  0.00     0.320 C 
HETATM   10  O3  UNL     1      -1.796  -2.187  -0.437  1.00  0.00    -0.247 OA
HETATM   11  N4  UNL     1      -3.366  -0.539  -0.282  1.00  0.00    -0.334 N 
HETATM   12  C9  UNL     1      -4.312  -1.446  -0.988  1.00  0.00     0.127 C 
HETATM   13  C10 UNL     1      -5.585  -1.479  -0.191  1.00  0.00     0.020 C 
HETATM   14  C11 UNL     1      -6.234  -0.126  -0.188  1.00  0.00     0.003 C 
HETATM   15  C12 UNL     1      -5.255   0.899  -0.678  1.00  0.00     0.020 C 
HETATM   16  C13 UNL     1      -3.924   0.741   0.060  1.00  0.00     0.127 C 
HETATM   17  C14 UNL     1       0.270  -1.053   0.765  1.00  0.00     0.139 C 
HETATM   18  C15 UNL     1       2.743  -0.700   0.939  1.00  0.00     0.182 C 
HETATM   19 CL1  UNL     1       2.952  -2.323   0.243  1.00  0.00    -0.107 Cl
ENDROOT
BRANCH   1  20
HETATM   20  S1  UNL     1       5.289  -0.281   0.402  1.00  0.00     0.299 S 
HETATM   21  O1  UNL     1       5.746  -0.318   1.832  1.00  0.00    -0.188 OA
HETATM   22  O2  UNL     1       5.548  -1.580  -0.268  1.00  0.00    -0.188 OA
BRANCH  20  23
HETATM   23  N1  UNL     1       6.247   0.928  -0.402  1.00  0.00    -0.311 N 
HETATM   24  C1  UNL     1       6.390   0.605  -1.805  1.00  0.00     0.160 C 
ATOM     25  H1  UNL     1       6.650   1.748   0.051  1.00  0.00     0.172 HD
ENDBRANCH  20  23
ENDBRANCH   1  20
TORSDOF 2
