REMARK  6 active torsions:
REMARK  status: ('A' for Active; 'I' for Inactive)
REMARK    1  A    between atoms: C1_4  and  C2_5 
REMARK    2  A    between atoms: C7_10  and  C8_11 
REMARK    3  A    between atoms: N2_13  and  C10_14 
REMARK    4  A    between atoms: C15_19  and  C16_20 
REMARK    5  A    between atoms: C16_20  and  C17_21 
REMARK    6  A    between atoms: C17_21  and  N3_22 
ROOT
HETATM    1  C8  UNL     1       3.193   0.104  -0.269  1.00  0.00     0.077 A 
HETATM    2  C9  UNL     1       2.148   0.248   0.652  1.00  0.00     0.144 A 
HETATM    3  N2  UNL     1       0.972  -0.068   0.073  1.00  0.00    -0.282 N 
HETATM    4  N4  UNL     1       1.266  -0.399  -1.165  1.00  0.00    -0.240 N 
ATOM      5  H4  UNL     1       0.586  -0.691  -1.867  1.00  0.00     0.208 HD
HETATM    6  N5  UNL     1       2.569  -0.299  -1.370  1.00  0.00    -0.284 N 
ATOM      7  H5  UNL     1       3.032  -0.504  -2.255  1.00  0.00     0.188 HD
ENDROOT
BRANCH   3   8
HETATM    8  C10 UNL     1      -0.334  -0.050   0.678  1.00  0.00     0.113 C 
HETATM    9  C11 UNL     1      -0.294  -0.524   2.121  1.00  0.00     0.028 C 
HETATM   10  C12 UNL     1      -0.776  -1.945   2.274  1.00  0.00     0.002 C 
HETATM   11  C13 UNL     1      -0.283  -2.766   1.116  1.00  0.00     0.001 C 
HETATM   12  C14 UNL     1      -0.891  -2.325  -0.201  1.00  0.00     0.007 C 
HETATM   13  C15 UNL     1      -1.350  -0.902  -0.024  1.00  0.00     0.012 C 
BRANCH  13  14
HETATM   14  C16 UNL     1      -1.885  -0.322  -1.293  1.00  0.00     0.037 C 
BRANCH  14  15
HETATM   15  C17 UNL     1      -2.577   1.005  -1.112  1.00  0.00     0.273 C 
BRANCH  15  16
HETATM   16  N3  UNL     1      -3.727   0.904  -0.230  1.00  0.00     0.092 N 
HETATM   17  C18 UNL     1      -4.338   2.173   0.009  1.00  0.00     0.298 C 
HETATM   18  C19 UNL     1      -5.764   2.348  -0.275  1.00  0.00     0.198 C 
HETATM   19  O1  UNL     1      -6.404   1.361  -0.984  1.00  0.00    -0.388 OA
HETATM   20  C20 UNL     1      -6.056   0.147  -0.344  1.00  0.00     0.198 C 
HETATM   21  C21 UNL     1      -4.617  -0.097  -0.752  1.00  0.00     0.298 C 
ENDBRANCH  15  16
ENDBRANCH  14  15
ENDBRANCH  13  14
ENDBRANCH   3   8
BRANCH   1  22
HETATM   22  C7  UNL     1       4.603   0.364   0.012  1.00  0.00     0.005 A 
HETATM   23  C2  UNL     1       5.586   0.204  -0.924  1.00  0.00    -0.009 A 
HETATM   24  C3  UNL     1       6.914   0.492  -0.525  1.00  0.00     0.014 A 
HETATM   25  C4  UNL     1       7.224   0.913   0.743  1.00  0.00     0.001 A 
HETATM   26  C5  UNL     1       6.220   1.066   1.667  1.00  0.00     0.001 A 
HETATM   27  C6  UNL     1       4.943   0.796   1.303  1.00  0.00     0.014 A 
BRANCH  23  28
HETATM   28  C1  UNL     1       5.343  -0.235  -2.271  1.00  0.00     0.092 C 
HETATM   29  N1  UNL     1       6.365  -0.350  -3.084  1.00  0.00    -0.407 N 
ATOM     30  H12 UNL     1       7.304  -0.129  -2.753  1.00  0.00     0.155 HD
ATOM     31  H11 UNL     1       6.193  -0.662  -4.040  1.00  0.00     0.155 HD
ENDBRANCH  23  28
ENDBRANCH   1  22
TORSDOF 6
