REMARK  2 active torsions:
REMARK  status: ('A' for Active; 'I' for Inactive)
REMARK    1  A    between atoms: C2_2  and  C3_3 
REMARK    2  A    between atoms: C3_3  and  N1_4 
REMARK       I    between atoms: C4_6  and  N3_8 
ROOT
HETATM    1  N1  UNL     1       1.365   0.534  -0.801  1.00  0.00    -0.365 N 
ATOM      2  H1  UNL     1       0.854   1.382  -1.044  1.00  0.00     0.162 HD
HETATM    3  C4  UNL     1       0.717  -0.428  -0.227  1.00  0.00     0.186 C 
HETATM    4  N2  UNL     1       1.460  -1.590   0.095  1.00  0.00    -0.064 NA
HETATM    5  N3  UNL     1      -0.662  -0.331   0.066  1.00  0.00    -0.352 N 
HETATM    6  C5  UNL     1      -1.470  -1.524   0.186  1.00  0.00     0.156 C 
HETATM    7  C6  UNL     1      -2.920  -1.246  -0.122  1.00  0.00     0.291 C 
HETATM    8  N4  UNL     1      -3.472  -0.179   0.652  1.00  0.00     0.087 N 
HETATM    9  C7  UNL     1      -4.529   0.451  -0.101  1.00  0.00     0.310 C 
HETATM   10  C8  UNL     1      -2.511   0.737   1.186  1.00  0.00     0.291 C 
HETATM   11  C9  UNL     1      -1.324   0.944   0.256  1.00  0.00     0.156 C 
ENDROOT
BRANCH   1  12
HETATM   12  C3  UNL     1       2.762   0.472  -1.113  1.00  0.00     0.122 C 
BRANCH  12  13
HETATM   13  C2  UNL     1       3.632   0.850   0.074  1.00  0.00     0.015 C 
HETATM   14  C1  UNL     1       5.098   0.775  -0.282  1.00  0.00     0.006 C 
ENDBRANCH  12  13
ENDBRANCH   1  12
TORSDOF 2
