REMARK  3 active torsions:
REMARK  status: ('A' for Active; 'I' for Inactive)
REMARK    1  A    between atoms: C5_5  and  C6_7 
REMARK    2  A    between atoms: C6_7  and  O2_9 
REMARK    3  A    between atoms: O2_9  and  C7_10 
ROOT
HETATM    1  C1  UNL     1      -2.073  -1.638   1.668  1.00  0.00     0.038 C 
HETATM    2  C2  UNL     1      -1.568  -1.274   0.274  1.00  0.00     0.025 C 
HETATM    3  C3  UNL     1      -2.081  -2.318  -0.669  1.00  0.00     0.038 C 
HETATM    4  C4  UNL     1      -0.065  -1.229   0.357  1.00  0.00     0.071 C 
HETATM    5  C5  UNL     1       0.532  -0.395  -0.772  1.00  0.00     0.156 C 
HETATM    6 CL1  UNL     1      -0.072  -0.868  -2.345  1.00  0.00    -0.103 Cl
HETATM    7  C8  UNL     1       0.086   0.999  -0.516  1.00  0.00     0.003 A 
HETATM    8  C9  UNL     1       0.937   2.066  -0.645  1.00  0.00     0.035 A 
HETATM    9  C10 UNL     1       0.525   3.361  -0.408  1.00  0.00     0.034 A 
HETATM   10 CL5  UNL     1       1.566   4.749  -0.557  1.00  0.00    -0.084 Cl
HETATM   11  C11 UNL     1      -0.805   3.508  -0.032  1.00  0.00     0.026 A 
HETATM   12  C12 UNL     1      -1.672   2.461   0.104  1.00  0.00     0.031 A 
HETATM   13  C13 UNL     1      -1.228   1.173  -0.141  1.00  0.00     0.037 A 
HETATM   14  N1  UNL     1      -2.086   0.045  -0.017  1.00  0.00    -0.381 N 
ATOM     15  H1  UNL     1      -3.091   0.169  -0.136  1.00  0.00     0.160 HD
ENDROOT
BRANCH   5  16
HETATM   16  C6  UNL     1       1.980  -0.561  -0.716  1.00  0.00     0.291 C 
HETATM   17  O1  UNL     1       2.589  -0.974  -1.733  1.00  0.00    -0.263 OA
BRANCH  16  18
HETATM   18  O2  UNL     1       2.761  -0.290   0.403  1.00  0.00    -0.263 OA
BRANCH  18  19
HETATM   19  C7  UNL     1       4.181  -0.489   0.347  1.00  0.00     0.305 C 
HETATM   20 CL2  UNL     1       4.878   0.541  -0.923  1.00  0.00    -0.053 Cl
HETATM   21 CL3  UNL     1       4.470  -2.216  -0.064  1.00  0.00    -0.053 Cl
HETATM   22 CL4  UNL     1       4.897  -0.155   1.935  1.00  0.00    -0.053 Cl
ENDBRANCH  18  19
ENDBRANCH  16  18
ENDBRANCH   5  16
TORSDOF 3
