REMARK  7 active torsions:
REMARK  status: ('A' for Active; 'I' for Inactive)
REMARK    1  A    between atoms: C2_2  and  C3_3 
REMARK    2  A    between atoms: C3_3  and  N1_4 
REMARK    3  A    between atoms: C5_6  and  C6_7 
REMARK    4  A    between atoms: C6_7  and  C8_10 
REMARK    5  A    between atoms: C8_10  and  S1_20 
REMARK    6  A    between atoms: C9_11  and  C10_12 
REMARK    7  A    between atoms: S1_20  and  C16_23 
ROOT
HETATM    1  C6  UNL     1       0.249   0.694   0.140  1.00  0.00     0.190 C 
HETATM    2  C7  UNL     1       0.377   0.820  -1.305  1.00  0.00     0.075 C 
HETATM    3  N2  UNL     1       0.488   0.952  -2.471  1.00  0.00    -0.196 NA
ENDROOT
BRANCH   1   4
HETATM    4  C5  UNL     1       1.551   0.415   0.785  1.00  0.00     0.067 A 
HETATM    5  C4  UNL     1       2.564  -0.352   0.296  1.00  0.00     0.140 A 
HETATM    6  N1  UNL     1       3.573  -0.338   1.216  1.00  0.00    -0.284 N 
HETATM    7  N4  UNL     1       3.170   0.414   2.220  1.00  0.00    -0.240 N 
HETATM    8  N3  UNL     1       1.957   0.867   1.965  1.00  0.00    -0.287 N 
ATOM      9  H4  UNL     1       3.710   0.614   3.062  1.00  0.00     0.208 HD
ATOM     10  H3  UNL     1       1.414   1.472   2.581  1.00  0.00     0.188 HD
BRANCH   6  11
HETATM   11  C3  UNL     1       4.850  -1.048   1.060  1.00  0.00     0.176 C 
BRANCH  11  12
HETATM   12  C2  UNL     1       5.841  -0.144   0.381  1.00  0.00    -0.015 C 
HETATM   13  C1  UNL     1       5.527   1.085   0.018  1.00  0.00     0.008 C 
ENDBRANCH  11  12
ENDBRANCH   6  11
ENDBRANCH   1   4
BRANCH   1  14
HETATM   14  C8  UNL     1      -0.831  -0.217   0.487  1.00  0.00     0.066 C 
HETATM   15  C9  UNL     1      -1.967   0.249   0.969  1.00  0.00     0.032 C 
BRANCH  15  16
HETATM   16  C10 UNL     1      -2.368   1.611   1.235  1.00  0.00    -0.032 A 
HETATM   17  C11 UNL     1      -2.818   1.900   2.535  1.00  0.00     0.035 A 
HETATM   18  C12 UNL     1      -3.275   3.132   2.914  1.00  0.00     0.036 A 
HETATM   19 CL1  UNL     1      -3.830   3.450   4.555  1.00  0.00    -0.084 Cl
HETATM   20  C13 UNL     1      -3.316   4.175   2.014  1.00  0.00     0.047 A 
HETATM   21  C14 UNL     1      -2.884   3.917   0.742  1.00  0.00     0.036 A 
HETATM   22 CL2  UNL     1      -2.919   5.205  -0.436  1.00  0.00    -0.084 Cl
HETATM   23  C15 UNL     1      -2.418   2.659   0.359  1.00  0.00     0.035 A 
ENDBRANCH  15  16
BRANCH  14  24
HETATM   24  S1  UNL     1      -0.776  -1.965   0.326  1.00  0.00     0.204 S 
HETATM   25  O1  UNL     1      -1.736  -2.561   1.342  1.00  0.00    -0.217 OA
HETATM   26  O2  UNL     1       0.560  -2.558   0.492  1.00  0.00    -0.217 OA
BRANCH  24  27
HETATM   27  C16 UNL     1      -1.361  -2.383  -1.261  1.00  0.00     0.064 A 
HETATM   28  C17 UNL     1      -2.703  -2.490  -1.571  1.00  0.00     0.024 A 
HETATM   29  C18 UNL     1      -3.120  -2.848  -2.852  1.00  0.00     0.002 A 
HETATM   30  C19 UNL     1      -2.217  -3.107  -3.847  1.00  0.00     0.000 A 
HETATM   31  C20 UNL     1      -0.879  -2.999  -3.535  1.00  0.00     0.002 A 
HETATM   32  C21 UNL     1      -0.463  -2.645  -2.271  1.00  0.00     0.024 A 
ENDBRANCH  24  27
ENDBRANCH  14  24
ENDBRANCH   1  14
TORSDOF 7
