REMARK  13 active torsions:
REMARK  status: ('A' for Active; 'I' for Inactive)
REMARK    1  A    between atoms: C4_5  and  C5_6 
REMARK    2  A    between atoms: C5_6  and  C6_7 
REMARK    3  A    between atoms: C6_7  and  O3_9 
REMARK    4  A    between atoms: C8_11  and  O4_12 
REMARK    5  A    between atoms: C10_15  and  O5_16 
REMARK    6  A    between atoms: O5_16  and  C11_17 
REMARK    7  A    between atoms: C11_17  and  C12_19 
REMARK    8  A    between atoms: C12_19  and  C13_20 
REMARK    9  A    between atoms: C14_22  and  C16_24 
REMARK   10  A    between atoms: C17_25  and  C18_26 
REMARK   11  A    between atoms: C23_31  and  C24_32 
REMARK   12  A    between atoms: C27_35  and  O7_36 
REMARK   13  A    between atoms: C28_38  and  O8_39 
ROOT
HETATM    1  C12 UNL     1       0.701  -0.461  -2.769  1.00  0.00     0.037 C 
HETATM    2  C14 UNL     1       0.006   0.315  -1.929  1.00  0.00    -0.049 C 
HETATM    3  C15 UNL     1       0.557   0.526  -0.565  1.00  0.00     0.049 C 
ENDROOT
BRANCH   1   4
HETATM    4  C11 UNL     1       1.949  -1.092  -2.414  1.00  0.00     0.291 C 
HETATM    5  O6  UNL     1       2.528  -1.808  -3.286  1.00  0.00    -0.260 OA
BRANCH   4   6
HETATM    6  O5  UNL     1       2.610  -1.010  -1.203  1.00  0.00    -0.312 OA
BRANCH   6   7
HETATM    7  C10 UNL     1       3.831  -1.661  -0.930  1.00  0.00     0.139 C 
HETATM    8  C9  UNL     1       4.987  -0.762  -0.673  1.00  0.00     0.072 C 
HETATM    9  C8  UNL     1       5.043  -0.251   0.716  1.00  0.00     0.079 C 
HETATM   10  C4  UNL     1       6.065   0.802   0.994  1.00  0.00     0.104 C 
HETATM   11  C35 UNL     1       5.390  -1.416   1.633  1.00  0.00     0.057 C 
HETATM   12  C3  UNL     1       7.156   0.122   1.733  1.00  0.00     0.162 C 
HETATM   13  C2  UNL     1       6.463  -0.921   2.524  1.00  0.00    -0.014 C 
HETATM   14  O1  UNL     1       8.409   0.323   1.740  1.00  0.00    -0.292 OA
HETATM   15  C1  UNL     1       6.727  -1.332   3.727  1.00  0.00     0.023 C 
HETATM   16  C34 UNL     1       4.202  -1.924   2.375  1.00  0.00     0.013 C 
HETATM   17  C33 UNL     1       3.135  -2.360   1.401  1.00  0.00     0.007 C 
HETATM   18  C31 UNL     1       3.650  -2.778   0.070  1.00  0.00     0.011 C 
HETATM   19  C32 UNL     1       2.554  -3.673  -0.538  1.00  0.00     0.012 C 
BRANCH   9  20
HETATM   20  O4  UNL     1       3.786   0.284   1.065  1.00  0.00    -0.388 OA
ATOM     21  H4  UNL     1       3.136  -0.386   0.888  1.00  0.00     0.210 HD
ENDBRANCH   9  20
BRANCH  10  22
HETATM   22  C5  UNL     1       6.489   1.639  -0.138  1.00  0.00     0.126 C 
BRANCH  22  23
HETATM   23  C6  UNL     1       7.354   2.748   0.325  1.00  0.00     0.259 C 
HETATM   24  O2  UNL     1       7.515   2.935   1.560  1.00  0.00    -0.265 OA
BRANCH  23  25
HETATM   25  O3  UNL     1       8.006   3.602  -0.561  1.00  0.00    -0.326 OA
HETATM   26  C7  UNL     1       8.807   4.627  -0.010  1.00  0.00     0.213 C 
ENDBRANCH  23  25
ENDBRANCH  22  23
ENDBRANCH  10  22
ENDBRANCH   6   7
ENDBRANCH   4   6
ENDBRANCH   1   4
BRANCH   1  27
HETATM   27  C13 UNL     1       0.200  -0.746  -4.156  1.00  0.00     0.160 C 
HETATM   28 CL1  UNL     1       1.426  -0.116  -5.280  1.00  0.00    -0.125 Cl
ENDBRANCH   1  27
BRANCH   2  29
HETATM   29  C16 UNL     1      -1.183   1.037  -2.348  1.00  0.00     0.004 C 
HETATM   30  C17 UNL     1      -2.537   0.567  -2.147  1.00  0.00    -0.021 C 
BRANCH  30  31
HETATM   31  C18 UNL     1      -3.134   0.257  -0.824  1.00  0.00     0.015 C 
HETATM   32  C19 UNL     1      -2.464  -0.866  -0.149  1.00  0.00     0.009 C 
HETATM   33  C20 UNL     1      -3.476  -1.930   0.170  1.00  0.00     0.005 C 
HETATM   34  C21 UNL     1      -4.731  -1.479  -0.462  1.00  0.00    -0.011 C 
HETATM   35  C22 UNL     1      -5.194  -2.384  -1.590  1.00  0.00     0.010 C 
HETATM   36  C23 UNL     1      -4.578  -0.057  -0.876  1.00  0.00     0.031 C 
BRANCH  36  37
HETATM   37  C24 UNL     1      -5.462   0.881  -0.094  1.00  0.00     0.065 C 
HETATM   38  C25 UNL     1      -5.334   2.312  -0.554  1.00  0.00     0.046 C 
HETATM   39  C26 UNL     1      -6.898   0.491  -0.409  1.00  0.00     0.072 C 
HETATM   40  C27 UNL     1      -7.761   1.550   0.253  1.00  0.00     0.152 C 
HETATM   41  C28 UNL     1      -7.486   1.469   1.721  1.00  0.00     0.175 C 
HETATM   42  C29 UNL     1      -6.048   1.365   2.100  1.00  0.00     0.149 C 
HETATM   43  C30 UNL     1      -6.006   0.604   3.438  1.00  0.00     0.042 C 
HETATM   44  O9  UNL     1      -5.238   0.679   1.237  1.00  0.00    -0.372 OA
BRANCH  40  45
HETATM   45  O7  UNL     1      -9.093   1.151   0.047  1.00  0.00    -0.393 OA
ATOM     46  H7  UNL     1      -9.633   1.814   0.461  1.00  0.00     0.210 HD
ENDBRANCH  40  45
BRANCH  41  47
HETATM   47  O8  UNL     1      -8.016   2.598   2.372  1.00  0.00    -0.390 OA
ATOM     48  H8  UNL     1      -7.841   2.547   3.304  1.00  0.00     0.210 HD
ENDBRANCH  41  47
ENDBRANCH  36  37
ENDBRANCH  30  31
ENDBRANCH   2  29
TORSDOF 13
