REMARK  13 active torsions:
REMARK  status: ('A' for Active; 'I' for Inactive)
REMARK    1  A    between atoms: C2_2  and  C3_3 
REMARK    2  A    between atoms: C3_3  and  N1_4 
REMARK    3  A    between atoms: C5_9  and  N3_10 
REMARK    4  A    between atoms: C8_13  and  N4_14 
REMARK    5  A    between atoms: N4_14  and  C9_16 
REMARK    6  A    between atoms: C9_16  and  C10_17 
REMARK    7  A    between atoms: C10_17  and  N5_18 
REMARK    8  A    between atoms: C13_23  and  N7_24 
REMARK    9  A    between atoms: N7_24  and  C14_26 
REMARK   10  A    between atoms: C18_30  and  C19_31 
REMARK   11  A    between atoms: C19_31  and  O1_32 
REMARK   12  A    between atoms: C21_40  and  N11_41 
REMARK   13  A    between atoms: N11_41  and  N12_43 
ROOT
HETATM    1  N3  UNL     1       1.190   0.778  -0.370  1.00  0.00    -0.072 N 
HETATM    2  C6  UNL     1       0.278   1.670  -0.796  1.00  0.00     0.174 A 
HETATM    3  C7  UNL     1      -0.762   0.807  -0.512  1.00  0.00     0.139 A 
HETATM    4  C8  UNL     1      -2.073   0.417  -0.441  1.00  0.00     0.152 A 
HETATM    5  N6  UNL     1      -2.324  -0.826   0.051  1.00  0.00    -0.173 N 
ATOM      6  H6  UNL     1      -3.297  -1.125   0.109  1.00  0.00     0.186 HD
HETATM    7  C13 UNL     1      -1.386  -1.682   0.463  1.00  0.00     0.700 A 
HETATM    8  N8  UNL     1      -0.116  -1.267   0.379  1.00  0.00    -0.109 N 
ATOM      9  H8  UNL     1       0.633  -1.889   0.684  1.00  0.00     0.208 HD
HETATM   10  N9  UNL     1       0.195  -0.048  -0.098  1.00  0.00    -0.156 N 
ENDROOT
BRANCH   1  11
HETATM   11  C5  UNL     1       2.628   0.752  -0.262  1.00  0.00     0.734 A 
HETATM   12  N2  UNL     1       3.290  -0.402  -0.423  1.00  0.00    -0.019 N 
HETATM   13  C4  UNL     1       4.653  -0.419  -0.326  1.00  0.00     0.707 A 
ATOM     14  H2  UNL     1       2.779  -1.263  -0.617  1.00  0.00     0.203 HD
HETATM   15  N1  UNL     1       5.295  -1.510  -0.476  1.00  0.00    -0.222 N 
HETATM   16  N13 UNL     1       5.322   0.715  -0.069  1.00  0.00    -0.020 N 
ATOM     17  H1  UNL     1       4.734  -2.340  -0.667  1.00  0.00     0.178 HD
HETATM   18  C21 UNL     1       4.657   1.890   0.096  1.00  0.00     0.725 A 
ATOM     19  H13 UNL     1       6.339   0.696   0.003  1.00  0.00     0.203 HD
HETATM   20  N10 UNL     1       3.319   1.883  -0.004  1.00  0.00    -0.018 N 
ATOM     21  H10 UNL     1       2.809   2.758   0.118  1.00  0.00     0.203 HD
BRANCH  15  22
HETATM   22  C3  UNL     1       6.707  -1.706  -0.408  1.00  0.00     0.164 C 
BRANCH  22  23
HETATM   23  C2  UNL     1       7.194  -2.056   0.954  1.00  0.00    -0.017 C 
HETATM   24  C1  UNL     1       8.074  -1.311   1.611  1.00  0.00     0.008 C 
ENDBRANCH  22  23
ENDBRANCH  15  22
BRANCH  18  25
HETATM   25  N11 UNL     1       5.322   2.983   0.346  1.00  0.00    -0.138 N 
ATOM     26  H11 UNL     1       4.800   3.851   0.467  1.00  0.00     0.205 HD
BRANCH  25  27
HETATM   27  N12 UNL     1       6.693   3.024   0.455  1.00  0.00    -0.331 N 
ATOM     28 2H12 UNL     1       7.199   2.147   0.331  1.00  0.00     0.177 HD
ATOM     29 1H12 UNL     1       7.213   3.879   0.651  1.00  0.00     0.177 HD
ENDBRANCH  25  27
ENDBRANCH  18  25
ENDBRANCH   1  11
BRANCH   4  30
HETATM   30  N4  UNL     1      -3.004   1.183  -0.815  1.00  0.00    -0.352 N 
ATOM     31  H4  UNL     1      -3.955   0.824  -0.732  1.00  0.00     0.166 HD
BRANCH  30  32
HETATM   32  C9  UNL     1      -2.861   2.478  -1.333  1.00  0.00     0.092 C 
BRANCH  32  33
HETATM   33  C10 UNL     1      -2.849   3.496  -0.210  1.00  0.00     0.315 C 
BRANCH  33  34
HETATM   34  N5  UNL     1      -2.726   4.839  -0.674  1.00  0.00     0.084 N 
HETATM   35  C11 UNL     1      -3.862   5.331  -1.392  1.00  0.00     0.309 C 
HETATM   36  C12 UNL     1      -1.509   5.170  -1.340  1.00  0.00     0.309 C 
ENDBRANCH  33  34
ENDBRANCH  32  33
ENDBRANCH  30  32
ENDBRANCH   4  30
BRANCH   7  37
HETATM   37  N7  UNL     1      -1.654  -2.847   0.920  1.00  0.00    -0.190 N 
ATOM     38  H7  UNL     1      -0.875  -3.437   1.214  1.00  0.00     0.184 HD
BRANCH  37  39
HETATM   39  C14 UNL     1      -2.967  -3.369   1.043  1.00  0.00     0.049 A 
HETATM   40  C15 UNL     1      -3.769  -3.064   2.127  1.00  0.00     0.030 A 
HETATM   41  C16 UNL     1      -5.055  -3.569   2.251  1.00  0.00     0.003 A 
HETATM   42  C17 UNL     1      -5.575  -4.389   1.302  1.00  0.00     0.009 A 
HETATM   43  C18 UNL     1      -4.790  -4.714   0.198  1.00  0.00    -0.033 A 
HETATM   44  C20 UNL     1      -3.505  -4.203   0.086  1.00  0.00     0.039 A 
BRANCH  43  45
HETATM   45  C19 UNL     1      -5.390  -5.617  -0.826  1.00  0.00     0.203 C 
BRANCH  45  46
HETATM   46  O1  UNL     1      -5.127  -6.915  -0.418  1.00  0.00    -0.396 OA
ATOM     47  H1  UNL     1      -5.509  -7.490  -1.070  1.00  0.00     0.209 HD
ENDBRANCH  45  46
ENDBRANCH  43  45
ENDBRANCH  37  39
ENDBRANCH   7  37
TORSDOF 13
