REMARK  4 active torsions:
REMARK  status: ('A' for Active; 'I' for Inactive)
REMARK    1  A    between atoms: O1_2  and  C2_3 
REMARK    2  A    between atoms: C20_24  and  C21_25 
REMARK    3  A    between atoms: C21_25  and  O3_26 
REMARK    4  A    between atoms: C24_31  and  O5_32 
ROOT
HETATM    1  C2  UNL     1       0.088   1.095  -0.198  1.00  0.00     0.160 C 
HETATM    2  C3  UNL     1       1.534   0.840   0.114  1.00  0.00     0.024 C 
HETATM    3  C4  UNL     1       2.463   1.292  -1.000  1.00  0.00     0.008 C 
HETATM    4  C5  UNL     1       3.903   1.204  -0.623  1.00  0.00     0.008 C 
HETATM    5  C6  UNL     1       4.098   0.458   0.632  1.00  0.00     0.026 C 
HETATM    6  C7  UNL     1       5.453   0.059   1.018  1.00  0.00     0.080 C 
HETATM    7  C8  UNL     1       6.527   0.143   0.010  1.00  0.00     0.020 C 
HETATM    8  C9  UNL     1       5.267  -1.323   1.584  1.00  0.00     0.222 C 
HETATM    9  O2  UNL     1       6.220  -2.066   1.985  1.00  0.00    -0.273 OA
HETATM   10  N1  UNL     1       3.880  -1.602   1.575  1.00  0.00    -0.351 N 
ATOM     11  H1  UNL     1       3.379  -2.224   2.209  1.00  0.00     0.163 HD
HETATM   12  C10 UNL     1       3.318  -0.839   0.501  1.00  0.00     0.037 C 
HETATM   13  C11 UNL     1       3.556  -1.560  -0.770  1.00  0.00     0.039 C 
HETATM   14  C12 UNL     1       1.870  -0.455   0.741  1.00  0.00     0.020 C 
HETATM   15  C13 UNL     1       1.043  -1.633   0.354  1.00  0.00     0.008 C 
HETATM   16  C14 UNL     1      -0.411  -1.487   0.789  1.00  0.00     0.011 C 
HETATM   17  C15 UNL     1      -1.149  -1.093  -0.446  1.00  0.00     0.058 C 
HETATM   18  C16 UNL     1      -2.513  -0.511  -0.314  1.00  0.00     0.074 C 
HETATM   19  C17 UNL     1      -3.609  -1.408  -0.814  1.00  0.00     0.072 C 
HETATM   20  C18 UNL     1      -4.971  -0.862  -0.566  1.00  0.00    -0.074 C 
HETATM   21  C19 UNL     1      -6.130  -1.513  -1.248  1.00  0.00     0.044 C 
HETATM   22  C20 UNL     1      -5.105   0.170   0.241  1.00  0.00    -0.031 C 
HETATM   23  C22 UNL     1      -3.913   0.813   0.917  1.00  0.00     0.205 C 
HETATM   24  O4  UNL     1      -2.822  -0.007   0.961  1.00  0.00    -0.375 OA
HETATM   25  C23 UNL     1      -2.046   0.547  -1.308  1.00  0.00     0.080 C 
HETATM   26  C24 UNL     1      -0.596   0.165  -1.090  1.00  0.00     0.093 C 
ENDROOT
BRANCH  26  27
HETATM   27  O5  UNL     1       0.064  -0.207  -2.273  1.00  0.00    -0.387 OA
ATOM     28  H5  UNL     1      -0.381  -0.813  -2.854  1.00  0.00     0.210 HD
ENDBRANCH  26  27
BRANCH   1  29
HETATM   29  O1  UNL     1      -0.028   2.437  -0.473  1.00  0.00    -0.387 OA
HETATM   30  C1  UNL     1      -0.640   3.221   0.455  1.00  0.00     0.202 C 
ENDBRANCH   1  29
BRANCH  22  31
HETATM   31  C21 UNL     1      -6.422   0.771   0.540  1.00  0.00     0.200 C 
BRANCH  31  32
HETATM   32  O3  UNL     1      -7.499   0.208  -0.060  1.00  0.00    -0.397 OA
ATOM     33  H3  UNL     1      -8.345   0.594   0.132  1.00  0.00     0.209 HD
ENDBRANCH  31  32
ENDBRANCH  22  31
TORSDOF 4
