REMARK  3 active torsions:
REMARK  status: ('A' for Active; 'I' for Inactive)
REMARK    1  A    between atoms: C2_2  and  C3_3 
REMARK    2  A    between atoms: C6_6  and  O1_7 
REMARK    3  A    between atoms: C11_13  and  O2_14 
ROOT
HETATM    1  C3  UNL     1      -1.956   0.757  -0.204  1.00  0.00    -0.033 C 
HETATM    2  C4  UNL     1      -2.593   1.536  -1.369  1.00  0.00     0.012 C 
HETATM    3  C5  UNL     1      -1.662   2.690  -1.627  1.00  0.00     0.033 C 
HETATM    4  C6  UNL     1      -0.312   1.956  -1.494  1.00  0.00     0.123 C 
HETATM    5  C7  UNL     1      -0.535   1.125  -0.300  1.00  0.00     0.032 C 
HETATM    6  C8  UNL     1       0.317  -0.145  -0.168  1.00  0.00    -0.022 C 
HETATM    7  C9  UNL     1       1.546   0.048  -1.011  1.00  0.00     0.013 C 
HETATM    8  C10 UNL     1       2.840  -0.414  -0.406  1.00  0.00     0.033 C 
HETATM    9  C11 UNL     1       3.259   0.587   0.652  1.00  0.00     0.120 C 
HETATM   10  C13 UNL     1       1.973   1.066   1.276  1.00  0.00     0.033 C 
HETATM   11  C14 UNL     1       0.908  -0.046   1.256  1.00  0.00     0.013 C 
HETATM   12  C15 UNL     1      -0.568  -1.253  -0.393  1.00  0.00     0.008 C 
HETATM   13  C16 UNL     1      -0.404  -2.001  -1.720  1.00  0.00     0.124 C 
HETATM   14  C17 UNL     1       0.585  -3.058  -1.321  1.00  0.00     0.260 C 
HETATM   15  O3  UNL     1       1.290  -3.785  -2.083  1.00  0.00    -0.265 OA
HETATM   16  O4  UNL     1       0.614  -3.126   0.085  1.00  0.00    -0.310 OA
HETATM   17  C18 UNL     1      -0.608  -2.472   0.452  1.00  0.00     0.072 C 
HETATM   18  C19 UNL     1      -1.671  -3.433  -0.111  1.00  0.00     0.047 C 
HETATM   19  C20 UNL     1      -0.830  -2.396   1.893  1.00  0.00     0.047 C 
HETATM   20  C21 UNL     1      -2.004  -0.707  -0.414  1.00  0.00     0.023 C 
ENDROOT
BRANCH   1  21
HETATM   21  C2  UNL     1      -2.701   1.181   1.007  1.00  0.00     0.005 C 
HETATM   22  C1  UNL     1      -2.683   2.611   1.363  1.00  0.00     0.006 C 
ENDBRANCH   1  21
BRANCH   4  23
HETATM   23  O1  UNL     1      -0.103   1.413  -2.707  1.00  0.00    -0.395 OA
ATOM     24  H1  UNL     1       0.729   0.961  -2.625  1.00  0.00     0.210 HD
ENDBRANCH   4  23
BRANCH   9  25
HETATM   25  O2  UNL     1       4.145   0.063   1.562  1.00  0.00    -0.391 OA
HETATM   26  C12 UNL     1       5.330   0.796   1.526  1.00  0.00     0.202 C 
ENDBRANCH   9  25
TORSDOF 3
