REMARK  3 active torsions:
REMARK  status: ('A' for Active; 'I' for Inactive)
REMARK    1  A    between atoms: C2_2  and  N1_5 
REMARK       I    between atoms: N1_5  and  C5_7 
REMARK       I    between atoms: C5_7  and  N3_11 
REMARK    2  A    between atoms: N4_14  and  C8_15 
REMARK    3  A    between atoms: C8_15  and  C9_16 
ROOT
HETATM    1  N1  UNL     1      -3.528   0.222   0.907  1.00  0.00    -0.218 N 
ATOM      2  H1  UNL     1      -3.136   0.639   1.751  1.00  0.00     0.178 HD
HETATM    3  C5  UNL     1      -2.633  -0.283  -0.087  1.00  0.00     0.671 C 
HETATM    4  N2  UNL     1      -3.206  -0.707  -1.191  1.00  0.00    -0.235 N 
ATOM      5  H21 UNL     1      -2.567  -1.067  -1.900  1.00  0.00     0.174 HD
ATOM      6  H22 UNL     1      -4.216  -0.679  -1.328  1.00  0.00     0.174 HD
HETATM    7  N3  UNL     1      -1.249  -0.321   0.101  1.00  0.00    -0.190 N 
HETATM    8  C6  UNL     1      -0.486   0.282   1.145  1.00  0.00     0.173 C 
HETATM    9  C7  UNL     1       0.730   0.819   0.363  1.00  0.00     0.295 C 
HETATM   10  N4  UNL     1       0.878  -0.094  -0.689  1.00  0.00     0.108 N 
HETATM   11  C15 UNL     1      -0.261  -0.982  -0.732  1.00  0.00     0.414 C 
ENDROOT
BRANCH   1  12
HETATM   12  C2  UNL     1      -4.957   0.167   0.767  1.00  0.00     0.036 C 
HETATM   13  C1  UNL     1      -5.612   0.801   1.973  1.00  0.00     0.038 C 
HETATM   14  C3  UNL     1      -5.449   0.908  -0.458  1.00  0.00     0.038 C 
HETATM   15  C4  UNL     1      -5.502  -1.245   0.682  1.00  0.00     0.038 C 
ENDBRANCH   1  12
BRANCH  10  16
HETATM   16  C8  UNL     1       2.135  -0.711  -0.807  1.00  0.00     0.279 C 
BRANCH  16  17
HETATM   17  C9  UNL     1       3.293   0.082  -1.280  1.00  0.00     0.014 C 
HETATM   18  C10 UNL     1       4.508  -0.860  -1.326  1.00  0.00     0.006 C 
HETATM   19  C11 UNL     1       5.809  -0.094  -1.182  1.00  0.00     0.000 C 
HETATM   20  C12 UNL     1       5.923   0.526   0.203  1.00  0.00     0.000 C 
HETATM   21  C13 UNL     1       4.545   0.899   0.698  1.00  0.00     0.000 C 
HETATM   22  C14 UNL     1       3.708   1.274  -0.507  1.00  0.00     0.006 C 
ENDBRANCH  16  17
ENDBRANCH  10  16
TORSDOF 3
