REMARK  4 active torsions:
REMARK  status: ('A' for Active; 'I' for Inactive)
REMARK    1  A    between atoms: C2_2  and  C4_4 
REMARK    2  A    between atoms: C4_4  and  C5_5 
REMARK    3  A    between atoms: C5_5  and  O1_6 
REMARK    4  A    between atoms: C18_20  and  O2_21 
ROOT
HETATM    1  C4  UNL     1      -2.128  -0.069  -0.450  1.00  0.00     0.030 C 
HETATM    2  C6  UNL     1      -0.967   0.895  -0.383  1.00  0.00     0.024 C 
HETATM    3  C7  UNL     1       0.125   0.148  -1.084  1.00  0.00     0.002 C 
HETATM    4  C8  UNL     1       0.040  -1.198  -0.469  1.00  0.00     0.020 C 
HETATM    5  C9  UNL     1       0.779  -1.347   0.798  1.00  0.00     0.008 C 
HETATM    6  C10 UNL     1       1.703  -0.221   1.143  1.00  0.00     0.011 C 
HETATM    7  C11 UNL     1       2.252   0.669   0.282  1.00  0.00    -0.030 A 
HETATM    8  C12 UNL     1       2.657   2.003   0.591  1.00  0.00     0.016 C 
HETATM    9  C13 UNL     1       3.762   0.035  -0.407  1.00  0.00     0.012 A 
HETATM   10  C14 UNL     1       4.130  -1.059   0.491  1.00  0.00     0.015 C 
HETATM   11  C15 UNL     1       3.119   0.079  -1.487  1.00  0.00    -0.025 A 
HETATM   12  C16 UNL     1       2.432   0.303  -1.729  1.00  0.00    -0.024 A 
HETATM   13  C17 UNL     1       1.391   0.814  -1.229  1.00  0.00     0.021 A 
HETATM   14  C18 UNL     1      -1.451  -1.419  -0.331  1.00  0.00     0.137 C 
ENDROOT
BRANCH   1  15
HETATM   15  C2  UNL     1      -3.099   0.159   0.628  1.00  0.00    -0.080 C 
HETATM   16  C1  UNL     1      -4.374   0.329   0.382  1.00  0.00     0.015 C 
HETATM   17  C3  UNL     1      -2.654   0.186   2.065  1.00  0.00     0.043 C 
ENDBRANCH   1  15
BRANCH   1  18
HETATM   18  C5  UNL     1      -2.781   0.092  -1.803  1.00  0.00     0.180 C 
BRANCH  18  19
HETATM   19  O1  UNL     1      -3.275   1.384  -1.959  1.00  0.00    -0.400 OA
ATOM     20  H1  UNL     1      -3.686   1.485  -2.810  1.00  0.00     0.209 HD
ENDBRANCH  18  19
ENDBRANCH   1  18
BRANCH  14  21
HETATM   21  O2  UNL     1      -1.929  -2.303  -1.308  1.00  0.00    -0.394 OA
ATOM     22  H2  UNL     1      -1.504  -3.150  -1.233  1.00  0.00     0.210 HD
ENDBRANCH  14  21
TORSDOF 4
