REMARK  3 active torsions:
REMARK  status: ('A' for Active; 'I' for Inactive)
REMARK    1  A    between atoms: C7_8  and  O1_9 
REMARK    2  A    between atoms: O1_9  and  C8_10 
REMARK    3  A    between atoms: C8_10  and  C9_12 
ROOT
HETATM    1  O1  UNL     1       0.404  -0.172  -0.392  1.00  0.00    -0.314 OA
ENDROOT
BRANCH   1   2
HETATM    2  C7  UNL     1      -0.780  -0.687   0.240  1.00  0.00     0.136 C 
HETATM    3  C6  UNL     1      -1.411   0.338   1.119  1.00  0.00     0.068 C 
HETATM    4  C5  UNL     1      -2.793   0.740   0.717  1.00  0.00     0.225 C 
HETATM    5  N1  UNL     1      -2.731   0.981  -0.734  1.00  0.00     0.093 N 
HETATM    6  C4  UNL     1      -3.779  -0.390   0.896  1.00  0.00     0.038 C 
HETATM    7  C1  UNL     1      -3.909   1.691  -1.182  1.00  0.00     0.310 C 
HETATM    8  C2  UNL     1      -2.799  -0.371  -1.229  1.00  0.00     0.225 C 
HETATM    9  C3  UNL     1      -4.055  -0.878  -0.512  1.00  0.00     0.038 C 
HETATM   10  C14 UNL     1      -1.657  -1.232  -0.829  1.00  0.00     0.068 C 
ENDBRANCH   1   2
BRANCH   1  11
HETATM   11  C8  UNL     1       1.652  -0.727  -0.140  1.00  0.00     0.295 C 
HETATM   12  O2  UNL     1       1.660  -1.692   0.667  1.00  0.00    -0.262 OA
BRANCH  11  13
HETATM   13  C9  UNL     1       2.901  -0.247  -0.754  1.00  0.00     0.208 C 
HETATM   14  C10 UNL     1       2.892  -0.381  -2.261  1.00  0.00     0.057 C 
HETATM   15  C11 UNL     1       3.228   1.183  -0.394  1.00  0.00     0.051 C 
HETATM   16  C12 UNL     1       4.627   1.095   0.217  1.00  0.00     0.030 C 
HETATM   17  C13 UNL     1       4.671  -0.317   0.755  1.00  0.00     0.234 C 
HETATM   18  N2  UNL     1       3.989  -1.060  -0.259  1.00  0.00    -0.057 N 
ATOM     19  H22 UNL     1       3.681  -1.977   0.064  1.00  0.00     0.278 HD
ATOM     20  H21 UNL     1       4.612  -1.379  -1.001  1.00  0.00     0.278 HD
ENDBRANCH  11  13
ENDBRANCH   1  11
TORSDOF 3
