REMARK  16 active torsions:
REMARK  status: ('A' for Active; 'I' for Inactive)
REMARK    1  A    between atoms: C2_2  and  C3_3 
REMARK    2  A    between atoms: N1_5  and  C5_6 
REMARK    3  A    between atoms: C5_6  and  C6_7 
REMARK    4  A    between atoms: C6_7  and  C7_8 
REMARK    5  A    between atoms: C7_8  and  C8_9 
REMARK    6  A    between atoms: C8_9  and  N2_10 
REMARK    7  A    between atoms: N2_10  and  C9_13 
REMARK    8  A    between atoms: C9_13  and  C10_14 
REMARK    9  A    between atoms: C10_14  and  C11_15 
REMARK   10  A    between atoms: C11_15  and  C12_16 
REMARK   11  A    between atoms: C12_16  and  N3_17 
REMARK   12  A    between atoms: C18_27  and  C19_28 
REMARK   13  A    between atoms: C19_28  and  O2_29 
REMARK   14  A    between atoms: C19_28  and  C20_31 
REMARK   15  A    between atoms: C20_31  and  C21_32 
REMARK   16  A    between atoms: C21_32  and  N4_33 
ROOT
HETATM    1  C3  UNL     1      -2.236  -0.993   0.339  1.00  0.00     0.069 C 
HETATM    2  C4  UNL     1      -0.953  -1.739  -0.071  1.00  0.00     0.146 C 
HETATM    3  N1  UNL     1       0.089  -0.732  -0.055  1.00  0.00    -0.351 N 
HETATM    4  C13 UNL     1      -0.404   0.445   0.554  1.00  0.00     0.225 C 
HETATM    5  O1  UNL     1       0.178   1.540   0.575  1.00  0.00    -0.273 OA
HETATM    6  C14 UNL     1      -1.694   0.111   1.132  1.00  0.00     0.097 C 
HETATM    7  C15 UNL     1      -2.592   1.275   1.385  1.00  0.00     0.015 C 
HETATM    8  C16 UNL     1      -2.611   2.269   0.255  1.00  0.00     0.007 C 
HETATM    9  C17 UNL     1      -4.056   2.348  -0.225  1.00  0.00     0.055 C 
HETATM   10  C18 UNL     1      -4.282   1.556  -1.461  1.00  0.00     0.018 C 
HETATM   11  N5  UNL     1      -3.493   0.368  -1.632  1.00  0.00    -0.331 N 
ATOM     12  H5  UNL     1      -3.250   0.267  -2.618  1.00  0.00     0.168 HD
HETATM   13  C22 UNL     1      -2.936  -0.711  -0.903  1.00  0.00     0.233 C 
HETATM   14  O3  UNL     1      -3.094  -1.823  -1.537  1.00  0.00    -0.272 OA
ENDROOT
BRANCH   3  15
HETATM   15  C5  UNL     1       1.423  -0.964  -0.596  1.00  0.00     0.126 C 
BRANCH  15  16
HETATM   16  C6  UNL     1       2.277  -1.537   0.526  1.00  0.00     0.022 C 
BRANCH  16  17
HETATM   17  C7  UNL     1       3.686  -1.813   0.087  1.00  0.00     0.029 C 
BRANCH  17  18
HETATM   18  C8  UNL     1       4.385  -0.558  -0.378  1.00  0.00     0.232 C 
BRANCH  18  19
HETATM   19  N2  UNL     1       5.749  -0.868  -0.802  1.00  0.00    -0.075 N 
ATOM     20  H22 UNL     1       6.268  -1.366  -0.079  1.00  0.00     0.277 HD
ATOM     21  H21 UNL     1       5.768  -1.588  -1.525  1.00  0.00     0.277 HD
BRANCH  19  22
HETATM   22  C9  UNL     1       6.435   0.340  -1.224  1.00  0.00     0.232 C 
BRANCH  22  23
HETATM   23  C10 UNL     1       6.706   1.258  -0.061  1.00  0.00     0.029 C 
BRANCH  23  24
HETATM   24  C11 UNL     1       7.578   0.590   0.996  1.00  0.00     0.029 C 
BRANCH  24  25
HETATM   25  C12 UNL     1       8.887   0.213   0.344  1.00  0.00     0.229 C 
BRANCH  25  26
HETATM   26  N3  UNL     1       9.508   1.412  -0.149  1.00  0.00    -0.079 N 
ATOM     27  H33 UNL     1       8.898   1.943  -0.771  1.00  0.00     0.274 HD
ATOM     28  H32 UNL     1       9.620   2.122   0.575  1.00  0.00     0.274 HD
ATOM     29  H31 UNL     1      10.392   1.157  -0.589  1.00  0.00     0.274 HD
ENDBRANCH  25  26
ENDBRANCH  24  25
ENDBRANCH  23  24
ENDBRANCH  22  23
ENDBRANCH  19  22
ENDBRANCH  18  19
ENDBRANCH  17  18
ENDBRANCH  16  17
ENDBRANCH  15  16
ENDBRANCH   3  15
BRANCH   1  30
HETATM   30  C2  UNL     1      -3.048  -1.993   1.132  1.00  0.00     0.017 C 
HETATM   31  C1  UNL     1      -2.410  -2.522   2.357  1.00  0.00     0.006 C 
ENDBRANCH   1  30
BRANCH  10  32
HETATM   32  C19 UNL     1      -5.705   1.386  -1.891  1.00  0.00     0.165 C 
BRANCH  32  33
HETATM   33  O2  UNL     1      -6.458   2.550  -1.700  1.00  0.00    -0.390 OA
ATOM     34  H2  UNL     1      -7.361   2.442  -1.973  1.00  0.00     0.210 HD
ENDBRANCH  32  33
BRANCH  32  35
HETATM   35  C20 UNL     1      -6.465   0.237  -1.369  1.00  0.00     0.065 C 
BRANCH  35  36
HETATM   36  C21 UNL     1      -6.623   0.164   0.125  1.00  0.00     0.232 C 
BRANCH  36  37
HETATM   37  N4  UNL     1      -7.398  -0.997   0.531  1.00  0.00    -0.079 N 
ATOM     38  H43 UNL     1      -8.303  -1.022   0.061  1.00  0.00     0.274 HD
ATOM     39  H42 UNL     1      -6.999  -1.858   0.158  1.00  0.00     0.274 HD
ATOM     40  H41 UNL     1      -7.505  -1.047   1.544  1.00  0.00     0.274 HD
ENDBRANCH  36  37
ENDBRANCH  35  36
ENDBRANCH  32  35
ENDBRANCH  10  32
TORSDOF 16
