REMARK  14 active torsions:
REMARK  status: ('A' for Active; 'I' for Inactive)
REMARK    1  A    between atoms: N1_4  and  C4_5 
REMARK    2  A    between atoms: C4_5  and  C5_6 
REMARK    3  A    between atoms: C5_6  and  N2_7 
REMARK    4  A    between atoms: N2_7  and  C6_9 
REMARK    5  A    between atoms: C7_12  and  N4_13 
REMARK    6  A    between atoms: C8_18  and  N6_19 
REMARK    7  A    between atoms: N6_19  and  C9_21 
REMARK    8  A    between atoms: C9_21  and  C10_22 
REMARK    9  A    between atoms: C10_22  and  C11_23 
REMARK   10  A    between atoms: C11_23  and  C12_24 
REMARK   11  A    between atoms: C12_24  and  C13_25 
REMARK   12  A    between atoms: C13_25  and  C14_26 
REMARK   13  A    between atoms: C14_26  and  C15_27 
REMARK   14  A    between atoms: C15_27  and  C16_28 
ROOT
HETATM    1  C6  UNL     1      -0.550   0.678   0.027  1.00  0.00     0.711 A 
HETATM    2  N3  UNL     1      -0.908   0.809  -1.257  1.00  0.00    -0.021 N 
ATOM      3  H3  UNL     1      -1.667   1.439  -1.515  1.00  0.00     0.203 HD
HETATM    4  C7  UNL     1      -0.263   0.107  -2.203  1.00  0.00     0.705 A 
HETATM    5  N5  UNL     1       0.740  -0.725  -1.849  1.00  0.00    -0.022 N 
ATOM      6  H5  UNL     1       1.221  -1.252  -2.578  1.00  0.00     0.203 HD
HETATM    7  C8  UNL     1       1.128  -0.884  -0.575  1.00  0.00     0.707 A 
HETATM    8  N7  UNL     1       0.469  -0.169   0.372  1.00  0.00    -0.021 N 
ATOM      9  H7  UNL     1       0.736  -0.264   1.352  1.00  0.00     0.203 HD
ENDROOT
BRANCH   1  10
HETATM   10  N2  UNL     1      -1.154   1.341   0.930  1.00  0.00    -0.203 N 
ATOM     11  H2  UNL     1      -0.806   1.169   1.873  1.00  0.00     0.183 HD
BRANCH  10  12
HETATM   12  C5  UNL     1      -2.209   2.265   0.871  1.00  0.00     0.098 C 
BRANCH  12  13
HETATM   13  C4  UNL     1      -3.495   1.774   1.520  1.00  0.00     0.162 C 
BRANCH  13  14
HETATM   14  N1  UNL     1      -4.043   0.602   0.939  1.00  0.00    -0.404 N 
HETATM   15  C3  UNL     1      -4.574   0.761  -0.373  1.00  0.00     0.149 C 
HETATM   16  C2  UNL     1      -6.025   1.212  -0.229  1.00  0.00     0.199 C 
HETATM   17  C1  UNL     1      -6.636   1.623  -1.529  1.00  0.00     0.041 C 
HETATM   18  N8  UNL     1      -6.735   0.116   0.353  1.00  0.00    -0.064 N 
HETATM   19  C18 UNL     1      -6.256  -0.240   1.654  1.00  0.00     0.199 C 
ATOM     20  H82 UNL     1      -7.737   0.304   0.374  1.00  0.00     0.278 HD
ATOM     21  H81 UNL     1      -6.728  -0.692  -0.270  1.00  0.00     0.278 HD
HETATM   22  C17 UNL     1      -4.765  -0.271   1.794  1.00  0.00     0.149 C 
HETATM   23  C19 UNL     1      -6.806  -1.639   1.966  1.00  0.00     0.041 C 
ENDBRANCH  13  14
ENDBRANCH  12  13
ENDBRANCH  10  12
ENDBRANCH   1  10
BRANCH   4  24
HETATM   24  N4  UNL     1      -0.612   0.238  -3.427  1.00  0.00    -0.234 N 
ATOM     25  H42 UNL     1      -1.370   0.866  -3.694  1.00  0.00     0.174 HD
ATOM     26  H41 UNL     1      -0.122  -0.295  -4.145  1.00  0.00     0.174 HD
ENDBRANCH   4  24
BRANCH   7  27
HETATM   27  N6  UNL     1       2.089  -1.675  -0.249  1.00  0.00    -0.225 N 
ATOM     28  H6  UNL     1       2.362  -1.776   0.729  1.00  0.00     0.177 HD
BRANCH  27  29
HETATM   29  C9  UNL     1       2.778  -2.418  -1.278  1.00  0.00     0.138 C 
BRANCH  29  30
HETATM   30  C10 UNL     1       3.979  -3.153  -0.709  1.00  0.00     0.020 C 
BRANCH  30  31
HETATM   31  C11 UNL     1       4.957  -2.174  -0.090  1.00  0.00     0.002 C 
BRANCH  31  32
HETATM   32  C12 UNL     1       5.458  -1.182  -1.105  1.00  0.00     0.000 C 
BRANCH  32  33
HETATM   33  C13 UNL     1       6.432  -0.203  -0.496  1.00  0.00     0.001 C 
BRANCH  33  34
HETATM   34  C14 UNL     1       5.782   0.576   0.613  1.00  0.00     0.010 C 
BRANCH  34  35
HETATM   35  C15 UNL     1       6.762   1.576   1.230  1.00  0.00     0.113 C 
BRANCH  35  36
HETATM   36  C16 UNL     1       7.955   0.872   1.797  1.00  0.00     0.172 C 
HETATM   37  O1  UNL     1       7.856   0.202   2.847  1.00  0.00    -0.648 OA
HETATM   38  O2  UNL     1       9.181   0.966   1.147  1.00  0.00    -0.648 OA
ENDBRANCH  35  36
ENDBRANCH  34  35
ENDBRANCH  33  34
ENDBRANCH  32  33
ENDBRANCH  31  32
ENDBRANCH  30  31
ENDBRANCH  29  30
ENDBRANCH  27  29
ENDBRANCH   7  27
TORSDOF 14
