REMARK  9 active torsions:
REMARK  status: ('A' for Active; 'I' for Inactive)
REMARK    1  A    between atoms: C3_6  and  C4_7 
REMARK    2  A    between atoms: C4_7  and  O2_8 
REMARK    3  A    between atoms: C4_7  and  C5_10 
REMARK    4  A    between atoms: C5_10  and  O3_11 
REMARK    5  A    between atoms: C5_10  and  N2_13 
REMARK    6  A    between atoms: N2_13  and  O4_14 
REMARK    7  A    between atoms: O4_14  and  C6_15 
REMARK    8  A    between atoms: C6_15  and  C7_16 
REMARK    9  A    between atoms: C7_16  and  C8_17 
ROOT
HETATM    1  C4  UNL     1       2.240   0.016   1.184  1.00  0.00     0.205 C 
ENDROOT
BRANCH   1   2
HETATM    2  C3  UNL     1       3.467  -0.376   0.490  1.00  0.00     0.058 A 
HETATM    3  C2  UNL     1       3.918   0.198  -0.671  1.00  0.00     0.108 A 
HETATM    4  N1  UNL     1       5.080  -0.232  -1.254  1.00  0.00    -0.318 N 
HETATM    5  C1  UNL     1       5.810  -1.208  -0.730  1.00  0.00     0.326 A 
ATOM      6  H1  UNL     1       5.394   0.212  -2.117  1.00  0.00     0.170 HD
HETATM    7  O1  UNL     1       6.883  -1.577  -1.304  1.00  0.00    -0.247 OA
HETATM    8  N3  UNL     1       5.401  -1.785   0.394  1.00  0.00    -0.275 N 
HETATM    9  C14 UNL     1       4.269  -1.403   1.009  1.00  0.00     0.259 A 
ATOM     10  H3  UNL     1       5.959  -2.536   0.800  1.00  0.00     0.173 HD
HETATM   11  O5  UNL     1       3.937  -1.979   2.058  1.00  0.00    -0.267 OA
ENDBRANCH   1   2
BRANCH   1  12
HETATM   12  O2  UNL     1       1.380  -1.060   1.414  1.00  0.00    -0.387 OA
ATOM     13  H2  UNL     1       0.583  -0.805   1.865  1.00  0.00     0.210 HD
ENDBRANCH   1  12
BRANCH   1  14
HETATM   14  C5  UNL     1       1.443   1.105   0.547  1.00  0.00     0.271 C 
BRANCH  14  15
HETATM   15  O3  UNL     1       2.098   2.318   0.483  1.00  0.00    -0.374 OA
ATOM     16  H3  UNL     1       1.591   3.011   0.077  1.00  0.00     0.212 HD
ENDBRANCH  14  15
BRANCH  14  17
HETATM   17  N2  UNL     1       0.839   0.725  -0.719  1.00  0.00    -0.066 NA
BRANCH  17  18
HETATM   18  O4  UNL     1       0.001  -0.303  -0.593  1.00  0.00    -0.284 OA
BRANCH  18  19
HETATM   19  C6  UNL     1      -1.290   0.163  -0.485  1.00  0.00     0.200 C 
BRANCH  19  20
HETATM   20  C7  UNL     1      -2.302  -0.947  -0.339  1.00  0.00     0.066 C 
BRANCH  20  21
HETATM   21  C8  UNL     1      -3.655  -0.316  -0.231  1.00  0.00    -0.056 A 
HETATM   22  C9  UNL     1      -4.207   0.044   0.984  1.00  0.00     0.007 A 
HETATM   23  C10 UNL     1      -5.455   0.625   1.077  1.00  0.00     0.001 A 
HETATM   24  C11 UNL     1      -6.173   0.855  -0.078  1.00  0.00     0.000 A 
HETATM   25  C12 UNL     1      -5.665   0.515  -1.310  1.00  0.00     0.001 A 
HETATM   26  C13 UNL     1      -4.419  -0.063  -1.369  1.00  0.00     0.007 A 
ENDBRANCH  20  21
ENDBRANCH  19  20
ENDBRANCH  18  19
ENDBRANCH  17  18
ENDBRANCH  14  17
ENDBRANCH   1  14
TORSDOF 9
