REMARK  8 active torsions:
REMARK  status: ('A' for Active; 'I' for Inactive)
REMARK    1  A    between atoms: C2_4  and  C3_5 
REMARK    2  A    between atoms: C4_6  and  O1_7 
REMARK    3  A    between atoms: C5_9  and  C6_10 
REMARK    4  A    between atoms: N2_17  and  C13_18 
REMARK    5  A    between atoms: C13_18  and  C14_19 
REMARK    6  A    between atoms: C13_18  and  C15_22 
REMARK    7  A    between atoms: C14_19  and  O2_20 
REMARK    8  A    between atoms: C15_22  and  N3_23 
ROOT
HETATM    1  C3  UNL     1      -0.929   2.177   0.172  1.00  0.00     0.084 A 
HETATM    2  C4  UNL     1      -2.214   1.702   0.237  1.00  0.00     0.102 A 
HETATM    3  C5  UNL     1      -2.122   0.308   0.108  1.00  0.00    -0.003 A 
HETATM    4  C12 UNL     1      -0.795  -0.029  -0.031  1.00  0.00     0.102 A 
HETATM    5  N2  UNL     1      -0.119   1.102   0.012  1.00  0.00    -0.344 N 
ENDROOT
BRANCH   5   6
HETATM    6  C13 UNL     1       1.350   1.224  -0.093  1.00  0.00     0.141 C 
BRANCH   6   7
HETATM    7  C14 UNL     1       1.751   1.675  -1.437  1.00  0.00     0.191 C 
BRANCH   7   8
HETATM    8  O2  UNL     1       3.071   1.905  -1.676  1.00  0.00    -0.399 OA
ATOM      9  H2  UNL     1       3.330   2.196  -2.543  1.00  0.00     0.209 HD
ENDBRANCH   7   8
ENDBRANCH   6   7
BRANCH   6  10
HETATM   10  C15 UNL     1       1.942  -0.057   0.348  1.00  0.00     0.300 C 
BRANCH  10  11
HETATM   11  N3  UNL     1       3.360  -0.264   0.348  1.00  0.00     0.090 N 
HETATM   12  C16 UNL     1       3.574  -1.382   1.342  1.00  0.00     0.272 C 
HETATM   13  C17 UNL     1       5.031  -1.620   1.461  1.00  0.00     0.030 C 
HETATM   14  C18 UNL     1       5.438  -2.437   0.226  1.00  0.00     0.003 C 
HETATM   15  C19 UNL     1       4.318  -2.273  -0.782  1.00  0.00     0.030 C 
HETATM   16  C20 UNL     1       3.834  -0.859  -0.912  1.00  0.00     0.272 C 
ENDBRANCH  10  11
ENDBRANCH   6  10
ENDBRANCH   5   6
BRANCH   1  17
HETATM   17  C2  UNL     1      -0.466   3.566   0.258  1.00  0.00     0.115 C 
HETATM   18  N1  UNL     1      -1.304   4.515   0.414  1.00  0.00    -0.401 N 
HETATM   19  C1  UNL     1      -0.874   5.889   0.501  1.00  0.00     0.145 C 
ATOM     20  H1  UNL     1      -2.298   4.298   0.479  1.00  0.00     0.158 HD
ENDBRANCH   1  17
BRANCH   2  21
HETATM   21  O1  UNL     1      -3.398   2.391   0.395  1.00  0.00    -0.358 OA
ATOM     22  H1  UNL     1      -4.288   2.062   0.440  1.00  0.00     0.217 HD
ENDBRANCH   2  21
BRANCH   3  23
HETATM   23  C6  UNL     1      -3.259  -0.615   0.125  1.00  0.00     0.023 C 
HETATM   24  C7  UNL     1      -2.748  -2.055   0.059  1.00  0.00     0.009 C 
HETATM   25  C8  UNL     1      -3.957  -2.914   0.433  1.00  0.00     0.001 C 
HETATM   26  C9  UNL     1      -5.040  -2.779  -0.603  1.00  0.00     0.000 C 
HETATM   27  C10 UNL     1      -5.376  -1.337  -0.840  1.00  0.00     0.001 C 
HETATM   28  C11 UNL     1      -4.168  -0.463  -1.102  1.00  0.00     0.009 C 
ENDBRANCH   3  23
TORSDOF 8
