REMARK  7 active torsions:
REMARK  status: ('A' for Active; 'I' for Inactive)
REMARK    1  A    between atoms: C2_2  and  C3_3 
REMARK    2  A    between atoms: C3_3  and  N1_6 
REMARK    3  A    between atoms: N1_6  and  C6_7 
REMARK    4  A    between atoms: C7_8  and  C8_9 
REMARK    5  A    between atoms: C11_16  and  O3_17 
REMARK    6  A    between atoms: C13_19  and  O4_20 
REMARK    7  A    between atoms: C15_22  and  O5_23 
ROOT
HETATM    1  C6  UNL     1      -0.763  -0.934   0.081  1.00  0.00     0.132 A 
HETATM    2  C7  UNL     1      -1.050  -2.284   0.040  1.00  0.00     0.097 A 
HETATM    3  C9  UNL     1       0.051  -3.145  -0.154  1.00  0.00     0.110 A 
HETATM    4  N2  UNL     1       1.299  -2.735  -0.290  1.00  0.00    -0.362 N 
ATOM      5  H2  UNL     1       2.037  -3.426  -0.428  1.00  0.00     0.165 HD
HETATM    6  C10 UNL     1       1.621  -1.435  -0.251  1.00  0.00     0.082 A 
HETATM    7  C11 UNL     1       2.955  -1.071  -0.388  1.00  0.00     0.132 A 
HETATM    8  C13 UNL     1       3.279   0.265  -0.334  1.00  0.00     0.137 A 
HETATM    9  C15 UNL     1       2.293   1.208  -0.150  1.00  0.00     0.105 A 
HETATM   10  C17 UNL     1       0.978   0.784  -0.020  1.00  0.00     0.057 A 
HETATM   11  C18 UNL     1       0.588  -0.547  -0.066  1.00  0.00     0.038 A 
ENDROOT
BRANCH   1  12
HETATM   12  N1  UNL     1      -1.608  -0.077   0.158  1.00  0.00    -0.435 NA
BRANCH  12  13
HETATM   13  C3  UNL     1      -2.672   0.730   0.243  1.00  0.00     0.086 C 
HETATM   14  C4  UNL     1      -2.443   2.256  -0.050  1.00  0.00     0.054 C 
HETATM   15  C5  UNL     1      -3.177   0.810   1.702  1.00  0.00     0.054 C 
BRANCH  13  16
HETATM   16  C2  UNL     1      -3.853   0.474  -0.691  1.00  0.00     0.040 C 
HETATM   17  C1  UNL     1      -5.028   1.339  -0.312  1.00  0.00     0.009 C 
ENDBRANCH  13  16
ENDBRANCH  12  13
ENDBRANCH   1  12
BRANCH   2  18
HETATM   18  C8  UNL     1      -2.333  -2.922   0.268  1.00  0.00     0.214 C 
HETATM   19  O1  UNL     1      -3.276  -2.550   0.940  1.00  0.00    -0.644 OA
HETATM   20  O2  UNL     1      -2.526  -4.167  -0.390  1.00  0.00    -0.644 OA
ENDBRANCH   2  18
BRANCH   7  21
HETATM   21  O3  UNL     1       3.951  -2.019  -0.574  1.00  0.00    -0.351 OA
HETATM   22  C12 UNL     1       4.654  -2.637   0.461  1.00  0.00     0.210 C 
ENDBRANCH   7  21
BRANCH   9  23
HETATM   23  O5  UNL     1       2.628   2.541  -0.097  1.00  0.00    -0.353 OA
HETATM   24  C16 UNL     1       1.736   3.597   0.085  1.00  0.00     0.210 C 
ENDBRANCH   9  23
BRANCH   8  25
HETATM   25  O4  UNL     1       4.594   0.661  -0.466  1.00  0.00    -0.351 OA
HETATM   26  C14 UNL     1       5.114   0.946  -1.749  1.00  0.00     0.210 C 
ENDBRANCH   8  25
TORSDOF 7
