REMARK  7 active torsions:
REMARK  status: ('A' for Active; 'I' for Inactive)
REMARK    1  A    between atoms: C2_2  and  O1_4 
REMARK    2  A    between atoms: O1_4  and  C4_5 
REMARK    3  A    between atoms: C6_7  and  C7_8 
REMARK    4  A    between atoms: C9_13  and  C10_14 
REMARK    5  A    between atoms: C12_16  and  C13_17 
REMARK    6  A    between atoms: C14_18  and  C15_19 
REMARK       I    between atoms: C15_19  and  N2_21 
REMARK    7  A    between atoms: C18_25  and  C19_26 
ROOT
HETATM    1  C10 UNL     1       0.747   0.619   0.401  1.00  0.00    -0.003 A 
HETATM    2  C11 UNL     1       1.777   0.021  -0.268  1.00  0.00     0.042 A 
HETATM    3  C12 UNL     1       3.044   0.354   0.092  1.00  0.00     0.060 A 
HETATM    4  S1  UNL     1       2.799   1.478   1.336  1.00  0.00    -0.080 SA
HETATM    5  C18 UNL     1       1.070   1.502   1.370  1.00  0.00     0.024 A 
ENDROOT
BRANCH   1   6
HETATM    6  C9  UNL     1      -0.650   0.168   0.056  1.00  0.00     0.018 A 
HETATM    7  C8  UNL     1      -1.100   0.317  -1.233  1.00  0.00     0.142 A 
HETATM    8  C6  UNL     1      -2.366  -0.179  -1.552  1.00  0.00     0.071 A 
HETATM    9  F1  UNL     1      -0.382   0.914  -2.193  1.00  0.00    -0.204 F 
HETATM   10  C5  UNL     1      -3.142  -0.806  -0.583  1.00  0.00     0.056 A 
HETATM   11  C4  UNL     1      -2.695  -0.957   0.705  1.00  0.00     0.071 A 
HETATM   12  C23 UNL     1      -1.426  -0.452   0.998  1.00  0.00     0.052 A 
BRANCH   8  13
HETATM   13  C7  UNL     1      -2.898  -0.049  -2.896  1.00  0.00     0.268 C 
HETATM   14  N1  UNL     1      -4.176  -0.545  -3.206  1.00  0.00    -0.057 NA
HETATM   15  O2  UNL     1      -2.217   0.505  -3.777  1.00  0.00    -0.271 OA
ENDBRANCH   8  13
BRANCH  11  16
HETATM   16  O1  UNL     1      -3.446  -1.574   1.678  1.00  0.00    -0.347 OA
BRANCH  16  17
HETATM   17  C2  UNL     1      -4.707  -2.125   1.598  1.00  0.00     0.120 C 
HETATM   18  C1  UNL     1      -4.692  -3.636   1.888  1.00  0.00     0.040 C 
HETATM   19  C3  UNL     1      -5.573  -1.488   2.662  1.00  0.00     0.040 C 
ENDBRANCH  16  17
ENDBRANCH  11  16
ENDBRANCH   1   6
BRANCH   5  20
HETATM   20  C19 UNL     1       0.209   2.386   2.217  1.00  0.00    -0.029 C 
HETATM   21  C20 UNL     1       0.765   3.066   3.178  1.00  0.00    -0.003 C 
HETATM   22  C21 UNL     1      -0.107   3.933   3.996  1.00  0.00     0.168 C 
HETATM   23  S2  UNL     1      -1.359   4.282   2.733  1.00  0.00     0.151 S 
HETATM   24  O4  UNL     1      -2.690   4.528   3.317  1.00  0.00    -0.227 OA
HETATM   25  O5  UNL     1      -0.873   5.285   1.765  1.00  0.00    -0.227 OA
HETATM   26  C22 UNL     1      -1.236   2.601   2.039  1.00  0.00     0.180 C 
ENDBRANCH   5  20
BRANCH   3  27
HETATM   27  C13 UNL     1       4.295  -0.129  -0.448  1.00  0.00    -0.049 C 
HETATM   28  C14 UNL     1       5.347  -0.526  -0.879  1.00  0.00     0.001 C 
BRANCH  28  29
HETATM   29  C15 UNL     1       6.633  -0.994  -1.377  1.00  0.00     0.298 C 
HETATM   30  O3  UNL     1       7.573  -1.258  -0.567  1.00  0.00    -0.258 OA
HETATM   31  N2  UNL     1       6.850  -1.159  -2.742  1.00  0.00    -0.350 N 
HETATM   32  C16 UNL     1       5.800  -0.867  -3.690  1.00  0.00     0.153 C 
HETATM   33  C17 UNL     1       8.125  -1.622  -3.232  1.00  0.00     0.153 C 
ENDBRANCH  28  29
ENDBRANCH   3  27
TORSDOF 7
