REMARK  5 active torsions:
REMARK  status: ('A' for Active; 'I' for Inactive)
REMARK    1  A    between atoms: N1_2  and  C2_3 
REMARK       I    between atoms: N1_2  and  C10_14 
REMARK    2  A    between atoms: C2_3  and  C3_4 
REMARK       I    between atoms: C3_4  and  N2_6 
REMARK    3  A    between atoms: N2_6  and  C4_8 
REMARK    4  A    between atoms: C10_14  and  C11_16 
REMARK    5  A    between atoms: C11_16  and  C12_17 
ROOT
HETATM    1  C1  UNL     1       0.398  -2.939   2.598  1.00  0.00     0.153 C 
HETATM    2  N1  UNL     1       0.200  -1.913   1.576  1.00  0.00    -0.348 N 
HETATM    3  C10 UNL     1      -0.556  -2.150   0.410  1.00  0.00     0.220 C 
HETATM    4  O2  UNL     1      -1.053  -3.294   0.288  1.00  0.00    -0.273 OA
ENDROOT
BRANCH   2   5
HETATM    5  C2  UNL     1       0.813  -0.640   1.806  1.00  0.00     0.227 C 
BRANCH   5   6
HETATM    6  C3  UNL     1       2.175  -0.666   1.194  1.00  0.00     0.235 C 
HETATM    7  O1  UNL     1       2.567  -1.701   0.610  1.00  0.00    -0.272 OA
HETATM    8  N2  UNL     1       2.975   0.483   1.297  1.00  0.00    -0.355 N 
ATOM      9  H2  UNL     1       2.619   1.307   1.782  1.00  0.00     0.162 HD
BRANCH   8  10
HETATM   10  C4  UNL     1       4.299   0.506   0.720  1.00  0.00     0.085 C 
HETATM   11  C5  UNL     1       5.353   0.868   1.723  1.00  0.00     0.030 C 
HETATM   12  C6  UNL     1       6.324   1.771   1.025  1.00  0.00    -0.008 A 
HETATM   13  C7  UNL     1       5.941   3.194   0.870  1.00  0.00     0.010 A 
HETATM   14  C8  UNL     1       5.705   2.216  -0.248  1.00  0.00    -0.008 A 
HETATM   15  C9  UNL     1       4.322   1.600  -0.334  1.00  0.00     0.030 C 
ENDBRANCH   8  10
ENDBRANCH   5   6
ENDBRANCH   2   5
BRANCH   3  16
HETATM   16  C11 UNL     1      -0.757  -1.128  -0.611  1.00  0.00     0.112 C 
BRANCH  16  17
HETATM   17  C12 UNL     1      -2.170  -0.677  -0.746  1.00  0.00    -0.031 C 
HETATM   18  C13 UNL     1      -3.084  -1.790  -1.122  1.00  0.00     0.014 C 
HETATM   19  C14 UNL     1      -4.476  -1.227  -1.359  1.00  0.00    -0.013 C 
HETATM   20  C15 UNL     1      -4.479  -0.152  -2.414  1.00  0.00     0.009 C 
HETATM   21  C19 UNL     1      -4.993  -0.586  -0.072  1.00  0.00     0.009 C 
HETATM   22  C16 UNL     1      -3.536   0.958  -2.008  1.00  0.00    -0.013 C 
HETATM   23  C17 UNL     1      -4.001   1.605  -0.740  1.00  0.00     0.009 C 
HETATM   24  C21 UNL     1      -2.179   0.358  -1.868  1.00  0.00     0.014 C 
HETATM   25  C18 UNL     1      -4.067   0.525   0.317  1.00  0.00    -0.013 C 
HETATM   26  C20 UNL     1      -2.678  -0.022   0.521  1.00  0.00     0.014 C 
ENDBRANCH  16  17
ENDBRANCH   3  16
TORSDOF 5
