REMARK  2 active torsions:
REMARK  status: ('A' for Active; 'I' for Inactive)
REMARK    1  A    between atoms: C2_2  and  O1_4 
REMARK    2  A    between atoms: C2_2  and  C4_6 
ROOT
HETATM    1  C4  UNL     1      -1.709  -0.177  -0.553  1.00  0.00     0.028 C 
HETATM    2  C5  UNL     1      -1.306  -1.644  -0.700  1.00  0.00     0.009 C 
HETATM    3  C6  UNL     1       0.143  -1.691  -0.191  1.00  0.00     0.007 C 
HETATM    4  C7  UNL     1       0.527  -0.249  -0.470  1.00  0.00     0.003 C 
HETATM    5  C8  UNL     1       1.909   0.098  -0.200  1.00  0.00    -0.036 C 
HETATM    6  C9  UNL     1       2.513  -0.301   1.078  1.00  0.00     0.010 C 
HETATM    7  C10 UNL     1       3.272  -1.603   0.894  1.00  0.00     0.001 C 
HETATM    8  C11 UNL     1       3.417  -1.786  -0.569  1.00  0.00     0.001 C 
HETATM    9  C12 UNL     1       2.761  -0.649  -1.245  1.00  0.00     0.010 C 
HETATM   10  C13 UNL     1       2.119   1.563  -0.561  1.00  0.00     0.010 C 
HETATM   11  C14 UNL     1       1.745   2.527   0.493  1.00  0.00     0.001 C 
HETATM   12  C15 UNL     1       0.305   2.866   0.511  1.00  0.00     0.001 C 
HETATM   13  C16 UNL     1      -0.593   1.966  -0.277  1.00  0.00     0.010 C 
HETATM   14  C17 UNL     1      -0.598   0.520   0.150  1.00  0.00    -0.033 C 
HETATM   15  C18 UNL     1      -0.671   0.465   1.632  1.00  0.00     0.016 C 
ENDROOT
BRANCH   1  16
HETATM   16  C2  UNL     1      -3.084  -0.127  -0.105  1.00  0.00     0.055 C 
HETATM   17  C1  UNL     1      -3.874  -0.851  -1.231  1.00  0.00     0.045 C 
HETATM   18  C3  UNL     1      -3.454  -0.858   1.142  1.00  0.00     0.045 C 
BRANCH  16  19
HETATM   19  O1  UNL     1      -3.696   1.119  -0.067  1.00  0.00    -0.390 OA
ATOM     20  H1  UNL     1      -3.213   1.561   0.621  1.00  0.00     0.210 HD
ENDBRANCH  16  19
ENDBRANCH   1  16
TORSDOF 2
