REMARK  2 active torsions:
REMARK  status: ('A' for Active; 'I' for Inactive)
REMARK    1  A    between atoms: N1_5  and  S1_7 
REMARK    2  A    between atoms: S1_7  and  N2_10 
ROOT
HETATM    1  C1  UNL     1      -3.742  -0.649  -0.488  1.00  0.00     0.070 C 
HETATM    2  C2  UNL     1      -2.388  -0.057  -0.210  1.00  0.00     0.024 A 
HETATM    3  C3  UNL     1      -1.299  -0.829   0.067  1.00  0.00     0.062 A 
HETATM    4  C4  UNL     1      -0.036  -0.235   0.324  1.00  0.00     0.115 A 
HETATM    5  N1  UNL     1       0.943  -0.981   0.576  1.00  0.00    -0.261 N 
ATOM      6  H1  UNL     1       0.709  -1.974   0.566  1.00  0.00     0.180 HD
HETATM    7  C5  UNL     1       0.073   1.130   0.289  1.00  0.00     0.287 A 
HETATM    8  O3  UNL     1       1.142   1.780   0.500  1.00  0.00    -0.264 OA
HETATM    9  N4  UNL     1      -1.050   1.842   0.006  1.00  0.00    -0.264 N 
ATOM     10  H4  UNL     1      -0.987   2.860  -0.025  1.00  0.00     0.190 HD
HETATM   11  N5  UNL     1      -2.216   1.276  -0.230  1.00  0.00    -0.302 N 
ATOM     12  H5  UNL     1      -3.018   1.872  -0.436  1.00  0.00     0.186 HD
ENDROOT
BRANCH   5  13
HETATM   13  S1  UNL     1       2.552  -0.682   0.924  1.00  0.00     0.336 S 
HETATM   14  O1  UNL     1       3.293  -1.981   1.252  1.00  0.00    -0.181 OA
HETATM   15  O2  UNL     1       2.672   0.151   2.188  1.00  0.00    -0.181 OA
BRANCH  13  16
HETATM   16  N2  UNL     1       3.432   0.132  -0.298  1.00  0.00    -0.216 N 
HETATM   17  N3  UNL     1       4.473  -0.332  -0.794  1.00  0.00    -0.335 N 
ATOM     18  H32 UNL     1       4.802  -1.234  -0.448  1.00  0.00     0.177 HD
ATOM     19  H31 UNL     1       4.997   0.153  -1.522  1.00  0.00     0.177 HD
ATOM     20  H2  UNL     1       3.089   1.033  -0.632  1.00  0.00     0.201 HD
ENDBRANCH  13  16
ENDBRANCH   5  13
TORSDOF 2
