REMARK  1 active torsions:
REMARK  status: ('A' for Active; 'I' for Inactive)
REMARK    1  A    between atoms: N1_4  and  C4_5 
ROOT
HETATM    1  C4  UNL     1       0.743  -0.548  -0.014  1.00  0.00     0.082 C 
HETATM    2  C5  UNL     1       1.288   0.456  -0.988  1.00  0.00     0.044 C 
HETATM    3  C6  UNL     1       2.790   0.445  -1.066  1.00  0.00     0.115 C 
HETATM    4  N2  UNL     1       3.433   0.283   0.204  1.00  0.00    -0.421 N 
ATOM      5  H2  UNL     1       4.210   0.873   0.501  1.00  0.00     0.153 HD
HETATM    6  C7  UNL     1       2.908  -0.766   1.028  1.00  0.00     0.115 C 
HETATM    7  C8  UNL     1       1.463  -0.411   1.335  1.00  0.00     0.044 C 
ENDROOT
BRANCH   1   8
HETATM    8  N1  UNL     1      -0.653  -0.401   0.137  1.00  0.00    -0.408 N 
HETATM    9  C3  UNL     1      -1.118   0.818   0.691  1.00  0.00     0.117 C 
HETATM   10  C2  UNL     1      -2.587   0.638   1.090  1.00  0.00     0.019 C 
HETATM   11  C1  UNL     1      -3.410   0.266  -0.127  1.00  0.00     0.003 C 
HETATM   12  C10 UNL     1      -2.488   0.028  -1.329  1.00  0.00     0.019 C 
HETATM   13  C9  UNL     1      -1.464  -0.987  -0.870  1.00  0.00     0.117 C 
ENDBRANCH   1   8
TORSDOF 1
