REMARK  10 active torsions:
REMARK  status: ('A' for Active; 'I' for Inactive)
REMARK    1  A    between atoms: O1_2  and  C2_3 
REMARK    2  A    between atoms: C6_7  and  N1_8 
REMARK    3  A    between atoms: C9_11  and  N2_13 
REMARK    4  A    between atoms: N2_13  and  C10_16 
REMARK    5  A    between atoms: C10_16  and  C11_17 
REMARK    6  A    between atoms: C11_17  and  C12_18 
REMARK    7  A    between atoms: C12_18  and  O2_19 
REMARK    8  A    between atoms: C18_27  and  C19_28 
REMARK    9  A    between atoms: C20_29  and  C21_30 
REMARK   10  A    between atoms: C25_34  and  N3_35 
ROOT
HETATM    1  C2  UNL     1      -2.530  -2.251  -1.040  1.00  0.00     0.096 A 
HETATM    2  C3  UNL     1      -1.429  -3.025  -1.341  1.00  0.00    -0.025 A 
HETATM    3  C4  UNL     1      -1.576  -4.336  -2.027  1.00  0.00     0.051 C 
HETATM    4  C5  UNL     1      -0.192  -2.525  -0.976  1.00  0.00     0.042 A 
HETATM    5  C6  UNL     1      -0.022  -1.295  -0.330  1.00  0.00     0.071 A 
HETATM    6  C17 UNL     1      -1.147  -0.568  -0.055  1.00  0.00     0.164 A 
HETATM    7  F2  UNL     1      -1.055   0.636   0.552  1.00  0.00    -0.202 F 
HETATM    8  C18 UNL     1      -2.416  -1.039  -0.408  1.00  0.00     0.092 A 
ENDROOT
BRANCH   5   9
HETATM    9  N1  UNL     1       1.278  -0.846   0.047  1.00  0.00    -0.378 N 
HETATM   10  C7  UNL     1       2.412  -1.439  -0.630  1.00  0.00     0.128 C 
HETATM   11  C8  UNL     1       3.604  -0.536  -0.767  1.00  0.00     0.094 C 
HETATM   12  C9  UNL     1       3.735   0.456   0.350  1.00  0.00     0.268 C 
HETATM   13  F1  UNL     1       3.258   1.674  -0.072  1.00  0.00    -0.211 F 
HETATM   14  C15 UNL     1       2.901   0.022   1.561  1.00  0.00     0.094 C 
HETATM   15  C16 UNL     1       1.451   0.131   1.079  1.00  0.00     0.128 C 
BRANCH  12  16
HETATM   16  N2  UNL     1       5.101   0.555   0.819  1.00  0.00    -0.037 N 
ATOM     17  H22 UNL     1       5.163   1.128   1.661  1.00  0.00     0.281 HD
ATOM     18  H21 UNL     1       5.425  -0.332   1.204  1.00  0.00     0.281 HD
BRANCH  16  19
HETATM   19  C10 UNL     1       5.997   1.039  -0.214  1.00  0.00     0.247 C 
BRANCH  19  20
HETATM   20  C11 UNL     1       7.418   1.132   0.301  1.00  0.00     0.005 A 
HETATM   21  C13 UNL     1       7.967   0.080   1.183  1.00  0.00     0.014 A 
HETATM   22  C14 UNL     1       7.720   1.471   1.697  1.00  0.00     0.014 A 
BRANCH  20  23
HETATM   23  C12 UNL     1       8.407   1.641  -0.752  1.00  0.00     0.175 C 
BRANCH  23  24
HETATM   24  O2  UNL     1       7.973   2.905  -1.123  1.00  0.00    -0.400 OA
ATOM     25  H2  UNL     1       8.586   3.221  -1.776  1.00  0.00     0.209 HD
ENDBRANCH  23  24
ENDBRANCH  20  23
ENDBRANCH  19  20
ENDBRANCH  16  19
ENDBRANCH  12  16
ENDBRANCH   5   9
BRANCH   8  26
HETATM   26  C19 UNL     1      -3.596  -0.286  -0.127  1.00  0.00    -0.055 C 
HETATM   27  C20 UNL     1      -4.580   0.369   0.106  1.00  0.00    -0.059 C 
BRANCH  27  28
HETATM   28  C21 UNL     1      -5.747   1.177   0.376  1.00  0.00     0.046 A 
HETATM   29  C22 UNL     1      -6.938   0.640   0.821  1.00  0.00    -0.038 A 
HETATM   30  C23 UNL     1      -7.032  -0.833   1.034  1.00  0.00     0.050 C 
HETATM   31  C24 UNL     1      -7.998   1.498   1.051  1.00  0.00     0.056 A 
HETATM   32  C25 UNL     1      -7.908   2.854   0.853  1.00  0.00     0.099 A 
HETATM   33  N4  UNL     1      -6.741   3.343   0.422  1.00  0.00    -0.345 N 
HETATM   34  C26 UNL     1      -5.685   2.554   0.185  1.00  0.00     0.026 A 
ATOM     35  H4  UNL     1      -6.652   4.348   0.269  1.00  0.00     0.167 HD
HETATM   36  C27 UNL     1      -4.392   3.122  -0.295  1.00  0.00     0.070 C 
BRANCH  32  37
HETATM   37  N3  UNL     1      -8.925   3.630   1.080  1.00  0.00    -0.385 N 
ATOM     38  H32 UNL     1      -9.816   3.257   1.409  1.00  0.00     0.157 HD
ATOM     39  H31 UNL     1      -8.858   4.637   0.933  1.00  0.00     0.157 HD
ENDBRANCH  32  37
ENDBRANCH  27  28
ENDBRANCH   8  26
BRANCH   1  40
HETATM   40  O1  UNL     1      -3.788  -2.700  -1.380  1.00  0.00    -0.354 OA
HETATM   41  C1  UNL     1      -4.589  -3.494  -0.523  1.00  0.00     0.210 C 
ENDBRANCH   1  40
TORSDOF 10
