REMARK  6 active torsions:
REMARK  status: ('A' for Active; 'I' for Inactive)
REMARK    1  A    between atoms: O1_2  and  C2_3 
REMARK    2  A    between atoms: C5_6  and  C6_7 
REMARK    3  A    between atoms: C8_13  and  S1_14 
REMARK    4  A    between atoms: C10_23  and  C11_24 
REMARK    5  A    between atoms: C14_27  and  O5_28 
REMARK    6  A    between atoms: O5_28  and  C15_29 
ROOT
HETATM    1  C11 UNL     1       0.146   0.929  -0.690  1.00  0.00    -0.020 A 
HETATM    2  C12 UNL     1       0.371   0.003  -1.674  1.00  0.00     0.015 A 
HETATM    3  C13 UNL     1       1.586  -0.631  -1.779  1.00  0.00     0.040 A 
HETATM    4  C14 UNL     1       2.648  -0.370  -0.900  1.00  0.00     0.097 A 
HETATM    5  C21 UNL     1       2.429   0.559   0.089  1.00  0.00     0.079 A 
HETATM    6  C22 UNL     1       3.459   0.898   1.031  1.00  0.00     0.102 C 
HETATM    7  N5  UNL     1       4.273   1.189   1.786  1.00  0.00    -0.191 NA
HETATM    8  C23 UNL     1       1.183   1.191   0.176  1.00  0.00     0.038 A 
ENDROOT
BRANCH   4   9
HETATM    9  O5  UNL     1       3.793  -1.056  -1.107  1.00  0.00    -0.306 OA
BRANCH   9  10
HETATM   10  C15 UNL     1       4.488  -1.925  -0.340  1.00  0.00     0.114 A 
HETATM   11  C16 UNL     1       5.801  -1.666  -0.020  1.00  0.00     0.040 A 
HETATM   12  C17 UNL     1       6.553  -2.514   0.756  1.00  0.00     0.003 A 
HETATM   13  C18 UNL     1       5.979  -3.670   1.236  1.00  0.00     0.003 A 
HETATM   14  C19 UNL     1       4.667  -3.936   0.921  1.00  0.00     0.045 A 
HETATM   15  C20 UNL     1       3.919  -3.084   0.144  1.00  0.00     0.150 A 
HETATM   16  F1  UNL     1       2.609  -3.399  -0.141  1.00  0.00    -0.203 F 
ENDBRANCH   9  10
ENDBRANCH   4   9
BRANCH   1  17
HETATM   17  C10 UNL     1      -1.127   1.630  -0.534  1.00  0.00     0.034 A 
HETATM   18  C6  UNL     1      -2.347   1.071  -0.247  1.00  0.00     0.057 A 
HETATM   19  N1  UNL     1      -3.268   2.053  -0.187  1.00  0.00    -0.339 N 
HETATM   20  C7  UNL     1      -2.703   3.251  -0.423  1.00  0.00     0.137 A 
ATOM     21  H1  UNL     1      -4.258   1.908   0.010  1.00  0.00     0.167 HD
HETATM   22  N2  UNL     1      -3.186   4.523  -0.475  1.00  0.00    -0.314 N 
HETATM   23  C9  UNL     1      -1.363   2.990  -0.641  1.00  0.00     0.105 A 
HETATM   24  C8  UNL     1      -2.338   5.533  -0.743  1.00  0.00     0.241 A 
ATOM     25  H2  UNL     1      -4.176   4.708  -0.313  1.00  0.00     0.170 HD
HETATM   26  N3  UNL     1      -1.038   5.276  -0.954  1.00  0.00    -0.273 N 
HETATM   27  N4  UNL     1      -0.569   4.042  -0.903  1.00  0.00    -0.294 N 
ATOM     28  H3  UNL     1      -0.401   6.046  -1.157  1.00  0.00     0.189 HD
ATOM     29  H4  UNL     1       0.425   3.883  -1.067  1.00  0.00     0.187 HD
BRANCH  18  30
HETATM   30  C5  UNL     1      -2.642  -0.321  -0.039  1.00  0.00    -0.008 A 
HETATM   31  C4  UNL     1      -3.513  -0.991  -0.857  1.00  0.00     0.016 A 
HETATM   32  C3  UNL     1      -3.816  -2.332  -0.678  1.00  0.00     0.037 A 
HETATM   33  C2  UNL     1      -3.227  -3.025   0.351  1.00  0.00     0.068 A 
HETATM   34  C25 UNL     1      -2.350  -2.374   1.183  1.00  0.00     0.037 A 
HETATM   35  C24 UNL     1      -2.057  -1.018   0.988  1.00  0.00     0.016 A 
BRANCH  33  36
HETATM   36  O1  UNL     1      -3.497  -4.379   0.576  1.00  0.00    -0.356 OA
HETATM   37  C1  UNL     1      -2.887  -5.063   1.628  1.00  0.00     0.210 C 
ENDBRANCH  33  36
ENDBRANCH  18  30
BRANCH  24  38
HETATM   38  S1  UNL     1      -2.857   7.199  -0.832  1.00  0.00     0.173 S 
HETATM   39  O2  UNL     1      -1.942   7.981  -1.740  1.00  0.00    -0.589 OA
HETATM   40  O3  UNL     1      -4.268   7.296  -1.343  1.00  0.00    -0.589 OA
HETATM   41  O4  UNL     1      -2.726   7.867   0.699  1.00  0.00    -0.589 OA
ENDBRANCH  24  38
ENDBRANCH   1  17
TORSDOF 6
