REMARK  11 active torsions:
REMARK  status: ('A' for Active; 'I' for Inactive)
REMARK    1  A    between atoms: C2_2  and  C4_4 
REMARK    2  A    between atoms: C4_4  and  O1_5 
REMARK    3  A    between atoms: C4_4  and  C5_7 
REMARK    4  A    between atoms: C6_8  and  C7_9 
REMARK    5  A    between atoms: C8_10  and  C9_11 
REMARK    6  A    between atoms: C8_10  and  C30_40 
REMARK    7  A    between atoms: C12_14  and  O2_15 
REMARK    8  A    between atoms: C13_17  and  O3_18 
REMARK    9  A    between atoms: C14_20  and  O4_21 
REMARK   10  A    between atoms: C17_25  and  C18_26 
REMARK   11  A    between atoms: C30_40  and  O6_43 
ROOT
HETATM    1  C9  UNL     1       1.463  -1.274  -0.975  1.00  0.00    -0.043 C 
HETATM    2  C10 UNL     1       2.090  -1.258  -2.444  1.00  0.00     0.049 C 
HETATM    3  C11 UNL     1       0.055  -1.468  -1.219  1.00  0.00    -0.008 C 
HETATM    4  C12 UNL     1      -0.564  -2.730  -1.688  1.00  0.00     0.082 C 
HETATM    5  C13 UNL     1      -1.698  -3.336  -0.957  1.00  0.00     0.204 C 
HETATM    6  C14 UNL     1      -2.697  -2.406  -0.386  1.00  0.00     0.158 C 
HETATM    7  C15 UNL     1      -2.305  -1.030  -0.917  1.00  0.00     0.034 C 
HETATM    8  C16 UNL     1      -3.455  -0.113  -0.830  1.00  0.00     0.019 C 
HETATM    9  C17 UNL     1      -3.709   0.692   0.370  1.00  0.00     0.038 C 
HETATM   10  C21 UNL     1      -2.866   1.889   0.574  1.00  0.00     0.051 C 
HETATM   11 CL1  UNL     1      -3.080   2.423   2.283  1.00  0.00    -0.118 Cl
HETATM   12  C22 UNL     1      -3.302   3.061  -0.270  1.00  0.00     0.027 C 
HETATM   13  C23 UNL     1      -2.089   3.921  -0.314  1.00  0.00     0.002 C 
HETATM   14  C24 UNL     1      -0.922   3.138   0.173  1.00  0.00     0.010 C 
HETATM   15  C25 UNL     1      -1.400   1.709   0.397  1.00  0.00     0.048 C 
HETATM   16  C26 UNL     1      -0.911   0.854  -0.706  1.00  0.00     0.100 A 
HETATM   17  C27 UNL     1      -1.191   1.290  -2.150  1.00  0.00     0.208 A 
HETATM   18  O5  UNL     1       0.014   1.416  -1.543  1.00  0.00    -0.373 OA
HETATM   19  C28 UNL     1      -0.961  -0.626  -0.397  1.00  0.00     0.026 C 
HETATM   20  C29 UNL     1      -0.738  -0.831   1.036  1.00  0.00     0.024 C 
ENDROOT
BRANCH   1  21
HETATM   21  C8  UNL     1       2.471  -1.802  -0.093  1.00  0.00    -0.018 C 
HETATM   22  C7  UNL     1       3.120  -0.940   0.677  1.00  0.00     0.010 C 
BRANCH  22  23
HETATM   23  C6  UNL     1       2.992   0.487   0.785  1.00  0.00    -0.001 C 
HETATM   24  C5  UNL     1       3.734   1.224   1.627  1.00  0.00     0.009 C 
BRANCH  24  25
HETATM   25  C4  UNL     1       3.616   2.674   1.747  1.00  0.00     0.169 C 
BRANCH  25  26
HETATM   26  C2  UNL     1       4.674   3.345   0.944  1.00  0.00    -0.061 C 
HETATM   27  C1  UNL     1       4.386   4.182  -0.041  1.00  0.00     0.017 C 
HETATM   28  C3  UNL     1       6.122   3.092   1.228  1.00  0.00     0.045 C 
ENDBRANCH  25  26
BRANCH  25  29
HETATM   29  O1  UNL     1       3.746   3.096   3.060  1.00  0.00    -0.387 OA
ATOM     30  H1  UNL     1       3.071   2.668   3.573  1.00  0.00     0.210 HD
ENDBRANCH  25  29
ENDBRANCH  24  25
ENDBRANCH  22  23
BRANCH  21  31
HETATM   31  C30 UNL     1       2.952  -3.175   0.114  1.00  0.00     0.078 C 
HETATM   32  C31 UNL     1       4.251  -3.279   0.942  1.00  0.00     0.051 C 
HETATM   33  C32 UNL     1       2.077  -4.078   0.940  1.00  0.00     0.051 C 
BRANCH  31  34
HETATM   34  O6  UNL     1       3.405  -3.798  -1.079  1.00  0.00    -0.386 OA
ATOM     35  H6  UNL     1       3.716  -4.686  -0.945  1.00  0.00     0.211 HD
ENDBRANCH  31  34
ENDBRANCH  21  31
ENDBRANCH   1  21
BRANCH   4  36
HETATM   36  O2  UNL     1       0.290  -3.757  -2.053  1.00  0.00    -0.362 OA
ATOM     37  H2  UNL     1      -0.107  -4.566  -2.354  1.00  0.00     0.217 HD
ENDBRANCH   4  36
BRANCH   5  38
HETATM   38  O3  UNL     1      -1.335  -4.276   0.004  1.00  0.00    -0.386 OA
ATOM     39  H3  UNL     1      -2.063  -4.665   0.474  1.00  0.00     0.210 HD
ENDBRANCH   5  38
BRANCH   6  40
HETATM   40  O4  UNL     1      -2.857  -2.453   0.974  1.00  0.00    -0.392 OA
ATOM     41  H4  UNL     1      -3.498  -1.856   1.341  1.00  0.00     0.210 HD
ENDBRANCH   6  40
BRANCH   9  42
HETATM   42  C18 UNL     1      -5.136   1.145   0.360  1.00  0.00    -0.087 C 
HETATM   43  C19 UNL     1      -5.956   1.043  -0.669  1.00  0.00     0.014 C 
HETATM   44  C20 UNL     1      -5.764   1.726   1.607  1.00  0.00     0.043 C 
ENDBRANCH   9  42
TORSDOF 11
