REMARK  13 active torsions:
REMARK  status: ('A' for Active; 'I' for Inactive)
REMARK    1  A    between atoms: C2_2  and  C5_6 
REMARK    2  A    between atoms: C8_9  and  C10_11 
REMARK    3  A    between atoms: C10_11  and  C12_13 
REMARK    4  A    between atoms: C12_13  and  O1_14 
REMARK    5  A    between atoms: C12_13  and  C13_16 
REMARK    6  A    between atoms: C13_16  and  C14_17 
REMARK    7  A    between atoms: C14_17  and  C15_18 
REMARK    8  A    between atoms: C15_18  and  C16_19 
REMARK    9  A    between atoms: C15_18  and  C17_22 
REMARK   10  A    between atoms: C16_19  and  O2_20 
REMARK   11  A    between atoms: C22_27  and  O3_28 
REMARK   12  A    between atoms: C23_30  and  O4_32 
REMARK   13  A    between atoms: C25_34  and  O5_35 
ROOT
HETATM    1  C1  UNL     1      -5.554  -2.808  -0.945  1.00  0.00     0.049 C 
HETATM    2  C2  UNL     1      -6.225  -1.677  -1.604  1.00  0.00    -0.052 C 
HETATM    3  C3  UNL     1      -7.413  -1.985  -2.186  1.00  0.00     0.100 C 
HETATM    4  C4  UNL     1      -7.913  -3.303  -2.127  1.00  0.00     0.088 C 
HETATM    5  N1  UNL     1      -8.338  -4.377  -2.096  1.00  0.00    -0.192 NA
ENDROOT
BRANCH   2   6
HETATM    6  C5  UNL     1      -5.779  -0.300  -1.637  1.00  0.00     0.011 C 
HETATM    7  C6  UNL     1      -4.711   0.298  -1.203  1.00  0.00    -0.070 C 
HETATM    8  C7  UNL     1      -3.617  -0.390  -0.527  1.00  0.00     0.047 C 
HETATM    9  C31 UNL     1      -4.660   1.823  -1.363  1.00  0.00    -0.013 C 
HETATM   10  C8  UNL     1      -2.249   0.272  -0.654  1.00  0.00    -0.008 C 
HETATM   11  C9  UNL     1      -1.725  -0.164  -2.039  1.00  0.00     0.018 C 
HETATM   12  C25 UNL     1      -2.298   1.752  -0.683  1.00  0.00     0.133 C 
HETATM   13  C26 UNL     1      -3.282   2.137  -1.778  1.00  0.00     0.046 C 
HETATM   14  C27 UNL     1      -3.017   3.530  -2.276  1.00  0.00     0.090 C 
HETATM   15 CL1  UNL     1      -2.737   4.716  -1.004  1.00  0.00    -0.124 Cl
HETATM   16  C28 UNL     1      -4.147   4.005  -3.150  1.00  0.00     0.021 C 
HETATM   17  C29 UNL     1      -5.483   3.804  -2.532  1.00  0.00     0.002 C 
HETATM   18  C30 UNL     1      -5.690   2.290  -2.336  1.00  0.00     0.014 C 
HETATM   19  C32 UNL     1      -5.038   2.334   0.011  1.00  0.00     0.021 C 
BRANCH  10  20
HETATM   20  C10 UNL     1      -1.344  -0.369   0.340  1.00  0.00     0.021 C 
HETATM   21  C11 UNL     1      -1.772  -0.222   1.780  1.00  0.00     0.013 C 
BRANCH  20  22
HETATM   22  C12 UNL     1       0.120  -0.135   0.136  1.00  0.00     0.122 C 
BRANCH  22  23
HETATM   23  O1  UNL     1       0.479   1.203   0.209  1.00  0.00    -0.395 OA
ATOM     24  H1  UNL     1       1.408   1.352   0.080  1.00  0.00     0.210 HD
ENDBRANCH  22  23
BRANCH  22  25
HETATM   25  C13 UNL     1       0.987  -0.867   1.174  1.00  0.00     0.032 C 
BRANCH  25  26
HETATM   26  C14 UNL     1       2.428  -0.580   0.876  1.00  0.00     0.010 C 
BRANCH  26  27
HETATM   27  C15 UNL     1       3.388  -1.246   1.812  1.00  0.00     0.016 C 
BRANCH  27  28
HETATM   28  C16 UNL     1       3.219  -2.727   1.744  1.00  0.00     0.169 C 
BRANCH  28  29
HETATM   29  O2  UNL     1       3.456  -3.219   0.459  1.00  0.00    -0.400 OA
ATOM     30  H2  UNL     1       3.348  -4.162   0.416  1.00  0.00     0.209 HD
ENDBRANCH  28  29
ENDBRANCH  27  28
BRANCH  27  31
HETATM   31  C17 UNL     1       4.799  -0.767   1.561  1.00  0.00     0.028 C 
HETATM   32  C18 UNL     1       5.284  -1.035   0.156  1.00  0.00     0.009 C 
HETATM   33  C19 UNL     1       6.518  -0.144  -0.063  1.00  0.00     0.007 C 
HETATM   34  C20 UNL     1       7.593  -0.597   0.888  1.00  0.00     0.013 C 
HETATM   35  C21 UNL     1       8.840   0.225   0.748  1.00  0.00     0.012 C 
HETATM   36  C22 UNL     1       7.078  -0.443   2.306  1.00  0.00     0.156 C 
HETATM   37  C23 UNL     1       5.824  -1.324   2.492  1.00  0.00     0.084 C 
HETATM   38  C24 UNL     1       5.469  -1.279   3.941  1.00  0.00     0.049 C 
BRANCH  36  39
HETATM   39  O3  UNL     1       8.034  -0.780   3.251  1.00  0.00    -0.392 OA
ATOM     40  H3  UNL     1       7.711  -0.684   4.139  1.00  0.00     0.210 HD
ENDBRANCH  36  39
BRANCH  37  41
HETATM   41  O4  UNL     1       6.151  -2.638   2.120  1.00  0.00    -0.387 OA
ATOM     42  H4  UNL     1       6.803  -2.993   2.713  1.00  0.00     0.210 HD
ENDBRANCH  37  41
ENDBRANCH  27  31
ENDBRANCH  26  27
ENDBRANCH  25  26
ENDBRANCH  22  25
ENDBRANCH  20  22
ENDBRANCH  10  20
BRANCH  12  43
HETATM   43  O5  UNL     1      -2.511   2.371   0.514  1.00  0.00    -0.394 OA
ATOM     44  H5  UNL     1      -2.542   3.320   0.495  1.00  0.00     0.210 HD
ENDBRANCH  12  43
ENDBRANCH   2   6
TORSDOF 13
