REMARK  7 active torsions:
REMARK  status: ('A' for Active; 'I' for Inactive)
REMARK    1  A    between atoms: N1_1  and  C1_4 
REMARK    2  A    between atoms: C2_7  and  C3_8 
REMARK    3  A    between atoms: C6_12  and  C7_13 
REMARK    4  A    between atoms: N5_22  and  C14_23 
REMARK    5  A    between atoms: C14_23  and  C15_24 
REMARK    6  A    between atoms: C21_33  and  O2_34 
REMARK    7  A    between atoms: O2_34  and  C22_35 
ROOT
HETATM    1  C3  UNL     1       1.300   0.808  -0.928  1.00  0.00     0.080 A 
HETATM    2  C4  UNL     1       0.790  -0.456  -1.104  1.00  0.00     0.134 A 
HETATM    3  N3  UNL     1      -0.368  -0.760  -0.490  1.00  0.00    -0.165 N 
HETATM    4  C5  UNL     1      -1.122  -1.897  -0.457  1.00  0.00     0.145 A 
HETATM    5  C6  UNL     1      -2.237  -1.702   0.331  1.00  0.00     0.076 A 
HETATM    6  N4  UNL     1      -2.140  -0.435   0.765  1.00  0.00    -0.188 N 
ATOM      7  H4  UNL     1      -2.813   0.029   1.375  1.00  0.00     0.184 HD
HETATM    8  C13 UNL     1      -1.008   0.138   0.269  1.00  0.00     0.698 A 
HETATM    9  N5  UNL     1      -0.510   1.402   0.452  1.00  0.00    -0.118 N 
HETATM   10  C20 UNL     1       0.642   1.728  -0.149  1.00  0.00     0.280 A 
HETATM   11  O1  UNL     1       1.110   2.870   0.005  1.00  0.00    -0.266 OA
ENDROOT
BRANCH   1  12
HETATM   12  C2  UNL     1       2.556   1.266  -1.586  1.00  0.00     0.101 A 
HETATM   13  N2  UNL     1       2.475   2.277  -2.460  1.00  0.00    -0.188 N 
HETATM   14  C1  UNL     1       3.566   2.752  -3.043  1.00  0.00     0.676 A 
ATOM     15  H2  UNL     1       1.566   2.685  -2.679  1.00  0.00     0.184 HD
HETATM   16  N7  UNL     1       4.798   2.231  -2.774  1.00  0.00    -0.199 N 
HETATM   17  C28 UNL     1       4.908   1.237  -1.919  1.00  0.00     0.145 A 
ATOM     18  H7  UNL     1       5.627   2.609  -3.232  1.00  0.00     0.183 HD
HETATM   19  C21 UNL     1       3.764   0.700  -1.274  1.00  0.00     0.120 A 
BRANCH  14  20
HETATM   20  N1  UNL     1       3.479   3.723  -3.879  1.00  0.00    -0.234 N 
ATOM     21  H12 UNL     1       2.558   4.112  -4.080  1.00  0.00     0.174 HD
ATOM     22  H11 UNL     1       4.319   4.089  -4.328  1.00  0.00     0.174 HD
ENDBRANCH  14  20
BRANCH  19  23
HETATM   23  O2  UNL     1       3.914  -0.270  -0.438  1.00  0.00    -0.307 OA
BRANCH  23  24
HETATM   24  C22 UNL     1       4.030  -1.254   0.346  1.00  0.00     0.076 A 
HETATM   25  C23 UNL     1       3.643  -2.566   0.049  1.00  0.00     0.040 A 
HETATM   26  C24 UNL     1       3.790  -3.601   0.939  1.00  0.00     0.045 A 
HETATM   27  C25 UNL     1       4.335  -3.376   2.177  1.00  0.00     0.116 A 
HETATM   28  F1  UNL     1       4.497  -4.364   3.075  1.00  0.00    -0.206 F 
HETATM   29  C26 UNL     1       4.731  -2.112   2.521  1.00  0.00     0.045 A 
HETATM   30  C27 UNL     1       4.584  -1.079   1.635  1.00  0.00     0.040 A 
ENDBRANCH  23  24
ENDBRANCH  19  23
ENDBRANCH   1  12
BRANCH   9  31
HETATM   31  C14 UNL     1      -1.277   2.280   1.292  1.00  0.00     0.148 C 
BRANCH  31  32
HETATM   32  C15 UNL     1      -2.269   3.100   0.626  1.00  0.00     0.048 A 
HETATM   33  C16 UNL     1      -2.006   4.408   0.291  1.00  0.00     0.031 A 
HETATM   34  C17 UNL     1      -2.986   5.181  -0.355  1.00  0.00     0.004 A 
HETATM   35  C18 UNL     1      -4.209   4.624  -0.649  1.00  0.00     0.017 A 
HETATM   36  C19 UNL     1      -4.431   3.313  -0.296  1.00  0.00     0.088 A 
HETATM   37  N6  UNL     1      -3.473   2.606   0.319  1.00  0.00    -0.365 N 
ATOM     38  H6  UNL     1      -3.673   1.637   0.567  1.00  0.00     0.165 HD
ENDBRANCH  31  32
ENDBRANCH   9  31
BRANCH   5  39
HETATM   39  C7  UNL     1      -3.287  -2.669   0.631  1.00  0.00    -0.007 A 
HETATM   40  C8  UNL     1      -4.330  -2.289   1.480  1.00  0.00     0.014 A 
HETATM   41  C9  UNL     1      -5.344  -3.163   1.792  1.00  0.00     0.001 A 
HETATM   42  C10 UNL     1      -5.394  -4.443   1.297  1.00  0.00     0.000 A 
HETATM   43  C11 UNL     1      -4.352  -4.827   0.447  1.00  0.00     0.001 A 
HETATM   44  C12 UNL     1      -3.331  -3.947   0.132  1.00  0.00     0.014 A 
ENDBRANCH   5  39
TORSDOF 7
