REMARK  13 active torsions:
REMARK  status: ('A' for Active; 'I' for Inactive)
REMARK    1  A    between atoms: C3_3  and  C4_4 
REMARK    2  A    between atoms: C4_4  and  C5_5 
REMARK    3  A    between atoms: C4_4  and  O2_10 
REMARK    4  A    between atoms: C5_5  and  C6_6 
REMARK    5  A    between atoms: C6_6  and  O1_7 
REMARK    6  A    between atoms: O2_10  and  C7_11 
REMARK    7  A    between atoms: C7_11  and  C8_13 
REMARK    8  A    between atoms: C8_13  and  C9_14 
REMARK    9  A    between atoms: C9_14  and  C10_15 
REMARK   10  A    between atoms: C10_15  and  O4_16 
REMARK   11  A    between atoms: C10_15  and  C11_18 
REMARK   12  A    between atoms: C11_18  and  O5_19 
REMARK   13  A    between atoms: C16_25  and  C17_26 
ROOT
HETATM    1  C11 UNL     1      -0.553   0.037  -0.304  1.00  0.00     0.092 C 
HETATM    2  C12 UNL     1      -0.651  -0.837   0.929  1.00  0.00     0.042 C 
HETATM    3  C13 UNL     1      -1.686  -0.118   1.798  1.00  0.00     0.012 C 
HETATM    4  C14 UNL     1      -2.398   0.796   0.836  1.00  0.00     0.020 C 
HETATM    5  C15 UNL     1      -3.833   0.799   1.083  1.00  0.00    -0.018 C 
HETATM    6  C16 UNL     1      -4.605  -0.133   0.560  1.00  0.00    -0.075 C 
HETATM    7  C21 UNL     1      -3.991  -1.176  -0.273  1.00  0.00     0.039 C 
HETATM    8  C22 UNL     1      -2.823  -0.755  -1.094  1.00  0.00    -0.003 C 
HETATM    9  C23 UNL     1      -3.361  -0.453  -2.498  1.00  0.00     0.011 C 
HETATM   10  C24 UNL     1      -2.005   0.345  -0.548  1.00  0.00    -0.000 C 
HETATM   11  C25 UNL     1      -2.068   1.569  -1.439  1.00  0.00     0.019 C 
ENDROOT
BRANCH   1  12
HETATM   12  C10 UNL     1       0.202  -0.549  -1.416  1.00  0.00     0.153 C 
BRANCH  12  13
HETATM   13  C9  UNL     1       1.587  -1.015  -1.135  1.00  0.00     0.044 C 
BRANCH  13  14
HETATM   14  C8  UNL     1       2.583   0.026  -0.761  1.00  0.00     0.114 C 
BRANCH  14  15
HETATM   15  C7  UNL     1       3.933  -0.549  -0.517  1.00  0.00     0.259 C 
HETATM   16  O3  UNL     1       4.096  -1.785  -0.645  1.00  0.00    -0.265 OA
BRANCH  15  17
HETATM   17  O2  UNL     1       4.967   0.268  -0.162  1.00  0.00    -0.312 OA
BRANCH  17  18
HETATM   18  C4  UNL     1       6.285  -0.196   0.088  1.00  0.00     0.161 C 
BRANCH  18  19
HETATM   19  C3  UNL     1       6.705   0.113   1.488  1.00  0.00     0.001 C 
HETATM   20  C2  UNL     1       7.733  -0.480   2.039  1.00  0.00    -0.032 C 
HETATM   21  C1  UNL     1       8.579  -1.493   1.378  1.00  0.00     0.036 C 
ENDBRANCH  18  19
BRANCH  18  22
HETATM   22  C5  UNL     1       7.227   0.528  -0.846  1.00  0.00     0.113 C 
BRANCH  22  23
HETATM   23  C6  UNL     1       7.158   1.982  -0.608  1.00  0.00     0.112 C 
HETATM   24  S1  UNL     1       8.476   2.826  -0.154  1.00  0.00    -0.058 SA
BRANCH  23  25
HETATM   25  O1  UNL     1       5.964   2.669  -0.766  1.00  0.00    -0.354 OA
ATOM     26  H1  UNL     1       5.920   3.605  -0.613  1.00  0.00     0.218 HD
ENDBRANCH  23  25
ENDBRANCH  22  23
ENDBRANCH  18  22
ENDBRANCH  17  18
ENDBRANCH  15  17
ENDBRANCH  14  15
ENDBRANCH  13  14
ENDBRANCH  12  13
BRANCH  12  27
HETATM   27  O4  UNL     1       0.251   0.362  -2.490  1.00  0.00    -0.393 OA
ATOM     28  H4  UNL     1      -0.633   0.660  -2.669  1.00  0.00     0.210 HD
ENDBRANCH  12  27
ENDBRANCH   1  12
BRANCH   1  29
HETATM   29  O5  UNL     1       0.021   1.237   0.137  1.00  0.00    -0.386 OA
ATOM     30  H5  UNL     1      -0.468   1.617   0.857  1.00  0.00     0.210 HD
ENDBRANCH   1  29
BRANCH   6  31
HETATM   31  C17 UNL     1      -6.068  -0.082   0.844  1.00  0.00    -0.028 C 
HETATM   32  C18 UNL     1      -6.400   1.084   1.716  1.00  0.00     0.019 C 
HETATM   33  C19 UNL     1      -6.545  -1.362   1.499  1.00  0.00     0.019 C 
HETATM   34  C20 UNL     1      -6.866   0.072  -0.450  1.00  0.00     0.019 C 
ENDBRANCH   6  31
TORSDOF 13
