REMARK  4 active torsions:
REMARK  status: ('A' for Active; 'I' for Inactive)
REMARK    1  A    between atoms: O1_2  and  N1_3 
REMARK    2  A    between atoms: N1_3  and  N2_5 
REMARK    3  A    between atoms: C3_12  and  N6_13 
REMARK       I    between atoms: N6_13  and  C4_15 
REMARK       I    between atoms: C4_15  and  N8_19 
REMARK    4  A    between atoms: N8_19  and  N9_21 
ROOT
HETATM    1  N6  UNL     1       0.842  -0.609  -0.362  1.00  0.00    -0.169 N 
ATOM      2  H6  UNL     1       0.641  -1.609  -0.384  1.00  0.00     0.186 HD
HETATM    3  C4  UNL     1       2.181  -0.197  -0.232  1.00  0.00     0.693 C 
HETATM    4  N7  UNL     1       2.896   0.012  -1.273  1.00  0.00    -0.233 N 
ATOM      5  H71 UNL     1       3.867   0.311  -1.179  1.00  0.00     0.174 HD
ATOM      6  H72 UNL     1       2.475  -0.123  -2.192  1.00  0.00     0.174 HD
HETATM    7  N8  UNL     1       2.766  -0.010   1.044  1.00  0.00    -0.118 N 
ATOM      8  H8  UNL     1       2.193   0.382   1.791  1.00  0.00     0.207 HD
ENDROOT
BRANCH   1   9
HETATM    9  C3  UNL     1      -0.147   0.223  -0.455  1.00  0.00     0.206 A 
HETATM   10  N2  UNL     1      -1.455  -0.156  -0.582  1.00  0.00    -0.141 N 
HETATM   11  N3  UNL     1      -2.134   0.967  -0.644  1.00  0.00    -0.217 N 
HETATM   12  N4  UNL     1      -1.345   2.022  -0.566  1.00  0.00    -0.268 N 
ATOM     13  H3  UNL     1      -3.148   1.017  -0.741  1.00  0.00     0.210 HD
HETATM   14  C2  UNL     1      -0.052   1.596  -0.442  1.00  0.00     0.180 A 
ATOM     15  H4  UNL     1      -1.650   2.995  -0.594  1.00  0.00     0.190 HD
HETATM   16  N5  UNL     1       1.106   2.416  -0.329  1.00  0.00    -0.077 NA
BRANCH  10  17
HETATM   17  N1  UNL     1      -1.884  -1.474  -0.627  1.00  0.00    -0.184 N 
ATOM     18  H1  UNL     1      -1.184  -2.213  -0.562  1.00  0.00     0.218 HD
BRANCH  17  19
HETATM   19  O1  UNL     1      -3.182  -1.831  -0.752  1.00  0.00    -0.268 OA
HETATM   20  C1  UNL     1      -3.935  -1.585   0.370  1.00  0.00     0.239 C 
ENDBRANCH  17  19
ENDBRANCH  10  17
ENDBRANCH   1   9
BRANCH   7  21
HETATM   21  N9  UNL     1       4.093  -0.340   1.322  1.00  0.00    -0.235 N 
HETATM   22  N10 UNL     1       5.068   0.455   1.105  1.00  0.00    -0.330 N 
ATOM     23 2H10 UNL     1       4.850   1.370   0.710  1.00  0.00     0.178 HD
ATOM     24 1H10 UNL     1       6.038   0.214   1.308  1.00  0.00     0.178 HD
ATOM     25  H9  UNL     1       4.293  -1.259   1.717  1.00  0.00     0.208 HD
ENDBRANCH   7  21
TORSDOF 4
