REMARK  9 active torsions:
REMARK  status: ('A' for Active; 'I' for Inactive)
REMARK    1  A    between atoms: N1_1  and  C1_5 
REMARK    2  A    between atoms: C3_10  and  O1_11 
REMARK    3  A    between atoms: C4_15  and  N4_16 
REMARK    4  A    between atoms: N4_16  and  C5_18 
REMARK    5  A    between atoms: C5_18  and  C6_19 
REMARK    6  A    between atoms: C6_19  and  O2_20 
REMARK    7  A    between atoms: O2_20  and  C7_21 
REMARK    8  A    between atoms: C9_23  and  O3_24 
REMARK    9  A    between atoms: C10_26  and  N5_27 
ROOT
HETATM    1  C1  UNL     1       1.881   0.402  -0.940  1.00  0.00     0.421 C 
HETATM    2  N2  UNL     1       3.241  -0.008  -1.084  1.00  0.00    -0.038 N 
ATOM      3  H21 UNL     1       3.708   0.553  -1.797  1.00  0.00     0.280 HD
ATOM      4  H22 UNL     1       3.291  -0.927  -1.524  1.00  0.00     0.280 HD
HETATM    5  C2  UNL     1       4.001   0.004   0.146  1.00  0.00     0.287 C 
HETATM    6  C3  UNL     1       3.531   1.087   1.077  1.00  0.00     0.240 C 
HETATM    7  N3  UNL     1       2.131   1.069   1.337  1.00  0.00    -0.372 N 
ATOM      8  H3  UNL     1       1.706   1.619   2.083  1.00  0.00     0.158 HD
HETATM    9  C4  UNL     1       1.353   0.212   0.464  1.00  0.00     0.237 C 
ENDROOT
BRANCH   9  10
HETATM   10  N4  UNL     1       1.408  -1.133   0.911  1.00  0.00    -0.377 N 
ATOM     11  H4  UNL     1       1.980  -1.389   1.716  1.00  0.00     0.160 HD
BRANCH  10  12
HETATM   12  C5  UNL     1       0.660  -2.108   0.226  1.00  0.00     0.083 C 
BRANCH  12  13
HETATM   13  C6  UNL     1      -0.817  -2.075   0.333  1.00  0.00     0.212 C 
BRANCH  13  14
HETATM   14  O2  UNL     1      -1.404  -0.928  -0.116  1.00  0.00    -0.379 OA
BRANCH  14  15
HETATM   15  C7  UNL     1      -2.781  -0.912  -0.004  1.00  0.00     0.157 C 
HETATM   16  C8  UNL     1      -3.342   0.255   0.779  1.00  0.00     0.068 C 
HETATM   17  C9  UNL     1      -4.447   0.340  -0.247  1.00  0.00     0.153 C 
HETATM   18  C10 UNL     1      -3.496  -0.365  -1.218  1.00  0.00     0.240 C 
BRANCH  17  19
HETATM   19  O3  UNL     1      -4.742   1.661  -0.616  1.00  0.00    -0.393 OA
ATOM     20  H3  UNL     1      -5.437   1.714  -1.261  1.00  0.00     0.210 HD
ENDBRANCH  17  19
BRANCH  18  21
HETATM   21  N5  UNL     1      -2.636   0.576  -1.917  1.00  0.00    -0.070 N 
ATOM     22  H53 UNL     1      -2.302   1.319  -1.303  1.00  0.00     0.274 HD
ATOM     23  H52 UNL     1      -1.734   0.165  -2.157  1.00  0.00     0.274 HD
ATOM     24  H51 UNL     1      -3.119   0.945  -2.736  1.00  0.00     0.274 HD
ENDBRANCH  18  21
ENDBRANCH  14  15
ENDBRANCH  13  14
ENDBRANCH  12  13
ENDBRANCH  10  12
ENDBRANCH   9  10
BRANCH   1  25
HETATM   25  N1  UNL     1       1.657   1.774  -1.329  1.00  0.00    -0.046 N 
ATOM     26  H13 UNL     1       2.281   2.402  -0.822  1.00  0.00     0.277 HD
ATOM     27  H12 UNL     1       1.988   1.940  -2.279  1.00  0.00     0.277 HD
ATOM     28  H11 UNL     1       0.685   2.067  -1.226  1.00  0.00     0.277 HD
ENDBRANCH   1  25
BRANCH   6  29
HETATM   29  O1  UNL     1       3.882   2.365   0.618  1.00  0.00    -0.375 OA
ATOM     30  H1  UNL     1       3.585   3.049   1.206  1.00  0.00     0.212 HD
ENDBRANCH   6  29
TORSDOF 9
