REMARK  12 active torsions:
REMARK  status: ('A' for Active; 'I' for Inactive)
REMARK    1  A    between atoms: N1_1  and  C1_5 
REMARK    2  A    between atoms: C1_5  and  C2_6 
REMARK    3  A    between atoms: C2_6  and  C3_7 
REMARK    4  A    between atoms: C3_7  and  O1_8 
REMARK    5  A    between atoms: O1_8  and  C4_9 
REMARK    6  A    between atoms: C5_11  and  C6_12 
REMARK    7  A    between atoms: C6_12  and  O3_13 
REMARK    8  A    between atoms: C7_15  and  O4_16 
REMARK    9  A    between atoms: C8_18  and  N2_19 
REMARK   10  A    between atoms: C9_23  and  N3_24 
REMARK   11  A    between atoms: C10_28  and  N4_29 
REMARK   12  A    between atoms: N4_29  and  N5_30 
ROOT
HETATM    1  C2  UNL     1      -2.293  -0.198   0.602  1.00  0.00     0.056 A 
HETATM    2  C9  UNL     1      -3.262  -0.304  -0.508  1.00  0.00     0.219 A 
HETATM    3  C10 UNL     1      -3.453   0.803   0.438  1.00  0.00     0.144 A 
ENDROOT
BRANCH   1   4
HETATM    4  C1  UNL     1      -2.456  -1.197   1.731  1.00  0.00     0.245 C 
BRANCH   4   5
HETATM    5  N1  UNL     1      -1.599  -2.334   1.590  1.00  0.00    -0.078 N 
ATOM      6  H13 UNL     1      -1.731  -2.782   0.683  1.00  0.00     0.274 HD
ATOM      7  H12 UNL     1      -0.625  -2.048   1.492  1.00  0.00     0.274 HD
ATOM      8  H11 UNL     1      -1.709  -3.006   2.349  1.00  0.00     0.274 HD
ENDBRANCH   4   5
ENDBRANCH   1   4
BRANCH   1   9
HETATM    9  C3  UNL     1      -0.938   0.394   0.429  1.00  0.00     0.186 C 
BRANCH   9  10
HETATM   10  O1  UNL     1       0.047  -0.553   0.170  1.00  0.00    -0.358 OA
BRANCH  10  11
HETATM   11  C4  UNL     1       1.285   0.006   0.013  1.00  0.00     0.293 C 
HETATM   12  O2  UNL     1       1.846  -0.267  -1.255  1.00  0.00    -0.349 OA
HETATM   13  C5  UNL     1       3.133   0.241  -1.064  1.00  0.00     0.179 C 
HETATM   14  C7  UNL     1       3.576  -0.529   0.161  1.00  0.00     0.184 C 
HETATM   15  C8  UNL     1       2.268  -0.662   0.925  1.00  0.00     0.269 C 
BRANCH  13  16
HETATM   16  C6  UNL     1       4.025  -0.026  -2.251  1.00  0.00     0.198 C 
BRANCH  16  17
HETATM   17  O3  UNL     1       5.281   0.520  -1.957  1.00  0.00    -0.398 OA
ATOM     18  H3  UNL     1       5.843   0.352  -2.704  1.00  0.00     0.209 HD
ENDBRANCH  16  17
ENDBRANCH  13  16
BRANCH  14  19
HETATM   19  O4  UNL     1       4.027  -1.782  -0.189  1.00  0.00    -0.391 OA
ATOM     20  H4  UNL     1       4.305  -2.265   0.580  1.00  0.00     0.210 HD
ENDBRANCH  14  19
BRANCH  15  21
HETATM   21  N2  UNL     1       2.295   0.029   2.184  1.00  0.00    -0.068 N 
ATOM     22  H23 UNL     1       2.485   1.025   2.074  1.00  0.00     0.275 HD
ATOM     23  H22 UNL     1       1.368   0.104   2.603  1.00  0.00     0.275 HD
ATOM     24  H21 UNL     1       2.964  -0.426   2.805  1.00  0.00     0.275 HD
ENDBRANCH  15  21
ENDBRANCH  10  11
ENDBRANCH   9  10
ENDBRANCH   1   9
BRANCH   2  25
HETATM   25  N3  UNL     1      -2.898   0.054  -1.859  1.00  0.00    -0.072 N 
ATOM     26  H33 UNL     1      -2.538   1.008  -1.846  1.00  0.00     0.274 HD
ATOM     27  H32 UNL     1      -2.068  -0.481  -2.114  1.00  0.00     0.274 HD
ATOM     28  H31 UNL     1      -3.567  -0.019  -2.625  1.00  0.00     0.274 HD
ENDBRANCH   2  25
BRANCH   3  29
HETATM   29  N4  UNL     1      -3.098   2.142   0.007  1.00  0.00    -0.140 NA
BRANCH  29  30
HETATM   30  N5  UNL     1      -4.189   2.972  -0.115  1.00  0.00    -0.348 N 
ATOM     31  H52 UNL     1      -5.141   2.663   0.081  1.00  0.00     0.172 HD
ATOM     32  H51 UNL     1      -3.939   3.913  -0.418  1.00  0.00     0.172 HD
ENDBRANCH  29  30
ENDBRANCH   3  29
TORSDOF 12
