REMARK  9 active torsions:
REMARK  status: ('A' for Active; 'I' for Inactive)
REMARK    1  A    between atoms: N1_1  and  C1_4 
REMARK    2  A    between atoms: C4_9  and  N3_10 
REMARK    3  A    between atoms: N3_10  and  C5_12 
REMARK    4  A    between atoms: C5_12  and  C6_13 
REMARK    5  A    between atoms: C6_13  and  C7_14 
REMARK    6  A    between atoms: C7_14  and  C8_15 
REMARK    7  A    between atoms: C8_15  and  C9_16 
REMARK    8  A    between atoms: C9_16  and  N4_17 
REMARK    9  A    between atoms: N5_20  and  O1_21 
ROOT
HETATM    1  C5  UNL     1      -1.993   0.087   0.433  1.00  0.00     0.138 C 
ENDROOT
BRANCH   1   2
HETATM    2  N3  UNL     1      -2.920   0.045  -0.676  1.00  0.00    -0.226 N 
ATOM      3  H3  UNL     1      -2.587   0.150  -1.634  1.00  0.00     0.177 HD
BRANCH   2   4
HETATM    4  C4  UNL     1      -4.160  -0.125  -0.436  1.00  0.00     0.679 A 
HETATM    5  N2  UNL     1      -4.587  -0.260   0.821  1.00  0.00    -0.202 N 
HETATM    6  C3  UNL     1      -5.907  -0.440   1.078  1.00  0.00     0.110 A 
ATOM      7  H2  UNL     1      -3.919  -0.228   1.591  1.00  0.00     0.183 HD
HETATM    8  C2  UNL     1      -6.781  -0.479   0.009  1.00  0.00     0.066 A 
HETATM    9  C1  UNL     1      -6.344  -0.340  -1.289  1.00  0.00     0.116 A 
HETATM   10  N6  UNL     1      -5.018  -0.164  -1.464  1.00  0.00    -0.177 N 
ATOM     11  H6  UNL     1      -4.656  -0.057  -2.412  1.00  0.00     0.185 HD
BRANCH   9  12
HETATM   12  N1  UNL     1      -7.180  -0.380  -2.267  1.00  0.00    -0.385 N 
ATOM     13  H12 UNL     1      -8.183  -0.513  -2.135  1.00  0.00     0.157 HD
ATOM     14  H11 UNL     1      -6.856  -0.277  -3.229  1.00  0.00     0.157 HD
ENDBRANCH   9  12
ENDBRANCH   2   4
ENDBRANCH   1   2
BRANCH   1  15
HETATM   15  C6  UNL     1      -0.564   0.296  -0.051  1.00  0.00     0.020 C 
BRANCH  15  16
HETATM   16  C7  UNL     1       0.305   0.325   1.167  1.00  0.00     0.003 C 
BRANCH  16  17
HETATM   17  C8  UNL     1       1.742   0.542   0.814  1.00  0.00     0.020 C 
BRANCH  17  18
HETATM   18  C9  UNL     1       2.246  -0.569  -0.078  1.00  0.00     0.126 C 
BRANCH  18  19
HETATM   19  N4  UNL     1       3.638  -0.272  -0.345  1.00  0.00    -0.346 N 
HETATM   20  C10 UNL     1       3.992   0.524  -1.472  1.00  0.00     0.172 C 
HETATM   21  C11 UNL     1       5.355   1.100  -1.328  1.00  0.00     0.110 C 
HETATM   22  N5  UNL     1       6.258   0.639  -0.547  1.00  0.00    -0.266 N 
HETATM   23  C12 UNL     1       6.086  -0.515   0.314  1.00  0.00     0.257 C 
HETATM   24  C13 UNL     1       4.623  -0.776   0.516  1.00  0.00     0.240 C 
HETATM   25  O2  UNL     1       4.333  -1.486   1.521  1.00  0.00    -0.271 OA
BRANCH  22  26
HETATM   26  O1  UNL     1       7.488   1.266  -0.504  1.00  0.00    -0.288 OA
ATOM     27  H1  UNL     1       8.158   0.924   0.076  1.00  0.00     0.244 HD
ENDBRANCH  22  26
ENDBRANCH  18  19
ENDBRANCH  17  18
ENDBRANCH  16  17
ENDBRANCH  15  16
ENDBRANCH   1  15
TORSDOF 9
