REMARK  5 active torsions:
REMARK  status: ('A' for Active; 'I' for Inactive)
REMARK    1  A    between atoms: C2_3  and  C3_4 
REMARK    2  A    between atoms: C3_4  and  N1_5 
REMARK    3  A    between atoms: C6_8  and  N2_9 
REMARK    4  A    between atoms: N2_9  and  C7_11 
REMARK    5  A    between atoms: N4_17  and  C11_19 
ROOT
HETATM    1  C7  UNL     1      -0.137  -0.347   0.496  1.00  0.00     0.679 A 
HETATM    2  N3  UNL     1       0.195   0.667  -0.328  1.00  0.00    -0.202 N 
ATOM      3  H3  UNL     1       1.170   0.866  -0.552  1.00  0.00     0.183 HD
HETATM    4  C8  UNL     1      -0.792   1.401  -0.840  1.00  0.00     0.110 A 
HETATM    5  C9  UNL     1      -2.146   1.169  -0.564  1.00  0.00     0.066 A 
HETATM    6  C10 UNL     1      -2.457   0.126   0.282  1.00  0.00     0.118 A 
HETATM    7  N4  UNL     1      -3.617  -0.178   0.602  1.00  0.00    -0.369 N 
ATOM      8  H4  UNL     1      -3.575  -0.979   1.232  1.00  0.00     0.161 HD
HETATM    9  N5  UNL     1      -1.412  -0.605   0.787  1.00  0.00    -0.177 N 
ATOM     10  H5  UNL     1      -1.620  -1.382   1.414  1.00  0.00     0.185 HD
ENDROOT
BRANCH   1  11
HETATM   11  N2  UNL     1       0.813  -1.065   0.997  1.00  0.00    -0.221 N 
ATOM     12  H2  UNL     1       0.552  -1.831   1.619  1.00  0.00     0.178 HD
BRANCH  11  13
HETATM   13  C6  UNL     1       2.193  -0.862   0.742  1.00  0.00     0.102 C 
HETATM   14  C5  UNL     1       3.075  -1.591   1.762  1.00  0.00     0.056 C 
HETATM   15  C4  UNL     1       4.482  -1.155   1.561  1.00  0.00     0.275 C 
HETATM   16  N1  UNL     1       4.933  -1.311   0.220  1.00  0.00     0.091 N 
HETATM   17  C17 UNL     1       4.046  -0.846  -0.805  1.00  0.00     0.275 C 
HETATM   18  C16 UNL     1       2.662  -1.418  -0.607  1.00  0.00     0.056 C 
BRANCH  16  19
HETATM   19  C3  UNL     1       6.296  -0.875   0.018  1.00  0.00     0.300 C 
BRANCH  19  20
HETATM   20  C2  UNL     1       6.450   0.589   0.158  1.00  0.00     0.010 C 
HETATM   21  C1  UNL     1       6.899   1.342  -0.840  1.00  0.00     0.053 C 
HETATM   22 BR1  UNL     1       7.101   3.236  -0.666  1.00  0.00    -0.064 Br
ENDBRANCH  19  20
ENDBRANCH  16  19
ENDBRANCH  11  13
ENDBRANCH   1  11
BRANCH   7  23
HETATM   23  C11 UNL     1      -4.938   0.162   0.424  1.00  0.00     0.107 C 
HETATM   24  C12 UNL     1      -5.290   1.565   0.040  1.00  0.00     0.029 C 
HETATM   25  C13 UNL     1      -6.793   1.720   0.307  1.00  0.00     0.028 C 
HETATM   26  C14 UNL     1      -7.422   0.400  -0.113  1.00  0.00     0.167 C 
HETATM   27  O1  UNL     1      -6.681  -0.145  -1.154  1.00  0.00    -0.389 OA
HETATM   28  C15 UNL     1      -5.518  -0.732  -0.699  1.00  0.00     0.192 C 
ENDBRANCH   7  23
TORSDOF 5
