REMARK  4 active torsions:
REMARK  status: ('A' for Active; 'I' for Inactive)
REMARK    1  A    between atoms: N1_2  and  C3_4 
REMARK    2  A    between atoms: C3_4  and  C4_5 
REMARK    3  A    between atoms: C4_5  and  N2_6 
REMARK       I    between atoms: N2_6  and  C6_8 
REMARK       I    between atoms: C6_8  and  N3_10 
REMARK    4  A    between atoms: N3_10  and  C7_12 
ROOT
HETATM    1  N2  UNL     1      -1.585   0.411  -0.880  1.00  0.00    -0.337 N 
HETATM    2  C5  UNL     1      -1.542   0.286  -2.320  1.00  0.00     0.154 C 
HETATM    3  C6  UNL     1      -0.395   0.463  -0.100  1.00  0.00     0.318 C 
HETATM    4  O1  UNL     1      -0.489   0.575   1.144  1.00  0.00    -0.247 OA
HETATM    5  N3  UNL     1       0.855   0.386  -0.747  1.00  0.00    -0.338 N 
ATOM      6  H3  UNL     1       0.879   0.293  -1.762  1.00  0.00     0.164 HD
ENDROOT
BRANCH   5   7
HETATM    7  C7  UNL     1       2.122   0.435  -0.009  1.00  0.00     0.086 C 
HETATM    8  C8  UNL     1       2.878  -0.817  -0.234  1.00  0.00     0.026 C 
HETATM    9  C9  UNL     1       3.932  -0.782  -1.289  1.00  0.00     0.013 C 
HETATM   10  C10 UNL     1       5.311  -0.470  -0.768  1.00  0.00     0.086 C 
HETATM   11  S1  UNL     1       5.396  -0.521   1.046  1.00  0.00    -0.098 SA
HETATM   12  S2  UNL     1       4.243   1.086   1.866  1.00  0.00    -0.098 SA
HETATM   13  C11 UNL     1       3.801   2.226   0.566  1.00  0.00     0.088 C 
HETATM   14  C12 UNL     1       2.785   1.714  -0.398  1.00  0.00     0.036 C 
ENDBRANCH   5   7
BRANCH   1  15
HETATM   15  C4  UNL     1      -2.899   0.489  -0.243  1.00  0.00     0.157 C 
BRANCH  15  16
HETATM   16  C3  UNL     1      -3.410  -0.885   0.120  1.00  0.00     0.291 C 
BRANCH  16  17
HETATM   17  N1  UNL     1      -4.707  -0.731   0.741  1.00  0.00     0.081 N 
HETATM   18  C1  UNL     1      -4.625  -0.087   2.032  1.00  0.00     0.309 C 
HETATM   19  C2  UNL     1      -5.279  -2.049   0.932  1.00  0.00     0.309 C 
ENDBRANCH  16  17
ENDBRANCH  15  16
ENDBRANCH   1  15
TORSDOF 4
