REMARK  4 active torsions:
REMARK  status: ('A' for Active; 'I' for Inactive)
REMARK    1  A    between atoms: C2_2  and  C4_4 
REMARK    2  A    between atoms: C4_4  and  N1_5 
REMARK    3  A    between atoms: N2_12  and  C10_13 
REMARK    4  A    between atoms: C10_13  and  C11_14 
ROOT
HETATM    1  N1  UNL     1      -2.761   0.715  -0.130  1.00  0.00     0.113 N 
HETATM    2  C5  UNL     1      -2.992   1.078  -1.541  1.00  0.00     0.440 C 
HETATM    3  O1  UNL     1      -1.892   1.737  -2.083  1.00  0.00    -0.355 OA
HETATM    4  C6  UNL     1      -0.890   0.753  -2.136  1.00  0.00     0.159 C 
HETATM    5  C7  UNL     1       0.194   1.216  -3.041  1.00  0.00     0.036 C 
HETATM    6  C8  UNL     1       1.271   0.147  -3.028  1.00  0.00     0.033 C 
HETATM    7  C9  UNL     1       1.021  -0.863  -1.929  1.00  0.00     0.273 C 
HETATM    8  N2  UNL     1       0.795  -0.220  -0.650  1.00  0.00     0.097 N 
HETATM    9  C16 UNL     1      -0.423   0.571  -0.695  1.00  0.00     0.279 C 
HETATM   10  C17 UNL     1      -1.557  -0.087   0.029  1.00  0.00     0.313 C 
ENDROOT
BRANCH   8  11
HETATM   11  C10 UNL     1       1.881   0.626  -0.310  1.00  0.00     0.279 C 
BRANCH  11  12
HETATM   12  C11 UNL     1       3.162  -0.129   0.009  1.00  0.00     0.039 C 
HETATM   13  C12 UNL     1       2.892  -1.018   1.161  1.00  0.00     0.010 C 
HETATM   14  C13 UNL     1       4.009  -1.212   2.128  1.00  0.00     0.028 C 
HETATM   15  C14 UNL     1       5.292  -0.553   1.700  1.00  0.00     0.232 C 
HETATM   16  N3  UNL     1       4.975   0.831   1.401  1.00  0.00    -0.075 N 
HETATM   17  C15 UNL     1       4.251   0.880   0.171  1.00  0.00     0.238 C 
ATOM     18  H32 UNL     1       4.479   1.291   2.164  1.00  0.00     0.277 HD
ATOM     19  H31 UNL     1       5.802   1.427   1.391  1.00  0.00     0.277 HD
ENDBRANCH  11  12
ENDBRANCH   8  11
BRANCH   1  20
HETATM   20  C4  UNL     1      -3.920  -0.155   0.164  1.00  0.00     0.279 C 
BRANCH  20  21
HETATM   21  C2  UNL     1      -3.967  -0.581   1.600  1.00  0.00     0.006 C 
HETATM   22  C1  UNL     1      -4.078   0.620   2.533  1.00  0.00     0.011 C 
HETATM   23  C3  UNL     1      -5.185  -1.464   1.777  1.00  0.00     0.011 C 
ENDBRANCH  20  21
ENDBRANCH   1  20
TORSDOF 4
