REMARK  6 active torsions:
REMARK  status: ('A' for Active; 'I' for Inactive)
REMARK    1  A    between atoms: C5_9  and  C6_10 
REMARK    2  A    between atoms: C6_10  and  N3_11 
REMARK       I    between atoms: N3_11  and  C7_13 
REMARK       I    between atoms: C7_13  and  N4_15 
REMARK    3  A    between atoms: C12_20  and  C13_21 
REMARK    4  A    between atoms: C13_21  and  O2_22 
REMARK    5  A    between atoms: C13_21  and  C14_24 
REMARK    6  A    between atoms: C14_24  and  C15_25 
ROOT
HETATM    1  N3  UNL     1      -2.453  -1.098   0.319  1.00  0.00    -0.318 N 
ATOM      2  H3  UNL     1      -2.629  -1.975  -0.171  1.00  0.00     0.170 HD
HETATM    3  C7  UNL     1      -1.127  -0.530   0.259  1.00  0.00     0.322 C 
HETATM    4  O1  UNL     1      -0.920   0.566   0.888  1.00  0.00    -0.247 OA
HETATM    5  N4  UNL     1      -0.082  -1.159  -0.469  1.00  0.00    -0.323 N 
HETATM    6  C8  UNL     1      -0.346  -2.382  -1.152  1.00  0.00     0.128 C 
HETATM    7  C9  UNL     1       0.832  -3.155  -1.618  1.00  0.00     0.020 C 
HETATM    8  C10 UNL     1       2.020  -2.341  -1.971  1.00  0.00     0.004 C 
HETATM    9  C11 UNL     1       1.831  -0.862  -1.787  1.00  0.00     0.032 C 
HETATM   10  C12 UNL     1       1.235  -0.464  -0.458  1.00  0.00     0.145 C 
ENDROOT
BRANCH  10  11
HETATM   11  C13 UNL     1       2.006  -0.828   0.741  1.00  0.00     0.062 C 
BRANCH  11  12
HETATM   12  O2  UNL     1       2.431  -2.155   0.834  1.00  0.00    -0.363 OA
ATOM     13  H2  UNL     1       2.929  -2.390   1.608  1.00  0.00     0.217 HD
ENDBRANCH  11  12
BRANCH  11  14
HETATM   14  C14 UNL     1       2.893   0.075   1.451  1.00  0.00     0.012 C 
BRANCH  14  15
HETATM   15  C15 UNL     1       4.055   0.734   0.823  1.00  0.00     0.016 C 
HETATM   16  C16 UNL     1       3.844   1.687  -0.317  1.00  0.00     0.045 C 
HETATM   17  C17 UNL     1       4.899   2.603   0.315  1.00  0.00     0.171 C 
HETATM   18  F1  UNL     1       6.168   2.350  -0.182  1.00  0.00    -0.249 F 
HETATM   19  C18 UNL     1       4.599   1.929   1.629  1.00  0.00     0.045 C 
ENDBRANCH  14  15
ENDBRANCH  11  14
ENDBRANCH  10  11
BRANCH   1  20
HETATM   20  C6  UNL     1      -3.513  -0.498   1.021  1.00  0.00     0.108 C 
BRANCH  20  21
HETATM   21  C5  UNL     1      -4.148   0.703   0.500  1.00  0.00     0.027 A 
HETATM   22  C2  UNL     1      -5.151   1.382   1.233  1.00  0.00     0.035 A 
HETATM   23  C1  UNL     1      -5.604   0.978   2.589  1.00  0.00     0.070 C 
HETATM   24  N1  UNL     1      -5.570   2.405   0.478  1.00  0.00    -0.304 N 
HETATM   25  N2  UNL     1      -4.923   2.433  -0.667  1.00  0.00    -0.304 N 
ATOM     26  H1  UNL     1      -6.292   3.071   0.753  1.00  0.00     0.186 HD
HETATM   27  C3  UNL     1      -4.032   1.380  -0.678  1.00  0.00     0.035 A 
ATOM     28  H2  UNL     1      -5.057   3.113  -1.415  1.00  0.00     0.186 HD
HETATM   29  C4  UNL     1      -3.141   1.047  -1.830  1.00  0.00     0.070 C 
ENDBRANCH  20  21
ENDBRANCH   1  20
TORSDOF 6
