REMARK  10 active torsions:
REMARK  status: ('A' for Active; 'I' for Inactive)
REMARK    1  A    between atoms: C2_2  and  C3_3 
REMARK    2  A    between atoms: C3_3  and  O1_4 
REMARK    3  A    between atoms: O1_4  and  C4_5 
REMARK    4  A    between atoms: C7_8  and  C8_9 
REMARK    5  A    between atoms: C8_9  and  C9_10 
REMARK    6  A    between atoms: C12_15  and  C13_16 
REMARK    7  A    between atoms: C13_16  and  C14_17 
REMARK    8  A    between atoms: C14_17  and  N2_18 
REMARK    9  A    between atoms: C14_17  and  C15_22 
REMARK   10  A    between atoms: C15_22  and  O2_23 
ROOT
HETATM    1  C9  UNL     1      -1.457  -0.662  -0.271  1.00  0.00    -0.008 A 
HETATM    2  C10 UNL     1      -0.963  -1.685  -1.084  1.00  0.00     0.030 A 
HETATM    3  C11 UNL     1      -2.086  -2.288  -1.610  1.00  0.00     0.089 A 
HETATM    4  N1  UNL     1      -3.184  -1.668  -1.143  1.00  0.00    -0.365 N 
ATOM      5  H1  UNL     1      -4.143  -1.922  -1.379  1.00  0.00     0.165 HD
HETATM    6  C12 UNL     1      -2.833  -0.663  -0.318  1.00  0.00     0.040 A 
ENDROOT
BRANCH   1   7
HETATM    7  C8  UNL     1      -0.692   0.164   0.423  1.00  0.00     0.025 C 
BRANCH   7   8
HETATM    8  C7  UNL     1       0.755   0.067   0.393  1.00  0.00    -0.035 A 
HETATM    9  C6  UNL     1       1.543   0.962  -0.323  1.00  0.00     0.014 A 
HETATM   10  C5  UNL     1       2.920   0.873  -0.354  1.00  0.00     0.037 A 
HETATM   11  C4  UNL     1       3.530  -0.133   0.346  1.00  0.00     0.069 A 
HETATM   12  C17 UNL     1       2.791  -1.044   1.070  1.00  0.00     0.037 A 
HETATM   13  C16 UNL     1       1.411  -0.925   1.078  1.00  0.00     0.014 A 
BRANCH  11  14
HETATM   14  O1  UNL     1       4.911  -0.274   0.353  1.00  0.00    -0.348 OA
BRANCH  14  15
HETATM   15  C3  UNL     1       5.789   0.575  -0.335  1.00  0.00     0.202 C 
BRANCH  15  16
HETATM   16  C2  UNL     1       7.178   0.131  -0.105  1.00  0.00    -0.011 C 
HETATM   17  C1  UNL     1       8.086   0.936   0.473  1.00  0.00     0.009 C 
ENDBRANCH  15  16
ENDBRANCH  14  15
ENDBRANCH  11  14
ENDBRANCH   7   8
ENDBRANCH   1   7
BRANCH   6  18
HETATM   18  C13 UNL     1      -3.641   0.164   0.325  1.00  0.00     0.038 C 
BRANCH  18  19
HETATM   19  C14 UNL     1      -5.110   0.101   0.226  1.00  0.00     0.231 C 
BRANCH  19  20
HETATM   20  N2  UNL     1      -5.726   0.646   1.443  1.00  0.00    -0.070 N 
ATOM     21  H23 UNL     1      -5.381   0.184   2.284  1.00  0.00     0.275 HD
ATOM     22  H22 UNL     1      -5.398   1.591   1.645  1.00  0.00     0.275 HD
ATOM     23  H21 UNL     1      -6.743   0.602   1.374  1.00  0.00     0.275 HD
ENDBRANCH  19  20
BRANCH  19  24
HETATM   24  C15 UNL     1      -5.642   0.857  -0.963  1.00  0.00     0.201 C 
BRANCH  24  25
HETATM   25  O2  UNL     1      -7.029   0.681  -0.986  1.00  0.00    -0.399 OA
ATOM     26  H2  UNL     1      -7.365   1.158  -1.736  1.00  0.00     0.209 HD
ENDBRANCH  24  25
ENDBRANCH  19  24
ENDBRANCH  18  19
ENDBRANCH   6  18
TORSDOF 10
