REMARK  9 active torsions:
REMARK  status: ('A' for Active; 'I' for Inactive)
REMARK    1  A    between atoms: C2_2  and  C3_3 
REMARK    2  A    between atoms: N2_6  and  C4_7 
REMARK    3  A    between atoms: C4_7  and  C5_8 
REMARK    4  A    between atoms: C8_11  and  C9_12 
REMARK    5  A    between atoms: C13_18  and  C14_19 
REMARK    6  A    between atoms: C14_19  and  C15_20 
REMARK    7  A    between atoms: C18_27  and  N6_28 
REMARK    8  A    between atoms: N8_34  and  C20_35 
REMARK    9  A    between atoms: C20_35  and  C21_36 
ROOT
HETATM    1  C15 UNL     1      -1.837  -1.365   1.007  1.00  0.00     0.091 A 
HETATM    2  N4  UNL     1      -2.301  -2.527   1.484  1.00  0.00    -0.329 N 
ATOM      3  H4  UNL     1      -1.767  -3.172   2.066  1.00  0.00     0.169 HD
HETATM    4  C16 UNL     1      -3.554  -2.721   1.093  1.00  0.00     0.152 A 
HETATM    5  N5  UNL     1      -4.451  -3.737   1.304  1.00  0.00    -0.346 N 
ATOM      6  H5  UNL     1      -4.186  -4.543   1.871  1.00  0.00     0.167 HD
HETATM    7  C17 UNL     1      -5.670  -3.670   0.767  1.00  0.00     0.138 A 
HETATM    8  C18 UNL     1      -6.005  -2.582   0.012  1.00  0.00     0.116 A 
HETATM    9  N7  UNL     1      -5.130  -1.598  -0.190  1.00  0.00    -0.325 N 
ATOM     10  H7  UNL     1      -5.400  -0.795  -0.758  1.00  0.00     0.169 HD
HETATM   11  C19 UNL     1      -3.885  -1.646   0.348  1.00  0.00     0.155 A 
HETATM   12  N8  UNL     1      -2.813  -0.797   0.294  1.00  0.00    -0.315 N 
ENDROOT
BRANCH   1  13
HETATM   13  C14 UNL     1      -0.472  -0.901   1.277  1.00  0.00     0.118 C 
BRANCH  13  14
HETATM   14  C13 UNL     1       0.538  -0.947   0.261  1.00  0.00    -0.010 A 
HETATM   15  C3  UNL     1       1.275  -1.956  -0.272  1.00  0.00     0.033 A 
HETATM   16  N1  UNL     1       2.161  -1.451  -1.194  1.00  0.00    -0.302 N 
HETATM   17  N2  UNL     1       1.979  -0.160  -1.235  1.00  0.00    -0.298 N 
ATOM     18  H1  UNL     1       2.834  -1.986  -1.743  1.00  0.00     0.186 HD
HETATM   19  C12 UNL     1       1.025   0.204  -0.391  1.00  0.00     0.120 A 
BRANCH  15  20
HETATM   20  C2  UNL     1       1.197  -3.398   0.004  1.00  0.00     0.055 C 
HETATM   21  C1  UNL     1       0.107  -4.097  -0.762  1.00  0.00     0.011 C 
ENDBRANCH  15  20
BRANCH  17  22
HETATM   22  C4  UNL     1       2.749   0.731  -2.111  1.00  0.00     0.186 C 
BRANCH  22  23
HETATM   23  C5  UNL     1       3.974   1.204  -1.400  1.00  0.00    -0.038 A 
HETATM   24  C6  UNL     1       3.926   2.371  -0.670  1.00  0.00     0.010 A 
HETATM   25  C7  UNL     1       5.054   2.817  -0.007  1.00  0.00     0.017 A 
HETATM   26  C8  UNL     1       6.240   2.127  -0.048  1.00  0.00     0.029 A 
HETATM   27  C10 UNL     1       6.290   0.966  -0.774  1.00  0.00     0.017 A 
HETATM   28  C11 UNL     1       5.168   0.512  -1.441  1.00  0.00     0.010 A 
BRANCH  26  29
HETATM   29  C9  UNL     1       7.403   2.610   0.650  1.00  0.00     0.264 C 
HETATM   30  N3  UNL     1       8.632   1.889   0.637  1.00  0.00    -0.057 NA
HETATM   31  O1  UNL     1       7.384   3.680   1.296  1.00  0.00    -0.271 OA
ENDBRANCH  26  29
ENDBRANCH  22  23
ENDBRANCH  17  22
ENDBRANCH  13  14
ENDBRANCH   1  13
BRANCH  12  32
HETATM   32  C20 UNL     1      -2.839   0.456  -0.436  1.00  0.00     0.170 C 
BRANCH  32  33
HETATM   33  C21 UNL     1      -3.258   1.628   0.344  1.00  0.00    -0.040 A 
HETATM   34  C22 UNL     1      -2.311   2.449   0.904  1.00  0.00     0.009 A 
HETATM   35  C23 UNL     1      -2.623   3.566   1.640  1.00  0.00     0.001 A 
HETATM   36  C24 UNL     1      -3.952   3.900   1.838  1.00  0.00     0.000 A 
HETATM   37  C25 UNL     1      -4.898   3.082   1.280  1.00  0.00     0.001 A 
HETATM   38  C26 UNL     1      -4.578   1.944   0.531  1.00  0.00     0.009 A 
ENDBRANCH  32  33
ENDBRANCH  12  32
BRANCH   8  39
HETATM   39  N6  UNL     1      -7.173  -2.449  -0.542  1.00  0.00    -0.384 N 
ATOM     40  H62 UNL     1      -7.843  -3.202  -0.387  1.00  0.00     0.157 HD
ATOM     41  H61 UNL     1      -7.423  -1.637  -1.106  1.00  0.00     0.157 HD
ENDBRANCH   8  39
TORSDOF 9
