REMARK  6 active torsions:
REMARK  status: ('A' for Active; 'I' for Inactive)
REMARK    1  A    between atoms: C2_2  and  O1_3 
REMARK    2  A    between atoms: C2_2  and  C13_20 
REMARK    3  A    between atoms: O1_3  and  C3_4 
REMARK    4  A    between atoms: C3_4  and  C4_6 
REMARK    5  A    between atoms: N1_9  and  C7_10 
REMARK       I    between atoms: C13_20  and  N4_22 
REMARK    6  A    between atoms: N4_22  and  C14_24 
ROOT
HETATM    1  O1  UNL     1       1.013   0.437   0.142  1.00  0.00    -0.306 OA
ENDROOT
BRANCH   1   2
HETATM    2  C2  UNL     1      -0.160   1.183  -0.120  1.00  0.00     0.219 C 
HETATM    3  C1  UNL     1      -0.263   2.408   0.763  1.00  0.00     0.050 C 
BRANCH   2   4
HETATM    4  C13 UNL     1      -1.380   0.367   0.100  1.00  0.00     0.247 C 
HETATM    5  O3  UNL     1      -1.334  -0.833   0.470  1.00  0.00    -0.271 OA
HETATM    6  N4  UNL     1      -2.642   0.974  -0.120  1.00  0.00    -0.354 N 
ATOM      7  H4  UNL     1      -2.685   1.948  -0.421  1.00  0.00     0.162 HD
BRANCH   6   8
HETATM    8  C14 UNL     1      -3.889   0.222   0.079  1.00  0.00     0.085 C 
HETATM    9  C15 UNL     1      -4.646   0.848   1.187  1.00  0.00     0.030 C 
HETATM   10  C16 UNL     1      -6.124   0.566   1.169  1.00  0.00    -0.009 C 
HETATM   11  C17 UNL     1      -6.304  -0.937   1.248  1.00  0.00     0.005 C 
HETATM   12  C21 UNL     1      -6.735   0.885  -0.191  1.00  0.00    -0.010 C 
HETATM   13  C18 UNL     1      -6.297  -1.423  -0.164  1.00  0.00     0.005 C 
HETATM   14  C19 UNL     1      -6.096  -0.189  -1.044  1.00  0.00    -0.009 C 
HETATM   15  C20 UNL     1      -4.643   0.064  -1.206  1.00  0.00     0.030 C 
HETATM   16  C22 UNL     1      -8.217   0.749  -0.076  1.00  0.00     0.011 C 
ENDBRANCH   6   8
ENDBRANCH   2   4
ENDBRANCH   1   2
BRANCH   1  17
HETATM   17  C3  UNL     1       2.026   0.235  -0.772  1.00  0.00     0.264 C 
HETATM   18  O2  UNL     1       1.912   0.741  -1.913  1.00  0.00    -0.265 OA
BRANCH  17  19
HETATM   19  C4  UNL     1       3.211  -0.548  -0.433  1.00  0.00     0.088 C 
HETATM   20  C5  UNL     1       3.895   0.138   0.751  1.00  0.00     0.035 C 
HETATM   21  C6  UNL     1       4.879  -0.905   1.294  1.00  0.00     0.142 C 
HETATM   22  N1  UNL     1       5.876  -1.071   0.245  1.00  0.00    -0.218 N 
HETATM   23  C11 UNL     1       5.431  -1.381  -1.078  1.00  0.00     0.142 C 
HETATM   24  C12 UNL     1       4.216  -0.651  -1.527  1.00  0.00     0.035 C 
BRANCH  22  25
HETATM   25  C7  UNL     1       7.242  -0.914   0.609  1.00  0.00     0.679 A 
HETATM   26  N2  UNL     1       7.614  -0.624   1.869  1.00  0.00    -0.202 N 
HETATM   27  C8  UNL     1       8.901  -0.473   2.225  1.00  0.00     0.107 A 
ATOM     28  H2  UNL     1       6.892  -0.515   2.581  1.00  0.00     0.183 HD
HETATM   29  C9  UNL     1       9.916  -0.610   1.307  1.00  0.00     0.035 A 
HETATM   30  C10 UNL     1       9.534  -0.911   0.002  1.00  0.00     0.107 A 
HETATM   31  N3  UNL     1       8.228  -1.051  -0.299  1.00  0.00    -0.202 N 
ATOM     32  H3  UNL     1       7.973  -1.272  -1.262  1.00  0.00     0.183 HD
ENDBRANCH  22  25
ENDBRANCH  17  19
ENDBRANCH   1  17
TORSDOF 6
