REMARK  15 active torsions:
REMARK  status: ('A' for Active; 'I' for Inactive)
REMARK    1  A    between atoms: O1_2  and  C2_3 
REMARK    2  A    between atoms: C2_3  and  O2_4 
REMARK    3  A    between atoms: C4_8  and  O4_9 
REMARK    4  A    between atoms: C4_8  and  C5_11 
REMARK    5  A    between atoms: C5_11  and  C6_12 
REMARK    6  A    between atoms: C6_12  and  O5_13 
REMARK    7  A    between atoms: C6_12  and  C7_15 
REMARK    8  A    between atoms: C7_15  and  O6_16 
REMARK    9  A    between atoms: C8_18  and  O7_19 
REMARK   10  A    between atoms: C9_21  and  O8_22 
REMARK   11  A    between atoms: C10_24  and  C12_26 
REMARK   12  A    between atoms: C23_38  and  C25_40 
REMARK   13  A    between atoms: C25_40  and  C26_41 
REMARK   14  A    between atoms: C26_41  and  O10_42 
REMARK   15  A    between atoms: C26_41  and  C27_44 
ROOT
HETATM    1  C7  UNL     1      -2.875  -0.149  -0.739  1.00  0.00     0.120 C 
HETATM    2  C8  UNL     1      -2.602   0.863   0.291  1.00  0.00     0.185 C 
HETATM    3  C9  UNL     1      -1.336   0.393   1.030  1.00  0.00     0.163 C 
HETATM    4  C10 UNL     1      -0.540  -0.288  -0.115  1.00  0.00     0.021 C 
HETATM    5  C11 UNL     1      -0.045   0.803  -1.009  1.00  0.00     0.024 C 
HETATM    6  C30 UNL     1      -1.634  -1.093  -0.781  1.00  0.00     0.002 C 
HETATM    7  C31 UNL     1      -1.409  -1.400  -2.222  1.00  0.00     0.019 C 
HETATM    8  C32 UNL     1      -1.903  -2.382  -0.058  1.00  0.00     0.019 C 
ENDROOT
BRANCH   4   9
HETATM    9  C12 UNL     1       0.573  -1.057   0.488  1.00  0.00    -0.038 C 
HETATM   10  C13 UNL     1       0.657  -1.380   1.781  1.00  0.00    -0.019 C 
HETATM   11  C14 UNL     1       1.873  -2.144   2.080  1.00  0.00     0.038 C 
HETATM   12  C15 UNL     1       2.743  -2.048   0.879  1.00  0.00     0.063 C 
HETATM   13  C16 UNL     1       1.761  -1.580  -0.181  1.00  0.00     0.089 C 
HETATM   14  C18 UNL     1       3.494  -0.806   0.646  1.00  0.00     0.077 C 
HETATM   15  C17 UNL     1       1.688  -2.578  -1.265  1.00  0.00     0.051 C 
HETATM   16  O9  UNL     1       2.664  -0.527  -0.404  1.00  0.00    -0.363 OA
HETATM   17  C19 UNL     1       3.529   0.227   1.753  1.00  0.00     0.040 C 
HETATM   18  C23 UNL     1       4.953  -0.874   0.297  1.00  0.00    -0.007 C 
HETATM   19  C20 UNL     1       4.825  -0.021   2.480  1.00  0.00     0.008 C 
HETATM   20  C21 UNL     1       5.604  -1.032   1.651  1.00  0.00    -0.007 C 
HETATM   21  C22 UNL     1       5.535  -2.336   2.305  1.00  0.00     0.011 C 
HETATM   22  C24 UNL     1       5.372  -1.964  -0.607  1.00  0.00     0.019 C 
BRANCH  18  23
HETATM   23  C25 UNL     1       5.482   0.428  -0.216  1.00  0.00     0.044 C 
BRANCH  23  24
HETATM   24  C26 UNL     1       4.902   1.022  -1.418  1.00  0.00     0.122 C 
BRANCH  24  25
HETATM   25  O10 UNL     1       4.953   0.316  -2.587  1.00  0.00    -0.395 OA
ATOM     26  H10 UNL     1       4.576   0.702  -3.369  1.00  0.00     0.210 HD
ENDBRANCH  24  25
BRANCH  24  27
HETATM   27  C27 UNL     1       5.713   2.309  -1.687  1.00  0.00     0.006 C 
HETATM   28  C28 UNL     1       7.172   1.964  -1.900  1.00  0.00     0.012 C 
HETATM   29  C29 UNL     1       5.526   3.291  -0.570  1.00  0.00     0.012 C 
ENDBRANCH  24  27
ENDBRANCH  23  24
ENDBRANCH  18  23
ENDBRANCH   4   9
BRANCH   3  30
HETATM   30  O8  UNL     1      -0.637   1.410   1.599  1.00  0.00    -0.392 OA
ATOM     31  H8  UNL     1       0.144   1.120   2.055  1.00  0.00     0.210 HD
ENDBRANCH   3  30
BRANCH   2  32
HETATM   32  O7  UNL     1      -2.236   2.132  -0.180  1.00  0.00    -0.390 OA
ATOM     33  H7  UNL     1      -2.060   2.786   0.486  1.00  0.00     0.210 HD
ENDBRANCH   2  32
BRANCH   1  34
HETATM   34  C6  UNL     1      -4.117  -0.919  -0.517  1.00  0.00     0.161 C 
BRANCH  34  35
HETATM   35  C5  UNL     1      -5.390  -0.233  -0.827  1.00  0.00     0.103 C 
BRANCH  35  36
HETATM   36  C4  UNL     1      -5.908   0.912  -0.086  1.00  0.00     0.169 C 
HETATM   37  O3  UNL     1      -6.128   0.726   1.278  1.00  0.00    -0.350 OA
HETATM   38  C3  UNL     1      -6.857   1.848   1.664  1.00  0.00     0.240 C 
HETATM   39  C2  UNL     1      -7.778   2.169   0.511  1.00  0.00     0.188 C 
HETATM   40  C33 UNL     1      -7.452   1.068  -0.466  1.00  0.00     0.139 C 
BRANCH  39  41
HETATM   41  O1  UNL     1      -9.096   2.251   0.875  1.00  0.00    -0.358 OA
HETATM   42  C1  UNL     1      -9.652   1.136   1.437  1.00  0.00     0.205 C 
ENDBRANCH  39  41
BRANCH  39  43
HETATM   43  O2  UNL     1      -7.415   3.401  -0.035  1.00  0.00    -0.363 OA
ATOM     44  H2  UNL     1      -6.501   3.344  -0.287  1.00  0.00     0.213 HD
ENDBRANCH  39  43
BRANCH  36  45
HETATM   45  O4  UNL     1      -5.442   2.171  -0.384  1.00  0.00    -0.365 OA
ATOM     46  H4  UNL     1      -5.292   2.298  -1.313  1.00  0.00     0.213 HD
ENDBRANCH  36  45
ENDBRANCH  35  36
ENDBRANCH  34  35
BRANCH  34  47
HETATM   47  O5  UNL     1      -4.134  -1.987  -1.541  1.00  0.00    -0.392 OA
ATOM     48  H5  UNL     1      -3.316  -2.428  -1.342  1.00  0.00     0.210 HD
ENDBRANCH  34  47
ENDBRANCH   1  34
BRANCH   1  49
HETATM   49  O6  UNL     1      -2.995   0.457  -1.989  1.00  0.00    -0.384 OA
ATOM     50  H6  UNL     1      -2.197   0.952  -2.132  1.00  0.00     0.210 HD
ENDBRANCH   1  49
TORSDOF 15
