REMARK  1 active torsions:
REMARK  status: ('A' for Active; 'I' for Inactive)
REMARK    1  A    between atoms: N2_8  and  O1_9 
ROOT
HETATM    1  N1  UNL     1       3.161  -1.496  -0.590  1.00  0.00    -0.190 NA
HETATM    2  C1  UNL     1       2.095  -1.068  -0.427  1.00  0.00     0.120 C 
HETATM    3  C2  UNL     1       0.776  -0.547  -0.205  1.00  0.00     0.141 A 
HETATM    4  C3  UNL     1      -0.336  -1.352  -0.079  1.00  0.00     0.043 A 
HETATM    5  C4  UNL     1      -1.603  -0.852   0.134  1.00  0.00     0.004 A 
HETATM    6  C5  UNL     1      -1.769   0.514   0.224  1.00  0.00     0.020 A 
HETATM    7  C6  UNL     1      -0.652   1.302   0.097  1.00  0.00     0.124 A 
HETATM    8  N2  UNL     1       0.565   0.779  -0.110  1.00  0.00    -0.226 N 
ENDROOT
BRANCH   8   9
HETATM    9  O1  UNL     1       1.687   1.577  -0.238  1.00  0.00    -0.282 OA
ATOM     10  H1  UNL     1       1.538   2.513  -0.171  1.00  0.00     0.245 HD
ENDBRANCH   8   9
TORSDOF 1
