REMARK  1 active torsions:
REMARK  status: ('A' for Active; 'I' for Inactive)
REMARK    1  A    between atoms: O1_1  and  C1_3 
ROOT
HETATM    1  C1  UNL     1       0.007   1.045   0.040  1.00  0.00     0.160 C 
HETATM    2  C2  UNL     1      -0.426  -0.155   0.910  1.00  0.00     0.063 C 
HETATM    3  C3  UNL     1       0.865  -0.857   1.022  1.00  0.00    -0.019 C 
HETATM    4  C4  UNL     1       1.494  -0.697  -0.146  1.00  0.00     0.004 C 
HETATM    5  C5  UNL     1       0.613   0.114  -1.030  1.00  0.00     0.173 C 
HETATM    6  O2  UNL     1      -0.494  -0.667  -1.336  1.00  0.00    -0.379 OA
HETATM    7  C6  UNL     1      -1.220  -0.860  -0.163  1.00  0.00     0.179 C 
ENDROOT
BRANCH   1   8
HETATM    8  O1  UNL     1      -1.059   1.752  -0.432  1.00  0.00    -0.392 OA
ATOM      9  H1  UNL     1      -0.793   2.490  -0.967  1.00  0.00     0.210 HD
ENDBRANCH   1   8
TORSDOF 1
