REMARK  0 active torsions:
REMARK  status: ('A' for Active; 'I' for Inactive)
ROOT
HETATM    1  N1  UNL     1       3.820   0.258  -0.078  1.00  0.00    -0.172 NA
HETATM    2  C1  UNL     1       2.835  -0.356  -0.109  1.00  0.00     0.183 C 
HETATM    3  N2  UNL     1       1.635  -1.077  -0.154  1.00  0.00    -0.279 N 
ATOM      4  H2  UNL     1       1.643  -2.091  -0.261  1.00  0.00     0.179 HD
HETATM    5  C2  UNL     1       0.505  -0.429  -0.057  1.00  0.00     0.117 A 
HETATM    6  C3  UNL     1      -0.689  -1.117  -0.098  1.00  0.00     0.074 A 
HETATM    7  C4  UNL     1      -1.852  -0.363   0.011  1.00  0.00     0.147 A 
HETATM    8  O1  UNL     1      -1.810   0.946   0.146  1.00  0.00    -0.318 OA
HETATM    9  C5  UNL     1      -0.679   1.607   0.185  1.00  0.00     0.234 A 
HETATM   10  N3  UNL     1       0.465   0.909   0.083  1.00  0.00    -0.333 N 
ATOM     11  H3  UNL     1       1.348   1.419   0.113  1.00  0.00     0.168 HD
ENDROOT
TORSDOF 0
