REMARK  5 active torsions:
REMARK  status: ('A' for Active; 'I' for Inactive)
REMARK    1  A    between atoms: C2_2  and  C3_3 
REMARK    2  A    between atoms: C3_3  and  N1_4 
REMARK    3  A    between atoms: N1_4  and  C4_7 
REMARK    4  A    between atoms: C7_10  and  C8_11 
REMARK    5  A    between atoms: C8_11  and  N2_12 
ROOT
HETATM    1  C4  UNL     1       0.240  -0.548   0.371  1.00  0.00     0.186 C 
HETATM    2  C5  UNL     1      -0.361  -1.872   0.826  1.00  0.00     0.033 C 
HETATM    3  C6  UNL     1      -1.810  -1.448   0.972  1.00  0.00     0.008 C 
HETATM    4  C7  UNL     1      -2.033  -0.654  -0.271  1.00  0.00     0.013 C 
HETATM    5  C9  UNL     1      -0.693  -0.189  -0.767  1.00  0.00     0.039 C 
ENDROOT
BRANCH   1   6
HETATM    6  N1  UNL     1       1.606  -0.697  -0.062  1.00  0.00    -0.068 N 
ATOM      7  H12 UNL     1       1.722  -1.383  -0.808  1.00  0.00     0.277 HD
ATOM      8  H11 UNL     1       2.201  -1.158   0.627  1.00  0.00     0.277 HD
BRANCH   6   9
HETATM    9  C3  UNL     1       2.070   0.640  -0.427  1.00  0.00     0.259 C 
BRANCH   9  10
HETATM   10  C2  UNL     1       3.459   0.640  -0.889  1.00  0.00    -0.010 C 
HETATM   11  C1  UNL     1       4.375   1.340  -0.265  1.00  0.00     0.008 C 
ENDBRANCH   9  10
ENDBRANCH   6   9
ENDBRANCH   1   6
BRANCH   4  12
HETATM   12  C8  UNL     1      -2.936   0.537  -0.074  1.00  0.00     0.234 C 
BRANCH  12  13
HETATM   13  N2  UNL     1      -2.410   1.472   0.900  1.00  0.00    -0.079 N 
ATOM     14  H23 UNL     1      -2.214   1.008   1.787  1.00  0.00     0.274 HD
ATOM     15  H22 UNL     1      -1.464   1.764   0.656  1.00  0.00     0.274 HD
ATOM     16  H21 UNL     1      -3.021   2.278   1.033  1.00  0.00     0.274 HD
ENDBRANCH  12  13
ENDBRANCH   4  12
TORSDOF 5
