REMARK  6 active torsions:
REMARK  status: ('A' for Active; 'I' for Inactive)
REMARK       I    between atoms: N1_3  and  C3_4 
REMARK    1  A    between atoms: C3_4  and  C4_6 
REMARK    2  A    between atoms: C4_6  and  C5_7 
REMARK    3  A    between atoms: C4_6  and  N2_11 
REMARK    4  A    between atoms: C5_7  and  C6_8 
REMARK       I    between atoms: N2_11  and  C9_12 
REMARK    5  A    between atoms: C9_12  and  C10_14 
REMARK    6  A    between atoms: C10_14  and  N3_16 
ROOT
HETATM    1  C1  UNL     1       1.368  -2.157   0.322  1.00  0.00     0.039 C 
HETATM    2  C2  UNL     1       1.146  -0.881  -0.027  1.00  0.00     0.014 C 
HETATM    3  N1  UNL     1      -0.205  -0.211   0.099  1.00  0.00    -0.319 N 
HETATM    4  C3  UNL     1      -1.203  -0.933   0.693  1.00  0.00     0.260 C 
HETATM    5  O1  UNL     1      -1.128  -1.970   1.312  1.00  0.00    -0.269 OA
HETATM    6  C13 UNL     1      -0.058   1.061  -0.537  1.00  0.00     0.133 C 
HETATM    7  C14 UNL     1       1.256   0.927  -1.402  1.00  0.00     0.036 C 
HETATM    8  C15 UNL     1       2.098   0.127  -0.438  1.00  0.00     0.003 C 
HETATM    9  C16 UNL     1       3.256  -0.547  -1.189  1.00  0.00     0.017 C 
HETATM   10  C17 UNL     1       4.432  -0.961  -0.417  1.00  0.00     0.013 C 
HETATM   11  C18 UNL     1       4.894   0.249   0.397  1.00  0.00    -0.017 C 
HETATM   12  C19 UNL     1       6.090  -0.145   1.237  1.00  0.00     0.038 C 
HETATM   13  C20 UNL     1       7.191   0.085   0.232  1.00  0.00     0.168 C 
HETATM   14  O3  UNL     1       6.730   0.758  -0.801  1.00  0.00    -0.390 OA
HETATM   15  C21 UNL     1       5.471   1.316  -0.513  1.00  0.00     0.177 C 
HETATM   16  C22 UNL     1       3.855   0.692   1.309  1.00  0.00     0.013 C 
HETATM   17  C23 UNL     1       2.512   0.982   0.718  1.00  0.00     0.017 C 
ENDROOT
BRANCH   4  18
HETATM   18  C4  UNL     1      -2.773  -0.438   0.609  1.00  0.00     0.259 C 
BRANCH  18  19
HETATM   19  C5  UNL     1      -3.493  -1.744   1.037  1.00  0.00     0.053 C 
BRANCH  19  20
HETATM   20  C6  UNL     1      -3.223  -2.974   0.368  1.00  0.00    -0.019 C 
HETATM   21  C7  UNL     1      -3.584  -3.360  -1.018  1.00  0.00     0.009 C 
HETATM   22  C8  UNL     1      -3.471  -4.134   1.365  1.00  0.00     0.009 C 
ENDBRANCH  19  20
ENDBRANCH  18  19
BRANCH  18  23
HETATM   23  N2  UNL     1      -3.077   0.284  -0.324  1.00  0.00    -0.398 NA
HETATM   24  C9  UNL     1      -3.456   1.180  -1.502  1.00  0.00     0.318 C 
HETATM   25  O2  UNL     1      -3.449   1.021  -2.593  1.00  0.00    -0.255 OA
BRANCH  24  26
HETATM   26  C10 UNL     1      -3.947   2.366  -0.653  1.00  0.00     0.287 C 
HETATM   27  C11 UNL     1      -5.079   2.036   0.320  1.00  0.00     0.051 C 
BRANCH  26  28
HETATM   28  N3  UNL     1      -4.234   3.573  -1.356  1.00  0.00    -0.065 N 
HETATM   29  C12 UNL     1      -4.383   4.591  -0.303  1.00  0.00     0.267 C 
ATOM     30  H32 UNL     1      -3.546   3.812  -2.070  1.00  0.00     0.277 HD
ATOM     31  H31 UNL     1      -5.034   3.507  -1.986  1.00  0.00     0.277 HD
ENDBRANCH  26  28
ENDBRANCH  24  26
ENDBRANCH  18  23
ENDBRANCH   4  18
TORSDOF 6
