REMARK  8 active torsions:
REMARK  status: ('A' for Active; 'I' for Inactive)
REMARK    1  A    between atoms: C2_2  and  N1_3 
REMARK    2  A    between atoms: N1_3  and  C3_4 
REMARK    3  A    between atoms: N1_3  and  C18_25 
REMARK    4  A    between atoms: C3_4  and  C4_5 
REMARK    5  A    between atoms: C7_8  and  N2_9 
REMARK    6  A    between atoms: N2_9  and  C8_11 
REMARK    7  A    between atoms: C8_11  and  N3_13 
REMARK    8  A    between atoms: N3_13  and  C9_15 
ROOT
HETATM    1  C18 UNL     1       5.623  -0.222  -0.440  1.00  0.00     0.225 C 
HETATM    2  C19 UNL     1       6.693   0.790  -0.115  1.00  0.00     0.055 C 
HETATM    3  C20 UNL     1       5.759   1.816  -0.780  1.00  0.00     0.097 C 
HETATM    4  C21 UNL     1       6.453   2.869  -1.473  1.00  0.00     0.064 C 
HETATM    5  N5  UNL     1       6.987   3.712  -2.020  1.00  0.00    -0.197 NA
HETATM    6  C22 UNL     1       5.366   0.641  -1.690  1.00  0.00     0.055 C 
ENDROOT
BRANCH   1   7
HETATM    7  N1  UNL     1       4.540  -0.222   0.488  1.00  0.00     0.093 N 
BRANCH   7   8
HETATM    8  C2  UNL     1       4.981  -0.592   1.792  1.00  0.00     0.268 C 
HETATM    9  C1  UNL     1       5.717  -1.909   1.843  1.00  0.00     0.037 C 
ENDBRANCH   7   8
BRANCH   7  10
HETATM   10  C3  UNL     1       3.478  -1.079  -0.011  1.00  0.00     0.277 C 
BRANCH  10  11
HETATM   11  C4  UNL     1       2.195  -0.902   0.749  1.00  0.00     0.014 C 
HETATM   12  C5  UNL     1       1.161  -1.828   0.166  1.00  0.00     0.008 C 
HETATM   13  C6  UNL     1       0.328  -1.225  -0.914  1.00  0.00     0.025 C 
HETATM   14  C7  UNL     1      -0.348   0.060  -0.573  1.00  0.00     0.083 C 
HETATM   15  C16 UNL     1       0.234   0.635   0.695  1.00  0.00     0.025 C 
HETATM   16  C17 UNL     1       1.728   0.546   0.610  1.00  0.00     0.008 C 
BRANCH  14  17
HETATM   17  N2  UNL     1      -1.795  -0.063  -0.440  1.00  0.00    -0.363 N 
ATOM     18  H2  UNL     1      -2.218   0.152   0.463  1.00  0.00     0.162 HD
BRANCH  17  19
HETATM   19  C8  UNL     1      -2.645  -0.467  -1.505  1.00  0.00     0.168 C 
HETATM   20  S1  UNL     1      -2.027  -0.821  -2.998  1.00  0.00    -0.041 SA
BRANCH  19  21
HETATM   21  N3  UNL     1      -4.041  -0.567  -1.305  1.00  0.00    -0.361 N 
ATOM     22  H3  UNL     1      -4.611  -0.867  -2.096  1.00  0.00     0.162 HD
BRANCH  21  23
HETATM   23  C9  UNL     1      -4.715  -0.278  -0.074  1.00  0.00     0.116 C 
HETATM   24  C10 UNL     1      -4.620   1.173   0.352  1.00  0.00     0.297 C 
HETATM   25  N4  UNL     1      -5.938   1.823   0.261  1.00  0.00     0.090 N 
HETATM   26  C11 UNL     1      -6.808   1.259   1.305  1.00  0.00     0.273 C 
HETATM   27  C15 UNL     1      -6.467   1.487  -1.058  1.00  0.00     0.273 C 
HETATM   28  C12 UNL     1      -6.683  -0.263   1.346  1.00  0.00     0.037 C 
HETATM   29  C13 UNL     1      -6.148  -0.693  -0.027  1.00  0.00     0.013 C 
HETATM   30  C14 UNL     1      -6.995   0.056  -1.036  1.00  0.00     0.037 C 
ENDBRANCH  21  23
ENDBRANCH  19  21
ENDBRANCH  17  19
ENDBRANCH  14  17
ENDBRANCH  10  11
ENDBRANCH   7  10
ENDBRANCH   1   7
TORSDOF 8
