REMARK  3 active torsions:
REMARK  status: ('A' for Active; 'I' for Inactive)
REMARK    1  A    between atoms: C2_2  and  C3_3 
REMARK    2  A    between atoms: C3_3  and  C4_4 
REMARK    3  A    between atoms: C4_4  and  C5_5 
REMARK       I    between atoms: N2_9  and  C7_11 
REMARK       I    between atoms: C7_11  and  N3_13 
ROOT
HETATM    1  C5  UNL     1      -1.055   0.284   0.905  1.00  0.00     0.022 C 
HETATM    2  N1  UNL     1      -0.189   1.278   0.816  1.00  0.00    -0.350 N 
ATOM      3  H1  UNL     1      -0.439   2.223   1.107  1.00  0.00     0.166 HD
HETATM    4  C6  UNL     1       1.089   0.988   0.306  1.00  0.00     0.085 C 
HETATM    5  N2  UNL     1       1.673   1.698  -0.620  1.00  0.00    -0.298 N 
ATOM      6  H2  UNL     1       1.214   2.515  -1.023  1.00  0.00     0.172 HD
HETATM    7  C7  UNL     1       2.978   1.297  -1.054  1.00  0.00     0.321 C 
HETATM    8  O1  UNL     1       3.141   0.496  -2.008  1.00  0.00    -0.247 OA
HETATM    9  N3  UNL     1       4.113   1.820  -0.387  1.00  0.00    -0.347 N 
ATOM     10  H3  UNL     1       4.005   2.472   0.390  1.00  0.00     0.163 HD
HETATM   11  C8  UNL     1       5.428   1.412  -0.829  1.00  0.00     0.151 C 
HETATM   12  C9  UNL     1       1.757  -0.197   0.891  1.00  0.00     0.084 C 
HETATM   13  C10 UNL     1       0.838  -1.363   0.868  1.00  0.00     0.028 C 
HETATM   14  C11 UNL     1       1.443  -2.412  -0.043  1.00  0.00     0.014 C 
HETATM   15  C12 UNL     1      -0.586  -1.026   0.427  1.00  0.00     0.219 C 
HETATM   16  F1  UNL     1      -1.424  -2.056   0.888  1.00  0.00    -0.243 F 
ENDROOT
BRANCH   1  17
HETATM   17  C4  UNL     1      -2.406   0.568   1.436  1.00  0.00     0.055 C 
BRANCH  17  18
HETATM   18  C3  UNL     1      -3.510   0.745   0.488  1.00  0.00     0.005 C 
BRANCH  18  19
HETATM   19  C2  UNL     1      -3.764  -0.442  -0.383  1.00  0.00    -0.004 C 
HETATM   20  C1  UNL     1      -4.957  -0.097  -1.298  1.00  0.00     0.005 C 
ENDBRANCH  18  19
ENDBRANCH  17  18
ENDBRANCH   1  17
TORSDOF 3
