REMARK  5 active torsions:
REMARK  status: ('A' for Active; 'I' for Inactive)
REMARK    1  A    between atoms: O1_1  and  N1_3 
REMARK    2  A    between atoms: N1_3  and  C1_5 
REMARK    3  A    between atoms: C4_8  and  C5_9 
REMARK    4  A    between atoms: C5_9  and  N2_11 
REMARK    5  A    between atoms: N2_11  and  N3_13 
ROOT
HETATM    1  C1  UNL     1      -2.309  -0.105  -0.293  1.00  0.00     0.054 A 
HETATM    2  C2  UNL     1      -1.963  -1.035   0.668  1.00  0.00     0.032 A 
HETATM    3  C3  UNL     1      -0.709  -1.021   1.245  1.00  0.00     0.017 A 
HETATM    4  C4  UNL     1       0.241  -0.068   0.872  1.00  0.00     0.004 A 
HETATM    5  C6  UNL     1      -0.095   0.866  -0.088  1.00  0.00     0.017 A 
HETATM    6  C7  UNL     1      -1.356   0.829  -0.649  1.00  0.00     0.032 A 
ENDROOT
BRANCH   4   7
HETATM    7  C5  UNL     1       1.567  -0.033   1.464  1.00  0.00     0.130 C 
HETATM    8  S1  UNL     1       1.677  -0.030   3.090  1.00  0.00    -0.058 SA
BRANCH   7   9
HETATM    9  N2  UNL     1       2.769  -0.000   0.720  1.00  0.00    -0.230 N 
ATOM     10  H2  UNL     1       3.669   0.024   1.200  1.00  0.00     0.194 HD
BRANCH   9  11
HETATM   11  N3  UNL     1       2.718  -0.001  -0.686  1.00  0.00    -0.038 N 
HETATM   12  O2  UNL     1       2.136  -0.905  -1.318  1.00  0.00    -0.516 OA
HETATM   13  O3  UNL     1       3.323   1.017  -1.375  1.00  0.00    -0.516 OA
ENDBRANCH   9  11
ENDBRANCH   7   9
ENDBRANCH   4   7
BRANCH   1  14
HETATM   14  N1  UNL     1      -3.616  -0.116  -0.898  1.00  0.00    -0.269 N 
ATOM     15  H1  UNL     1      -4.198  -0.952  -0.856  1.00  0.00     0.194 HD
BRANCH  14  16
HETATM   16  O1  UNL     1      -4.027   0.914  -1.476  1.00  0.00    -0.289 OA
ATOM     17  H1  UNL     1      -4.889   0.907  -1.875  1.00  0.00     0.244 HD
ENDBRANCH  14  16
ENDBRANCH   1  14
TORSDOF 5
