REMARK  2 active torsions:
REMARK  status: ('A' for Active; 'I' for Inactive)
REMARK    1  A    between atoms: C2_2  and  O1_3 
REMARK    2  A    between atoms: C6_8  and  C8_10 
REMARK       I    between atoms: C8_10  and  N1_12 
ROOT
HETATM    1  C1  UNL     1      -3.503  -0.326   1.085  1.00  0.00     0.047 C 
HETATM    2  C2  UNL     1      -2.362   0.570   0.665  1.00  0.00     0.070 C 
HETATM    3  C3  UNL     1      -2.766   1.166  -0.684  1.00  0.00     0.038 C 
HETATM    4  C4  UNL     1      -2.598  -0.004  -1.610  1.00  0.00     0.004 C 
HETATM    5  C5  UNL     1      -1.364  -0.687  -1.117  1.00  0.00     0.022 C 
HETATM    6  C6  UNL     1      -1.122  -0.203   0.310  1.00  0.00     0.068 C 
HETATM    7  C7  UNL     1      -0.887  -1.357   1.250  1.00  0.00     0.028 C 
ENDROOT
BRANCH   6   8
HETATM    8  C8  UNL     1       0.030   0.715   0.272  1.00  0.00     0.231 C 
HETATM    9  O2  UNL     1      -0.182   1.938   0.612  1.00  0.00    -0.272 OA
HETATM   10  N1  UNL     1       1.348   0.425  -0.090  1.00  0.00    -0.351 N 
HETATM   11  C9  UNL     1       2.364   1.458  -0.051  1.00  0.00     0.125 C 
HETATM   12  C13 UNL     1       1.764  -0.871  -0.522  1.00  0.00     0.125 C 
HETATM   13  C10 UNL     1       3.656   0.913  -0.607  1.00  0.00     0.020 C 
HETATM   14  C11 UNL     1       4.094  -0.343   0.119  1.00  0.00     0.003 C 
HETATM   15  C12 UNL     1       2.957  -1.319   0.319  1.00  0.00     0.020 C 
ENDBRANCH   6   8
BRANCH   2  16
HETATM   16  O1  UNL     1      -2.213   1.568   1.580  1.00  0.00    -0.389 OA
ATOM     17  H1  UNL     1      -1.495   2.132   1.316  1.00  0.00     0.210 HD
ENDBRANCH   2  16
TORSDOF 2
