REMARK  5 active torsions:
REMARK  status: ('A' for Active; 'I' for Inactive)
REMARK    1  A    between atoms: C2_2  and  N1_5 
REMARK    2  A    between atoms: N1_5  and  C5_6 
REMARK    3  A    between atoms: C5_6  and  N2_7 
REMARK    4  A    between atoms: C5_6  and  C7_13 
REMARK    5  A    between atoms: N2_7  and  S1_9 
ROOT
HETATM    1  C5  UNL     1       0.398   0.135  -0.527  1.00  0.00     0.166 C 
ENDROOT
BRANCH   1   2
HETATM    2  N1  UNL     1      -0.655  -0.368  -0.303  1.00  0.00    -0.423 NA
BRANCH   2   3
HETATM    3  C2  UNL     1      -1.918  -0.629   0.075  1.00  0.00     0.084 C 
HETATM    4  C1  UNL     1      -2.381  -1.922  -0.652  1.00  0.00     0.053 C 
HETATM    5  C3  UNL     1      -3.009   0.377  -0.336  1.00  0.00     0.053 C 
HETATM    6  C4  UNL     1      -2.190  -0.928   1.536  1.00  0.00     0.053 C 
ENDBRANCH   2   3
ENDBRANCH   1   2
BRANCH   1   7
HETATM    7  N2  UNL     1       1.468  -0.616  -1.156  1.00  0.00    -0.262 N 
ATOM      8  H2  UNL     1       1.903  -0.213  -1.986  1.00  0.00     0.181 HD
BRANCH   7   9
HETATM    9  S1  UNL     1       2.047  -2.107  -0.617  1.00  0.00     0.228 S 
HETATM   10  C6  UNL     1       2.712  -1.914   1.047  1.00  0.00     0.186 C 
HETATM   11  O1  UNL     1       3.209  -2.541  -1.459  1.00  0.00    -0.206 OA
HETATM   12  O2  UNL     1       1.022  -3.185  -0.516  1.00  0.00    -0.206 OA
ENDBRANCH   7   9
ENDBRANCH   1   7
BRANCH   1  13
HETATM   13  C7  UNL     1       0.746   1.534  -0.212  1.00  0.00     0.021 C 
HETATM   14  C8  UNL     1      -0.310   2.349   0.437  1.00  0.00     0.024 C 
HETATM   15  C9  UNL     1       1.263   2.230  -1.486  1.00  0.00     0.024 C 
HETATM   16  C10 UNL     1       1.959   1.588   0.739  1.00  0.00     0.024 C 
ENDBRANCH   1  13
TORSDOF 5
