REMARK  7 active torsions:
REMARK  status: ('A' for Active; 'I' for Inactive)
REMARK    1  A    between atoms: C1_2  and  N1_3 
REMARK    2  A    between atoms: N1_3  and  C2_5 
REMARK    3  A    between atoms: C2_5  and  C3_6 
REMARK    4  A    between atoms: C4_7  and  C5_8 
REMARK    5  A    between atoms: C7_10  and  O2_11 
REMARK    6  A    between atoms: C10_15  and  N2_16 
REMARK    7  A    between atoms: N2_16  and  C11_18 
ROOT
HETATM    1  C5  UNL     1      -0.762  -0.914  -0.353  1.00  0.00    -0.033 A 
HETATM    2  C6  UNL     1      -1.497  -1.973  -0.551  1.00  0.00     0.018 A 
HETATM    3  C7  UNL     1      -3.028  -1.966  -1.254  1.00  0.00     0.164 A 
HETATM    4  C8  UNL     1      -2.915  -0.634  -1.377  1.00  0.00     0.007 A 
HETATM    5  C9  UNL     1      -2.422   0.083  -1.230  1.00  0.00     0.002 A 
HETATM    6  C10 UNL     1      -1.246   0.609  -0.706  1.00  0.00     0.139 A 
ENDROOT
BRANCH   1   7
HETATM    7  C4  UNL     1       0.542  -0.969   0.245  1.00  0.00     0.007 C 
HETATM    8  C3  UNL     1       1.311   0.055   0.430  1.00  0.00    -0.007 C 
BRANCH   8   9
HETATM    9  C2  UNL     1       2.636  -0.179   1.071  1.00  0.00     0.149 C 
BRANCH   9  10
HETATM   10  N1  UNL     1       3.682   0.235   0.170  1.00  0.00    -0.365 N 
ATOM     11  H1  UNL     1       4.365  -0.442  -0.170  1.00  0.00     0.162 HD
BRANCH  10  12
HETATM   12  C1  UNL     1       3.754   1.588  -0.239  1.00  0.00     0.348 C 
HETATM   13  O1  UNL     1       2.934   2.433   0.169  1.00  0.00    -0.284 OA
ENDBRANCH  10  12
ENDBRANCH   9  10
ENDBRANCH   8   9
ENDBRANCH   1   7
BRANCH   6  14
HETATM   14  N2  UNL     1      -1.540   1.266   0.528  1.00  0.00    -0.356 N 
ATOM     15  H2  UNL     1      -1.895   0.713   1.308  1.00  0.00     0.162 HD
BRANCH  14  16
HETATM   16  C11 UNL     1      -1.357   2.647   0.704  1.00  0.00     0.349 C 
HETATM   17  O3  UNL     1      -0.923   3.380  -0.215  1.00  0.00    -0.284 OA
ENDBRANCH  14  16
ENDBRANCH   6  14
BRANCH   3  18
HETATM   18  O2  UNL     1      -3.821  -2.468  -0.267  1.00  0.00    -0.388 OA
ATOM     19  H2  UNL     1      -4.684  -2.464  -0.663  1.00  0.00     0.210 HD
ENDBRANCH   3  18
TORSDOF 7
