REMARK  2 active torsions:
REMARK  status: ('A' for Active; 'I' for Inactive)
REMARK    1  A    between atoms: C2_2  and  O1_3 
REMARK    2  A    between atoms: C2_2  and  C3_5 
ROOT
HETATM    1  C3  UNL     1       0.570   0.034   0.074  1.00  0.00     0.015 C 
HETATM    2  C4  UNL     1       0.099  -1.136  -0.821  1.00  0.00     0.044 C 
HETATM    3  C5  UNL     1      -1.394  -0.823  -0.546  1.00  0.00     0.056 C 
HETATM    4 CL1  UNL     1      -2.511  -1.916  -1.156  1.00  0.00    -0.117 Cl
HETATM    5  C6  UNL     1      -1.308   0.549  -1.258  1.00  0.00     0.033 C 
HETATM    6  C7  UNL     1      -0.376   1.146  -0.181  1.00  0.00     0.004 C 
HETATM    7  C8  UNL     1      -1.431   1.051   0.943  1.00  0.00     0.029 C 
HETATM    8  C9  UNL     1      -1.441  -0.494   0.938  1.00  0.00     0.041 C 
HETATM    9 BR1  UNL     1      -2.688  -1.321   1.978  1.00  0.00    -0.083 Br
HETATM   10  C10 UNL     1       0.038  -0.625   1.367  1.00  0.00     0.040 C 
ENDROOT
BRANCH   1  11
HETATM   11  C2  UNL     1       1.964   0.272   0.043  1.00  0.00     0.043 C 
HETATM   12  C1  UNL     1       2.768  -0.467  -0.704  1.00  0.00     0.046 C 
BRANCH  11  13
HETATM   13  O1  UNL     1       2.491   1.302   0.813  1.00  0.00    -0.365 OA
ATOM     14  H1  UNL     1       1.914   1.833   1.349  1.00  0.00     0.217 HD
ENDBRANCH  11  13
ENDBRANCH   1  11
TORSDOF 2
