REMARK  2 active torsions:
REMARK  status: ('A' for Active; 'I' for Inactive)
REMARK    1  A    between atoms: C5_5  and  C6_6 
REMARK    2  A    between atoms: C6_6  and  N1_7 
ROOT
HETATM    1  C1  UNL     1      -3.631   0.600  -0.017  1.00  0.00     0.000 C 
HETATM    2  C2  UNL     1      -3.382  -0.867  -0.244  1.00  0.00     0.000 C 
HETATM    3  C3  UNL     1      -1.899  -1.216  -0.146  1.00  0.00     0.001 C 
HETATM    4  C4  UNL     1      -1.106  -0.371  -1.106  1.00  0.00     0.010 C 
HETATM    5  C5  UNL     1      -0.498   0.848  -0.516  1.00  0.00     0.024 C 
HETATM    6  C11 UNL     1      -1.532   1.836  -0.009  1.00  0.00     0.010 C 
HETATM    7  C12 UNL     1      -2.580   1.228   0.861  1.00  0.00     0.001 C 
ENDROOT
BRANCH   5   8
HETATM    8  C6  UNL     1       0.569   0.667   0.488  1.00  0.00     0.063 C 
BRANCH   8   9
HETATM    9  N1  UNL     1       1.748   0.018   0.182  1.00  0.00    -0.389 N 
HETATM   10  C7  UNL     1       1.843  -1.347  -0.081  1.00  0.00     0.148 C 
HETATM   11  C8  UNL     1       3.169  -1.804   0.568  1.00  0.00     0.187 C 
HETATM   12  O1  UNL     1       4.248  -1.269  -0.112  1.00  0.00    -0.388 OA
HETATM   13  C9  UNL     1       4.159   0.096  -0.311  1.00  0.00     0.187 C 
HETATM   14  C10 UNL     1       2.977   0.722   0.381  1.00  0.00     0.148 C 
ENDBRANCH   8   9
ENDBRANCH   5   8
TORSDOF 2
