REMARK  2 active torsions:
REMARK  status: ('A' for Active; 'I' for Inactive)
REMARK    1  A    between atoms: C2_2  and  C3_3 
REMARK       I    between atoms: C3_3  and  N1_5 
REMARK       I    between atoms: C4_7  and  N2_8 
REMARK       I    between atoms: C4_7  and  N3_16 
REMARK    2  A    between atoms: N2_8  and  C5_10 
ROOT
HETATM    1  C3  UNL     1      -1.772   1.482   1.104  1.00  0.00     0.258 C 
HETATM    2  O1  UNL     1      -2.437   0.641   1.745  1.00  0.00    -0.268 OA
HETATM    3  N1  UNL     1      -0.733   1.088   0.270  1.00  0.00    -0.156 N 
ATOM      4  H1  UNL     1       0.031   1.755   0.161  1.00  0.00     0.187 HD
HETATM    5  C4  UNL     1      -0.617  -0.005  -0.376  1.00  0.00     0.679 C 
HETATM    6  N2  UNL     1       0.533  -0.202  -1.173  1.00  0.00    -0.221 N 
ATOM      7  H2  UNL     1       0.392  -0.594  -2.104  1.00  0.00     0.178 HD
HETATM    8  N3  UNL     1      -1.584  -1.026  -0.332  1.00  0.00    -0.216 N 
HETATM    9  C11 UNL     1      -1.352  -2.139   0.560  1.00  0.00     0.151 C 
HETATM   10  C12 UNL     1      -2.596  -2.905   0.895  1.00  0.00     0.094 C 
HETATM   11  S1  UNL     1      -3.276  -3.537  -0.671  1.00  0.00    -0.166 SA
HETATM   12  C13 UNL     1      -3.033  -2.232  -1.905  1.00  0.00     0.094 C 
HETATM   13  C14 UNL     1      -2.746  -0.942  -1.151  1.00  0.00     0.151 C 
ENDROOT
BRANCH   6  14
HETATM   14  C5  UNL     1       1.869   0.098  -0.792  1.00  0.00     0.099 C 
HETATM   15  C6  UNL     1       2.255  -0.696   0.444  1.00  0.00     0.026 C 
HETATM   16  C7  UNL     1       3.454  -0.054   1.115  1.00  0.00     0.002 C 
HETATM   17  C8  UNL     1       4.325   0.506  -0.014  1.00  0.00     0.000 C 
HETATM   18  C9  UNL     1       3.638   1.753  -0.575  1.00  0.00     0.002 C 
HETATM   19  C10 UNL     1       2.127   1.572  -0.576  1.00  0.00     0.026 C 
ENDBRANCH   6  14
BRANCH   1  20
HETATM   20  C2  UNL     1      -2.097   2.896   1.238  1.00  0.00     0.065 C 
HETATM   21  C1  UNL     1      -3.062   3.343   2.005  1.00  0.00     0.017 C 
ENDBRANCH   1  20
TORSDOF 2
