REMARK  2 active torsions:
REMARK  status: ('A' for Active; 'I' for Inactive)
REMARK    1  A    between atoms: C6_6  and  C7_7 
REMARK       I    between atoms: C7_7  and  N1_9 
REMARK    2  A    between atoms: N1_9  and  N2_11 
ROOT
HETATM    1  C1  UNL     1      -4.678  -0.438   1.228  1.00  0.00     0.015 C 
HETATM    2  C2  UNL     1      -3.510  -0.204   0.294  1.00  0.00    -0.038 C 
HETATM    3  C3  UNL     1      -3.704   1.049  -0.507  1.00  0.00     0.041 C 
HETATM    4  C4  UNL     1      -2.554   1.138  -1.509  1.00  0.00     0.123 C 
HETATM    5  C5  UNL     1      -1.304   1.366  -0.725  1.00  0.00     0.051 C 
HETATM    6  C6  UNL     1      -1.071   0.118   0.135  1.00  0.00     0.047 C 
HETATM    7  C13 UNL     1      -0.967  -1.027  -0.874  1.00  0.00     0.051 C 
HETATM    8  C14 UNL     1      -2.284  -1.157  -1.577  1.00  0.00     0.123 C 
HETATM    9  C15 UNL     1      -3.417  -1.437  -0.602  1.00  0.00     0.041 C 
HETATM   10  O2  UNL     1      -2.516   0.008  -2.299  1.00  0.00    -0.381 OA
HETATM   11  C16 UNL     1      -2.220  -0.115   1.063  1.00  0.00     0.028 C 
ENDROOT
BRANCH   6  12
HETATM   12  C7  UNL     1       0.203   0.334   0.846  1.00  0.00     0.241 C 
HETATM   13  O1  UNL     1       0.160   0.400   2.107  1.00  0.00    -0.271 OA
HETATM   14  N1  UNL     1       1.404   0.457   0.116  1.00  0.00    -0.289 N 
ATOM     15  H1  UNL     1       1.350   0.388  -0.900  1.00  0.00     0.184 HD
BRANCH  14  16
HETATM   16  N2  UNL     1       2.658   0.666   0.683  1.00  0.00    -0.229 NA
HETATM   17  C8  UNL     1       3.580   1.058  -0.334  1.00  0.00     0.113 C 
HETATM   18  C9  UNL     1       4.772   0.151  -0.479  1.00  0.00     0.016 C 
HETATM   19  C10 UNL     1       5.451  -0.073   0.854  1.00  0.00     0.002 C 
HETATM   20  C11 UNL     1       4.462  -0.492   1.893  1.00  0.00     0.016 C 
HETATM   21  C12 UNL     1       3.028  -0.477   1.436  1.00  0.00     0.113 C 
ENDBRANCH  14  16
ENDBRANCH   6  12
TORSDOF 2
