REMARK  4 active torsions:
REMARK  status: ('A' for Active; 'I' for Inactive)
REMARK    1  A    between atoms: C2_2  and  N1_4 
REMARK    2  A    between atoms: N1_4  and  N2_5 
REMARK       I    between atoms: N2_5  and  C4_7 
REMARK    3  A    between atoms: C4_7  and  C5_9 
REMARK       I    between atoms: N3_13  and  C8_14 
REMARK    4  A    between atoms: C8_14  and  C9_16 
ROOT
HETATM    1  C5  UNL     1       1.021  -1.639   0.673  1.00  0.00     0.190 C 
HETATM    2  C6  UNL     1       1.014  -3.159   0.608  1.00  0.00     0.110 C 
HETATM    3  S1  UNL     1       0.490  -3.296  -1.152  1.00  0.00    -0.147 SA
HETATM    4  C7  UNL     1      -0.540  -1.767  -1.155  1.00  0.00     0.200 C 
HETATM    5  N3  UNL     1      -0.232  -1.180   0.099  1.00  0.00    -0.328 N 
HETATM    6  C8  UNL     1      -1.056  -0.193   0.755  1.00  0.00     0.230 C 
HETATM    7  O2  UNL     1      -0.593   0.241   1.870  1.00  0.00    -0.272 OA
ENDROOT
BRANCH   1   8
HETATM    8  C4  UNL     1       2.213  -1.182  -0.103  1.00  0.00     0.257 C 
HETATM    9  N2  UNL     1       3.477  -1.326   0.513  1.00  0.00    -0.272 N 
ATOM     10  H2  UNL     1       3.538  -1.731   1.447  1.00  0.00     0.185 HD
HETATM   11  O1  UNL     1       2.133  -0.691  -1.238  1.00  0.00    -0.270 OA
BRANCH   9  12
HETATM   12  N1  UNL     1       4.622  -0.929  -0.128  1.00  0.00    -0.135 NA
BRANCH  12  13
HETATM   13  C2  UNL     1       4.680   0.461  -0.396  1.00  0.00     0.091 C 
HETATM   14  C1  UNL     1       4.330   1.211   0.896  1.00  0.00     0.029 C 
HETATM   15  C3  UNL     1       6.130   0.810  -0.778  1.00  0.00     0.029 C 
ENDBRANCH  12  13
ENDBRANCH   9  12
ENDBRANCH   1   8
BRANCH   6  16
HETATM   16  C9  UNL     1      -2.330   0.328   0.256  1.00  0.00     0.041 C 
HETATM   17  C10 UNL     1      -2.651   1.575   1.087  1.00  0.00     0.020 C 
HETATM   18  C11 UNL     1      -4.132   1.848   0.960  1.00  0.00     0.006 C 
HETATM   19  C12 UNL     1      -4.513   1.429  -0.465  1.00  0.00    -0.014 C 
HETATM   20  C13 UNL     1      -3.358   1.851  -1.354  1.00  0.00     0.006 C 
HETATM   21  C15 UNL     1      -4.633  -0.064  -0.464  1.00  0.00     0.006 C 
HETATM   22  C14 UNL     1      -2.279   0.772  -1.187  1.00  0.00     0.020 C 
HETATM   23  C16 UNL     1      -3.510  -0.593   0.442  1.00  0.00     0.020 C 
ENDBRANCH   6  16
TORSDOF 4
