REMARK  2 active torsions:
REMARK  status: ('A' for Active; 'I' for Inactive)
REMARK    1  A    between atoms: C5_8  and  C6_9 
REMARK    2  A    between atoms: C6_9  and  O4_10 
ROOT
HETATM    1  C1  UNL     1       3.542  -0.133   1.034  1.00  0.00     0.040 C 
HETATM    2  C2  UNL     1       2.518  -0.043  -0.104  1.00  0.00     0.135 C 
HETATM    3  O1  UNL     1       2.659  -1.187  -0.934  1.00  0.00    -0.314 OA
HETATM    4  C3  UNL     1       1.421  -1.831  -1.055  1.00  0.00     0.289 C 
HETATM    5  O2  UNL     1       0.985  -2.538  -1.975  1.00  0.00    -0.262 OA
HETATM    6  C4  UNL     1       0.697  -1.483   0.199  1.00  0.00     0.229 C 
HETATM    7  O3  UNL     1      -0.618  -1.743   0.196  1.00  0.00    -0.362 OA
HETATM    8  C5  UNL     1      -1.473  -0.789  -0.255  1.00  0.00     0.084 C 
HETATM    9  C7  UNL     1      -2.199  -0.181   0.912  1.00  0.00     0.040 C 
HETATM   10  C8  UNL     1      -1.893   1.241   1.178  1.00  0.00     0.004 C 
HETATM   11  C9  UNL     1      -0.516   1.695   0.917  1.00  0.00     0.010 C 
HETATM   12  C10 UNL     1       0.210   0.955  -0.176  1.00  0.00    -0.032 C 
HETATM   13  C11 UNL     1       0.931   1.965  -1.056  1.00  0.00     0.016 C 
HETATM   14  C12 UNL     1      -0.838   0.308  -1.055  1.00  0.00     0.050 C 
HETATM   15  C13 UNL     1       1.110  -0.064   0.418  1.00  0.00     0.062 C 
ENDROOT
BRANCH   8  16
HETATM   16  C6  UNL     1      -2.457  -1.494  -1.204  1.00  0.00     0.202 C 
BRANCH  16  17
HETATM   17  O4  UNL     1      -3.157  -2.493  -0.531  1.00  0.00    -0.398 OA
ATOM     18  H4  UNL     1      -3.765  -2.928  -1.117  1.00  0.00     0.209 HD
ENDBRANCH  16  17
ENDBRANCH   8  16
TORSDOF 2
