REMARK  9 active torsions:
REMARK  status: ('A' for Active; 'I' for Inactive)
REMARK    1  A    between atoms: C2_2  and  C3_3 
REMARK    2  A    between atoms: C4_5  and  N1_6 
REMARK    3  A    between atoms: N1_6  and  C5_8 
REMARK    4  A    between atoms: N3_14  and  C9_16 
REMARK    5  A    between atoms: N4_20  and  C12_21 
REMARK    6  A    between atoms: C15_24  and  C16_25 
REMARK       I    between atoms: C16_25  and  N5_27 
REMARK    7  A    between atoms: N5_27  and  C17_28 
REMARK    8  A    between atoms: C17_28  and  C18_29 
REMARK    9  A    between atoms: C18_29  and  C19_30 
ROOT
HETATM    1  C5  UNL     1      -2.975   1.970  -1.217  1.00  0.00     0.109 A 
HETATM    2  C6  UNL     1      -3.326   0.734  -0.753  1.00  0.00     0.081 A 
HETATM    3  C7  UNL     1      -2.416  -0.320  -0.794  1.00  0.00     0.081 A 
HETATM    4  N2  UNL     1      -2.533  -1.606  -0.418  1.00  0.00    -0.189 N 
ATOM      5  H2  UNL     1      -3.364  -2.031  -0.007  1.00  0.00     0.184 HD
HETATM    6  C8  UNL     1      -1.361  -2.248  -0.676  1.00  0.00     0.683 A 
HETATM    7  N3  UNL     1      -1.205  -3.465  -0.460  1.00  0.00    -0.204 N 
ATOM      8  H3  UNL     1      -0.254  -3.715  -0.729  1.00  0.00     0.179 HD
HETATM    9  N4  UNL     1      -0.512  -1.326  -1.220  1.00  0.00    -0.175 N 
HETATM   10  C25 UNL     1      -1.149  -0.130  -1.303  1.00  0.00     0.095 A 
HETATM   11  C26 UNL     1      -0.836   1.125  -1.759  1.00  0.00     0.122 A 
HETATM   12  N8  UNL     1      -1.750   2.140  -1.707  1.00  0.00    -0.350 N 
ATOM     13  H8  UNL     1      -1.483   3.060  -2.056  1.00  0.00     0.166 HD
ENDROOT
BRANCH   9  14
HETATM   14  C12 UNL     1       0.817  -1.571  -1.633  1.00  0.00     0.108 C 
HETATM   15  C13 UNL     1       1.497  -2.701  -0.911  1.00  0.00     0.027 C 
HETATM   16  C14 UNL     1       1.937  -2.197   0.480  1.00  0.00     0.017 C 
HETATM   17  C15 UNL     1       3.263  -1.515   0.236  1.00  0.00     0.093 C 
HETATM   18  C23 UNL     1       3.195  -0.900  -1.119  1.00  0.00     0.017 C 
HETATM   19  C24 UNL     1       1.794  -0.428  -1.514  1.00  0.00     0.027 C 
BRANCH  17  20
HETATM   20  C16 UNL     1       3.553  -0.475   1.320  1.00  0.00     0.295 C 
HETATM   21  O1  UNL     1       2.594  -0.331   2.135  1.00  0.00    -0.257 OA
HETATM   22  N5  UNL     1       4.724   0.165   1.328  1.00  0.00    -0.387 NA
BRANCH  22  23
HETATM   23  C17 UNL     1       5.939   0.830   1.338  1.00  0.00     0.165 C 
BRANCH  23  24
HETATM   24  C18 UNL     1       5.791   2.339   1.228  1.00  0.00     0.116 C 
BRANCH  24  25
HETATM   25  C19 UNL     1       7.129   2.966   1.233  1.00  0.00     0.017 A 
HETATM   26  C20 UNL     1       7.806   3.247   0.082  1.00  0.00     0.042 A 
HETATM   27  C21 UNL     1       9.071   3.845   0.108  1.00  0.00     0.091 A 
HETATM   28  N6  UNL     1       9.595   4.131   1.296  1.00  0.00    -0.362 N 
HETATM   29  C22 UNL     1       8.954   3.866   2.438  1.00  0.00     0.180 A 
ATOM     30  H6  UNL     1      10.516   4.567   1.337  1.00  0.00     0.165 HD
HETATM   31  N7  UNL     1       7.728   3.287   2.410  1.00  0.00    -0.355 N 
ATOM     32  H7  UNL     1       7.247   3.089   3.287  1.00  0.00     0.166 HD
ENDBRANCH  24  25
ENDBRANCH  23  24
ENDBRANCH  22  23
ENDBRANCH  17  20
ENDBRANCH   9  14
BRANCH   7  33
HETATM   33  C9  UNL     1      -1.826  -4.591   0.001  1.00  0.00     0.117 C 
HETATM   34  C10 UNL     1      -3.288  -4.534   0.370  1.00  0.00     0.056 C 
HETATM   35  C11 UNL     1      -1.688  -5.801  -0.939  1.00  0.00     0.056 C 
HETATM   36 CL1  UNL     1      -0.992  -5.136   1.527  1.00  0.00    -0.096 Cl
ENDBRANCH   7  33
BRANCH   1  37
HETATM   37  N1  UNL     1      -3.855   2.913  -1.168  1.00  0.00    -0.323 N 
ATOM     38  H1  UNL     1      -3.613   3.844  -1.509  1.00  0.00     0.169 HD
BRANCH  37  39
HETATM   39  C4  UNL     1      -5.174   2.671  -0.639  1.00  0.00     0.151 A 
HETATM   40  S1  UNL     1      -6.622   2.270  -1.483  1.00  0.00    -0.055 SA
HETATM   41  C3  UNL     1      -7.675   2.157  -0.145  1.00  0.00     0.024 A 
HETATM   42  C27 UNL     1      -6.831   2.442   0.895  1.00  0.00     0.118 A 
HETATM   43  N9  UNL     1      -5.594   2.693   0.615  1.00  0.00    -0.326 N 
HETATM   44 CL2  UNL     1      -7.438   2.461   2.578  1.00  0.00    -0.063 Cl
ATOM     45  H9  UNL     1      -4.938   2.909   1.366  1.00  0.00     0.169 HD
BRANCH  41  46
HETATM   46  C2  UNL     1      -9.147   1.836  -0.076  1.00  0.00     0.045 C 
HETATM   47  C1  UNL     1      -9.862   3.134   0.165  1.00  0.00     0.010 C 
ENDBRANCH  41  46
ENDBRANCH  37  39
ENDBRANCH   1  37
TORSDOF 9
