REMARK  4 active torsions:
REMARK  status: ('A' for Active; 'I' for Inactive)
REMARK    1  A    between atoms: O1_1  and  C1_3 
REMARK    2  A    between atoms: C6_8  and  N1_9 
REMARK    3  A    between atoms: C14_17  and  O2_18 
REMARK    4  A    between atoms: O2_18  and  C15_19 
ROOT
HETATM    1  N1  UNL     1       0.513   0.059  -0.142  1.00  0.00     0.096 N 
HETATM    2  C7  UNL     1       0.506  -1.250   0.445  1.00  0.00     0.273 C 
HETATM    3  C8  UNL     1      -0.157  -2.295  -0.387  1.00  0.00     0.037 C 
HETATM    4  C9  UNL     1      -1.606  -2.073  -0.657  1.00  0.00     0.017 C 
HETATM    5  C10 UNL     1      -1.851  -2.486  -2.118  1.00  0.00     0.008 C 
HETATM    6  C11 UNL     1      -1.387  -1.290  -2.880  1.00  0.00     0.009 C 
HETATM    7  C12 UNL     1      -1.202  -0.143  -1.887  1.00  0.00     0.044 C 
HETATM    8  C13 UNL     1       0.237   0.057  -1.558  1.00  0.00     0.280 C 
HETATM    9  C14 UNL     1      -2.023  -0.641  -0.725  1.00  0.00     0.140 C 
ENDROOT
BRANCH   9  10
HETATM   10  O2  UNL     1      -1.897   0.090   0.437  1.00  0.00    -0.328 OA
BRANCH  10  11
HETATM   11  C15 UNL     1      -2.973   0.754   1.020  1.00  0.00     0.158 A 
HETATM   12  C16 UNL     1      -2.852   1.478   2.175  1.00  0.00     0.143 A 
HETATM   13  N2  UNL     1      -3.903   2.115   2.726  1.00  0.00    -0.370 N 
HETATM   14  C17 UNL     1      -5.115   2.052   2.145  1.00  0.00     0.104 A 
ATOM     15  H2  UNL     1      -3.780   2.647   3.587  1.00  0.00     0.164 HD
HETATM   16  C18 UNL     1      -5.255   1.322   0.974  1.00  0.00     0.107 A 
HETATM   17  N3  UNL     1      -4.184   0.700   0.453  1.00  0.00    -0.344 N 
ATOM     18  H3  UNL     1      -4.298   0.166  -0.408  1.00  0.00     0.167 HD
ENDBRANCH  10  11
ENDBRANCH   9  10
BRANCH   1  19
HETATM   19  C6  UNL     1       1.772   0.771   0.091  1.00  0.00     0.251 C 
HETATM   20  C1  UNL     1       2.943   0.084  -0.534  1.00  0.00     0.151 C 
HETATM   21  C2  UNL     1       4.160   0.005   0.352  1.00  0.00     0.034 C 
HETATM   22  C3  UNL     1       4.309   1.315   1.088  1.00  0.00     0.003 C 
HETATM   23  C4  UNL     1       3.167   1.508   2.048  1.00  0.00     0.002 C 
HETATM   24  C5  UNL     1       1.889   0.900   1.591  1.00  0.00     0.038 C 
BRANCH  20  25
HETATM   25  O1  UNL     1       3.348   0.769  -1.706  1.00  0.00    -0.393 OA
ATOM     26  H1  UNL     1       2.581   0.819  -2.264  1.00  0.00     0.210 HD
ENDBRANCH  20  25
ENDBRANCH   1  19
TORSDOF 4
