REMARK  5 active torsions:
REMARK  status: ('A' for Active; 'I' for Inactive)
REMARK    1  A    between atoms: C2_2  and  C3_3 
REMARK    2  A    between atoms: C3_3  and  C4_4 
REMARK    3  A    between atoms: C4_4  and  C5_5 
REMARK    4  A    between atoms: C11_14  and  O4_15 
REMARK    5  A    between atoms: C16_21  and  O5_22 
ROOT
HETATM    1  C4  UNL     1       1.927  -0.067  -0.273  1.00  0.00     0.063 C 
HETATM    2  C7  UNL     1       1.469   1.260   0.214  1.00  0.00     0.269 C 
HETATM    3  O1  UNL     1       1.982   2.347  -0.130  1.00  0.00    -0.264 OA
HETATM    4  O2  UNL     1       0.422   0.951   1.066  1.00  0.00    -0.314 OA
HETATM    5  C8  UNL     1      -0.101  -0.308   0.820  1.00  0.00     0.156 C 
HETATM    6  C9  UNL     1       0.598  -0.751  -0.452  1.00  0.00     0.107 C 
HETATM    7  C10 UNL     1      -0.124  -0.371  -1.663  1.00  0.00     0.164 C 
HETATM    8  O3  UNL     1       0.290  -0.753  -2.743  1.00  0.00    -0.295 OA
HETATM    9  C11 UNL     1      -1.365   0.466  -1.752  1.00  0.00     0.197 C 
HETATM   10  C12 UNL     1      -2.016   0.658  -0.419  1.00  0.00     0.001 C 
HETATM   11  C13 UNL     1      -1.893   2.080  -0.028  1.00  0.00     0.019 C 
HETATM   12  C14 UNL     1      -3.510   0.344  -0.394  1.00  0.00     0.015 C 
HETATM   13  C15 UNL     1      -3.731   0.353   1.128  1.00  0.00     0.033 C 
HETATM   14  C16 UNL     1      -2.446  -0.114   1.758  1.00  0.00     0.129 C 
HETATM   15  C17 UNL     1      -1.565  -0.365   0.577  1.00  0.00     0.019 C 
HETATM   16  C18 UNL     1      -1.887  -1.768   0.111  1.00  0.00     0.021 C 
ENDROOT
BRANCH   1  17
HETATM   17  C3  UNL     1       2.710  -0.677   0.850  1.00  0.00     0.047 C 
BRANCH  17  18
HETATM   18  C2  UNL     1       3.905   0.134   1.176  1.00  0.00    -0.036 C 
HETATM   19  C1  UNL     1       4.103   0.695   2.364  1.00  0.00     0.007 C 
ENDBRANCH  17  18
ENDBRANCH   1  17
BRANCH   1  20
HETATM   20  C5  UNL     1       2.755   0.039  -1.518  1.00  0.00     0.016 C 
HETATM   21  C6  UNL     1       3.213  -1.308  -1.942  1.00  0.00     0.006 C 
ENDBRANCH   1  20
BRANCH   9  22
HETATM   22  O4  UNL     1      -2.249  -0.063  -2.705  1.00  0.00    -0.387 OA
ATOM     23  H4  UNL     1      -3.035   0.467  -2.761  1.00  0.00     0.210 HD
ENDBRANCH   9  22
BRANCH  14  24
HETATM   24  O5  UNL     1      -1.944   0.680   2.741  1.00  0.00    -0.395 OA
ATOM     25  H5  UNL     1      -1.133   0.385   3.139  1.00  0.00     0.210 HD
ENDBRANCH  14  24
TORSDOF 5
