REMARK  1 active torsions:
REMARK  status: ('A' for Active; 'I' for Inactive)
REMARK    1  A    between atoms: N1_2  and  C2_4 
ROOT
HETATM    1  C2  UNL     1       0.921  -0.124   0.069  1.00  0.00     0.173 A 
HETATM    2  O1  UNL     1       1.126   1.020   0.672  1.00  0.00    -0.219 OA
HETATM    3  N2  UNL     1      -0.009   1.659   0.829  1.00  0.00    -0.263 N 
ATOM      4  H2  UNL     1      -0.114   2.572   1.272  1.00  0.00     0.194 HD
HETATM    5  C3  UNL     1      -1.021   0.919   0.312  1.00  0.00     0.039 A 
HETATM    6  C4  UNL     1      -2.473   1.245   0.266  1.00  0.00     0.071 C 
HETATM    7  C5  UNL     1      -0.437  -0.227  -0.178  1.00  0.00     0.015 A 
HETATM    8  C6  UNL     1      -1.129  -1.355  -0.844  1.00  0.00     0.055 C 
ENDROOT
BRANCH   1   9
HETATM    9  N1  UNL     1       1.761  -1.044  -0.272  1.00  0.00    -0.373 N 
HETATM   10  C1  UNL     1       3.181  -0.932  -0.011  1.00  0.00     0.148 C 
ATOM     11  H1  UNL     1       1.412  -1.879  -0.742  1.00  0.00     0.161 HD
ENDBRANCH   1   9
TORSDOF 1
