REMARK  0 active torsions:
REMARK  status: ('A' for Active; 'I' for Inactive)
ROOT
HETATM    1  C1  UNL     1       2.766  -1.017  -0.863  1.00  0.00     0.089 C 
HETATM    2  C2  UNL     1       1.500  -0.350  -0.434  1.00  0.00     0.074 A 
HETATM    3  N1  UNL     1       0.403  -0.988  -0.262  1.00  0.00    -0.371 N 
ATOM      4  H1  UNL     1       0.430  -1.993  -0.435  1.00  0.00     0.161 HD
HETATM    5  C3  UNL     1      -0.848  -0.449   0.143  1.00  0.00     0.030 A 
HETATM    6  C4  UNL     1      -1.278  -1.211   1.405  1.00  0.00     0.038 C 
HETATM    7  C5  UNL     1      -1.877  -0.749  -0.957  1.00  0.00     0.038 C 
HETATM    8  C6  UNL     1      -0.895   1.011   0.403  1.00  0.00     0.106 A 
HETATM    9  C7  UNL     1       0.371   1.716   0.192  1.00  0.00     0.078 A 
HETATM   10  N2  UNL     1       0.408   2.989   0.386  1.00  0.00    -0.389 N 
ATOM     11  H21 UNL     1       1.290   3.480   0.239  1.00  0.00     0.157 HD
ATOM     12  H22 UNL     1      -0.444   3.467   0.680  1.00  0.00     0.157 HD
HETATM   13  N3  UNL     1       1.560   1.049  -0.218  1.00  0.00    -0.336 N 
ATOM     14  H3  UNL     1       2.430   1.564  -0.352  1.00  0.00     0.168 HD
ENDROOT
TORSDOF 0
