REMARK  19 active torsions:
REMARK  status: ('A' for Active; 'I' for Inactive)
REMARK    1  A    between atoms: N1_1  and  C1_4 
REMARK    2  A    between atoms: N4_12  and  C5_13 
REMARK    3  A    between atoms: C8_16  and  O1_17 
REMARK    4  A    between atoms: C10_20  and  N5_21 
REMARK    5  A    between atoms: N5_21  and  C11_23 
REMARK    6  A    between atoms: C11_23  and  C12_24 
REMARK    7  A    between atoms: C12_24  and  C13_25 
REMARK    8  A    between atoms: C13_25  and  C14_26 
REMARK    9  A    between atoms: C14_26  and  C15_27 
REMARK   10  A    between atoms: C15_27  and  C16_28 
REMARK   11  A    between atoms: C16_28  and  C17_29 
REMARK   12  A    between atoms: C17_29  and  C18_30 
REMARK   13  A    between atoms: C18_30  and  C19_31 
REMARK   14  A    between atoms: C19_31  and  N6_32 
REMARK   15  A    between atoms: N6_32  and  C20_34 
REMARK   16  A    between atoms: C20_34  and  N7_36 
REMARK   17  A    between atoms: N7_36  and  C21_38 
REMARK   18  A    between atoms: C21_38  and  C22_39 
REMARK   19  A    between atoms: C22_39  and  O2_40 
ROOT
HETATM    1  C1  UNL     1      -5.167  -2.805  -1.263  1.00  0.00     0.225 A 
HETATM    2  N2  UNL     1      -6.013  -1.880  -0.792  1.00  0.00    -0.306 N 
ATOM      3  H2  UNL     1      -7.022  -2.013  -0.854  1.00  0.00     0.171 HD
HETATM    4  C2  UNL     1      -5.498  -0.775  -0.237  1.00  0.00     0.143 A 
HETATM    5  C3  UNL     1      -4.100  -0.652  -0.183  1.00  0.00     0.130 A 
HETATM    6  N3  UNL     1      -3.882   0.508   0.401  1.00  0.00    -0.346 N 
ATOM      7  H3  UNL     1      -2.960   0.899   0.593  1.00  0.00     0.167 HD
HETATM    8  C4  UNL     1      -5.039   1.100   0.706  1.00  0.00     0.185 A 
HETATM    9  N4  UNL     1      -6.072   0.293   0.305  1.00  0.00    -0.322 N 
HETATM   10  C10 UNL     1      -3.274  -1.631  -0.681  1.00  0.00     0.181 A 
HETATM   11  O3  UNL     1      -3.879  -2.684  -1.210  1.00  0.00    -0.260 OA
ENDROOT
BRANCH  10  12
HETATM   12  N5  UNL     1      -2.025  -1.625  -0.685  1.00  0.00    -0.348 N 
ATOM     13  H5  UNL     1      -1.627  -2.463  -1.109  1.00  0.00     0.167 HD
BRANCH  12  14
HETATM   14  C11 UNL     1      -1.043  -0.721  -0.235  1.00  0.00     0.063 C 
BRANCH  14  15
HETATM   15  C12 UNL     1      -0.240  -1.228   0.947  1.00  0.00     0.044 C 
BRANCH  15  16
HETATM   16  C13 UNL     1       0.515  -2.468   0.715  1.00  0.00     0.005 C 
BRANCH  16  17
HETATM   17  C14 UNL     1       1.535  -2.567  -0.345  1.00  0.00     0.000 C 
BRANCH  17  18
HETATM   18  C15 UNL     1       2.756  -1.739  -0.277  1.00  0.00     0.000 C 
BRANCH  18  19
HETATM   19  C16 UNL     1       2.667  -0.259  -0.338  1.00  0.00     0.000 C 
BRANCH  19  20
HETATM   20  C17 UNL     1       4.068   0.375  -0.315  1.00  0.00     0.002 C 
BRANCH  20  21
HETATM   21  C18 UNL     1       4.838   0.041   0.917  1.00  0.00     0.020 C 
BRANCH  21  22
HETATM   22  C19 UNL     1       6.192   0.723   0.852  1.00  0.00     0.122 C 
BRANCH  22  23
HETATM   23  N6  UNL     1       6.960   0.288  -0.287  1.00  0.00    -0.367 N 
ATOM     24  H6  UNL     1       6.577  -0.405  -0.930  1.00  0.00     0.161 HD
BRANCH  23  25
HETATM   25  C20 UNL     1       8.257   0.833  -0.509  1.00  0.00     0.167 C 
HETATM   26  S1  UNL     1       9.119   0.358  -1.807  1.00  0.00    -0.041 SA
BRANCH  25  27
HETATM   27  N7  UNL     1       8.790   1.788   0.372  1.00  0.00    -0.365 N 
ATOM     28  H7  UNL     1       8.229   2.091   1.168  1.00  0.00     0.161 HD
BRANCH  27  29
HETATM   29  C21 UNL     1      10.097   2.352   0.190  1.00  0.00     0.148 C 
BRANCH  29  30
HETATM   30  C22 UNL     1      11.227   1.400   0.442  1.00  0.00     0.183 C 
BRANCH  30  31
HETATM   31  O2  UNL     1      12.434   2.106   0.221  1.00  0.00    -0.399 OA
ATOM     32  H2  UNL     1      13.150   1.503   0.381  1.00  0.00     0.209 HD
ENDBRANCH  30  31
ENDBRANCH  29  30
ENDBRANCH  27  29
ENDBRANCH  25  27
ENDBRANCH  23  25
ENDBRANCH  22  23
ENDBRANCH  21  22
ENDBRANCH  20  21
ENDBRANCH  19  20
ENDBRANCH  18  19
ENDBRANCH  17  18
ENDBRANCH  16  17
ENDBRANCH  15  16
ENDBRANCH  14  15
ENDBRANCH  12  14
ENDBRANCH  10  12
BRANCH   1  33
HETATM   33  N1  UNL     1      -5.663  -3.884  -1.805  1.00  0.00    -0.365 N 
ATOM     34  H12 UNL     1      -6.678  -3.979  -1.847  1.00  0.00     0.159 HD
ATOM     35  H11 UNL     1      -5.019  -4.589  -2.164  1.00  0.00     0.159 HD
ENDBRANCH   1  33
BRANCH   9  36
HETATM   36  C5  UNL     1      -7.396   0.676   0.506  1.00  0.00     0.095 C 
HETATM   37  C6  UNL     1      -8.536  -0.181   0.285  1.00  0.00     0.028 C 
HETATM   38  C7  UNL     1      -9.690   0.750   0.714  1.00  0.00     0.034 C 
HETATM   39  C8  UNL     1      -9.251   2.081   0.126  1.00  0.00     0.120 C 
HETATM   40  C9  UNL     1      -7.804   1.919  -0.311  1.00  0.00     0.057 C 
BRANCH  39  41
HETATM   41  O1  UNL     1     -10.074   2.503  -0.895  1.00  0.00    -0.396 OA
ATOM     42  H1  UNL     1      -9.800   3.335  -1.263  1.00  0.00     0.210 HD
ENDBRANCH  39  41
ENDBRANCH   9  36
TORSDOF 19
