REMARK  7 active torsions:
REMARK  status: ('A' for Active; 'I' for Inactive)
REMARK    1  A    between atoms: C2_2  and  N1_3 
REMARK       I    between atoms: N1_3  and  C3_5 
REMARK    2  A    between atoms: C3_5  and  C4_7 
REMARK    3  A    between atoms: C7_12  and  N2_13 
REMARK       I    between atoms: N2_13  and  C8_15 
REMARK    4  A    between atoms: C8_15  and  C9_17 
REMARK    5  A    between atoms: C9_17  and  C10_18 
REMARK    6  A    between atoms: C9_17  and  C12_20 
REMARK    7  A    between atoms: C12_20  and  O6_22 
ROOT
HETATM    1  C4  UNL     1       2.757  -0.498   1.051  1.00  0.00     0.126 C 
HETATM    2  C5  UNL     1       1.516  -1.250   1.042  1.00  0.00     0.162 C 
HETATM    3  O2  UNL     1       1.307  -2.346   0.230  1.00  0.00    -0.312 OA
HETATM    4  C6  UNL     1      -0.091  -2.568   0.326  1.00  0.00     0.283 C 
HETATM    5  O3  UNL     1      -0.733  -3.625   0.079  1.00  0.00    -0.263 OA
HETATM    6  C7  UNL     1      -0.744  -1.283   0.795  1.00  0.00     0.200 C 
HETATM    7  C14 UNL     1       0.396  -0.340   0.570  1.00  0.00     0.111 C 
HETATM    8  S1  UNL     1       0.642   0.945   1.794  1.00  0.00    -0.149 SA
HETATM    9  C15 UNL     1       2.464   0.665   1.972  1.00  0.00     0.016 C 
HETATM   10  C16 UNL     1       2.674   0.224   3.407  1.00  0.00     0.028 C 
HETATM   11  C17 UNL     1       3.213   1.913   1.711  1.00  0.00     0.028 C 
ENDROOT
BRANCH   6  12
HETATM   12  N2  UNL     1      -1.797  -1.013  -0.189  1.00  0.00    -0.345 N 
HETATM   13  C8  UNL     1      -3.140  -0.866   0.200  1.00  0.00     0.232 C 
HETATM   14  O4  UNL     1      -3.432  -0.973   1.409  1.00  0.00    -0.273 OA
ATOM     15  H2  UNL     1      -1.550  -0.930  -1.175  1.00  0.00     0.163 HD
BRANCH  13  16
HETATM   16  C9  UNL     1      -4.189  -0.589  -0.789  1.00  0.00     0.177 C 
BRANCH  16  17
HETATM   17  C10 UNL     1      -4.171   0.838  -1.316  1.00  0.00     0.020 C 
HETATM   18  C11 UNL     1      -2.901   1.206  -1.997  1.00  0.00     0.006 C 
ENDBRANCH  16  17
BRANCH  16  19
HETATM   19  C12 UNL     1      -5.533  -0.834  -0.221  1.00  0.00     0.271 C 
HETATM   20  O5  UNL     1      -5.673  -1.247   0.944  1.00  0.00    -0.264 OA
BRANCH  19  21
HETATM   21  O6  UNL     1      -6.665  -0.607  -0.986  1.00  0.00    -0.326 OA
HETATM   22  C13 UNL     1      -7.964  -0.822  -0.502  1.00  0.00     0.213 C 
ENDBRANCH  19  21
ENDBRANCH  16  19
ENDBRANCH  13  16
ENDBRANCH   6  12
BRANCH   1  23
HETATM   23  C3  UNL     1       3.332  -0.165  -0.244  1.00  0.00     0.225 C 
HETATM   24  N1  UNL     1       4.595   0.436  -0.400  1.00  0.00    -0.361 N 
ATOM     25  H1  UNL     1       5.151   0.655   0.427  1.00  0.00     0.162 HD
HETATM   26  O1  UNL     1       2.685  -0.419  -1.286  1.00  0.00    -0.273 OA
BRANCH  24  27
HETATM   27  C2  UNL     1       5.116   0.747  -1.706  1.00  0.00     0.118 C 
HETATM   28  C1  UNL     1       6.469   1.380  -1.666  1.00  0.00     0.026 C 
ENDBRANCH  24  27
ENDBRANCH   1  23
TORSDOF 7
