REMARK  10 active torsions:
REMARK  status: ('A' for Active; 'I' for Inactive)
REMARK    1  A    between atoms: C2_2  and  N1_3 
REMARK    2  A    between atoms: N1_3  and  C3_5 
REMARK    3  A    between atoms: C4_8  and  N3_9 
REMARK    4  A    between atoms: C6_13  and  N5_14 
REMARK    5  A    between atoms: N5_14  and  C7_15 
REMARK    6  A    between atoms: N5_14  and  C10_21 
REMARK    7  A    between atoms: C7_15  and  O1_16 
REMARK    8  A    between atoms: C7_15  and  N6_18 
REMARK    9  A    between atoms: N8_24  and  N9_25 
REMARK   10  A    between atoms: C11_28  and  N10_29 
ROOT
HETATM    1  N3  UNL     1       0.750  -0.308  -2.170  1.00  0.00    -0.277 N 
ATOM      2  H3  UNL     1      -0.245  -0.523  -2.237  1.00  0.00     0.179 HD
HETATM    3  C5  UNL     1       1.476  -0.234  -3.343  1.00  0.00     0.183 C 
HETATM    4  N4  UNL     1       2.070  -0.155  -4.320  1.00  0.00    -0.172 NA
ENDROOT
BRANCH   1   5
HETATM    5  C4  UNL     1       1.311  -0.100  -0.852  1.00  0.00     0.152 A 
HETATM    6  N2  UNL     1       2.596   0.114  -0.691  1.00  0.00    -0.320 N 
HETATM    7  C3  UNL     1       3.072   0.260   0.542  1.00  0.00     0.148 A 
ATOM      8  H2  UNL     1       3.218   0.167  -1.497  1.00  0.00     0.169 HD
HETATM    9  S1  UNL     1       1.695   0.097   1.518  1.00  0.00    -0.031 SA
HETATM   10  C6  UNL     1       0.536  -0.158   0.271  1.00  0.00     0.150 A 
BRANCH   7  11
HETATM   11  N1  UNL     1       4.274   0.466   0.959  1.00  0.00    -0.371 N 
ATOM     12  H1  UNL     1       4.398   0.543   1.968  1.00  0.00     0.161 HD
BRANCH  11  13
HETATM   13  C2  UNL     1       5.446   0.598   0.164  1.00  0.00     0.117 C 
HETATM   14  C1  UNL     1       6.386  -0.528   0.543  1.00  0.00     0.026 C 
ENDBRANCH  11  13
ENDBRANCH   7  11
BRANCH  10  15
HETATM   15  N5  UNL     1      -0.895  -0.363   0.410  1.00  0.00    -0.098 N 
BRANCH  15  16
HETATM   16  C7  UNL     1      -1.353  -1.622   0.749  1.00  0.00     0.241 C 
BRANCH  16  17
HETATM   17  O1  UNL     1      -0.392  -2.505   0.953  1.00  0.00    -0.332 OA
ATOM     18  H1  UNL     1      -0.707  -3.370   1.186  1.00  0.00     0.221 HD
ENDBRANCH  16  17
BRANCH  16  19
HETATM   19  N6  UNL     1      -2.625  -2.157   0.918  1.00  0.00    -0.355 N 
HETATM   20  C8  UNL     1      -3.834  -1.425   0.715  1.00  0.00     0.152 C 
HETATM   21  C9  UNL     1      -2.753  -3.558   1.330  1.00  0.00     0.152 C 
ENDBRANCH  16  19
ENDBRANCH  15  16
BRANCH  15  22
HETATM   22  C10 UNL     1      -1.674   0.780   0.213  1.00  0.00     0.724 A 
HETATM   23  N7  UNL     1      -1.989   1.739   1.143  1.00  0.00    -0.095 N 
HETATM   24  N8  UNL     1      -2.708   2.695   0.621  1.00  0.00    -0.012 N 
ATOM     25  H7  UNL     1      -1.698   1.708   2.120  1.00  0.00     0.208 HD
HETATM   26  C11 UNL     1      -2.880   2.376  -0.675  1.00  0.00     0.727 A 
HETATM   27  N11 UNL     1      -2.252   1.217  -0.913  1.00  0.00    -0.018 N 
ATOM     28  H11 UNL     1      -2.219   0.740  -1.814  1.00  0.00     0.203 HD
BRANCH  24  29
HETATM   29  N9  UNL     1      -3.245   3.848   1.180  1.00  0.00    -0.309 N 
ATOM     30  H92 UNL     1      -3.115   4.090   2.162  1.00  0.00     0.179 HD
ATOM     31  H91 UNL     1      -3.807   4.595   0.772  1.00  0.00     0.179 HD
ENDBRANCH  24  29
BRANCH  26  32
HETATM   32  N10 UNL     1      -3.533   3.071  -1.560  1.00  0.00    -0.231 N 
ATOM     33 2H10 UNL     1      -4.011   3.954  -1.379  1.00  0.00     0.174 HD
ATOM     34 1H10 UNL     1      -3.663   2.829  -2.542  1.00  0.00     0.174 HD
ENDBRANCH  26  32
ENDBRANCH  15  22
ENDBRANCH  10  15
ENDBRANCH   1   5
TORSDOF 10
