REMARK  2 active torsions:
REMARK  status: ('A' for Active; 'I' for Inactive)
REMARK    1  A    between atoms: C2_2  and  C3_4 
REMARK    2  A    between atoms: C10_12  and  O2_14 
ROOT
HETATM    1  C3  UNL     1       0.875   0.139   0.952  1.00  0.00     0.140 C 
HETATM    2  C4  UNL     1       0.620   0.655   2.316  1.00  0.00     0.080 C 
HETATM    3  N1  UNL     1       0.440   1.056   3.390  1.00  0.00    -0.196 NA
HETATM    4  C5  UNL     1       0.595  -1.348   0.994  1.00  0.00     0.036 C 
HETATM    5  C6  UNL     1      -0.292  -1.662  -0.191  1.00  0.00     0.014 C 
HETATM    6  C7  UNL     1      -1.017  -0.365  -0.485  1.00  0.00    -0.015 C 
HETATM    7  C8  UNL     1      -2.334  -0.424   0.257  1.00  0.00     0.018 C 
HETATM    8  C9  UNL     1      -1.330  -0.251  -1.948  1.00  0.00     0.018 C 
HETATM    9  C10 UNL     1      -0.131   0.740  -0.012  1.00  0.00     0.089 C 
HETATM   10  C11 UNL     1      -0.957   1.815   0.708  1.00  0.00     0.049 C 
ENDROOT
BRANCH   1  11
HETATM   11  C2  UNL     1       2.271   0.431   0.559  1.00  0.00     0.148 C 
HETATM   12  C1  UNL     1       2.873   0.058  -0.729  1.00  0.00     0.093 C 
HETATM   13  O1  UNL     1       2.981   1.023   1.354  1.00  0.00    -0.296 OA
ENDBRANCH   1  11
BRANCH   9  14
HETATM   14  O2  UNL     1       0.477   1.389  -1.082  1.00  0.00    -0.387 OA
ATOM     15  H2  UNL     1      -0.153   1.765  -1.686  1.00  0.00     0.210 HD
ENDBRANCH   9  14
TORSDOF 2
