REMARK  8 active torsions:
REMARK  status: ('A' for Active; 'I' for Inactive)
REMARK    1  A    between atoms: O1_2  and  C2_3 
REMARK    2  A    between atoms: C3_6  and  C4_7 
REMARK    3  A    between atoms: C5_9  and  C6_10 
REMARK    4  A    between atoms: C6_10  and  C7_12 
REMARK    5  A    between atoms: C7_12  and  C8_13 
REMARK    6  A    between atoms: C9_16  and  C10_17 
REMARK    7  A    between atoms: C10_17  and  C11_18 
REMARK    8  A    between atoms: C13_21  and  C14_22 
ROOT
HETATM    1  C2  UNL     1      -1.768  -1.563  -0.541  1.00  0.00     0.223 A 
HETATM    2  N1  UNL     1      -2.843  -1.012  -1.131  1.00  0.00    -0.324 N 
ATOM      3  H1  UNL     1      -3.502  -1.618  -1.621  1.00  0.00     0.169 HD
HETATM    4  C3  UNL     1      -3.082   0.334  -1.096  1.00  0.00     0.042 A 
HETATM    5  C5  UNL     1      -2.159   1.114  -0.419  1.00  0.00     0.057 A 
HETATM    6  C9  UNL     1      -1.052   0.559   0.188  1.00  0.00     0.034 A 
HETATM    7  N3  UNL     1      -0.883  -0.785   0.110  1.00  0.00    -0.325 N 
ATOM      8  H3  UNL     1      -0.070  -1.214   0.553  1.00  0.00     0.169 HD
ENDROOT
BRANCH   6   9
HETATM    9  C10 UNL     1      -0.072   1.429   0.879  1.00  0.00     0.115 C 
BRANCH   9  10
HETATM   10  C11 UNL     1       1.078   0.558   1.356  1.00  0.00     0.022 A 
HETATM   11  C12 UNL     1       1.011  -0.042   2.589  1.00  0.00     0.077 A 
HETATM   12  S1  UNL     1       2.501  -0.880   2.643  1.00  0.00    -0.081 SA
HETATM   13  C13 UNL     1       3.116  -0.417   1.099  1.00  0.00     0.090 A 
HETATM   14  N2  UNL     1       2.137   0.350   0.644  1.00  0.00    -0.352 N 
ATOM     15  H2  UNL     1       2.219   0.781  -0.277  1.00  0.00     0.166 HD
BRANCH  13  16
HETATM   16  C14 UNL     1       4.382  -0.788   0.481  1.00  0.00     0.081 A 
HETATM   17  C15 UNL     1       4.697  -0.310  -0.750  1.00  0.00     0.174 A 
HETATM   18  F1  UNL     1       3.867   0.511  -1.432  1.00  0.00    -0.202 F 
HETATM   19  C16 UNL     1       5.914  -0.662  -1.357  1.00  0.00     0.197 A 
HETATM   20  F2  UNL     1       6.270  -0.211  -2.580  1.00  0.00    -0.199 F 
HETATM   21  C17 UNL     1       6.775  -1.496  -0.680  1.00  0.00     0.199 A 
HETATM   22  F3  UNL     1       7.956  -1.848  -1.245  1.00  0.00    -0.199 F 
HETATM   23  C18 UNL     1       6.436  -1.981   0.588  1.00  0.00     0.197 A 
HETATM   24  F4  UNL     1       7.320  -2.801   1.211  1.00  0.00    -0.199 F 
HETATM   25  C19 UNL     1       5.235  -1.616   1.154  1.00  0.00     0.174 A 
HETATM   26  F5  UNL     1       4.886  -2.070   2.374  1.00  0.00    -0.202 F 
ENDBRANCH  13  16
ENDBRANCH   9  10
ENDBRANCH   6   9
BRANCH   5  27
HETATM   27  C6  UNL     1      -2.374   2.538  -0.356  1.00  0.00     0.173 C 
HETATM   28  O2  UNL     1      -1.869   3.278  -1.276  1.00  0.00    -0.292 OA
BRANCH  27  29
HETATM   29  C7  UNL     1      -3.139   3.204   0.702  1.00  0.00     0.197 C 
BRANCH  29  30
HETATM   30  C8  UNL     1      -3.843   2.333   1.648  1.00  0.00     0.180 C 
HETATM   31  O3  UNL     1      -3.222   1.758   2.565  1.00  0.00    -0.648 OA
HETATM   32  O4  UNL     1      -5.223   2.074   1.613  1.00  0.00    -0.648 OA
ENDBRANCH  29  30
ENDBRANCH  27  29
ENDBRANCH   5  27
BRANCH   4  33
HETATM   33  C4  UNL     1      -4.252   0.883  -1.781  1.00  0.00     0.172 C 
HETATM   34 CL1  UNL     1      -3.819   1.649  -3.334  1.00  0.00    -0.124 Cl
ENDBRANCH   4  33
BRANCH   1  35
HETATM   35  O1  UNL     1      -1.572  -2.942  -0.606  1.00  0.00    -0.327 OA
HETATM   36  C1  UNL     1      -2.491  -3.767  -1.286  1.00  0.00     0.213 C 
ENDBRANCH   1  35
TORSDOF 8
