REMARK  6 active torsions:
REMARK  status: ('A' for Active; 'I' for Inactive)
REMARK    1  A    between atoms: C2_2  and  O1_3 
REMARK    2  A    between atoms: C2_2  and  O2_5 
REMARK    3  A    between atoms: C2_2  and  C3_7 
REMARK    4  A    between atoms: C3_7  and  C4_8 
REMARK    5  A    between atoms: C5_9  and  O3_10 
REMARK    6  A    between atoms: C6_12  and  C7_13 
ROOT
HETATM    1  C4  UNL     1       0.028  -0.119   0.253  1.00  0.00     0.056 C 
HETATM    2  C5  UNL     1      -0.383   1.010  -0.656  1.00  0.00     0.155 C 
HETATM    3  C6  UNL     1      -1.902   1.081  -0.516  1.00  0.00     0.161 C 
HETATM    4  O4  UNL     1      -2.284  -0.060   0.114  1.00  0.00    -0.372 OA
HETATM    5  C8  UNL     1      -1.243  -0.941   0.250  1.00  0.00     0.060 C 
HETATM    6  C9  UNL     1      -1.431  -1.679   1.565  1.00  0.00     0.046 C 
HETATM    7  C10 UNL     1      -1.283  -1.952  -0.848  1.00  0.00     0.046 C 
ENDROOT
BRANCH   1   8
HETATM    8  C3  UNL     1       1.162  -0.944  -0.176  1.00  0.00     0.078 C 
BRANCH   8   9
HETATM    9  C2  UNL     1       2.483  -0.319  -0.371  1.00  0.00     0.155 C 
HETATM   10  C1  UNL     1       3.054   0.340   0.861  1.00  0.00     0.078 C 
BRANCH   9  11
HETATM   11  O1  UNL     1       3.399  -1.358  -0.683  1.00  0.00    -0.366 OA
ATOM     12  H1  UNL     1       3.040  -1.773  -1.458  1.00  0.00     0.213 HD
ENDBRANCH   9  11
BRANCH   9  13
HETATM   13  O2  UNL     1       2.600   0.574  -1.424  1.00  0.00    -0.366 OA
ATOM     14  H2  UNL     1       2.241   0.159  -2.199  1.00  0.00     0.213 HD
ENDBRANCH   9  13
ENDBRANCH   8   9
ENDBRANCH   1   8
BRANCH   2  15
HETATM   15  O3  UNL     1      -0.171   0.708  -2.005  1.00  0.00    -0.392 OA
ATOM     16  H3  UNL     1      -0.430   1.420  -2.578  1.00  0.00     0.210 HD
ENDBRANCH   2  15
BRANCH   3  17
HETATM   17  C7  UNL     1      -2.319   2.272   0.318  1.00  0.00     0.120 C 
HETATM   18  S1  UNL     1      -1.634   2.214   1.992  1.00  0.00    -0.095 SA
ENDBRANCH   3  17
TORSDOF 6
