REMARK  7 active torsions:
REMARK  status: ('A' for Active; 'I' for Inactive)
REMARK    1  A    between atoms: C2_2  and  C3_3 
REMARK    2  A    between atoms: C4_4  and  O1_5 
REMARK    3  A    between atoms: C5_7  and  O2_8 
REMARK    4  A    between atoms: C6_10  and  O3_11 
REMARK    5  A    between atoms: C7_13  and  O4_14 
REMARK    6  A    between atoms: O4_14  and  C8_15 
REMARK    7  A    between atoms: C12_20  and  O6_21 
ROOT
HETATM    1  C3  UNL     1      -1.574   0.711  -0.650  1.00  0.00     0.070 C 
HETATM    2  C4  UNL     1      -2.227  -0.623  -0.541  1.00  0.00     0.159 C 
HETATM    3  C5  UNL     1      -1.189  -1.701  -0.773  1.00  0.00     0.178 C 
HETATM    4  C6  UNL     1      -0.067  -1.579   0.261  1.00  0.00     0.181 C 
HETATM    5  C7  UNL     1       0.545  -0.228   0.086  1.00  0.00     0.189 C 
HETATM    6  C12 UNL     1      -0.432   0.905   0.313  1.00  0.00     0.160 C 
ENDROOT
BRANCH   5   7
HETATM    7  O4  UNL     1       1.735  -0.057   0.820  1.00  0.00    -0.339 OA
BRANCH   7   8
HETATM    8  C8  UNL     1       2.969   0.158   0.261  1.00  0.00     0.093 A 
HETATM    9  C9  UNL     1       4.123   0.323   0.998  1.00  0.00     0.063 A 
HETATM   10  C10 UNL     1       5.147   0.514   0.090  1.00  0.00     0.144 A 
HETATM   11  O5  UNL     1       4.655   0.468  -1.134  1.00  0.00    -0.332 OA
HETATM   12  C11 UNL     1       3.361   0.257  -1.060  1.00  0.00     0.178 A 
ENDBRANCH   7   8
ENDBRANCH   5   7
BRANCH   4  13
HETATM   13  O3  UNL     1      -0.636  -1.789   1.494  1.00  0.00    -0.390 OA
ATOM     14  H3  UNL     1       0.060  -1.713   2.136  1.00  0.00     0.210 HD
ENDBRANCH   4  13
BRANCH   6  15
HETATM   15  O6  UNL     1      -0.790   1.085   1.621  1.00  0.00    -0.392 OA
ATOM     16  H6  UNL     1      -0.070   1.207   2.228  1.00  0.00     0.210 HD
ENDBRANCH   6  15
BRANCH   3  17
HETATM   17  O2  UNL     1      -1.750  -2.964  -0.603  1.00  0.00    -0.390 OA
ATOM     18  H2  UNL     1      -1.099  -3.640  -0.749  1.00  0.00     0.210 HD
ENDBRANCH   3  17
BRANCH   1  19
HETATM   19  C2  UNL     1      -2.487   1.866  -0.596  1.00  0.00    -0.027 C 
HETATM   20  C1  UNL     1      -3.764   1.849  -0.287  1.00  0.00     0.007 C 
ENDBRANCH   1  19
BRANCH   2  21
HETATM   21  O1  UNL     1      -2.852  -0.908   0.637  1.00  0.00    -0.392 OA
ATOM     22  H1  UNL     1      -3.269  -1.759   0.707  1.00  0.00     0.210 HD
ENDBRANCH   2  21
TORSDOF 7
