REMARK  6 active torsions:
REMARK  status: ('A' for Active; 'I' for Inactive)
REMARK    1  A    between atoms: O1_1  and  C1_3 
REMARK    2  A    between atoms: C1_3  and  C11_20 
REMARK    3  A    between atoms: C2_4  and  S1_5 
REMARK    4  A    between atoms: S1_5  and  C3_6 
REMARK    5  A    between atoms: N3_13  and  C5_14 
REMARK    6  A    between atoms: C14_24  and  O2_25 
ROOT
HETATM    1  C3  UNL     1      -0.137   2.003  -0.908  1.00  0.00     0.168 A 
HETATM    2  N1  UNL     1      -0.062   3.259  -1.376  1.00  0.00    -0.277 N 
ATOM      3  H1  UNL     1       0.783   3.722  -1.709  1.00  0.00     0.189 HD
HETATM    4  N2  UNL     1      -1.286   3.800  -1.331  1.00  0.00    -0.274 N 
ATOM      5  H2  UNL     1      -1.538   4.744  -1.622  1.00  0.00     0.189 HD
HETATM    6  C4  UNL     1      -2.127   2.867  -0.829  1.00  0.00     0.195 A 
HETATM    7  S2  UNL     1      -3.726   3.006  -0.566  1.00  0.00    -0.039 SA
HETATM    8  N3  UNL     1      -1.415   1.753  -0.567  1.00  0.00    -0.297 N 
ENDROOT
BRANCH   1   9
HETATM    9  S1  UNL     1       1.267   0.910  -0.788  1.00  0.00    -0.061 SA
BRANCH   9  10
HETATM   10  C2  UNL     1       2.031   1.118   0.784  1.00  0.00     0.091 C 
HETATM   11  C1  UNL     1       3.200   0.385   1.181  1.00  0.00     0.092 C 
BRANCH  11  12
HETATM   12  O1  UNL     1       3.638   0.663   2.417  1.00  0.00    -0.359 OA
ATOM     13  H1  UNL     1       4.411   0.178   2.680  1.00  0.00     0.217 HD
ENDBRANCH  11  12
BRANCH  11  14
HETATM   14  C11 UNL     1       4.039  -0.606   0.545  1.00  0.00     0.071 A 
HETATM   15  S3  UNL     1       5.450  -1.329   1.320  1.00  0.00    -0.096 SA
HETATM   16  C12 UNL     1       5.965  -2.363   0.085  1.00  0.00     0.053 A 
HETATM   17  C13 UNL     1       5.050  -2.137  -0.891  1.00  0.00     0.045 A 
HETATM   18  C14 UNL     1       4.067  -1.240  -0.656  1.00  0.00     0.086 A 
BRANCH  18  19
HETATM   19  O2  UNL     1       3.084  -0.968  -1.648  1.00  0.00    -0.359 OA
ATOM     20  H2  UNL     1       3.104  -1.411  -2.488  1.00  0.00     0.217 HD
ENDBRANCH  18  19
ENDBRANCH  11  14
ENDBRANCH   9  10
ENDBRANCH   1   9
BRANCH   8  21
HETATM   21  C5  UNL     1      -1.873   0.522  -0.034  1.00  0.00     0.094 C 
HETATM   22  C6  UNL     1      -2.913   0.614   1.049  1.00  0.00     0.026 C 
HETATM   23  C7  UNL     1      -2.822  -0.715   1.818  1.00  0.00     0.002 C 
HETATM   24  C8  UNL     1      -2.644  -1.868   0.864  1.00  0.00     0.000 C 
HETATM   25  C9  UNL     1      -3.128  -1.549  -0.527  1.00  0.00     0.002 C 
HETATM   26  C10 UNL     1      -2.487  -0.338  -1.140  1.00  0.00     0.026 C 
ENDBRANCH   8  21
TORSDOF 6
