REMARK  5 active torsions:
REMARK  status: ('A' for Active; 'I' for Inactive)
REMARK    1  A    between atoms: C4_4  and  O1_5 
REMARK    2  A    between atoms: C18_21  and  S1_22 
REMARK    3  A    between atoms: S1_22  and  S2_23 
REMARK    4  A    between atoms: S2_23  and  C19_24 
REMARK    5  A    between atoms: C19_24  and  N1_25 
ROOT
HETATM    1  C1  UNL     1      -4.933   1.417  -1.128  1.00  0.00     0.018 C 
HETATM    2  C2  UNL     1      -4.879   0.489   0.034  1.00  0.00    -0.018 C 
HETATM    3  C3  UNL     1      -5.652   1.073   1.220  1.00  0.00     0.018 C 
HETATM    4  C4  UNL     1      -5.554  -0.795  -0.348  1.00  0.00     0.126 C 
HETATM    5  C5  UNL     1      -4.904  -2.007   0.258  1.00  0.00     0.033 C 
HETATM    6  C6  UNL     1      -3.462  -2.102  -0.122  1.00  0.00     0.008 C 
HETATM    7  C7  UNL     1      -2.817  -0.736  -0.350  1.00  0.00    -0.002 C 
HETATM    8  C8  UNL     1      -3.449   0.262   0.547  1.00  0.00     0.000 C 
HETATM    9  C9  UNL     1      -2.756   1.564   0.647  1.00  0.00     0.007 C 
HETATM   10  C10 UNL     1      -1.288   1.546   0.329  1.00  0.00     0.011 C 
HETATM   11  C11 UNL     1      -0.662   0.182   0.586  1.00  0.00    -0.030 C 
HETATM   12  C12 UNL     1      -0.920  -0.108   2.072  1.00  0.00     0.016 C 
HETATM   13  C13 UNL     1      -1.334  -0.899  -0.204  1.00  0.00     0.033 C 
HETATM   14  C14 UNL     1      -0.791  -1.079  -1.605  1.00  0.00     0.175 C 
HETATM   15  F1  UNL     1      -1.129  -0.046  -2.442  1.00  0.00    -0.249 F 
HETATM   16  C15 UNL     1       0.684  -1.264  -1.614  1.00  0.00     0.043 C 
HETATM   17  C16 UNL     1       1.278   0.016  -1.017  1.00  0.00    -0.002 C 
HETATM   18  C17 UNL     1       2.748  -0.074  -1.131  1.00  0.00     0.021 C 
HETATM   19  C18 UNL     1       3.556   0.614  -0.091  1.00  0.00     0.059 C 
HETATM   20  C21 UNL     1       2.874   1.632   0.722  1.00  0.00     0.017 C 
HETATM   21  C22 UNL     1       1.393   1.531   0.846  1.00  0.00     0.011 C 
HETATM   22  C23 UNL     1       0.813   0.213   0.398  1.00  0.00    -0.033 C 
HETATM   23  C24 UNL     1       1.400  -0.945   1.211  1.00  0.00     0.016 C 
ENDROOT
BRANCH  19  24
HETATM   24  S1  UNL     1       4.952   1.406  -0.993  1.00  0.00    -0.087 SA
BRANCH  24  25
HETATM   25  S2  UNL     1       6.171  -0.142  -1.790  1.00  0.00    -0.009 SA
BRANCH  25  26
HETATM   26  C19 UNL     1       7.403  -0.494  -0.516  1.00  0.00     0.387 C 
HETATM   27  N2  UNL     1       7.995   0.764  -0.130  1.00  0.00    -0.058 NA
HETATM   28  N3  UNL     1       9.297   0.783  -0.581  1.00  0.00    -0.254 N 
HETATM   29  C20 UNL     1       9.576  -0.391  -1.085  1.00  0.00     0.321 C 
ATOM     30  H3  UNL     1       9.935   1.578  -0.530  1.00  0.00     0.187 HD
HETATM   31  F2  UNL     1      10.795  -0.707  -1.623  1.00  0.00    -0.156 F 
HETATM   32  O2  UNL     1       8.482  -1.232  -0.990  1.00  0.00    -0.247 OA
BRANCH  26  33
HETATM   33  N1  UNL     1       6.801  -1.064   0.676  1.00  0.00    -0.018 N 
ATOM     34  H13 UNL     1       6.055  -0.469   1.036  1.00  0.00     0.280 HD
ATOM     35  H12 UNL     1       6.251  -1.893   0.453  1.00  0.00     0.280 HD
ATOM     36  H11 UNL     1       7.496  -1.263   1.395  1.00  0.00     0.280 HD
ENDBRANCH  26  33
ENDBRANCH  25  26
ENDBRANCH  24  25
ENDBRANCH  19  24
BRANCH   4  37
HETATM   37  O1  UNL     1      -6.896  -0.785   0.086  1.00  0.00    -0.395 OA
ATOM     38  H1  UNL     1      -7.323  -1.598  -0.156  1.00  0.00     0.210 HD
ENDBRANCH   4  37
TORSDOF 5
