REMARK  4 active torsions:
REMARK  status: ('A' for Active; 'I' for Inactive)
REMARK    1  A    between atoms: C10_11  and  O1_12 
REMARK    2  A    between atoms: O1_12  and  C11_13 
REMARK    3  A    between atoms: C15_22  and  C16_23 
REMARK       I    between atoms: C16_23  and  N4_25 
REMARK    4  A    between atoms: N4_25  and  C17_27 
ROOT
HETATM    1  C11 UNL     1       0.592  -0.152   1.488  1.00  0.00     0.168 A 
HETATM    2  N1  UNL     1       0.040   0.062   2.693  1.00  0.00    -0.332 N 
ATOM      3  H1  UNL     1      -0.965  -0.016   2.850  1.00  0.00     0.168 HD
HETATM    4  C12 UNL     1       0.895   0.386   3.681  1.00  0.00     0.183 A 
HETATM    5  N2  UNL     1       2.211   0.498   3.520  1.00  0.00    -0.350 N 
ATOM      6  H2  UNL     1       2.784   0.748   4.326  1.00  0.00     0.166 HD
HETATM    7  C13 UNL     1       2.829   0.290   2.308  1.00  0.00     0.080 A 
HETATM    8  C14 UNL     1       4.149   0.373   2.014  1.00  0.00     0.097 A 
HETATM    9  N3  UNL     1       5.153   0.718   3.020  1.00  0.00    -0.098 NA
HETATM   10  C15 UNL     1       4.512   0.119   0.725  1.00  0.00     0.100 A 
HETATM   11  S1  UNL     1       3.030  -0.226  -0.042  1.00  0.00    -0.076 SA
HETATM   12  C20 UNL     1       1.981  -0.039   1.292  1.00  0.00     0.086 A 
ENDROOT
BRANCH   1  13
HETATM   13  O1  UNL     1      -0.130  -0.492   0.362  1.00  0.00    -0.291 OA
BRANCH  13  14
HETATM   14  C10 UNL     1      -1.475  -0.679   0.263  1.00  0.00     0.101 A 
HETATM   15  C9  UNL     1      -2.199  -1.622   0.929  1.00  0.00     0.068 A 
HETATM   16  C8  UNL     1      -3.578  -1.706   0.734  1.00  0.00     0.037 A 
HETATM   17 CL1  UNL     1      -1.396  -2.727   2.015  1.00  0.00    -0.081 Cl
HETATM   18  C7  UNL     1      -4.231  -0.850  -0.126  1.00  0.00    -0.022 A 
HETATM   19  C4  UNL     1      -5.694  -0.889  -0.376  1.00  0.00    -0.016 C 
HETATM   20  C22 UNL     1      -3.495   0.102  -0.799  1.00  0.00     0.038 A 
HETATM   21  C3  UNL     1      -6.164   0.565  -0.338  1.00  0.00     0.038 C 
HETATM   22  C5  UNL     1      -6.413  -1.627   0.734  1.00  0.00     0.020 C 
HETATM   23  C6  UNL     1      -6.039  -1.540  -1.684  1.00  0.00     0.020 C 
HETATM   24  C2  UNL     1      -5.594   1.351  -1.498  1.00  0.00     0.078 C 
HETATM   25  C1  UNL     1      -5.602   2.811  -1.092  1.00  0.00     0.032 C 
HETATM   26  N5  UNL     1      -4.208   0.977  -1.687  1.00  0.00    -0.385 N 
ATOM     27  H5  UNL     1      -3.712   1.355  -2.494  1.00  0.00     0.160 HD
HETATM   28  C21 UNL     1      -2.152   0.183  -0.608  1.00  0.00     0.069 A 
ENDBRANCH  13  14
ENDBRANCH   1  13
BRANCH  10  29
HETATM   29  C16 UNL     1       5.852   0.134   0.124  1.00  0.00     0.262 C 
HETATM   30  O2  UNL     1       6.813   0.416   0.872  1.00  0.00    -0.267 OA
HETATM   31  N4  UNL     1       6.062  -0.151  -1.223  1.00  0.00    -0.334 N 
ATOM     32  H4  UNL     1       5.269  -0.379  -1.823  1.00  0.00     0.164 HD
BRANCH  31  33
HETATM   33  C17 UNL     1       7.384  -0.125  -1.770  1.00  0.00     0.103 C 
HETATM   34  C18 UNL     1       8.030   1.231  -1.626  1.00  0.00     0.056 C 
HETATM   35  C19 UNL     1       8.292  -1.147  -1.111  1.00  0.00     0.056 C 
HETATM   36 CL2  UNL     1       7.355  -0.502  -3.525  1.00  0.00    -0.096 Cl
ENDBRANCH  31  33
ENDBRANCH  10  29
TORSDOF 4
