REMARK  3 active torsions:
REMARK  status: ('A' for Active; 'I' for Inactive)
REMARK    1  A    between atoms: C2_3  and  N2_4 
REMARK    2  A    between atoms: N3_10  and  N4_11 
REMARK    3  A    between atoms: C5_13  and  C6_14 
ROOT
HETATM    1  N1  UNL     1      -3.785   1.365  -2.709  1.00  0.00    -0.194 NA
HETATM    2  C1  UNL     1      -3.839   0.778  -1.691  1.00  0.00     0.103 C 
HETATM    3  C2  UNL     1      -3.920   0.071  -0.429  1.00  0.00     0.231 C 
HETATM    4  C3  UNL     1      -3.303  -1.278  -0.535  1.00  0.00     0.045 C 
HETATM    5  C4  UNL     1      -1.995  -1.415  -0.284  1.00  0.00     0.109 C 
HETATM    6  N3  UNL     1      -1.176  -0.327   0.078  1.00  0.00    -0.304 N 
HETATM    7  C11 UNL     1      -1.735   0.999   0.152  1.00  0.00     0.152 C 
HETATM    8  C12 UNL     1      -3.171   0.899   0.611  1.00  0.00     0.080 C 
ENDROOT
BRANCH   3   9
HETATM    9  N2  UNL     1      -5.297  -0.034   0.016  1.00  0.00    -0.054 N 
ATOM     10  H23 UNL     1      -5.748   0.879   0.066  1.00  0.00     0.276 HD
ATOM     11  H22 UNL     1      -5.892  -0.461  -0.694  1.00  0.00     0.276 HD
ATOM     12  H21 UNL     1      -5.354  -0.532   0.904  1.00  0.00     0.276 HD
ENDBRANCH   3   9
BRANCH   6  13
HETATM   13  N4  UNL     1       0.171  -0.520   0.367  1.00  0.00    -0.314 N 
HETATM   14  C5  UNL     1       1.071   0.386   0.294  1.00  0.00     0.085 C 
ATOM     15  H4  UNL     1       0.463  -1.453   0.659  1.00  0.00     0.185 HD
BRANCH  14  16
HETATM   16  C6  UNL     1       2.461   0.055   0.626  1.00  0.00     0.025 C 
HETATM   17  C7  UNL     1       3.412   1.103   0.055  1.00  0.00     0.010 C 
HETATM   18  C8  UNL     1       4.726   0.388  -0.060  1.00  0.00     0.001 C 
HETATM   19  C9  UNL     1       4.473  -1.074   0.204  1.00  0.00     0.001 C 
HETATM   20  C10 UNL     1       2.963  -1.199  -0.033  1.00  0.00     0.010 C 
ENDBRANCH  14  16
ENDBRANCH   6  13
TORSDOF 3
