REMARK  3 active torsions:
REMARK  status: ('A' for Active; 'I' for Inactive)
REMARK    1  A    between atoms: C2_2  and  C3_3 
REMARK    2  A    between atoms: C6_6  and  C7_7 
REMARK    3  A    between atoms: C10_13  and  O1_14 
ROOT
HETATM    1  C3  UNL     1       1.723  -0.292  -0.637  1.00  0.00     0.124 C 
HETATM    2  C4  UNL     1       1.553  -1.024   0.699  1.00  0.00     0.033 C 
HETATM    3  C5  UNL     1       0.070  -1.281   0.787  1.00  0.00     0.019 C 
HETATM    4  C6  UNL     1      -0.622   0.055   0.837  1.00  0.00     0.098 C 
HETATM    5  C10 UNL     1       0.150   1.179   0.246  1.00  0.00     0.267 C 
HETATM    6  O2  UNL     1       1.104   0.899  -0.658  1.00  0.00    -0.355 OA
ENDROOT
BRANCH   4   7
HETATM    7  C7  UNL     1      -1.983  -0.067   0.296  1.00  0.00     0.055 C 
HETATM    8  N1  UNL     1      -2.491   0.527  -0.672  1.00  0.00    -0.366 N 
HETATM    9  C8  UNL     1      -3.797   0.294  -1.055  1.00  0.00     0.072 C 
ATOM     10  H1  UNL     1      -1.931   1.201  -1.194  1.00  0.00     0.165 HD
HETATM   11  C9  UNL     1      -4.634  -0.297   0.058  1.00  0.00     0.125 C 
HETATM   12  S1  UNL     1      -3.253  -1.135   0.957  1.00  0.00    -0.111 SA
ENDBRANCH   4   7
BRANCH   5  13
HETATM   13  O1  UNL     1       0.722   2.001   1.236  1.00  0.00    -0.370 OA
ATOM     14  H1  UNL     1       1.215   2.720   0.858  1.00  0.00     0.212 HD
ENDBRANCH   5  13
BRANCH   1  15
HETATM   15  C2  UNL     1       3.215  -0.211  -0.882  1.00  0.00     0.027 C 
HETATM   16  C1  UNL     1       3.934   0.535   0.198  1.00  0.00     0.007 C 
ENDBRANCH   1  15
TORSDOF 3
