REMARK  10 active torsions:
REMARK  status: ('A' for Active; 'I' for Inactive)
REMARK    1  A    between atoms: N2_6  and  C4_7 
REMARK    2  A    between atoms: C5_11  and  C6_12 
REMARK    3  A    between atoms: C6_12  and  N4_13 
REMARK       I    between atoms: N4_13  and  C7_15 
REMARK    4  A    between atoms: C7_15  and  C8_17 
REMARK    5  A    between atoms: C11_25  and  N8_26 
REMARK       I    between atoms: N8_26  and  C12_28 
REMARK    6  A    between atoms: C12_28  and  C13_30 
REMARK    7  A    between atoms: C16_34  and  N9_35 
REMARK    8  A    between atoms: C16_34  and  C17_39 
REMARK    9  A    between atoms: C19_43  and  O6_44 
REMARK   10  A    between atoms: C20_46  and  O7_47 
ROOT
HETATM    1  C8  UNL     1      -0.986  -1.165  -2.774  1.00  0.00     0.200 C 
HETATM    2  N5  UNL     1       0.092  -2.115  -2.975  1.00  0.00    -0.349 N 
ATOM      3  H5  UNL     1       1.070  -1.846  -2.863  1.00  0.00     0.163 HD
HETATM    4  C9  UNL     1      -0.249  -3.326  -3.305  1.00  0.00     0.184 C 
HETATM    5  N6  UNL     1       0.718  -4.347  -3.530  1.00  0.00    -0.064 NA
HETATM    6  N7  UNL     1      -1.612  -3.698  -3.459  1.00  0.00    -0.363 N 
ATOM      7  H7  UNL     1      -1.832  -4.591  -3.901  1.00  0.00     0.162 HD
HETATM    8  C10 UNL     1      -2.713  -2.841  -3.004  1.00  0.00     0.150 C 
HETATM    9  C11 UNL     1      -2.062  -1.870  -2.005  1.00  0.00     0.134 C 
ENDROOT
BRANCH   1  10
HETATM   10  C7  UNL     1      -0.515   0.075  -2.191  1.00  0.00     0.242 C 
HETATM   11  N4  UNL     1       0.858   0.235  -1.889  1.00  0.00    -0.357 N 
ATOM     12  H4  UNL     1       1.509  -0.526  -2.084  1.00  0.00     0.162 HD
HETATM   13  O1  UNL     1      -1.290   1.021  -1.943  1.00  0.00    -0.271 OA
BRANCH  11  14
HETATM   14  C6  UNL     1       1.351   1.466  -1.307  1.00  0.00     0.158 C 
BRANCH  14  15
HETATM   15  C5  UNL     1       2.822   1.438  -1.064  1.00  0.00     0.237 C 
HETATM   16  N3  UNL     1       3.196   0.361  -0.148  1.00  0.00    -0.042 N 
HETATM   17  C4  UNL     1       4.570   0.765   0.176  1.00  0.00     0.339 C 
ATOM     18  H32 UNL     1       3.085  -0.587  -0.508  1.00  0.00     0.280 HD
ATOM     19  H31 UNL     1       2.575   0.220   0.649  1.00  0.00     0.280 HD
HETATM   20  C20 UNL     1       4.456   2.226   0.547  1.00  0.00     0.201 C 
HETATM   21  C19 UNL     1       3.246   2.653  -0.257  1.00  0.00     0.183 C 
BRANCH  17  22
HETATM   22  N2  UNL     1       5.148  -0.029   1.213  1.00  0.00    -0.253 N 
HETATM   23  C3  UNL     1       6.367  -0.592   1.214  1.00  0.00     0.204 A 
HETATM   24  N1  UNL     1       6.531  -1.247   2.356  1.00  0.00    -0.340 N 
HETATM   25  C2  UNL     1       5.433  -1.117   3.097  1.00  0.00     0.092 A 
ATOM     26  H1  UNL     1       7.366  -1.768   2.624  1.00  0.00     0.168 HD
HETATM   27  C1  UNL     1       5.115  -1.656   4.448  1.00  0.00     0.090 C 
HETATM   28  N10 UNL     1       4.585  -0.353   2.364  1.00  0.00    -0.284 N 
ATOM     29  H10 UNL     1       3.650  -0.070   2.658  1.00  0.00     0.188 HD
ENDBRANCH  17  22
BRANCH  20  30
HETATM   30  O7  UNL     1       4.233   2.379   1.926  1.00  0.00    -0.389 OA
ATOM     31  H7  UNL     1       4.161   3.297   2.159  1.00  0.00     0.210 HD
ENDBRANCH  20  30
BRANCH  21  32
HETATM   32  O6  UNL     1       3.531   3.723  -1.105  1.00  0.00    -0.391 OA
ATOM     33  H6  UNL     1       3.796   4.483  -0.600  1.00  0.00     0.210 HD
ENDBRANCH  21  32
ENDBRANCH  14  15
ENDBRANCH  11  14
ENDBRANCH   1  10
BRANCH   9  34
HETATM   34  N8  UNL     1      -3.011  -1.038  -1.377  1.00  0.00    -0.352 N 
HETATM   35  C12 UNL     1      -3.261  -1.132   0.004  1.00  0.00     0.222 C 
HETATM   36  O2  UNL     1      -2.626  -1.972   0.686  1.00  0.00    -0.273 OA
ATOM     37  H8  UNL     1      -3.526  -0.356  -1.934  1.00  0.00     0.163 HD
BRANCH  35  38
HETATM   38  C13 UNL     1      -4.248  -0.276   0.697  1.00  0.00     0.088 C 
HETATM   39  C14 UNL     1      -4.333  -0.585   2.172  1.00  0.00     0.096 C 
HETATM   40  C15 UNL     1      -5.029   0.635   2.683  1.00  0.00     0.174 C 
HETATM   41  O3  UNL     1      -5.834   0.684   3.584  1.00  0.00    -0.295 OA
HETATM   42  C16 UNL     1      -4.531   1.773   1.862  1.00  0.00     0.270 C 
HETATM   43  C18 UNL     1      -3.792   1.168   0.709  1.00  0.00     0.073 C 
BRANCH  42  44
HETATM   44  N9  UNL     1      -3.667   2.577   2.705  1.00  0.00    -0.053 N 
ATOM     45  H93 UNL     1      -4.122   2.878   3.567  1.00  0.00     0.276 HD
ATOM     46  H92 UNL     1      -2.915   2.037   3.132  1.00  0.00     0.276 HD
ATOM     47  H91 UNL     1      -3.326   3.357   2.143  1.00  0.00     0.276 HD
ENDBRANCH  42  44
BRANCH  42  48
HETATM   48  C17 UNL     1      -5.645   2.603   1.394  1.00  0.00     0.218 C 
HETATM   49  O4  UNL     1      -5.750   3.807   1.722  1.00  0.00    -0.646 OA
HETATM   50  O5  UNL     1      -6.640   2.075   0.556  1.00  0.00    -0.646 OA
ENDBRANCH  42  48
ENDBRANCH  35  38
ENDBRANCH   9  34
TORSDOF 10
