REMARK  6 active torsions:
REMARK  status: ('A' for Active; 'I' for Inactive)
REMARK    1  A    between atoms: C3_6  and  C4_7 
REMARK    2  A    between atoms: C4_7  and  N2_8 
REMARK    3  A    between atoms: C5_13  and  C6_14 
REMARK    4  A    between atoms: C6_14  and  N5_15 
REMARK    5  A    between atoms: N5_15  and  C7_18 
REMARK    6  A    between atoms: C18_30  and  C19_31 
ROOT
HETATM    1  N2  UNL     1      -1.944   1.112  -0.329  1.00  0.00    -0.263 N 
HETATM    2  N3  UNL     1      -1.894   1.791   0.780  1.00  0.00    -0.239 N 
ATOM      3  H3  UNL     1      -2.682   2.304   1.175  1.00  0.00     0.208 HD
HETATM    4  N4  UNL     1      -0.690   1.733   1.333  1.00  0.00    -0.286 N 
ATOM      5  H4  UNL     1      -0.406   2.185   2.202  1.00  0.00     0.188 HD
HETATM    6  C5  UNL     1       0.104   0.960   0.532  1.00  0.00     0.088 A 
HETATM    7  C17 UNL     1      -0.688   0.575  -0.508  1.00  0.00     0.124 A 
HETATM    8 BR1  UNL     1      -0.182  -0.529  -1.965  1.00  0.00    -0.027 Br
ENDROOT
BRANCH   6   9
HETATM    9  C6  UNL     1       1.532   0.576   0.796  1.00  0.00     0.294 C 
BRANCH   9  10
HETATM   10  N5  UNL     1       2.309   0.781  -0.406  1.00  0.00    -0.061 N 
ATOM     11  H52 UNL     1       1.900   0.266  -1.186  1.00  0.00     0.278 HD
ATOM     12  H51 UNL     1       2.192   1.735  -0.747  1.00  0.00     0.278 HD
BRANCH  10  13
HETATM   13  C7  UNL     1       3.703   0.464  -0.272  1.00  0.00     0.127 C 
HETATM   14  C8  UNL     1       4.466   1.409   0.627  1.00  0.00     0.043 C 
HETATM   15  C9  UNL     1       5.927   1.006   0.595  1.00  0.00    -0.012 C 
HETATM   16  C10 UNL     1       6.527   1.027  -0.785  1.00  0.00     0.009 C 
HETATM   17  C14 UNL     1       6.128  -0.388   1.155  1.00  0.00     0.009 C 
HETATM   18  C11 UNL     1       5.764   0.043  -1.632  1.00  0.00    -0.012 C 
HETATM   19  C12 UNL     1       5.812  -1.364  -1.105  1.00  0.00     0.009 C 
HETATM   20  C16 UNL     1       4.315   0.481  -1.639  1.00  0.00     0.043 C 
HETATM   21  C13 UNL     1       5.296  -1.343   0.316  1.00  0.00    -0.012 C 
HETATM   22  C15 UNL     1       3.866  -0.908   0.394  1.00  0.00     0.043 C 
ENDBRANCH  10  13
ENDBRANCH   9  10
ENDBRANCH   6   9
BRANCH   1  23
HETATM   23  C4  UNL     1      -3.035   0.969  -1.272  1.00  0.00     0.219 C 
BRANCH  23  24
HETATM   24  C3  UNL     1      -3.771  -0.291  -1.103  1.00  0.00     0.105 A 
HETATM   25  O1  UNL     1      -3.274  -1.376  -1.774  1.00  0.00    -0.240 OA
HETATM   26  N1  UNL     1      -3.983  -2.393  -1.529  1.00  0.00    -0.265 N 
HETATM   27  C2  UNL     1      -4.992  -2.093  -0.700  1.00  0.00     0.038 A 
ATOM     28  H1  UNL     1      -3.810  -3.322  -1.913  1.00  0.00     0.194 HD
HETATM   29  C1  UNL     1      -6.061  -2.957  -0.179  1.00  0.00     0.071 C 
HETATM   30  C18 UNL     1      -4.858  -0.714  -0.419  1.00  0.00     0.007 A 
BRANCH  30  31
HETATM   31  C19 UNL     1      -5.749   0.008   0.461  1.00  0.00    -0.020 C 
HETATM   32  C20 UNL     1      -7.232  -0.159   0.012  1.00  0.00     0.019 C 
HETATM   33  C21 UNL     1      -5.688  -0.279   1.927  1.00  0.00     0.019 C 
HETATM   34  C22 UNL     1      -5.617   1.560   0.351  1.00  0.00     0.019 C 
ENDBRANCH  30  31
ENDBRANCH  23  24
ENDBRANCH   1  23
TORSDOF 6
