REMARK  10 active torsions:
REMARK  status: ('A' for Active; 'I' for Inactive)
REMARK    1  A    between atoms: C2_2  and  C3_3 
REMARK    2  A    between atoms: C4_4  and  C5_5 
REMARK    3  A    between atoms: C5_5  and  C6_6 
REMARK    4  A    between atoms: C8_8  and  C9_9 
REMARK    5  A    between atoms: C9_9  and  C11_11 
REMARK    6  A    between atoms: C12_12  and  C14_14 
REMARK    7  A    between atoms: C15_15  and  C16_16 
REMARK    8  A    between atoms: C16_16  and  C17_17 
REMARK    9  A    between atoms: C17_17  and  C19_19 
REMARK   10  A    between atoms: C20_22  and  C21_23 
ROOT
HETATM    1  C6  UNL     1       0.107  -3.077   0.200  1.00  0.00    -0.020 C 
HETATM    2  C7  UNL     1      -0.123  -4.356   0.887  1.00  0.00     0.057 C 
HETATM    3  C8  UNL     1       1.258  -2.846  -0.391  1.00  0.00    -0.004 C 
ENDROOT
BRANCH   1   4
HETATM    4  C5  UNL     1      -0.851  -2.064   0.047  1.00  0.00    -0.122 C 
BRANCH   4   5
HETATM    5  C4  UNL     1      -1.710  -1.156  -0.091  1.00  0.00     0.056 C 
HETATM    6  C3  UNL     1      -3.067  -1.008   0.300  1.00  0.00     0.015 C 
BRANCH   6   7
HETATM    7  C2  UNL     1      -3.801   0.086   0.131  1.00  0.00    -0.061 C 
HETATM    8  C1  UNL     1      -3.104   1.238  -0.499  1.00  0.00     0.048 C 
HETATM    9  C20 UNL     1      -5.216  -0.014   0.337  1.00  0.00     0.013 C 
BRANCH   9  10
HETATM   10  C21 UNL     1      -6.077   0.964   0.352  1.00  0.00    -0.058 C 
HETATM   11  C22 UNL     1      -7.516   0.571   0.545  1.00  0.00     0.003 C 
HETATM   12  C23 UNL     1      -8.406   1.361  -0.060  1.00  0.00    -0.026 C 
HETATM   13  C24 UNL     1      -7.965   2.536  -0.860  1.00  0.00     0.031 C 
HETATM   14  C25 UNL     1      -6.803   3.267  -0.315  1.00  0.00    -0.011 C 
HETATM   15  C26 UNL     1      -6.113   4.135  -1.365  1.00  0.00     0.010 C 
HETATM   16  C27 UNL     1      -5.854   2.412   0.423  1.00  0.00     0.043 C 
ENDBRANCH   9  10
ENDBRANCH   6   7
ENDBRANCH   4   5
ENDBRANCH   1   4
BRANCH   3  17
HETATM   17  C9  UNL     1       2.570  -3.537  -0.512  1.00  0.00     0.028 C 
HETATM   18  C10 UNL     1       2.769  -4.169   0.874  1.00  0.00     0.018 C 
BRANCH  17  19
HETATM   19  C11 UNL     1       3.513  -2.440  -0.712  1.00  0.00    -0.012 C 
HETATM   20  C12 UNL     1       4.398  -1.675  -0.167  1.00  0.00    -0.065 C 
HETATM   21  C13 UNL     1       4.812  -1.737   1.264  1.00  0.00     0.048 C 
BRANCH  20  22
HETATM   22  C14 UNL     1       5.021  -0.719  -1.096  1.00  0.00     0.006 C 
HETATM   23  C15 UNL     1       5.871   0.212  -1.082  1.00  0.00     0.001 C 
BRANCH  23  24
HETATM   24  C16 UNL     1       6.701   0.853  -0.108  1.00  0.00     0.013 C 
BRANCH  24  25
HETATM   25  C17 UNL     1       7.559   1.826  -0.262  1.00  0.00     0.015 C 
HETATM   26  C18 UNL     1       8.304   2.326   0.960  1.00  0.00     0.055 C 
BRANCH  25  27
HETATM   27  C19 UNL     1       7.872   2.470  -1.502  1.00  0.00     0.204 C 
HETATM   28  O1  UNL     1       7.466   2.278  -2.651  1.00  0.00    -0.644 OA
HETATM   29  O2  UNL     1       8.826   3.544  -1.428  1.00  0.00    -0.644 OA
ENDBRANCH  25  27
ENDBRANCH  24  25
ENDBRANCH  23  24
ENDBRANCH  20  22
ENDBRANCH  17  19
ENDBRANCH   3  17
TORSDOF 10
