REMARK  5 active torsions:
REMARK  status: ('A' for Active; 'I' for Inactive)
REMARK    1  A    between atoms: C2_2  and  C3_3 
REMARK    2  A    between atoms: C3_3  and  N1_4 
REMARK    3  A    between atoms: C9_12  and  C10_13 
REMARK    4  A    between atoms: C16_19  and  O2_20 
REMARK    5  A    between atoms: C25_30  and  O3_31 
ROOT
HETATM    1  C10 UNL     1       0.220  -0.845   0.401  1.00  0.00     0.012 C 
HETATM    2  C11 UNL     1       0.100  -2.316   0.112  1.00  0.00     0.020 C 
HETATM    3  C12 UNL     1       0.311  -0.081  -0.862  1.00  0.00     0.015 C 
HETATM    4  C13 UNL     1      -0.859  -0.454  -1.747  1.00  0.00     0.006 C 
HETATM    5  C14 UNL     1      -2.090   0.032  -1.098  1.00  0.00    -0.001 C 
HETATM    6  C15 UNL     1      -3.273  -0.418  -1.931  1.00  0.00     0.037 C 
HETATM    7  C16 UNL     1      -4.556  -0.109  -1.223  1.00  0.00     0.123 C 
HETATM    8  C17 UNL     1      -4.318   0.966  -0.230  1.00  0.00     0.019 C 
HETATM    9  C18 UNL     1      -5.618   1.339   0.470  1.00  0.00     0.007 C 
HETATM   10  C19 UNL     1      -5.271   2.429   1.456  1.00  0.00     0.000 C 
HETATM   11  C20 UNL     1      -3.951   3.074   1.149  1.00  0.00     0.000 C 
HETATM   12  C21 UNL     1      -2.800   2.054   1.260  1.00  0.00     0.006 C 
HETATM   13  C22 UNL     1      -3.286   0.720   0.826  1.00  0.00     0.003 C 
HETATM   14  C23 UNL     1      -2.254  -0.278   0.372  1.00  0.00    -0.009 C 
HETATM   15  C24 UNL     1      -2.945  -1.647   0.550  1.00  0.00     0.018 C 
HETATM   16  C25 UNL     1      -1.015  -0.325   1.149  1.00  0.00     0.138 C 
ENDROOT
BRANCH   1  17
HETATM   17  C9  UNL     1       1.423  -0.732   1.317  1.00  0.00     0.169 A 
HETATM   18  C2  UNL     1       2.745  -1.131   1.139  1.00  0.00     0.111 A 
HETATM   19  C1  UNL     1       3.531  -1.484   2.439  1.00  0.00     0.050 C 
HETATM   20  O1  UNL     1       2.357   0.280   1.109  1.00  0.00    -0.367 OA
BRANCH  18  21
HETATM   21  C3  UNL     1       3.605  -1.424  -0.020  1.00  0.00     0.312 C 
BRANCH  21  22
HETATM   22  N1  UNL     1       4.838  -0.612   0.017  1.00  0.00     0.091 N 
HETATM   23  C4  UNL     1       4.594   0.761  -0.190  1.00  0.00     0.275 C 
HETATM   24  C5  UNL     1       5.773   1.376  -0.945  1.00  0.00     0.067 C 
HETATM   25  C6  UNL     1       5.672   0.776  -2.361  1.00  0.00     0.173 C 
HETATM   26  F1  UNL     1       6.546   1.337  -3.235  1.00  0.00    -0.249 F 
HETATM   27  C7  UNL     1       5.801  -0.735  -2.251  1.00  0.00     0.067 C 
HETATM   28  C8  UNL     1       5.853  -1.165  -0.804  1.00  0.00     0.275 C 
ENDBRANCH  21  22
ENDBRANCH  18  21
ENDBRANCH   1  17
BRANCH  16  29
HETATM   29  O3  UNL     1      -0.581   0.834   1.759  1.00  0.00    -0.394 OA
ATOM     30  H3  UNL     1      -1.346   1.156   2.222  1.00  0.00     0.210 HD
ENDBRANCH  16  29
BRANCH   7  31
HETATM   31  O2  UNL     1      -5.430   0.453  -2.193  1.00  0.00    -0.395 OA
ATOM     32  H2  UNL     1      -6.244   0.649  -1.744  1.00  0.00     0.210 HD
ENDBRANCH   7  31
TORSDOF 5
