REMARK  8 active torsions:
REMARK  status: ('A' for Active; 'I' for Inactive)
REMARK    1  A    between atoms: C2_2  and  O1_3 
REMARK    2  A    between atoms: O1_3  and  C3_4 
REMARK    3  A    between atoms: C3_4  and  C4_6 
REMARK    4  A    between atoms: N1_10  and  C6_11 
REMARK    5  A    between atoms: C8_13  and  O3_14 
REMARK    6  A    between atoms: C9_16  and  C10_17 
REMARK    7  A    between atoms: C10_17  and  O4_18 
REMARK    8  A    between atoms: C12_21  and  O5_22 
ROOT
HETATM    1  C4  UNL     1       2.263  -0.404   0.088  1.00  0.00     0.134 A 
HETATM    2  S1  UNL     1       2.010  -1.550   1.320  1.00  0.00    -0.050 SA
HETATM    3  C5  UNL     1       0.305  -1.598   1.260  1.00  0.00     0.148 A 
HETATM    4  S2  UNL     1      -0.683  -2.530   2.211  1.00  0.00    -0.052 SA
HETATM    5  N1  UNL     1      -0.007  -0.735   0.300  1.00  0.00    -0.307 N 
HETATM    6  C12 UNL     1       0.988  -0.112  -0.312  1.00  0.00     0.168 A 
ENDROOT
BRANCH   5   7
HETATM    7  C6  UNL     1      -1.399  -0.482  -0.066  1.00  0.00     0.096 C 
HETATM    8  C7  UNL     1      -2.172  -1.657  -0.536  1.00  0.00     0.058 C 
HETATM    9  C8  UNL     1      -3.542  -0.978  -0.742  1.00  0.00     0.126 C 
HETATM   10  C9  UNL     1      -3.654  -0.172   0.532  1.00  0.00     0.040 C 
HETATM   11  C11 UNL     1      -2.236   0.102   1.013  1.00  0.00     0.035 C 
BRANCH   9  12
HETATM   12  O3  UNL     1      -4.551  -1.897  -0.845  1.00  0.00    -0.395 OA
ATOM     13  H3  UNL     1      -5.395  -1.479  -0.972  1.00  0.00     0.210 HD
ENDBRANCH   9  12
BRANCH  10  14
HETATM   14  C10 UNL     1      -4.374   1.118   0.197  1.00  0.00     0.171 C 
BRANCH  14  15
HETATM   15  O4  UNL     1      -4.506   1.902   1.329  1.00  0.00    -0.400 OA
ATOM     16  H4  UNL     1      -4.958   2.711   1.119  1.00  0.00     0.209 HD
ENDBRANCH  14  15
ENDBRANCH  10  14
ENDBRANCH   5   7
BRANCH   6  17
HETATM   17  O5  UNL     1       0.830   0.845  -1.365  1.00  0.00    -0.345 OA
ATOM     18  H5  UNL     1      -0.056   1.048  -1.643  1.00  0.00     0.219 HD
ENDBRANCH   6  17
BRANCH   1  19
HETATM   19  C3  UNL     1       3.549   0.130  -0.409  1.00  0.00     0.304 C 
HETATM   20  O2  UNL     1       3.548   0.965  -1.318  1.00  0.00    -0.258 OA
BRANCH  19  21
HETATM   21  O1  UNL     1       4.732  -0.303   0.139  1.00  0.00    -0.317 OA
BRANCH  21  22
HETATM   22  C2  UNL     1       6.001   0.133  -0.253  1.00  0.00     0.174 C 
HETATM   23  C1  UNL     1       6.166   1.639  -0.065  1.00  0.00     0.034 C 
ENDBRANCH  21  22
ENDBRANCH  19  21
ENDBRANCH   1  19
TORSDOF 8
