REMARK  8 active torsions:
REMARK  status: ('A' for Active; 'I' for Inactive)
REMARK    1  A    between atoms: C2_2  and  C3_3 
REMARK    2  A    between atoms: C2_2  and  C20_25 
REMARK    3  A    between atoms: C4_4  and  C5_5 
REMARK    4  A    between atoms: C5_5  and  C6_6 
REMARK    5  A    between atoms: C6_6  and  C8_8 
REMARK    6  A    between atoms: N1_13  and  C13_14 
REMARK    7  A    between atoms: C18_19  and  C19_20 
REMARK    8  A    between atoms: C19_20  and  N2_21 
ROOT
HETATM    1  C5  UNL     1      -1.115   0.711   0.129  1.00  0.00     0.033 C 
ENDROOT
BRANCH   1   2
HETATM    2  C4  UNL     1      -0.074   0.374   1.159  1.00  0.00    -0.030 C 
HETATM    3  C3  UNL     1       1.122  -0.031   0.802  1.00  0.00    -0.026 C 
BRANCH   3   4
HETATM    4  C2  UNL     1       2.164  -0.369   1.807  1.00  0.00     0.008 C 
HETATM    5  C1  UNL     1       1.526   0.039   3.161  1.00  0.00     0.014 C 
BRANCH   4   6
HETATM    6  C20 UNL     1       3.354   0.514   1.571  1.00  0.00     0.001 C 
HETATM    7  C21 UNL     1       4.371   0.449   2.725  1.00  0.00     0.006 C 
HETATM    8  C22 UNL     1       5.608   1.125   2.031  1.00  0.00     0.006 C 
HETATM    9  C23 UNL     1       5.600   0.294   0.817  1.00  0.00    -0.002 C 
HETATM   10  C24 UNL     1       6.525   0.563  -0.286  1.00  0.00    -0.005 C 
HETATM   11  C32 UNL     1       4.135   0.341   0.353  1.00  0.00    -0.036 C 
HETATM   12  C25 UNL     1       7.923   0.144   0.208  1.00  0.00     0.013 C 
HETATM   13  C29 UNL     1       6.163  -0.102  -1.580  1.00  0.00    -0.003 C 
HETATM   14  C26 UNL     1       8.954   0.382  -0.905  1.00  0.00     0.079 C 
HETATM   15  C27 UNL     1       8.535  -0.537  -1.998  1.00  0.00     0.127 C 
HETATM   16  O1  UNL     1       9.264  -0.721  -2.950  1.00  0.00    -0.298 OA
HETATM   17  C28 UNL     1       7.207  -1.186  -1.842  1.00  0.00     0.083 C 
HETATM   18  C30 UNL     1       4.834  -0.704  -1.708  1.00  0.00     0.006 C 
HETATM   19  C31 UNL     1       4.035  -0.929  -0.441  1.00  0.00     0.010 C 
HETATM   20  C33 UNL     1       3.867   1.545  -0.545  1.00  0.00     0.016 C 
ENDBRANCH   4   6
ENDBRANCH   3   4
ENDBRANCH   1   2
BRANCH   1  21
HETATM   21  C6  UNL     1      -2.296  -0.205   0.341  1.00  0.00     0.007 C 
HETATM   22  C7  UNL     1      -2.803   0.041   1.739  1.00  0.00     0.012 C 
BRANCH  21  23
HETATM   23  C8  UNL     1      -3.387  -0.009  -0.715  1.00  0.00     0.083 C 
HETATM   24  C9  UNL     1      -2.732  -0.317  -2.071  1.00  0.00     0.025 C 
HETATM   25  C10 UNL     1      -2.228  -1.729  -2.058  1.00  0.00     0.004 C 
HETATM   26  C11 UNL     1      -3.349  -2.642  -1.731  1.00  0.00     0.019 C 
HETATM   27  C12 UNL     1      -4.308  -2.230  -0.695  1.00  0.00     0.117 C 
HETATM   28  N1  UNL     1      -4.515  -0.839  -0.490  1.00  0.00    -0.403 N 
BRANCH  28  29
HETATM   29  C13 UNL     1      -5.812  -0.336  -0.767  1.00  0.00     0.085 C 
HETATM   30  C14 UNL     1      -6.069   0.035  -2.205  1.00  0.00     0.025 C 
HETATM   31  C15 UNL     1      -7.549   0.407  -2.316  1.00  0.00     0.002 C 
HETATM   32  C16 UNL     1      -7.612   1.789  -1.648  1.00  0.00     0.001 C 
HETATM   33  C17 UNL     1      -7.382   1.580  -0.205  1.00  0.00     0.008 C 
HETATM   34  C18 UNL     1      -6.300   0.676   0.221  1.00  0.00     0.033 C 
BRANCH  34  35
HETATM   35  C19 UNL     1      -6.829  -0.014   1.495  1.00  0.00     0.236 C 
BRANCH  35  36
HETATM   36  N2  UNL     1      -7.285   1.011   2.415  1.00  0.00    -0.079 N 
ATOM     37  H23 UNL     1      -6.566   1.706   2.615  1.00  0.00     0.274 HD
ATOM     38  H22 UNL     1      -7.971   1.638   1.995  1.00  0.00     0.274 HD
ATOM     39  H21 UNL     1      -7.635   0.555   3.258  1.00  0.00     0.274 HD
ENDBRANCH  35  36
ENDBRANCH  34  35
ENDBRANCH  28  29
ENDBRANCH  21  23
ENDBRANCH   1  21
TORSDOF 8
