REMARK  11 active torsions:
REMARK  status: ('A' for Active; 'I' for Inactive)
REMARK    1  A    between atoms: C2_2  and  C4_4 
REMARK    2  A    between atoms: C4_4  and  C5_5 
REMARK    3  A    between atoms: C5_5  and  N1_6 
REMARK    4  A    between atoms: C5_5  and  C24_33 
REMARK       I    between atoms: N1_6  and  C6_8 
REMARK    5  A    between atoms: C6_8  and  C7_10 
REMARK    6  A    between atoms: C7_10  and  C8_11 
REMARK    7  A    between atoms: C7_10  and  C12_15 
REMARK    8  A    between atoms: C8_11  and  C9_12 
REMARK       I    between atoms: C12_15  and  N2_17 
REMARK    9  A    between atoms: C24_33  and  C25_35 
REMARK   10  A    between atoms: C25_35  and  N3_36 
REMARK   11  A    between atoms: C25_35  and  O5_40 
ROOT
HETATM    1  C7  UNL     1      -0.484   1.327   0.878  1.00  0.00     0.078 C 
ENDROOT
BRANCH   1   2
HETATM    2  C6  UNL     1      -1.889   0.884   0.756  1.00  0.00     0.254 C 
HETATM    3  N1  UNL     1      -2.240  -0.443   0.462  1.00  0.00    -0.342 N 
ATOM      4  H1  UNL     1      -1.500  -1.131   0.323  1.00  0.00     0.163 HD
HETATM    5  O1  UNL     1      -2.818   1.695   0.916  1.00  0.00    -0.268 OA
BRANCH   3   6
HETATM    6  C5  UNL     1      -3.678  -0.881   0.346  1.00  0.00     0.182 C 
BRANCH   6   7
HETATM    7  C4  UNL     1      -3.795  -1.200  -1.084  1.00  0.00     0.008 C 
BRANCH   7   8
HETATM    8  C2  UNL     1      -5.011  -1.655  -1.730  1.00  0.00    -0.089 C 
HETATM    9  C1  UNL     1      -6.208  -0.745  -1.666  1.00  0.00     0.042 C 
HETATM   10  C3  UNL     1      -5.405  -3.096  -1.534  1.00  0.00     0.042 C 
ENDBRANCH   7   8
ENDBRANCH   6   7
BRANCH   6  11
HETATM   11  C24 UNL     1      -3.899  -1.926   1.342  1.00  0.00     0.208 C 
HETATM   12  O4  UNL     1      -2.906  -2.644   1.592  1.00  0.00    -0.291 OA
BRANCH  11  13
HETATM   13  C25 UNL     1      -5.087  -2.281   2.112  1.00  0.00     0.389 C 
BRANCH  13  14
HETATM   14  N3  UNL     1      -5.287  -3.716   2.099  1.00  0.00    -0.046 N 
ATOM     15  H33 UNL     1      -5.326  -4.086   1.149  1.00  0.00     0.277 HD
ATOM     16  H32 UNL     1      -4.460  -4.218   2.423  1.00  0.00     0.277 HD
ATOM     17  H31 UNL     1      -6.117  -3.964   2.637  1.00  0.00     0.277 HD
ENDBRANCH  13  14
BRANCH  13  18
HETATM   18  O5  UNL     1      -6.256  -1.645   1.811  1.00  0.00    -0.364 OA
ATOM     19  H5  UNL     1      -7.029  -1.876   2.312  1.00  0.00     0.212 HD
ENDBRANCH  13  18
ENDBRANCH  11  13
ENDBRANCH   6  11
ENDBRANCH   3   6
ENDBRANCH   1   2
BRANCH   1  20
HETATM   20  C8  UNL     1      -0.321   2.769   1.153  1.00  0.00     0.054 C 
BRANCH  20  21
HETATM   21  C9  UNL     1      -0.863   3.771   0.230  1.00  0.00    -0.018 C 
HETATM   22  C10 UNL     1      -0.513   5.156   0.833  1.00  0.00     0.010 C 
HETATM   23  C11 UNL     1      -0.176   3.755  -1.106  1.00  0.00     0.010 C 
ENDBRANCH  20  21
ENDBRANCH   1  20
BRANCH   1  24
HETATM   24  C12 UNL     1       0.433   0.714  -0.113  1.00  0.00     0.257 C 
HETATM   25  O2  UNL     1       0.120   0.547  -1.345  1.00  0.00    -0.267 OA
HETATM   26  N2  UNL     1       1.717   0.262   0.208  1.00  0.00    -0.328 N 
HETATM   27  C13 UNL     1       2.856   0.509  -0.242  1.00  0.00     0.018 C 
ATOM     28  H2  UNL     1       1.725  -0.413   0.972  1.00  0.00     0.168 HD
HETATM   29  C14 UNL     1       3.256   1.412  -1.325  1.00  0.00     0.130 C 
HETATM   30  C22 UNL     1       4.115  -0.151   0.286  1.00  0.00     0.012 C 
HETATM   31 CL1  UNL     1       3.916   2.954  -0.730  1.00  0.00    -0.119 Cl
HETATM   32  C15 UNL     1       4.322   0.596  -2.028  1.00  0.00     0.044 C 
HETATM   33  C16 UNL     1       4.994  -0.140  -0.917  1.00  0.00     0.031 C 
HETATM   34  C17 UNL     1       6.323   0.581  -0.644  1.00  0.00     0.025 C 
HETATM   35  C18 UNL     1       5.387  -1.503  -1.357  1.00  0.00     0.137 C 
HETATM   36  O3  UNL     1       5.301  -1.841  -2.488  1.00  0.00    -0.297 OA
HETATM   37  C19 UNL     1       5.882  -2.366  -0.261  1.00  0.00     0.099 C 
HETATM   38  C20 UNL     1       4.721  -2.596   0.672  1.00  0.00     0.090 C 
HETATM   39 CL2  UNL     1       3.910  -4.089   0.061  1.00  0.00    -0.125 Cl
HETATM   40  C21 UNL     1       3.775  -1.491   0.833  1.00  0.00     0.037 C 
HETATM   41  C23 UNL     1       4.587   0.734   1.414  1.00  0.00     0.023 C 
ENDBRANCH   1  24
TORSDOF 11
