REMARK  4 active torsions:
REMARK  status: ('A' for Active; 'I' for Inactive)
REMARK    1  A    between atoms: C2_2  and  C4_4 
REMARK    2  A    between atoms: C6_6  and  C7_7 
REMARK    3  A    between atoms: C11_16  and  C12_17 
REMARK    4  A    between atoms: C15_20  and  O1_21 
ROOT
HETATM    1  C4  UNL     1      -1.453   0.447  -0.016  1.00  0.00    -0.041 A 
HETATM    2  C5  UNL     1      -2.827   0.314   0.047  1.00  0.00     0.024 A 
HETATM    3  C6  UNL     1      -3.452  -0.902  -0.089  1.00  0.00     0.050 A 
HETATM    4  C8  UNL     1      -2.710  -2.064  -0.305  1.00  0.00     0.046 A 
HETATM    5  C9  UNL     1      -1.361  -1.943  -0.375  1.00  0.00     0.044 A 
HETATM    6  N1  UNL     1      -0.416  -2.845  -0.675  1.00  0.00    -0.365 N 
ATOM      7  H1  UNL     1      -0.589  -3.837  -0.838  1.00  0.00     0.165 HD
HETATM    8  C10 UNL     1       0.773  -2.267  -0.730  1.00  0.00     0.096 A 
HETATM    9  C11 UNL     1       0.616  -0.895  -0.450  1.00  0.00    -0.025 A 
HETATM   10  C17 UNL     1      -0.728  -0.712  -0.231  1.00  0.00     0.005 A 
ENDROOT
BRANCH   9  11
HETATM   11  C12 UNL     1       1.770  -0.029  -0.347  1.00  0.00     0.023 C 
HETATM   12  C13 UNL     1       2.945  -0.456  -1.298  1.00  0.00     0.012 C 
HETATM   13  C14 UNL     1       4.091   0.293  -0.595  1.00  0.00     0.032 C 
HETATM   14  C15 UNL     1       3.788   0.148   0.911  1.00  0.00     0.118 C 
HETATM   15  C16 UNL     1       2.511  -0.641   0.909  1.00  0.00     0.041 C 
BRANCH  14  16
HETATM   16  O1  UNL     1       4.861  -0.458   1.528  1.00  0.00    -0.396 OA
ATOM     17  H1  UNL     1       4.674  -0.547   2.455  1.00  0.00     0.210 HD
ENDBRANCH  14  16
ENDBRANCH   9  11
BRANCH   1  18
HETATM   18  C2  UNL     1      -0.748   1.699   0.285  1.00  0.00     0.011 C 
HETATM   19  C1  UNL     1      -1.025   2.773  -0.771  1.00  0.00     0.015 C 
HETATM   20  C3  UNL     1      -1.685   2.366   1.422  1.00  0.00     0.015 C 
ENDBRANCH   1  18
BRANCH   3  21
HETATM   21  C7  UNL     1      -4.953  -1.083  -0.059  1.00  0.00     0.417 C 
HETATM   22  F1  UNL     1      -5.622   0.086   0.139  1.00  0.00    -0.166 F 
HETATM   23  F2  UNL     1      -5.206  -1.961   1.011  1.00  0.00    -0.166 F 
HETATM   24  F3  UNL     1      -5.434  -1.717  -1.167  1.00  0.00    -0.166 F 
ENDBRANCH   3  21
TORSDOF 4
