REMARK  3 active torsions:
REMARK  status: ('A' for Active; 'I' for Inactive)
REMARK    1  A    between atoms: C5_5  and  C6_6 
REMARK    2  A    between atoms: N3_18  and  C15_19 
REMARK    3  A    between atoms: C15_19  and  C16_20 
ROOT
HETATM    1  C6  UNL     1      -1.708   2.940   0.392  1.00  0.00    -0.034 A 
HETATM    2  C7  UNL     1      -2.173   4.024   1.100  1.00  0.00     0.096 A 
HETATM    3  N1  UNL     1      -2.382   5.035   0.243  1.00  0.00    -0.357 N 
ATOM      4  H1  UNL     1      -2.727   5.963   0.490  1.00  0.00     0.166 HD
HETATM    5  C8  UNL     1      -2.058   4.618  -1.004  1.00  0.00     0.114 A 
HETATM    6  C9  UNL     1      -2.159   5.442  -2.174  1.00  0.00     0.117 C 
HETATM    7  N2  UNL     1      -2.240   6.100  -3.125  1.00  0.00    -0.190 NA
HETATM    8  C10 UNL     1      -1.628   3.293  -0.937  1.00  0.00     0.050 A 
ENDROOT
BRANCH   1   9
HETATM    9  C5  UNL     1      -1.357   1.620   0.968  1.00  0.00     0.044 C 
HETATM   10  C4  UNL     1      -1.960   0.505   0.184  1.00  0.00     0.096 C 
HETATM   11  C3  UNL     1      -1.163  -0.663   0.807  1.00  0.00     0.051 C 
HETATM   12  N4  UNL     1      -3.349   0.327   0.251  1.00  0.00    -0.383 N 
HETATM   13  C2  UNL     1      -1.749  -1.892   0.352  1.00  0.00     0.228 C 
HETATM   14  C12 UNL     1       0.210  -0.216   0.580  1.00  0.00    -0.023 C 
HETATM   15  C1  UNL     1      -0.882  -3.057   0.001  1.00  0.00     0.043 C 
HETATM   16  N5  UNL     1      -2.706  -1.758  -0.769  1.00  0.00     0.115 N 
HETATM   17  C23 UNL     1      -3.733  -0.785  -0.521  1.00  0.00     0.320 C 
HETATM   18  C26 UNL     1      -3.361  -3.054  -0.902  1.00  0.00     0.276 C 
HETATM   19  C24 UNL     1      -4.921  -1.560  -0.027  1.00  0.00     0.059 C 
HETATM   20  C25 UNL     1      -4.861  -2.734  -1.019  1.00  0.00     0.034 C 
HETATM   21  C11 UNL     1       0.114   1.300   0.763  1.00  0.00     0.022 C 
HETATM   22  C13 UNL     1       0.823  -0.412  -0.755  1.00  0.00     0.055 C 
HETATM   23  C21 UNL     1       1.093  -0.714   1.714  1.00  0.00     0.055 C 
HETATM   24  C14 UNL     1       2.226   0.157  -0.743  1.00  0.00     0.064 C 
HETATM   25  N3  UNL     1       3.019  -0.570   0.153  1.00  0.00    -0.373 N 
HETATM   26  C20 UNL     1       2.440  -1.165   1.286  1.00  0.00     0.064 C 
HETATM   27  C22 UNL     1      -4.010   0.569   1.468  1.00  0.00     0.146 C 
BRANCH  25  28
HETATM   28  C15 UNL     1       4.288  -0.000   0.501  1.00  0.00     0.131 C 
BRANCH  28  29
HETATM   29  C16 UNL     1       5.303   0.062  -0.572  1.00  0.00     0.004 C 
HETATM   30  C17 UNL     1       6.613   0.675  -0.125  1.00  0.00     0.006 C 
HETATM   31  C18 UNL     1       7.077  -0.718   0.244  1.00  0.00     0.001 C 
HETATM   32  C19 UNL     1       6.043  -1.254  -0.722  1.00  0.00     0.006 C 
ENDBRANCH  28  29
ENDBRANCH  25  28
ENDBRANCH   1   9
TORSDOF 3
