REMARK  18 active torsions:
REMARK  status: ('A' for Active; 'I' for Inactive)
REMARK    1  A    between atoms: N1_1  and  C1_4 
REMARK    2  A    between atoms: C2_7  and  O1_8 
REMARK    3  A    between atoms: C3_10  and  C4_11 
REMARK    4  A    between atoms: C4_11  and  N3_12 
REMARK    5  A    between atoms: C4_11  and  C14_38 
REMARK    6  A    between atoms: C6_15  and  C7_16 
REMARK    7  A    between atoms: C7_16  and  O2_17 
REMARK    8  A    between atoms: C9_22  and  C10_23 
REMARK    9  A    between atoms: N6_30  and  N7_31 
REMARK   10  A    between atoms: N7_31  and  O4_33 
REMARK   11  A    between atoms: N8_35  and  O5_36 
REMARK   12  A    between atoms: C14_38  and  C15_40 
REMARK   13  A    between atoms: C15_40  and  O7_41 
REMARK   14  A    between atoms: C15_40  and  C16_43 
REMARK   15  A    between atoms: C16_43  and  O8_44 
REMARK   16  A    between atoms: C16_43  and  C17_46 
REMARK   17  A    between atoms: C17_46  and  O9_47 
REMARK   18  A    between atoms: C17_46  and  O10_49 
ROOT
HETATM    1  C4  UNL     1      -1.134  -0.480  -0.601  1.00  0.00     0.203 C 
ENDROOT
BRANCH   1   2
HETATM    2  C3  UNL     1      -1.655  -1.375   0.481  1.00  0.00     0.092 A 
HETATM    3  C2  UNL     1      -1.912  -2.711   0.291  1.00  0.00     0.169 A 
HETATM    4  N2  UNL     1      -2.347  -3.518   1.275  1.00  0.00    -0.170 N 
HETATM    5  C1  UNL     1      -2.537  -2.999   2.487  1.00  0.00     0.680 A 
ATOM      6  H2  UNL     1      -2.528  -4.506   1.097  1.00  0.00     0.186 HD
HETATM    7  N9  UNL     1      -2.303  -1.704   2.730  1.00  0.00    -0.156 N 
HETATM    8  C18 UNL     1      -1.860  -0.873   1.737  1.00  0.00     0.272 A 
ATOM      9  H9  UNL     1      -2.457  -1.332   3.667  1.00  0.00     0.187 HD
HETATM   10  O11 UNL     1      -1.659   0.305   2.026  1.00  0.00    -0.267 OA
BRANCH   3  11
HETATM   11  O1  UNL     1      -1.721  -3.275  -0.961  1.00  0.00    -0.345 OA
ATOM     12  H1  UNL     1      -1.414  -2.705  -1.656  1.00  0.00     0.219 HD
ENDBRANCH   3  11
BRANCH   5  13
HETATM   13  N1  UNL     1      -2.959  -3.768   3.452  1.00  0.00    -0.234 N 
ATOM     14  H12 UNL     1      -3.137  -4.755   3.267  1.00  0.00     0.174 HD
ATOM     15  H11 UNL     1      -3.104  -3.371   4.380  1.00  0.00     0.174 HD
ENDBRANCH   5  13
ENDBRANCH   1   2
BRANCH   1  16
HETATM   16  N3  UNL     1       0.198  -0.156  -0.443  1.00  0.00    -0.357 N 
HETATM   17  C5  UNL     1       1.317  -0.048  -0.897  1.00  0.00     0.150 C 
HETATM   18  C6  UNL     1       1.792  -0.328  -2.251  1.00  0.00     0.075 C 
HETATM   19  N8  UNL     1       2.404   0.414  -0.039  1.00  0.00    -0.231 N 
HETATM   20  N4  UNL     1       3.020  -0.172  -2.597  1.00  0.00    -0.386 N 
HETATM   21  C8  UNL     1       4.097   0.292  -1.733  1.00  0.00     0.154 C 
ATOM     22  H4  UNL     1       3.262  -0.393  -3.563  1.00  0.00     0.159 HD
HETATM   23  C9  UNL     1       3.742  -0.043  -0.351  1.00  0.00     0.187 C 
ATOM     24  H3  UNL     1       0.282   0.134   0.531  1.00  0.00     0.162 HD
BRANCH  18  25
HETATM   25  C7  UNL     1       0.868  -0.788  -3.302  1.00  0.00     0.224 C 
BRANCH  25  26
HETATM   26  O2  UNL     1      -0.028   0.214  -3.725  1.00  0.00    -0.395 OA
ATOM     27  H2  UNL     1      -0.624  -0.083  -4.403  1.00  0.00     0.209 HD
ENDBRANCH  25  26
ENDBRANCH  18  25
BRANCH  23  28
HETATM   28  C10 UNL     1       4.624   0.343   0.739  1.00  0.00     0.082 A 
HETATM   29  C11 UNL     1       4.187   0.017   2.024  1.00  0.00     0.117 A 
HETATM   30  N5  UNL     1       4.919   0.331   3.108  1.00  0.00    -0.368 N 
HETATM   31  C12 UNL     1       6.082   0.959   3.017  1.00  0.00     0.164 A 
ATOM     32  H5  UNL     1       4.567   0.077   4.031  1.00  0.00     0.164 HD
HETATM   33  C13 UNL     1       6.526   1.286   1.752  1.00  0.00     0.283 A 
HETATM   34  O3  UNL     1       7.617   1.878   1.623  1.00  0.00    -0.265 OA
HETATM   35  N6  UNL     1       5.786   0.969   0.662  1.00  0.00    -0.200 N 
BRANCH  35  36
HETATM   36  N7  UNL     1       6.289   1.322  -0.561  1.00  0.00    -0.200 N 
ATOM     37  H7  UNL     1       5.641   1.752  -1.221  1.00  0.00     0.216 HD
BRANCH  36  38
HETATM   38  O4  UNL     1       7.461   1.168  -0.943  1.00  0.00    -0.274 OA
ATOM     39  H4  UNL     1       7.810   1.413  -1.792  1.00  0.00     0.246 HD
ENDBRANCH  36  38
ENDBRANCH  35  36
ENDBRANCH  23  28
BRANCH  19  40
HETATM   40  O5  UNL     1       2.128   1.257   1.008  1.00  0.00    -0.285 OA
ATOM     41  H5  UNL     1       2.835   1.558   1.566  1.00  0.00     0.245 HD
ENDBRANCH  19  40
ENDBRANCH   1  16
BRANCH   1  42
HETATM   42  C14 UNL     1      -1.972   0.773  -0.729  1.00  0.00     0.212 C 
HETATM   43  O6  UNL     1      -1.488   1.821  -0.412  1.00  0.00    -0.287 OA
BRANCH  42  44
HETATM   44  C15 UNL     1      -3.349   0.729  -1.238  1.00  0.00     0.148 C 
BRANCH  44  45
HETATM   45  O7  UNL     1      -3.774  -0.598  -1.353  1.00  0.00    -0.355 OA
ATOM     46  H7  UNL     1      -4.665  -0.626  -1.682  1.00  0.00     0.218 HD
ENDBRANCH  44  45
BRANCH  44  47
HETATM   47  C16 UNL     1      -4.343   1.679  -0.741  1.00  0.00     0.135 C 
BRANCH  47  48
HETATM   48  O8  UNL     1      -3.904   2.986  -0.602  1.00  0.00    -0.358 OA
ATOM     49  H8  UNL     1      -4.550   3.603  -0.279  1.00  0.00     0.217 HD
ENDBRANCH  47  48
BRANCH  47  50
HETATM   50  C17 UNL     1      -5.215   1.299   0.402  1.00  0.00     0.315 C 
BRANCH  50  51
HETATM   51  O9  UNL     1      -6.334   2.186   0.331  1.00  0.00    -0.365 OA
ATOM     52  H9  UNL     1      -6.891   1.943   1.061  1.00  0.00     0.213 HD
ENDBRANCH  50  51
BRANCH  50  53
HETATM   53  O10 UNL     1      -4.655   1.621   1.652  1.00  0.00    -0.365 OA
ATOM     54  H10 UNL     1      -5.212   1.378   2.382  1.00  0.00     0.213 HD
ENDBRANCH  50  53
ENDBRANCH  47  50
ENDBRANCH  44  47
ENDBRANCH  42  44
ENDBRANCH   1  42
TORSDOF 18
