REMARK  12 active torsions:
REMARK  status: ('A' for Active; 'I' for Inactive)
REMARK       I    between atoms: C2_2  and  N1_4 
REMARK    1  A    between atoms: N1_4  and  C3_6 
REMARK    2  A    between atoms: N2_8  and  C5_9 
REMARK    3  A    between atoms: C5_9  and  C6_10 
REMARK    4  A    between atoms: C6_10  and  C7_11 
REMARK    5  A    between atoms: C7_11  and  S1_12 
REMARK    6  A    between atoms: S1_12  and  C8_13 
REMARK    7  A    between atoms: C9_16  and  C10_17 
REMARK       I    between atoms: C10_17  and  N4_19 
REMARK    8  A    between atoms: N4_19  and  C11_20 
REMARK    9  A    between atoms: C14_28  and  C15_29 
REMARK   10  A    between atoms: N7_32  and  N8_33 
REMARK   11  A    between atoms: C16_38  and  O6_39 
REMARK   12  A    between atoms: C17_41  and  O7_42 
ROOT
HETATM    1  S1  UNL     1       0.383   0.752  -2.023  1.00  0.00    -0.089 SA
ENDROOT
BRANCH   1   2
HETATM    2  C7  UNL     1      -1.338   0.766  -1.923  1.00  0.00     0.119 C 
BRANCH   2   3
HETATM    3  C6  UNL     1      -1.990   1.450  -0.762  1.00  0.00     0.119 C 
HETATM    4  N9  UNL     1      -1.284   2.667  -0.427  1.00  0.00    -0.126 NA
HETATM    5  N10 UNL     1      -1.555   2.909   0.926  1.00  0.00    -0.113 NA
HETATM    6  C16 UNL     1      -1.893   1.632   1.565  1.00  0.00     0.258 C 
HETATM    7  C17 UNL     1      -1.588   0.623   0.482  1.00  0.00     0.195 C 
BRANCH   3   8
HETATM    8  C5  UNL     1      -3.419   1.686  -0.767  1.00  0.00     0.122 C 
BRANCH   8   9
HETATM    9  N2  UNL     1      -4.453   0.764  -0.861  1.00  0.00    -0.262 N 
HETATM   10  C4  UNL     1      -5.089   0.147   0.150  1.00  0.00     0.166 A 
HETATM   11  C3  UNL     1      -6.126  -0.638  -0.360  1.00  0.00     0.141 A 
HETATM   12  N12 UNL     1      -6.078  -0.467  -1.681  1.00  0.00    -0.269 N 
HETATM   13  N11 UNL     1      -5.113   0.342  -1.966  1.00  0.00    -0.235 N 
ATOM     14  H12 UNL     1      -6.703  -0.905  -2.358  1.00  0.00     0.190 HD
ATOM     15  H11 UNL     1      -4.875   0.630  -2.915  1.00  0.00     0.209 HD
BRANCH  11  16
HETATM   16  N1  UNL     1      -7.018  -1.448   0.427  1.00  0.00    -0.311 N 
HETATM   17  C2  UNL     1      -8.151  -2.100  -0.114  1.00  0.00     0.219 C 
HETATM   18  C1  UNL     1      -8.578  -1.957  -1.538  1.00  0.00     0.117 C 
HETATM   19  O1  UNL     1      -8.824  -2.828   0.664  1.00  0.00    -0.274 OA
ATOM     20  H1  UNL     1      -6.824  -1.557   1.422  1.00  0.00     0.170 HD
ENDBRANCH  11  16
ENDBRANCH   8   9
ENDBRANCH   3   8
BRANCH   6  21
HETATM   21  O6  UNL     1      -1.059   1.474   2.667  1.00  0.00    -0.376 OA
ATOM     22  H6  UNL     1      -1.278   0.647   3.081  1.00  0.00     0.211 HD
ENDBRANCH   6  21
BRANCH   7  23
HETATM   23  O7  UNL     1      -2.189  -0.583   0.569  1.00  0.00    -0.389 OA
ATOM     24  H7  UNL     1      -1.942  -1.091   1.333  1.00  0.00     0.210 HD
ENDBRANCH   7  23
ENDBRANCH   2   3
ENDBRANCH   1   2
BRANCH   1  25
HETATM   25  C8  UNL     1       1.518   0.035  -0.978  1.00  0.00     0.167 A 
HETATM   26  N3  UNL     1       2.057  -1.116  -0.964  1.00  0.00    -0.328 N 
HETATM   27  C9  UNL     1       2.902  -1.712  -0.372  1.00  0.00     0.153 A 
ATOM     28  H3  UNL     1       1.638  -1.712  -1.678  1.00  0.00     0.168 HD
HETATM   29  C14 UNL     1       3.067  -0.310   0.503  1.00  0.00     0.168 A 
HETATM   30  N7  UNL     1       2.245   0.576   0.046  1.00  0.00    -0.231 N 
BRANCH  27  31
HETATM   31  C10 UNL     1       3.969  -2.465   0.375  1.00  0.00     0.348 C 
HETATM   32  O2  UNL     1       3.598  -3.566   0.904  1.00  0.00    -0.249 OA
HETATM   33  N4  UNL     1       5.243  -2.086   0.484  1.00  0.00    -0.321 NA
BRANCH  33  34
HETATM   34  C11 UNL     1       6.355  -1.696   0.276  1.00  0.00     0.327 A 
HETATM   35  N5  UNL     1       6.992  -1.283  -0.828  1.00  0.00    -0.297 N 
HETATM   36  C12 UNL     1       8.242  -0.915  -0.548  1.00  0.00     0.102 A 
ATOM     37  H5  UNL     1       6.576  -1.254  -1.759  1.00  0.00     0.172 HD
HETATM   38  C13 UNL     1       9.316  -0.360  -1.442  1.00  0.00     0.091 C 
HETATM   39  N6  UNL     1       8.372  -1.121   0.798  1.00  0.00    -0.245 N 
HETATM   40  O3  UNL     1       7.282  -1.571   1.252  1.00  0.00    -0.186 OA
ATOM     41  H6  UNL     1       9.213  -0.941   1.347  1.00  0.00     0.196 HD
ENDBRANCH  33  34
ENDBRANCH  27  31
BRANCH  29  42
HETATM   42  C15 UNL     1       3.763  -0.229   1.748  1.00  0.00     0.231 C 
HETATM   43  O4  UNL     1       4.730   0.766   1.878  1.00  0.00    -0.643 OA
HETATM   44  O5  UNL     1       3.820  -1.288   2.627  1.00  0.00    -0.643 OA
ENDBRANCH  29  42
BRANCH  30  45
HETATM   45  N8  UNL     1       2.081   1.901   0.485  1.00  0.00    -0.336 N 
ATOM     46  H82 UNL     1       1.432   2.600   0.124  1.00  0.00     0.177 HD
ATOM     47  H81 UNL     1       2.623   2.305   1.249  1.00  0.00     0.177 HD
ENDBRANCH  30  45
ENDBRANCH   1  25
TORSDOF 12
