REMARK  14 active torsions:
REMARK  status: ('A' for Active; 'I' for Inactive)
REMARK    1  A    between atoms: N1_1  and  C1_5 
REMARK    2  A    between atoms: C1_5  and  C2_6 
REMARK    3  A    between atoms: C2_6  and  N2_7 
REMARK    4  A    between atoms: N2_7  and  N3_9 
REMARK    5  A    between atoms: N3_9  and  C3_11 
REMARK    6  A    between atoms: N7_22  and  C7_23 
REMARK    7  A    between atoms: C8_27  and  C9_28 
REMARK    8  A    between atoms: C9_28  and  N9_29 
REMARK       I    between atoms: N9_29  and  C10_31 
REMARK    9  A    between atoms: C10_31  and  C11_33 
REMARK   10  A    between atoms: C11_33  and  N10_34 
REMARK   11  A    between atoms: C11_33  and  C12_38 
REMARK   12  A    between atoms: C12_38  and  N11_39 
REMARK   13  A    between atoms: C12_38  and  C13_43 
REMARK       I    between atoms: C13_43  and  N12_45 
REMARK   14  A    between atoms: N12_45  and  N13_47 
ROOT
HETATM    1  C7  UNL     1      -0.568  -1.862   1.636  1.00  0.00     0.444 C 
HETATM    2  N8  UNL     1      -0.352  -2.464   0.309  1.00  0.00    -0.002 N 
ATOM      3  H81 UNL     1      -0.694  -2.045  -0.556  1.00  0.00     0.285 HD
ATOM      4  H82 UNL     1      -0.818  -3.318   0.001  1.00  0.00     0.285 HD
HETATM    5  C8  UNL     1       1.052  -2.422   0.717  1.00  0.00     0.347 C 
HETATM    6  O4  UNL     1       0.787  -1.559   1.735  1.00  0.00    -0.308 OA
ENDROOT
BRANCH   1   7
HETATM    7  N7  UNL     1      -1.457  -0.730   1.480  1.00  0.00    -0.242 N 
HETATM    8  C6  UNL     1      -1.110   0.389   2.138  1.00  0.00     0.163 A 
HETATM    9  C5  UNL     1      -1.500   1.698   1.954  1.00  0.00     0.162 A 
HETATM   10  N6  UNL     1      -0.355   0.854   3.146  1.00  0.00    -0.282 N 
HETATM   11  C4  UNL     1      -2.385   2.113   0.982  1.00  0.00     0.279 C 
HETATM   12  N5  UNL     1      -0.722   2.112   2.978  1.00  0.00    -0.291 N 
HETATM   13  N4  UNL     1      -3.207   1.373   0.179  1.00  0.00    -0.302 N 
HETATM   14  O1  UNL     1      -2.418   3.361   0.833  1.00  0.00    -0.265 OA
HETATM   15  C3  UNL     1      -3.432   0.047   0.181  1.00  0.00     0.192 C 
ATOM     16  H4  UNL     1      -3.724   1.903  -0.523  1.00  0.00     0.171 HD
HETATM   17  C14 UNL     1      -2.547  -0.902   0.694  1.00  0.00     0.298 C 
HETATM   18  O5  UNL     1      -2.828  -2.068   0.364  1.00  0.00    -0.264 OA
ATOM     19  H5  UNL     1      -0.511   3.004   3.425  1.00  0.00     0.187 HD
ATOM     20  H6  UNL     1       0.276   0.399   3.806  1.00  0.00     0.188 HD
BRANCH  15  21
HETATM   21  N3  UNL     1      -4.522  -0.405  -0.313  1.00  0.00    -0.285 N 
ATOM     22  H3  UNL     1      -4.639  -1.418  -0.284  1.00  0.00     0.188 HD
BRANCH  21  23
HETATM   23  N2  UNL     1      -5.549   0.299  -0.875  1.00  0.00    -0.333 N 
ATOM     24  H2  UNL     1      -5.689   1.280  -0.632  1.00  0.00     0.180 HD
BRANCH  23  25
HETATM   25  C2  UNL     1      -6.436  -0.345  -1.813  1.00  0.00     0.166 C 
BRANCH  25  26
HETATM   26  C1  UNL     1      -7.509   0.624  -2.309  1.00  0.00     0.250 C 
BRANCH  26  27
HETATM   27  N1  UNL     1      -8.291   1.102  -1.199  1.00  0.00    -0.078 N 
ATOM     28  H13 UNL     1      -8.689   0.337  -0.654  1.00  0.00     0.274 HD
ATOM     29  H12 UNL     1      -7.709   1.516  -0.471  1.00  0.00     0.274 HD
ATOM     30  H11 UNL     1      -9.007   1.749  -1.530  1.00  0.00     0.274 HD
ENDBRANCH  26  27
ENDBRANCH  25  26
ENDBRANCH  23  25
ENDBRANCH  21  23
ENDBRANCH  15  21
ENDBRANCH   1   7
BRANCH   5  31
HETATM   31  C9  UNL     1       1.914  -1.892  -0.372  1.00  0.00     0.184 C 
BRANCH  31  32
HETATM   32  N9  UNL     1       3.208  -1.518   0.056  1.00  0.00    -0.355 N 
HETATM   33  C10 UNL     1       3.560  -0.495   0.940  1.00  0.00     0.251 C 
HETATM   34  O2  UNL     1       2.710   0.256   1.471  1.00  0.00    -0.271 OA
ATOM     35  H9  UNL     1       3.980  -2.062  -0.328  1.00  0.00     0.162 HD
BRANCH  33  36
HETATM   36  C11 UNL     1       4.994  -0.231   1.314  1.00  0.00     0.314 C 
BRANCH  36  37
HETATM   37  N10 UNL     1       5.860  -1.235   0.681  1.00  0.00    -0.064 N 
ATOM     38 3H10 UNL     1       5.573  -2.188   0.905  1.00  0.00     0.275 HD
ATOM     39 2H10 UNL     1       5.727  -1.276  -0.329  1.00  0.00     0.275 HD
ATOM     40 1H10 UNL     1       6.832  -1.056   0.934  1.00  0.00     0.275 HD
ENDBRANCH  36  37
BRANCH  36  41
HETATM   41  C12 UNL     1       5.423   1.095   0.742  1.00  0.00     0.315 C 
BRANCH  41  42
HETATM   42  N11 UNL     1       6.824   1.262   1.184  1.00  0.00    -0.064 N 
ATOM     43 3H11 UNL     1       6.952   1.185   2.193  1.00  0.00     0.275 HD
ATOM     44 2H11 UNL     1       7.434   0.485   0.931  1.00  0.00     0.275 HD
ATOM     45 1H11 UNL     1       7.114   2.160   0.797  1.00  0.00     0.275 HD
ENDBRANCH  41  42
BRANCH  41  46
HETATM   46  C13 UNL     1       5.479   1.051  -0.744  1.00  0.00     0.268 C 
HETATM   47  O3  UNL     1       6.579   0.926  -1.349  1.00  0.00    -0.269 OA
HETATM   48  N12 UNL     1       4.293   1.153  -1.491  1.00  0.00    -0.275 N 
ATOM     49  H12 UNL     1       3.393   1.259  -1.022  1.00  0.00     0.189 HD
BRANCH  48  50
HETATM   50  N13 UNL     1       4.365   1.107  -2.893  1.00  0.00    -0.343 N 
ATOM     51 2H13 UNL     1       5.272   1.001  -3.347  1.00  0.00     0.176 HD
ATOM     52 1H13 UNL     1       3.504   1.181  -3.435  1.00  0.00     0.176 HD
ENDBRANCH  48  50
ENDBRANCH  41  46
ENDBRANCH  36  41
ENDBRANCH  33  36
ENDBRANCH  31  32
ENDBRANCH   5  31
TORSDOF 14
