REMARK  3 active torsions:
REMARK  status: ('A' for Active; 'I' for Inactive)
REMARK    1  A    between atoms: O1_2  and  C2_3 
REMARK    2  A    between atoms: C2_3  and  C3_4 
REMARK    3  A    between atoms: C6_7  and  N1_8 
ROOT
HETATM    1  C3  UNL     1      -0.786  -0.455   0.190  1.00  0.00     0.009 C 
HETATM    2  C4  UNL     1      -0.143   0.239   1.329  1.00  0.00     0.009 C 
HETATM    3  C5  UNL     1       1.311   0.473   1.250  1.00  0.00     0.033 C 
HETATM    4  C6  UNL     1       1.929   0.318  -0.097  1.00  0.00     0.183 C 
HETATM    5  C7  UNL     1       1.544  -1.027  -0.609  1.00  0.00     0.033 C 
HETATM    6  C8  UNL     1       0.099  -1.331  -0.632  1.00  0.00     0.009 C 
ENDROOT
BRANCH   4   7
HETATM    7  N1  UNL     1       3.388   0.295   0.105  1.00  0.00    -0.075 N 
ATOM      8  H13 UNL     1       3.736   1.106   0.616  1.00  0.00     0.274 HD
ATOM      9  H12 UNL     1       3.691  -0.416   0.771  1.00  0.00     0.274 HD
ATOM     10  H11 UNL     1       3.811   0.189  -0.817  1.00  0.00     0.274 HD
ENDBRANCH   4   7
BRANCH   1  11
HETATM   11  C2  UNL     1      -1.475   0.539  -0.718  1.00  0.00     0.171 C 
BRANCH  11  12
HETATM   12  O1  UNL     1      -2.455   1.288  -0.135  1.00  0.00    -0.396 OA
HETATM   13  C1  UNL     1      -3.485   0.514   0.369  1.00  0.00     0.201 C 
ENDBRANCH  11  12
ENDBRANCH   1  11
TORSDOF 3
