REMARK  9 active torsions:
REMARK  status: ('A' for Active; 'I' for Inactive)
REMARK    1  A    between atoms: N1_4  and  C4_5 
REMARK    2  A    between atoms: C10_11  and  C11_12 
REMARK    3  A    between atoms: C11_12  and  N2_13 
REMARK    4  A    between atoms: C14_16  and  C15_17 
REMARK    5  A    between atoms: C15_17  and  C16_18 
REMARK    6  A    between atoms: C18_20  and  N3_21 
REMARK    7  A    between atoms: C19_25  and  O1_26 
REMARK    8  A    between atoms: C19_25  and  C20_28 
REMARK    9  A    between atoms: C23_32  and  C24_33 
ROOT
HETATM    1  C16 UNL     1       3.897   0.350  -0.414  1.00  0.00     0.029 C 
HETATM    2  C17 UNL     1       4.051   1.520  -1.330  1.00  0.00     0.044 C 
HETATM    3  C18 UNL     1       5.262   0.827  -2.001  1.00  0.00     0.223 C 
HETATM    4  C19 UNL     1       5.210  -0.196  -0.933  1.00  0.00     0.119 C 
ENDROOT
BRANCH   1   5
HETATM    5  C15 UNL     1       2.715  -0.493  -0.680  1.00  0.00     0.013 C 
BRANCH   5   6
HETATM    6  C14 UNL     1       1.367   0.081  -0.563  1.00  0.00    -0.008 C 
HETATM    7  C13 UNL     1       1.052   0.636   0.814  1.00  0.00     0.049 C 
HETATM    8  C12 UNL     1      -0.450   0.771   0.907  1.00  0.00     0.058 C 
HETATM    9  N2  UNL     1      -1.165   0.523  -0.279  1.00  0.00    -0.393 N 
HETATM   10  C28 UNL     1      -0.680   1.036  -1.502  1.00  0.00     0.122 C 
HETATM   11  C27 UNL     1       0.852   1.018  -1.580  1.00  0.00     0.024 C 
BRANCH   9  12
HETATM   12  C11 UNL     1      -2.054  -0.577  -0.316  1.00  0.00     0.126 C 
BRANCH  12  13
HETATM   13  C10 UNL     1      -3.262  -0.362   0.591  1.00  0.00     0.010 C 
HETATM   14  C2  UNL     1      -4.215  -1.522   0.559  1.00  0.00     0.015 C 
HETATM   15  C1  UNL     1      -4.471  -2.107   1.910  1.00  0.00     0.012 C 
HETATM   16  C3  UNL     1      -5.543  -1.155  -0.069  1.00  0.00     0.278 C 
HETATM   17  N1  UNL     1      -6.195  -0.110   0.672  1.00  0.00     0.097 N 
HETATM   18  C8  UNL     1      -5.309   0.975   0.945  1.00  0.00     0.274 C 
HETATM   19  C9  UNL     1      -4.011   0.882   0.170  1.00  0.00     0.037 C 
BRANCH  17  20
HETATM   20  C4  UNL     1      -7.414   0.285   0.027  1.00  0.00     0.149 C 
HETATM   21  C5  UNL     1      -8.415  -0.843  -0.048  1.00  0.00     0.048 C 
HETATM   22  C6  UNL     1      -7.215   0.813  -1.377  1.00  0.00     0.048 C 
HETATM   23  C7  UNL     1      -8.110   1.413   0.803  1.00  0.00     0.048 C 
ENDBRANCH  17  20
ENDBRANCH  12  13
ENDBRANCH   9  12
ENDBRANCH   5   6
ENDBRANCH   1   5
BRANCH   4  24
HETATM   24  O1  UNL     1       5.049  -1.467  -1.509  1.00  0.00    -0.382 OA
ATOM     25  H1  UNL     1       5.873  -1.810  -1.835  1.00  0.00     0.211 HD
ENDBRANCH   4  24
BRANCH   4  26
HETATM   26  C20 UNL     1       6.322  -0.252   0.043  1.00  0.00     0.020 A 
HETATM   27  C21 UNL     1       7.456   0.523  -0.065  1.00  0.00     0.056 A 
HETATM   28  C22 UNL     1       8.500   0.458   0.867  1.00  0.00     0.132 A 
HETATM   29  F1  UNL     1       9.585   1.259   0.684  1.00  0.00    -0.205 F 
HETATM   30  C23 UNL     1       8.417  -0.400   1.937  1.00  0.00     0.070 A 
HETATM   31  C25 UNL     1       7.299  -1.184   2.071  1.00  0.00     0.062 A 
HETATM   32  C26 UNL     1       6.277  -1.101   1.133  1.00  0.00     0.127 A 
HETATM   33  F2  UNL     1       5.189  -1.909   1.321  1.00  0.00    -0.205 F 
BRANCH  30  34
HETATM   34  C24 UNL     1       9.507  -0.471   2.916  1.00  0.00     0.268 C 
HETATM   35  N4  UNL     1       9.406  -1.372   4.012  1.00  0.00    -0.057 NA
HETATM   36  O2  UNL     1      10.529   0.237   2.820  1.00  0.00    -0.271 OA
ENDBRANCH  30  34
ENDBRANCH   4  26
BRANCH   3  37
HETATM   37  N3  UNL     1       4.926   0.333  -3.332  1.00  0.00    -0.072 N 
ATOM     38  H33 UNL     1       4.112  -0.281  -3.308  1.00  0.00     0.274 HD
ATOM     39  H32 UNL     1       4.547   1.075  -3.921  1.00  0.00     0.274 HD
ATOM     40  H31 UNL     1       5.724  -0.124  -3.774  1.00  0.00     0.274 HD
ENDBRANCH   3  37
TORSDOF 9
