REMARK  9 active torsions:
REMARK  status: ('A' for Active; 'I' for Inactive)
REMARK    1  A    between atoms: N1_1  and  C1_4 
REMARK    2  A    between atoms: N4_13  and  N5_14 
REMARK    3  A    between atoms: N5_14  and  O2_16 
REMARK    4  A    between atoms: N6_20  and  C6_21 
REMARK    5  A    between atoms: C6_21  and  N7_22 
REMARK       I    between atoms: N7_22  and  C7_24 
REMARK    6  A    between atoms: C7_24  and  C8_26 
REMARK    7  A    between atoms: N8_28  and  C10_29 
REMARK    8  A    between atoms: C10_29  and  C11_30 
REMARK    9  A    between atoms: C15_36  and  O5_37 
ROOT
HETATM    1  C6  UNL     1      -2.315   2.157   1.000  1.00  0.00     0.197 C 
ENDROOT
BRANCH   1   2
HETATM    2  N6  UNL     1      -3.372   1.565   0.265  1.00  0.00    -0.250 N 
HETATM    3  C3  UNL     1      -4.076   0.468   0.478  1.00  0.00     0.160 A 
HETATM    4  C2  UNL     1      -4.111  -0.454   1.514  1.00  0.00     0.291 A 
HETATM    5  C4  UNL     1      -4.954   0.281  -0.599  1.00  0.00     0.182 A 
HETATM    6  N2  UNL     1      -4.965  -1.471   1.449  1.00  0.00    -0.154 N 
HETATM    7  O1  UNL     1      -3.323  -0.278   2.481  1.00  0.00    -0.265 OA
HETATM    8  C1  UNL     1      -5.793  -1.627   0.407  1.00  0.00     0.680 A 
ATOM      9  H2  UNL     1      -4.991  -2.149   2.211  1.00  0.00     0.187 HD
HETATM   10  N3  UNL     1      -5.801  -0.766  -0.620  1.00  0.00    -0.172 N 
ATOM     11  H3  UNL     1      -6.438  -0.901  -1.405  1.00  0.00     0.186 HD
HETATM   12  N4  UNL     1      -4.742   1.311  -1.454  1.00  0.00    -0.166 N 
HETATM   13  C5  UNL     1      -3.786   2.084  -0.926  1.00  0.00     0.357 A 
HETATM   14  O3  UNL     1      -3.354   3.128  -1.472  1.00  0.00    -0.244 OA
BRANCH   8  15
HETATM   15  N1  UNL     1      -6.589  -2.647   0.426  1.00  0.00    -0.234 N 
ATOM     16  H12 UNL     1      -6.583  -3.302   1.208  1.00  0.00     0.174 HD
ATOM     17  H11 UNL     1      -7.219  -2.766  -0.367  1.00  0.00     0.174 HD
ENDBRANCH   8  15
BRANCH  12  18
HETATM   18  N5  UNL     1      -5.418   1.507  -2.666  1.00  0.00    -0.198 N 
ATOM     19  H5  UNL     1      -6.417   1.305  -2.708  1.00  0.00     0.216 HD
BRANCH  18  20
HETATM   20  O2  UNL     1      -4.847   1.918  -3.692  1.00  0.00    -0.274 OA
ATOM     21  H2  UNL     1      -5.305   2.051  -4.514  1.00  0.00     0.246 HD
ENDBRANCH  18  20
ENDBRANCH  12  18
ENDBRANCH   1   2
BRANCH   1  22
HETATM   22  N7  UNL     1      -1.005   1.910   0.502  1.00  0.00    -0.317 N 
HETATM   23  C7  UNL     1      -0.305   0.728   0.267  1.00  0.00     0.276 C 
HETATM   24  O4  UNL     1      -0.721  -0.442   0.462  1.00  0.00    -0.266 OA
ATOM     25  H7  UNL     1      -0.481   2.755   0.275  1.00  0.00     0.170 HD
BRANCH  23  26
HETATM   26  C8  UNL     1       1.083   0.771  -0.267  1.00  0.00     0.134 A 
HETATM   27  C9  UNL     1       1.925  -0.270  -0.560  1.00  0.00     0.148 A 
HETATM   28  N8  UNL     1       3.101   0.241  -1.027  1.00  0.00    -0.282 N 
HETATM   29  N10 UNL     1       2.976   1.549  -1.018  1.00  0.00    -0.240 N 
HETATM   30  N11 UNL     1       1.767   1.881  -0.564  1.00  0.00    -0.280 N 
ATOM     31  H10 UNL     1       3.695   2.210  -1.313  1.00  0.00     0.208 HD
ATOM     32  H11 UNL     1       1.418   2.834  -0.459  1.00  0.00     0.189 HD
BRANCH  28  33
HETATM   33  C10 UNL     1       4.222  -0.587  -1.443  1.00  0.00     0.192 C 
BRANCH  33  34
HETATM   34  C11 UNL     1       5.162  -0.908  -0.353  1.00  0.00     0.010 A 
HETATM   35  C12 UNL     1       5.001  -2.118   0.334  1.00  0.00     0.099 A 
HETATM   36  N9  UNL     1       5.801  -2.420   1.355  1.00  0.00    -0.374 N 
HETATM   37  C13 UNL     1       6.784  -1.579   1.761  1.00  0.00     0.090 A 
ATOM     38  H9  UNL     1       5.671  -3.306   1.844  1.00  0.00     0.164 HD
HETATM   39  C14 UNL     1       6.961  -0.395   1.108  1.00  0.00     0.054 A 
HETATM   40  C15 UNL     1       6.142  -0.033   0.022  1.00  0.00     0.076 A 
BRANCH  40  41
HETATM   41  O5  UNL     1       6.379   1.181  -0.603  1.00  0.00    -0.360 OA
ATOM     42  H5  UNL     1       7.060   1.789  -0.342  1.00  0.00     0.217 HD
ENDBRANCH  40  41
ENDBRANCH  33  34
ENDBRANCH  28  33
ENDBRANCH  23  26
ENDBRANCH   1  22
TORSDOF 9
