REMARK  1 active torsions:
REMARK  status: ('A' for Active; 'I' for Inactive)
REMARK    1  A    between atoms: C4_6  and  C6_8 
ROOT
HETATM    1  C1  UNL     1       3.661  -0.567   0.006  1.00  0.00     0.046 C 
HETATM    2  C2  UNL     1       2.327  -1.277   0.086  1.00  0.00     0.192 A 
HETATM    3  O1  UNL     1       1.683  -1.620  -1.109  1.00  0.00    -0.336 OA
HETATM    4  C3  UNL     1       1.067  -0.643  -0.167  1.00  0.00     0.256 A 
HETATM    5  O2  UNL     1       0.875   0.536  -0.833  1.00  0.00    -0.329 OA
HETATM    6  C4  UNL     1      -0.042   1.383  -0.275  1.00  0.00     0.115 C 
HETATM    7  C5  UNL     1       0.434   1.712   1.135  1.00  0.00     0.054 C 
HETATM    8  C7  UNL     1      -1.442   0.829  -0.235  1.00  0.00     0.061 C 
HETATM    9  C8  UNL     1      -1.506  -0.604   0.195  1.00  0.00     0.022 C 
HETATM   10  C9  UNL     1      -2.075  -1.470  -0.932  1.00  0.00     0.023 C 
HETATM   11  C10 UNL     1      -2.414  -0.799   1.408  1.00  0.00     0.023 C 
HETATM   12  C11 UNL     1      -0.151  -1.144   0.490  1.00  0.00     0.199 C 
HETATM   13  O4  UNL     1      -0.074  -2.039   1.315  1.00  0.00    -0.291 OA
ENDROOT
BRANCH   6  14
HETATM   14  C6  UNL     1      -0.078   2.635  -1.078  1.00  0.00     0.269 C 
HETATM   15  O3  UNL     1       0.636   2.771  -2.051  1.00  0.00    -0.304 OA
ENDBRANCH   6  14
TORSDOF 1
