REMARK  2 active torsions:
REMARK  status: ('A' for Active; 'I' for Inactive)
REMARK    1  A    between atoms: C2_3  and  C3_4 
REMARK    2  A    between atoms: C3_4  and  N2_5 
ROOT
HETATM    1  N1  UNL     1       1.738  -2.736   0.703  1.00  0.00    -0.192 NA
HETATM    2  C1  UNL     1       1.665  -1.570   0.564  1.00  0.00     0.135 C 
HETATM    3  C2  UNL     1       1.608  -0.130   0.386  1.00  0.00     0.348 C 
HETATM    4  N3  UNL     1       2.835   0.373   1.039  1.00  0.00    -0.022 N 
ATOM      5  H31 UNL     1       3.022   0.041   1.985  1.00  0.00     0.282 HD
ATOM      6  H32 UNL     1       2.840   1.355   1.315  1.00  0.00     0.282 HD
HETATM    7  C9  UNL     1       3.791  -0.029  -0.009  1.00  0.00     0.264 C 
HETATM    8  C10 UNL     1       3.052   0.474  -1.230  1.00  0.00     0.200 C 
HETATM    9  O1  UNL     1       1.739   0.228  -0.943  1.00  0.00    -0.338 OA
ENDROOT
BRANCH   3  10
HETATM   10  C3  UNL     1       0.406   0.527   1.004  1.00  0.00     0.147 C 
BRANCH  10  11
HETATM   11  N2  UNL     1      -0.773   0.164   0.340  1.00  0.00    -0.368 N 
HETATM   12  C4  UNL     1      -1.274  -1.142   0.433  1.00  0.00     0.063 C 
HETATM   13  C5  UNL     1      -2.794  -1.220   0.382  1.00  0.00     0.044 C 
HETATM   14  C6  UNL     1      -3.381   0.188   0.286  1.00  0.00     0.007 C 
HETATM   15  C7  UNL     1      -2.737   0.816  -0.934  1.00  0.00     0.021 C 
HETATM   16  C8  UNL     1      -1.265   0.986  -0.696  1.00  0.00     0.127 C 
ENDBRANCH  10  11
ENDBRANCH   3  10
TORSDOF 2
