REMARK  4 active torsions:
REMARK  status: ('A' for Active; 'I' for Inactive)
REMARK       I    between atoms: C2_4  and  N2_5 
REMARK       I    between atoms: C2_4  and  N4_9 
REMARK    1  A    between atoms: N4_9  and  C4_11 
REMARK    2  A    between atoms: C7_14  and  S1_15 
REMARK    3  A    between atoms: S1_15  and  O3_18 
REMARK    4  A    between atoms: O3_18  and  C8_19 
ROOT
HETATM    1  C1  UNL     1       5.011  -1.295   1.354  1.00  0.00     0.165 C 
HETATM    2  N1  UNL     1       5.173   0.116   1.134  1.00  0.00    -0.230 N 
ATOM      3  H1  UNL     1       5.676   0.685   1.815  1.00  0.00     0.177 HD
HETATM    4  C2  UNL     1       4.683   0.660   0.079  1.00  0.00     0.687 C 
HETATM    5  N2  UNL     1       4.877   2.060  -0.082  1.00  0.00    -0.126 N 
ATOM      6  H2  UNL     1       4.255   2.585  -0.697  1.00  0.00     0.197 HD
HETATM    7  C3  UNL     1       5.904   2.729   0.588  1.00  0.00     0.196 C 
HETATM    8  N3  UNL     1       6.766   3.302   1.137  1.00  0.00    -0.171 NA
HETATM    9  N4  UNL     1       3.996  -0.143  -0.843  1.00  0.00    -0.191 N 
ATOM     10  H4  UNL     1       4.511  -0.763  -1.468  1.00  0.00     0.184 HD
ENDROOT
BRANCH   9  11
HETATM   11  C4  UNL     1       2.565  -0.086  -0.900  1.00  0.00     0.049 A 
HETATM   12  C5  UNL     1       1.825  -0.846  -1.781  1.00  0.00     0.031 A 
HETATM   13  C6  UNL     1       0.442  -0.763  -1.805  1.00  0.00     0.028 A 
HETATM   14  C7  UNL     1      -0.252   0.076  -0.958  1.00  0.00     0.086 A 
HETATM   15  C14 UNL     1       0.487   0.837  -0.076  1.00  0.00     0.028 A 
HETATM   16  C15 UNL     1       1.869   0.750  -0.055  1.00  0.00     0.031 A 
BRANCH  14  17
HETATM   17  S1  UNL     1      -1.997   0.204  -0.964  1.00  0.00     0.303 S 
HETATM   18  O1  UNL     1      -2.500  -0.029  -2.361  1.00  0.00    -0.193 OA
HETATM   19  O2  UNL     1      -2.345   1.618  -0.592  1.00  0.00    -0.193 OA
BRANCH  17  20
HETATM   20  O3  UNL     1      -2.710  -0.907   0.107  1.00  0.00    -0.227 OA
BRANCH  20  21
HETATM   21  C8  UNL     1      -4.055  -0.676   0.440  1.00  0.00     0.111 A 
HETATM   22  C9  UNL     1      -4.398   0.107   1.528  1.00  0.00     0.041 A 
HETATM   23  C10 UNL     1      -5.731   0.294   1.801  1.00  0.00     0.026 A 
HETATM   24  C11 UNL     1      -6.745  -0.267   1.034  1.00  0.00     0.035 A 
HETATM   25 CL1  UNL     1      -8.443   0.010   1.435  1.00  0.00    -0.084 Cl
HETATM   26  C12 UNL     1      -6.398  -1.045  -0.046  1.00  0.00     0.050 A 
HETATM   27  C13 UNL     1      -5.060  -1.234  -0.323  1.00  0.00     0.070 A 
HETATM   28 CL2  UNL     1      -4.617  -2.226  -1.701  1.00  0.00    -0.081 Cl
ENDBRANCH  20  21
ENDBRANCH  17  20
ENDBRANCH  14  17
ENDBRANCH   9  11
TORSDOF 4
