REMARK  6 active torsions:
REMARK  status: ('A' for Active; 'I' for Inactive)
REMARK    1  A    between atoms: C2_2  and  C11_21 
REMARK    2  A    between atoms: N1_3  and  N2_5 
REMARK    3  A    between atoms: N2_5  and  C3_7 
REMARK    4  A    between atoms: C3_7  and  N3_9 
REMARK    5  A    between atoms: N3_9  and  N4_11 
REMARK    6  A    between atoms: N4_11  and  C4_13 
ROOT
HETATM    1  C4  UNL     1       4.073  -0.248  -0.360  1.00  0.00     0.048 A 
HETATM    2  C5  UNL     1       4.922  -1.130   0.268  1.00  0.00     0.032 A 
HETATM    3  C6  UNL     1       6.180  -0.740   0.722  1.00  0.00     0.025 A 
HETATM    4  C7  UNL     1       6.597   0.558   0.545  1.00  0.00     0.044 A 
HETATM    5  C8  UNL     1       7.898   0.953   1.015  1.00  0.00     0.099 C 
HETATM    6  N5  UNL     1       8.952   1.284   1.390  1.00  0.00    -0.191 NA
HETATM    7  C9  UNL     1       5.743   1.433  -0.084  1.00  0.00     0.025 A 
HETATM    8  C10 UNL     1       4.486   1.039  -0.536  1.00  0.00     0.032 A 
ENDROOT
BRANCH   1   9
HETATM    9  N4  UNL     1       2.803  -0.690  -0.821  1.00  0.00    -0.299 N 
ATOM     10  H4  UNL     1       2.629  -0.890  -1.806  1.00  0.00     0.187 HD
BRANCH   9  11
HETATM   11  N3  UNL     1       1.809  -0.836   0.145  1.00  0.00    -0.275 N 
ATOM     12  H3  UNL     1       2.059  -0.987   1.122  1.00  0.00     0.189 HD
BRANCH  11  13
HETATM   13  C3  UNL     1       0.456  -0.773  -0.240  1.00  0.00     0.205 C 
HETATM   14  S1  UNL     1       0.063  -0.531  -1.794  1.00  0.00    -0.038 SA
BRANCH  13  15
HETATM   15  N2  UNL     1      -0.547  -0.929   0.750  1.00  0.00    -0.275 N 
ATOM     16  H2  UNL     1      -0.271  -1.081   1.720  1.00  0.00     0.189 HD
BRANCH  15  17
HETATM   17  N1  UNL     1      -1.872  -0.880   0.435  1.00  0.00    -0.302 N 
HETATM   18  C2  UNL     1      -2.543   0.239   0.585  1.00  0.00     0.034 C 
HETATM   19  C1  UNL     1      -1.806   1.390   1.086  1.00  0.00     0.070 C 
ATOM     20  H1  UNL     1      -2.343  -1.713   0.082  1.00  0.00     0.186 HD
BRANCH  18  21
HETATM   21  C11 UNL     1      -3.958   0.162   0.257  1.00  0.00     0.011 A 
HETATM   22  C12 UNL     1      -4.516  -1.041  -0.174  1.00  0.00     0.039 A 
HETATM   23  C13 UNL     1      -5.847  -1.187  -0.483  1.00  0.00     0.067 A 
HETATM   24  C14 UNL     1      -6.416  -2.425  -0.924  1.00  0.00     0.101 C 
HETATM   25  C15 UNL     1      -6.634  -0.070  -0.349  1.00  0.00     0.056 A 
HETATM   26  N6  UNL     1      -6.886  -3.420  -1.261  1.00  0.00    -0.191 NA
HETATM   27 CL1  UNL     1      -8.336  -0.221  -0.728  1.00  0.00    -0.083 Cl
HETATM   28  C16 UNL     1      -6.122   1.125   0.069  1.00  0.00     0.050 A 
HETATM   29  C17 UNL     1      -4.771   1.254   0.379  1.00  0.00     0.048 A 
HETATM   30 CL2  UNL     1      -4.236   2.836   0.907  1.00  0.00    -0.083 Cl
ENDBRANCH  18  21
ENDBRANCH  15  17
ENDBRANCH  13  15
ENDBRANCH  11  13
ENDBRANCH   9  11
ENDBRANCH   1   9
TORSDOF 6
