REMARK  10 active torsions:
REMARK  status: ('A' for Active; 'I' for Inactive)
REMARK    1  A    between atoms: C2_2  and  O1_3 
REMARK    2  A    between atoms: O1_3  and  C3_4 
REMARK    3  A    between atoms: C3_4  and  C4_6 
REMARK    4  A    between atoms: C6_11  and  C7_12 
REMARK    5  A    between atoms: C7_12  and  N2_13 
REMARK    6  A    between atoms: C7_12  and  C10_18 
REMARK       I    between atoms: N2_13  and  C8_15 
REMARK    7  A    between atoms: C15_25  and  C16_26 
REMARK    8  A    between atoms: C16_26  and  C17_27 
REMARK    9  A    between atoms: C18_28  and  C19_29 
REMARK   10  A    between atoms: C19_29  and  C20_30 
ROOT
HETATM    1  C4  UNL     1      -2.859   1.514  -0.008  1.00  0.00     0.203 C 
HETATM    2  N1  UNL     1      -3.317   0.722  -1.100  1.00  0.00    -0.345 N 
ATOM      3  H1  UNL     1      -3.265   1.173  -2.013  1.00  0.00     0.163 HD
HETATM    4  C5  UNL     1      -3.827  -0.580  -1.109  1.00  0.00     0.229 C 
HETATM    5  O3  UNL     1      -4.701  -0.911  -1.987  1.00  0.00    -0.273 OA
HETATM    6  C6  UNL     1      -3.438  -1.678  -0.159  1.00  0.00     0.135 C 
HETATM    7  C13 UNL     1      -2.150  -2.240  -0.792  1.00  0.00     0.128 C 
HETATM    8  S1  UNL     1      -0.872  -2.517   0.369  1.00  0.00     0.017 S 
HETATM    9  O5  UNL     1      -0.942  -1.582   1.732  1.00  0.00    -0.258 OA
HETATM   10  C14 UNL     1       0.694  -2.473  -0.456  1.00  0.00     0.125 C 
HETATM   11  C15 UNL     1       1.495  -1.241  -0.180  1.00  0.00     0.073 C 
HETATM   12  S2  UNL     1       0.568   0.121   0.523  1.00  0.00    -0.091 SA
HETATM   13  S3  UNL     1      -0.296   1.271  -1.046  1.00  0.00    -0.085 SA
HETATM   14  C27 UNL     1      -1.584   2.309  -0.325  1.00  0.00     0.041 C 
HETATM   15  C28 UNL     1      -1.952   3.454  -1.243  1.00  0.00     0.030 C 
HETATM   16  C29 UNL     1      -1.066   2.815   1.010  1.00  0.00     0.030 C 
ENDROOT
BRANCH  11  17
HETATM   17  C16 UNL     1       2.197  -0.725  -1.430  1.00  0.00     0.043 C 
BRANCH  17  18
HETATM   18  C17 UNL     1       2.964   0.491  -1.072  1.00  0.00    -0.029 C 
HETATM   19  C18 UNL     1       4.276   0.532  -1.238  1.00  0.00    -0.030 C 
BRANCH  19  20
HETATM   20  C19 UNL     1       5.044   1.763  -0.875  1.00  0.00     0.034 C 
BRANCH  20  21
HETATM   21  C20 UNL     1       6.055   1.387   0.187  1.00  0.00     0.023 C 
HETATM   22  C21 UNL     1       6.915   2.510   0.669  1.00  0.00     0.042 C 
HETATM   23  C22 UNL     1       8.127   1.619   0.497  1.00  0.00     0.155 C 
HETATM   24  O6  UNL     1       8.445   0.829   1.587  1.00  0.00    -0.348 OA
HETATM   25  C26 UNL     1       7.287   0.697  -0.343  1.00  0.00     0.158 C 
HETATM   26  C23 UNL     1       8.470  -0.490   1.123  1.00  0.00     0.158 C 
HETATM   27  C24 UNL     1       8.318  -1.485   2.241  1.00  0.00     0.078 C 
HETATM   28  C25 UNL     1       9.775  -0.728   0.412  1.00  0.00     0.078 C 
HETATM   29  O7  UNL     1       7.440  -0.582   0.189  1.00  0.00    -0.348 OA
ENDBRANCH  20  21
ENDBRANCH  19  20
ENDBRANCH  17  18
ENDBRANCH  11  17
BRANCH   6  30
HETATM   30  C7  UNL     1      -4.475  -2.775  -0.245  1.00  0.00     0.007 C 
BRANCH  30  31
HETATM   31  N2  UNL     1      -5.804  -2.447   0.140  1.00  0.00    -0.334 N 
HETATM   32  C8  UNL     1      -6.440  -1.355   0.685  1.00  0.00     0.217 C 
HETATM   33  C9  UNL     1      -7.937  -1.368   0.941  1.00  0.00     0.117 C 
HETATM   34  O4  UNL     1      -5.898  -0.297   1.011  1.00  0.00    -0.274 OA
ATOM     35  H2  UNL     1      -6.450  -3.217  -0.031  1.00  0.00     0.168 HD
ENDBRANCH  30  31
BRANCH  30  36
HETATM   36  C10 UNL     1      -4.035  -4.108   0.250  1.00  0.00     0.024 C 
HETATM   37  C11 UNL     1      -5.191  -5.084   0.064  1.00  0.00     0.016 C 
HETATM   38  C12 UNL     1      -3.591  -4.087   1.695  1.00  0.00     0.016 C 
ENDBRANCH  30  36
ENDBRANCH   6  30
BRANCH   1  39
HETATM   39  C3  UNL     1      -3.876   2.583   0.310  1.00  0.00     0.283 C 
HETATM   40  O2  UNL     1      -4.914   2.630  -0.389  1.00  0.00    -0.263 OA
BRANCH  39  41
HETATM   41  O1  UNL     1      -3.725   3.498   1.314  1.00  0.00    -0.320 OA
BRANCH  41  42
HETATM   42  C2  UNL     1      -4.622   4.508   1.663  1.00  0.00     0.174 C 
HETATM   43  C1  UNL     1      -4.826   5.437   0.488  1.00  0.00     0.034 C 
ENDBRANCH  41  42
ENDBRANCH  39  41
ENDBRANCH   1  39
TORSDOF 10
