REMARK  7 active torsions:
REMARK  status: ('A' for Active; 'I' for Inactive)
REMARK    1  A    between atoms: C6_8  and  N2_9 
REMARK    2  A    between atoms: N2_9  and  C7_11 
REMARK    3  A    between atoms: C9_18  and  O1_19 
REMARK    4  A    between atoms: C10_21  and  C11_22 
REMARK    5  A    between atoms: C11_22  and  C12_23 
REMARK    6  A    between atoms: C12_23  and  C13_24 
REMARK    7  A    between atoms: C13_24  and  C14_25 
ROOT
HETATM    1  C7  UNL     1      -2.611   0.841   0.051  1.00  0.00     0.153 A 
HETATM    2  N3  UNL     1      -3.226   2.020  -0.086  1.00  0.00    -0.334 N 
ATOM      3  H3  UNL     1      -4.246   2.051  -0.084  1.00  0.00     0.168 HD
HETATM    4  C8  UNL     1      -2.528   3.182  -0.228  1.00  0.00     0.199 A 
HETATM    5  N4  UNL     1      -1.190   3.076  -0.223  1.00  0.00    -0.286 N 
ATOM      6  H4  UNL     1      -0.645   3.932  -0.328  1.00  0.00     0.188 HD
HETATM    7  N5  UNL     1      -0.531   1.940  -0.091  1.00  0.00    -0.211 N 
HETATM    8  C9  UNL     1       0.770   1.582  -0.056  1.00  0.00     0.186 A 
HETATM    9  C10 UNL     1       0.891   0.220   0.105  1.00  0.00     0.064 A 
HETATM   10  N7  UNL     1      -0.367  -0.246   0.168  1.00  0.00    -0.338 N 
ATOM     11  H7  UNL     1      -0.633  -1.224   0.286  1.00  0.00     0.167 HD
HETATM   12  C19 UNL     1      -1.232   0.807   0.048  1.00  0.00     0.174 A 
ENDROOT
BRANCH   9  13
HETATM   13  C11 UNL     1       2.155  -0.605   0.196  1.00  0.00     0.062 C 
BRANCH  13  14
HETATM   14  C12 UNL     1       2.754  -0.421   1.569  1.00  0.00     0.012 C 
BRANCH  14  15
HETATM   15  C13 UNL     1       3.992  -1.199   1.804  1.00  0.00     0.057 C 
BRANCH  15  16
HETATM   16  C14 UNL     1       5.039  -0.812   0.839  1.00  0.00     0.009 A 
HETATM   17  C15 UNL     1       5.198  -1.462  -0.370  1.00  0.00     0.028 A 
HETATM   18  C16 UNL     1       6.205  -1.032  -1.204  1.00  0.00     0.045 A 
HETATM   19  C17 UNL     1       7.048   0.016  -0.867  1.00  0.00     0.131 A 
HETATM   20  F1  UNL     1       8.036   0.428  -1.698  1.00  0.00    -0.205 F 
HETATM   21  C18 UNL     1       6.852   0.632   0.344  1.00  0.00     0.130 A 
HETATM   22  N6  UNL     1       5.870   0.222   1.170  1.00  0.00    -0.366 N 
ATOM     23  H6  UNL     1       5.743   0.695   2.065  1.00  0.00     0.165 HD
ENDBRANCH  15  16
ENDBRANCH  14  15
ENDBRANCH  13  14
ENDBRANCH   9  13
BRANCH   8  24
HETATM   24  O1  UNL     1       1.817   2.485  -0.170  1.00  0.00    -0.343 OA
ATOM     25  H1  UNL     1       2.733   2.233  -0.145  1.00  0.00     0.219 HD
ENDBRANCH   8  24
BRANCH   1  26
HETATM   26  N2  UNL     1      -3.249  -0.237   0.187  1.00  0.00    -0.339 N 
ATOM     27  H2  UNL     1      -2.671  -1.072   0.283  1.00  0.00     0.167 HD
BRANCH  26  28
HETATM   28  C6  UNL     1      -4.628  -0.464   0.226  1.00  0.00     0.042 A 
HETATM   29  C2  UNL     1      -5.263  -1.250  -0.711  1.00  0.00    -0.020 A 
HETATM   30  C1  UNL     1      -4.424  -1.848  -1.765  1.00  0.00     0.052 C 
HETATM   31  C3  UNL     1      -6.626  -1.482  -0.681  1.00  0.00     0.096 A 
HETATM   32  N1  UNL     1      -7.365  -0.924   0.294  1.00  0.00    -0.375 N 
HETATM   33  C4  UNL     1      -6.782  -0.152   1.223  1.00  0.00     0.090 A 
ATOM     34  H1  UNL     1      -8.371  -1.088   0.327  1.00  0.00     0.164 HD
HETATM   35  C5  UNL     1      -5.404   0.098   1.215  1.00  0.00     0.047 A 
ENDBRANCH  26  28
ENDBRANCH   1  26
TORSDOF 7
