REMARK  1 active torsions:
REMARK  status: ('A' for Active; 'I' for Inactive)
REMARK    1  A    between atoms: C2_2  and  C3_3 
ROOT
HETATM    1  C3  UNL     1       0.233   0.198  -0.091  1.00  0.00     0.187 C 
HETATM    2  C4  UNL     1      -0.520  -0.513  -1.200  1.00  0.00     0.036 C 
HETATM    3  C5  UNL     1      -1.900  -0.615  -0.595  1.00  0.00     0.047 C 
HETATM    4  C6  UNL     1      -1.660  -0.481   0.901  1.00  0.00     0.258 C 
HETATM    5  S1  UNL     1      -2.212   1.179   1.423  1.00  0.00    -0.062 SA
HETATM    6  N1  UNL     1      -0.201  -0.586   1.055  1.00  0.00    -0.057 N 
ATOM      7  H11 UNL     1       0.172  -0.296   1.959  1.00  0.00     0.279 HD
ATOM      8  H12 UNL     1       0.173  -1.533   1.112  1.00  0.00     0.279 HD
ENDROOT
BRANCH   1   9
HETATM    9  C2  UNL     1       1.697   0.110  -0.349  1.00  0.00     0.028 C 
HETATM   10  C1  UNL     1       2.565   0.764   0.658  1.00  0.00     0.007 C 
ENDBRANCH   1   9
TORSDOF 1
