REMARK  4 active torsions:
REMARK  status: ('A' for Active; 'I' for Inactive)
REMARK    1  A    between atoms: C2_2  and  C3_3 
REMARK    2  A    between atoms: C3_3  and  C5_6 
REMARK       I    between atoms: C5_6  and  N2_8 
REMARK    3  A    between atoms: N2_8  and  N3_9 
REMARK    4  A    between atoms: C6_11  and  C8_14 
REMARK       I    between atoms: N7_20  and  C10_22 
ROOT
HETATM    1  C3  UNL     1      -4.004   0.131   0.068  1.00  0.00     0.201 C 
HETATM    2  C4  UNL     1      -3.718   1.458  -0.465  1.00  0.00     0.074 C 
HETATM    3  N1  UNL     1      -3.497   2.506  -0.893  1.00  0.00    -0.196 NA
ENDROOT
BRANCH   1   4
HETATM    4  C2  UNL     1      -5.402  -0.330  -0.140  1.00  0.00     0.026 C 
HETATM    5  C1  UNL     1      -6.347   0.644   0.538  1.00  0.00     0.007 C 
ENDBRANCH   1   4
BRANCH   1   6
HETATM    6  C5  UNL     1      -3.080  -0.825  -0.724  1.00  0.00     0.330 C 
HETATM    7  O1  UNL     1      -3.676  -1.726  -1.395  1.00  0.00    -0.254 OA
HETATM    8  N2  UNL     1      -1.773  -0.565  -0.590  1.00  0.00    -0.284 NA
BRANCH   8   9
HETATM    9  N3  UNL     1      -0.505  -0.313  -0.459  1.00  0.00    -0.219 N 
HETATM   10  C6  UNL     1       0.496  -1.063  -0.468  1.00  0.00     0.175 C 
HETATM   11  C7  UNL     1       0.396  -2.462  -0.645  1.00  0.00     0.123 C 
HETATM   12  N4  UNL     1       0.327  -3.624  -0.808  1.00  0.00    -0.190 NA
ATOM     13  H3  UNL     1      -0.287   0.674  -0.325  1.00  0.00     0.203 HD
BRANCH  10  14
HETATM   14  C8  UNL     1       1.829  -0.470  -0.282  1.00  0.00     0.132 A 
HETATM   15  N5  UNL     1       3.011  -1.034  -0.283  1.00  0.00    -0.289 N 
HETATM   16  N6  UNL     1       4.066  -0.355  -0.102  1.00  0.00    -0.279 N 
ATOM     17  H5  UNL     1       3.084  -2.040  -0.432  1.00  0.00     0.188 HD
HETATM   18  C9  UNL     1       3.972   0.960   0.097  1.00  0.00     0.168 A 
ATOM     19  H6  UNL     1       4.979  -0.811  -0.109  1.00  0.00     0.189 HD
HETATM   20  N7  UNL     1       4.843   1.878   0.307  1.00  0.00    -0.306 N 
HETATM   21  S1  UNL     1       2.243   1.171   0.003  1.00  0.00    -0.030 SA
HETATM   22  C10 UNL     1       6.204   1.691   0.381  1.00  0.00     0.219 C 
ATOM     23  H7  UNL     1       4.496   2.829   0.430  1.00  0.00     0.171 HD
HETATM   24  C11 UNL     1       6.943   0.519   0.917  1.00  0.00     0.117 C 
HETATM   25  O2  UNL     1       6.936   2.654  -0.068  1.00  0.00    -0.274 OA
ENDBRANCH  10  14
ENDBRANCH   8   9
ENDBRANCH   1   6
TORSDOF 4
