REMARK  2 active torsions:
REMARK  status: ('A' for Active; 'I' for Inactive)
REMARK    1  A    between atoms: C2_2  and  N1_4 
REMARK    2  A    between atoms: C18_29  and  N7_30 
ROOT
HETATM    1  N1  UNL     1       2.155  -0.922  -1.023  1.00  0.00    -0.244 N 
HETATM    2  N2  UNL     1       2.224  -1.671  -2.057  1.00  0.00    -0.235 N 
ATOM      3  H2  UNL     1       3.011  -2.275  -2.296  1.00  0.00     0.209 HD
HETATM    4  N3  UNL     1       1.135  -1.543  -2.756  1.00  0.00    -0.283 N 
ATOM      5  H3  UNL     1       0.912  -2.019  -3.630  1.00  0.00     0.188 HD
HETATM    6  C4  UNL     1       0.382  -0.686  -2.120  1.00  0.00     0.088 A 
HETATM    7  C5  UNL     1       0.977  -0.188  -0.934  1.00  0.00     0.099 A 
HETATM    8  C6  UNL     1       0.605   0.871   0.007  1.00  0.00     0.022 A 
HETATM    9  C7  UNL     1       1.786   1.712   0.178  1.00  0.00     0.016 A 
HETATM   10  C8  UNL     1       1.932   2.781   0.981  1.00  0.00     0.001 A 
HETATM   11  C9  UNL     1       0.879   3.154   1.739  1.00  0.00     0.002 A 
HETATM   12  C10 UNL     1      -0.254   2.415   1.625  1.00  0.00     0.030 A 
HETATM   13  C11 UNL     1      -0.444   1.266   0.770  1.00  0.00     0.045 A 
HETATM   14  N4  UNL     1      -1.839   0.945   0.911  1.00  0.00    -0.353 N 
ATOM     15  H4  UNL     1      -2.335   1.681   1.413  1.00  0.00     0.166 HD
HETATM   16  C12 UNL     1      -2.716  -0.102   0.550  1.00  0.00     0.072 C 
HETATM   17  C13 UNL     1      -3.874   0.593  -0.056  1.00  0.00     0.138 C 
HETATM   18  N5  UNL     1      -4.475   0.476  -1.285  1.00  0.00    -0.313 N 
ATOM     19  H5  UNL     1      -5.452   0.764  -1.338  1.00  0.00     0.185 HD
HETATM   20  N6  UNL     1      -3.887  -0.005  -2.505  1.00  0.00    -0.323 N 
ATOM     21  H6  UNL     1      -4.466  -0.276  -3.300  1.00  0.00     0.181 HD
HETATM   22  C14 UNL     1      -2.446  -0.090  -2.564  1.00  0.00     0.165 A 
HETATM   23  C15 UNL     1      -1.029  -0.340  -2.395  1.00  0.00     0.006 A 
HETATM   24  C16 UNL     1      -1.943  -1.130  -1.663  1.00  0.00    -0.035 A 
HETATM   25  C17 UNL     1      -2.043  -2.033  -0.738  1.00  0.00     0.096 C 
HETATM   26  C18 UNL     1      -2.501  -1.467   0.613  1.00  0.00     0.035 C 
ENDROOT
BRANCH   1  27
HETATM   27  C2  UNL     1       3.262  -0.978  -0.095  1.00  0.00     0.023 C 
HETATM   28  C1  UNL     1       2.969  -1.066   1.180  1.00  0.00     0.040 C 
HETATM   29  C3  UNL     1       4.660  -0.939  -0.512  1.00  0.00     0.069 C 
ENDBRANCH   1  27
BRANCH  26  30
HETATM   30  N7  UNL     1      -2.572  -2.458   1.501  1.00  0.00    -0.400 N 
ATOM     31  H72 UNL     1      -2.876  -2.082   2.399  1.00  0.00     0.156 HD
ATOM     32  H71 UNL     1      -2.413  -3.465   1.547  1.00  0.00     0.156 HD
ENDBRANCH  26  30
TORSDOF 2
