REMARK  0 active torsions:
REMARK  status: ('A' for Active; 'I' for Inactive)
ROOT
HETATM    1  C1  UNL     1       3.598  -1.928   2.016  1.00  0.00     0.072 C 
HETATM    2  C2  UNL     1       2.882  -1.333   0.855  1.00  0.00     0.048 A 
HETATM    3  N1  UNL     1       1.811  -0.659   0.921  1.00  0.00    -0.343 N 
ATOM      4  H1  UNL     1       1.328  -0.456   1.796  1.00  0.00     0.164 HD
HETATM    5  C3  UNL     1       1.343  -0.206  -0.375  1.00  0.00     0.219 A 
HETATM    6  N2  UNL     1       2.352  -0.715  -1.280  1.00  0.00    -0.327 N 
ATOM      7  H2  UNL     1       2.366  -0.581  -2.291  1.00  0.00     0.165 HD
HETATM    8  C4  UNL     1       3.316  -1.430  -0.527  1.00  0.00     0.120 A 
HETATM    9  N3  UNL     1       4.373  -2.053  -0.929  1.00  0.00    -0.384 N 
ATOM     10  H31 UNL     1       4.678  -2.121  -1.900  1.00  0.00     0.157 HD
ATOM     11  H32 UNL     1       5.067  -2.568  -0.387  1.00  0.00     0.157 HD
HETATM   12  C5  UNL     1       1.293   1.252  -0.482  1.00  0.00     0.039 A 
HETATM   13  C6  UNL     1       2.452   1.745  -1.036  1.00  0.00     0.016 A 
HETATM   14  C7  UNL     1       2.618   3.106  -1.227  1.00  0.00     0.001 A 
HETATM   15  C8  UNL     1       1.643   4.007  -0.874  1.00  0.00     0.002 A 
HETATM   16  C9  UNL     1       0.475   3.544  -0.319  1.00  0.00     0.030 A 
HETATM   17  C10 UNL     1       0.316   2.189  -0.132  1.00  0.00     0.045 A 
HETATM   18  N4  UNL     1      -0.947   1.927   0.443  1.00  0.00    -0.353 N 
ATOM     19  H4  UNL     1      -1.398   2.692   0.944  1.00  0.00     0.166 HD
HETATM   20  C11 UNL     1      -1.648   0.681   0.383  1.00  0.00     0.065 A 
HETATM   21  C12 UNL     1      -2.928   0.827   0.885  1.00  0.00    -0.033 A 
HETATM   22  C13 UNL     1      -3.424   2.121   1.394  1.00  0.00     0.050 C 
HETATM   23  C14 UNL     1      -3.758  -0.274   0.906  1.00  0.00     0.015 A 
HETATM   24  C15 UNL     1      -3.351  -1.504   0.446  1.00  0.00    -0.059 A 
HETATM   25  C16 UNL     1      -4.265  -2.698   0.474  1.00  0.00     0.048 C 
HETATM   26  C17 UNL     1      -2.065  -1.598  -0.045  1.00  0.00     0.038 A 
HETATM   27  C18 UNL     1      -1.190  -0.530  -0.091  1.00  0.00     0.061 A 
HETATM   28  N5  UNL     1       0.083  -0.872  -0.641  1.00  0.00    -0.336 N 
HETATM   29  C19 UNL     1       0.058  -2.013  -1.549  1.00  0.00     0.154 C 
ENDROOT
TORSDOF 0
