REMARK  5 active torsions:
REMARK  status: ('A' for Active; 'I' for Inactive)
REMARK    1  A    between atoms: N1_2  and  C3_4 
REMARK    2  A    between atoms: C3_4  and  C4_5 
REMARK    3  A    between atoms: C4_5  and  N2_6 
REMARK    4  A    between atoms: N2_6  and  C5_8 
REMARK    5  A    between atoms: C8_12  and  C9_13 
ROOT
HETATM    1  C9  UNL     1      -1.441  -1.879   1.729  1.00  0.00     0.165 C 
HETATM    2  C10 UNL     1      -1.200  -3.128   1.014  1.00  0.00     0.063 C 
HETATM    3  N3  UNL     1      -1.015  -4.126   0.465  1.00  0.00    -0.197 NA
ENDROOT
BRANCH   1   4
HETATM    4  C8  UNL     1      -1.690  -0.735   0.738  1.00  0.00    -0.004 A 
HETATM    5  C5  UNL     1      -0.621  -0.175   0.076  1.00  0.00     0.078 A 
HETATM    6  S1  UNL     1      -1.358   1.023  -0.896  1.00  0.00    -0.076 SA
HETATM    7  C6  UNL     1      -2.977   0.792  -0.449  1.00  0.00    -0.008 A 
HETATM    8  C7  UNL     1      -2.918  -0.222   0.456  1.00  0.00    -0.035 A 
HETATM    9  C13 UNL     1      -4.398   1.263  -0.663  1.00  0.00     0.047 C 
HETATM   10  C11 UNL     1      -4.354  -0.494   0.910  1.00  0.00     0.040 C 
HETATM   11  C12 UNL     1      -5.019   0.831   0.652  1.00  0.00     0.010 C 
BRANCH   5  12
HETATM   12  N2  UNL     1       0.758  -0.525   0.197  1.00  0.00    -0.382 N 
ATOM     13  H2  UNL     1       1.051  -1.277   0.821  1.00  0.00     0.160 HD
BRANCH  12  14
HETATM   14  C4  UNL     1       1.723   0.202  -0.577  1.00  0.00     0.150 C 
BRANCH  14  15
HETATM   15  C3  UNL     1       3.121  -0.263  -0.354  1.00  0.00     0.290 C 
BRANCH  15  16
HETATM   16  N1  UNL     1       4.018   0.540  -1.180  1.00  0.00     0.081 N 
HETATM   17  C1  UNL     1       5.369   0.007  -0.945  1.00  0.00     0.309 C 
HETATM   18  C2  UNL     1       4.027   1.927  -0.727  1.00  0.00     0.309 C 
ENDBRANCH  15  16
ENDBRANCH  14  15
ENDBRANCH  12  14
ENDBRANCH   5  12
ENDBRANCH   1   4
TORSDOF 5
