REMARK  5 active torsions:
REMARK  status: ('A' for Active; 'I' for Inactive)
REMARK    1  A    between atoms: C4_5  and  O2_6 
REMARK    2  A    between atoms: O2_6  and  C5_7 
REMARK    3  A    between atoms: C5_7  and  C6_8 
REMARK    4  A    between atoms: C12_15  and  C13_16 
REMARK    5  A    between atoms: C13_16  and  N1_17 
ROOT
HETATM    1  C1  UNL     1       4.491  -1.551  -0.395  1.00  0.00     0.015 C 
HETATM    2  C2  UNL     1       3.030  -1.256  -0.284  1.00  0.00     0.036 C 
HETATM    3  C3  UNL     1       2.498  -0.635  -1.553  1.00  0.00     0.180 C 
HETATM    4  O1  UNL     1       1.134  -0.459  -1.375  1.00  0.00    -0.339 OA
HETATM    5  C4  UNL     1       0.784   0.244  -0.250  1.00  0.00     0.413 C 
HETATM    6  O3  UNL     1       1.292  -0.267   0.941  1.00  0.00    -0.332 OA
HETATM    7  C12 UNL     1       2.679  -0.404   0.896  1.00  0.00     0.158 C 
ENDROOT
BRANCH   5   8
HETATM    8  O2  UNL     1      -0.615   0.171  -0.140  1.00  0.00    -0.339 OA
BRANCH   8   9
HETATM    9  C5  UNL     1      -1.203   1.437  -0.265  1.00  0.00     0.178 C 
BRANCH   9  10
HETATM   10  C6  UNL     1      -2.711   1.188  -0.124  1.00  0.00     0.009 C 
HETATM   11  C7  UNL     1      -2.858   0.569   1.270  1.00  0.00     0.007 C 
HETATM   12  C8  UNL     1      -4.282   0.140   1.499  1.00  0.00     0.000 C 
HETATM   13  C9  UNL     1      -4.594  -0.958   0.515  1.00  0.00     0.000 C 
HETATM   14  C10 UNL     1      -4.320  -0.580  -0.904  1.00  0.00     0.000 C 
HETATM   15  C11 UNL     1      -3.054   0.142  -1.137  1.00  0.00     0.007 C 
ENDBRANCH   9  10
ENDBRANCH   8   9
ENDBRANCH   5   8
BRANCH   7  16
HETATM   16  C13 UNL     1       3.349   0.947   0.907  1.00  0.00     0.262 C 
BRANCH  16  17
HETATM   17  N1  UNL     1       4.788   0.872   0.867  1.00  0.00    -0.077 N 
ATOM     18  H13 UNL     1       5.141   0.287   1.624  1.00  0.00     0.274 HD
ATOM     19  H12 UNL     1       5.100   0.320   0.068  1.00  0.00     0.274 HD
ATOM     20  H11 UNL     1       5.241   1.786   0.874  1.00  0.00     0.274 HD
ENDBRANCH  16  17
ENDBRANCH   7  16
TORSDOF 5
