REMARK  4 active torsions:
REMARK  status: ('A' for Active; 'I' for Inactive)
REMARK    1  A    between atoms: C3_6  and  C4_7 
REMARK    2  A    between atoms: C7_10  and  C8_11 
REMARK    3  A    between atoms: C8_11  and  C9_13 
REMARK    4  A    between atoms: N2_16  and  C12_17 
ROOT
HETATM    1  C9  UNL     1       0.385  -0.487  -0.366  1.00  0.00     0.067 A 
HETATM    2  C10 UNL     1      -0.046  -1.327  -1.326  1.00  0.00     0.008 A 
HETATM    3  C11 UNL     1      -1.422  -1.175  -1.488  1.00  0.00     0.051 A 
HETATM    4  N2  UNL     1      -1.834  -0.252  -0.608  1.00  0.00    -0.308 N 
HETATM    5  C18 UNL     1      -0.815   0.164   0.076  1.00  0.00     0.138 A 
HETATM    6  N3  UNL     1      -0.761   1.024   1.204  1.00  0.00    -0.081 NA
HETATM    7  C19 UNL     1      -1.802  -2.071  -2.597  1.00  0.00     0.226 C 
HETATM    8  O3  UNL     1      -0.884  -3.095  -2.568  1.00  0.00    -0.381 OA
HETATM    9  C20 UNL     1       0.344  -2.556  -2.202  1.00  0.00     0.210 C 
ENDROOT
BRANCH   1  10
HETATM   10  C8  UNL     1       1.618  -0.109   0.300  1.00  0.00     0.201 C 
HETATM   11  O2  UNL     1       1.664  -0.081   1.546  1.00  0.00    -0.286 OA
BRANCH  10  12
HETATM   12  C7  UNL     1       2.845   0.277  -0.458  1.00  0.00     0.071 A 
HETATM   13  C2  UNL     1       2.958   0.577  -1.785  1.00  0.00     0.045 A 
HETATM   14  C1  UNL     1       1.975   0.651  -2.898  1.00  0.00     0.071 C 
HETATM   15  N1  UNL     1       4.284   0.952  -2.010  1.00  0.00    -0.265 N 
HETATM   16  O1  UNL     1       4.914   0.890  -0.927  1.00  0.00    -0.241 OA
ATOM     17  H1  UNL     1       4.677   1.231  -2.909  1.00  0.00     0.194 HD
HETATM   18  C3  UNL     1       4.079   0.483   0.059  1.00  0.00     0.096 A 
BRANCH  18  19
HETATM   19  C4  UNL     1       4.532   0.350   1.462  1.00  0.00     0.038 C 
HETATM   20  C5  UNL     1       5.545  -0.728   1.577  1.00  0.00     0.016 C 
HETATM   21  C6  UNL     1       5.441   1.658   1.730  1.00  0.00     0.016 C 
ENDBRANCH  18  19
ENDBRANCH  10  12
ENDBRANCH   1  10
BRANCH   4  22
HETATM   22  C12 UNL     1      -3.179   0.321  -0.664  1.00  0.00    -0.004 C 
HETATM   23  C13 UNL     1      -3.411   1.572   0.089  1.00  0.00     0.053 C 
HETATM   24  C14 UNL     1      -4.083   1.409   1.398  1.00  0.00     0.006 C 
HETATM   25  C15 UNL     1      -4.511  -0.054   1.643  1.00  0.00     0.001 C 
HETATM   26  C16 UNL     1      -5.281  -0.420   0.384  1.00  0.00     0.006 C 
HETATM   27  C17 UNL     1      -4.190  -0.743  -0.619  1.00  0.00     0.053 C 
ENDBRANCH   4  22
TORSDOF 4
