REMARK  9 active torsions:
REMARK  status: ('A' for Active; 'I' for Inactive)
REMARK    1  A    between atoms: N1_1  and  N2_4 
REMARK    2  A    between atoms: N2_4  and  N3_6 
REMARK    3  A    between atoms: N4_8  and  C1_10 
REMARK    4  A    between atoms: C1_10  and  O1_11 
REMARK    5  A    between atoms: C1_10  and  N5_13 
REMARK       I    between atoms: N5_13  and  C2_15 
REMARK       I    between atoms: C2_15  and  N7_20 
REMARK    6  A    between atoms: N6_16  and  O2_18 
REMARK    7  A    between atoms: N7_20  and  N8_22 
REMARK       I    between atoms: N9_24  and  C3_26 
REMARK    8  A    between atoms: C3_26  and  C4_28 
REMARK    9  A    between atoms: C6_32  and  C7_33 
ROOT
HETATM    1  N5  UNL     1       3.151   0.539   0.492  1.00  0.00    -0.177 N 
ATOM      2  H5  UNL     1       3.666   0.289   1.336  1.00  0.00     0.182 HD
HETATM    3  C2  UNL     1       1.920   1.280   0.536  1.00  0.00     0.716 C 
HETATM    4  N6  UNL     1       2.037   2.562   0.468  1.00  0.00    -0.097 N 
ATOM      5  H6  UNL     1       2.966   2.976   0.389  1.00  0.00     0.213 HD
HETATM    6  N7  UNL     1       0.692   0.603   0.646  1.00  0.00    -0.116 N 
ATOM      7  H7  UNL     1       0.299   0.419   1.569  1.00  0.00     0.207 HD
ENDROOT
BRANCH   1   8
HETATM    8  C1  UNL     1       3.617   0.167  -0.845  1.00  0.00     0.358 C 
BRANCH   8   9
HETATM    9  N4  UNL     1       4.851  -0.564  -0.732  1.00  0.00    -0.274 N 
HETATM   10  N3  UNL     1       5.900   0.103  -0.459  1.00  0.00    -0.229 N 
ATOM     11  H3  UNL     1       5.864   1.114  -0.326  1.00  0.00     0.209 HD
ATOM     12  H4  UNL     1       4.884  -1.575  -0.865  1.00  0.00     0.186 HD
BRANCH  10  13
HETATM   13  N2  UNL     1       7.092  -0.593  -0.349  1.00  0.00    -0.235 N 
ATOM     14  H2  UNL     1       7.972  -0.149  -0.612  1.00  0.00     0.209 HD
BRANCH  13  15
HETATM   15  N1  UNL     1       7.083  -1.896   0.120  1.00  0.00    -0.330 N 
ATOM     16  H12 UNL     1       6.195  -2.326   0.379  1.00  0.00     0.178 HD
ATOM     17  H11 UNL     1       7.961  -2.409   0.201  1.00  0.00     0.178 HD
ENDBRANCH  13  15
ENDBRANCH  10  13
ENDBRANCH   8   9
BRANCH   8  18
HETATM   18  O1  UNL     1       3.692   1.280  -1.646  1.00  0.00    -0.358 OA
ATOM     19  H1  UNL     1       2.877   1.763  -1.721  1.00  0.00     0.214 HD
ENDBRANCH   8  18
ENDBRANCH   1   8
BRANCH   4  20
HETATM   20  O2  UNL     1       0.946   3.374   0.499  1.00  0.00    -0.276 OA
ATOM     21  H2  UNL     1       1.032   4.319   0.449  1.00  0.00     0.245 HD
ENDBRANCH   4  20
BRANCH   6  22
HETATM   22  N8  UNL     1       0.007   0.182  -0.487  1.00  0.00    -0.226 N 
HETATM   23  N9  UNL     1      -1.229   0.210  -0.651  1.00  0.00    -0.249 N 
HETATM   24  C3  UNL     1      -2.179   0.678   0.289  1.00  0.00     0.289 C 
ATOM     25  H9  UNL     1      -1.587  -0.135  -1.541  1.00  0.00     0.192 HD
HETATM   26  O3  UNL     1      -1.854   1.552   1.130  1.00  0.00    -0.264 OA
ATOM     27  H8  UNL     1       0.567  -0.184  -1.257  1.00  0.00     0.209 HD
BRANCH  24  28
HETATM   28  C4  UNL     1      -3.527   0.127   0.256  1.00  0.00     0.119 A 
HETATM   29  C5  UNL     1      -4.549   0.496   1.115  1.00  0.00     0.125 A 
HETATM   30  N10 UNL     1      -5.618  -0.236   0.757  1.00  0.00    -0.346 N 
HETATM   31  C6  UNL     1      -5.310  -1.050  -0.294  1.00  0.00     0.172 A 
ATOM     32  H10 UNL     1      -6.532  -0.190   1.208  1.00  0.00     0.167 HD
HETATM   33  N12 UNL     1      -4.008  -0.804  -0.583  1.00  0.00    -0.333 N 
ATOM     34  H12 UNL     1      -3.475  -1.258  -1.325  1.00  0.00     0.168 HD
BRANCH  31  35
HETATM   35  C7  UNL     1      -6.216  -1.977  -0.942  1.00  0.00     0.298 C 
HETATM   36  N11 UNL     1      -7.540  -2.091  -0.494  1.00  0.00    -0.054 NA
HETATM   37  O4  UNL     1      -5.807  -2.668  -1.897  1.00  0.00    -0.268 OA
ENDBRANCH  31  35
ENDBRANCH  24  28
ENDBRANCH   6  22
TORSDOF 9
