REMARK  12 active torsions:
REMARK  status: ('A' for Active; 'I' for Inactive)
REMARK    1  A    between atoms: N3_4  and  C2_6 
REMARK    2  A    between atoms: C2_6  and  C3_7 
REMARK    3  A    between atoms: C3_7  and  C4_8 
REMARK    4  A    between atoms: C4_8  and  N4_9 
REMARK       I    between atoms: C5_11  and  N6_13 
REMARK    5  A    between atoms: N6_13  and  C6_15 
REMARK    6  A    between atoms: C6_15  and  C7_16 
REMARK    7  A    between atoms: C7_16  and  C8_17 
REMARK    8  A    between atoms: C8_17  and  C9_18 
REMARK       I    between atoms: C9_18  and  N7_20 
REMARK    9  A    between atoms: N7_20  and  C10_22 
REMARK   10  A    between atoms: C10_22  and  C11_23 
REMARK   11  A    between atoms: C11_23  and  N8_24 
REMARK   12  A    between atoms: C12_26  and  O2_28 
ROOT
HETATM    1  C6  UNL     1      -0.083  -1.149   0.048  1.00  0.00     0.122 C 
ENDROOT
BRANCH   1   2
HETATM    2  N6  UNL     1       0.177  -0.090  -0.906  1.00  0.00    -0.365 N 
HETATM    3  C5  UNL     1       1.105  -0.206  -1.967  1.00  0.00     0.183 C 
HETATM    4  N4  UNL     1       2.390  -0.110  -1.802  1.00  0.00    -0.365 N 
HETATM    5  N5  UNL     1       0.671  -0.438  -3.299  1.00  0.00    -0.064 NA
ATOM      6  H4  UNL     1       3.003  -0.203  -2.612  1.00  0.00     0.162 HD
ATOM      7  H6  UNL     1      -0.337   0.786  -0.807  1.00  0.00     0.162 HD
BRANCH   4   8
HETATM    8  C4  UNL     1       2.969   0.123  -0.513  1.00  0.00     0.123 C 
BRANCH   8   9
HETATM    9  C3  UNL     1       4.277   0.886  -0.596  1.00  0.00     0.039 C 
BRANCH   9  10
HETATM   10  C2  UNL     1       4.807   1.080   0.813  1.00  0.00     0.123 C 
BRANCH  10  11
HETATM   11  N3  UNL     1       6.057   1.809   0.730  1.00  0.00    -0.367 N 
HETATM   12  C1  UNL     1       7.164   1.207   1.001  1.00  0.00     0.196 C 
HETATM   13  N1  UNL     1       7.163  -0.159   1.379  1.00  0.00    -0.067 NA
HETATM   14  N2  UNL     1       8.405   1.889   0.930  1.00  0.00    -0.067 NA
ATOM     15  H3  UNL     1       6.061   2.792   0.459  1.00  0.00     0.161 HD
ENDBRANCH  10  11
ENDBRANCH   9  10
ENDBRANCH   8   9
ENDBRANCH   4   8
ENDBRANCH   1   2
BRANCH   1  16
HETATM   16  C7  UNL     1      -0.767  -2.323  -0.573  1.00  0.00     0.029 C 
BRANCH  16  17
HETATM   17  C8  UNL     1      -2.093  -2.044  -1.206  1.00  0.00     0.104 C 
BRANCH  17  18
HETATM   18  C9  UNL     1      -3.128  -1.546  -0.290  1.00  0.00     0.217 C 
HETATM   19  O1  UNL     1      -2.886  -1.463   0.926  1.00  0.00    -0.274 OA
HETATM   20  N7  UNL     1      -4.387  -1.171  -0.818  1.00  0.00    -0.360 N 
ATOM     21  H7  UNL     1      -4.531  -1.264  -1.824  1.00  0.00     0.162 HD
BRANCH  20  22
HETATM   22  C10 UNL     1      -5.476  -0.667  -0.024  1.00  0.00     0.142 C 
BRANCH  22  23
HETATM   23  C11 UNL     1      -5.122   0.614   0.696  1.00  0.00     0.142 C 
BRANCH  23  24
HETATM   24  N8  UNL     1      -6.275   1.065   1.474  1.00  0.00    -0.357 N 
HETATM   25  C12 UNL     1      -7.265   1.678   0.929  1.00  0.00     0.225 C 
HETATM   26  N9  UNL     1      -8.341   2.080   1.759  1.00  0.00    -0.057 NA
ATOM     27  H8  UNL     1      -6.294   0.888   2.478  1.00  0.00     0.162 HD
BRANCH  25  28
HETATM   28  O2  UNL     1      -7.298   1.946  -0.430  1.00  0.00    -0.335 OA
ATOM     29  H2  UNL     1      -8.030   2.399  -0.833  1.00  0.00     0.220 HD
ENDBRANCH  25  28
ENDBRANCH  23  24
ENDBRANCH  22  23
ENDBRANCH  20  22
ENDBRANCH  17  18
ENDBRANCH  16  17
ENDBRANCH   1  16
TORSDOF 12
