REMARK  1 active torsions:
REMARK  status: ('A' for Active; 'I' for Inactive)
REMARK    1  A    between atoms: C9_11  and  O1_12 
ROOT
HETATM    1  C1  UNL     1       1.581   1.891   1.871  1.00  0.00     0.144 C 
HETATM    2  N1  UNL     1       1.337   0.926   0.842  1.00  0.00    -0.404 N 
HETATM    3  C2  UNL     1       1.664   1.297  -0.432  1.00  0.00     0.120 C 
HETATM    4  C3  UNL     1       2.752   0.339  -0.954  1.00  0.00     0.149 C 
HETATM    5  N2  UNL     1       1.660  -0.406  -1.481  1.00  0.00    -0.384 N 
HETATM    6  C4  UNL     1       1.581  -1.745  -1.336  1.00  0.00     0.064 C 
HETATM    7  C5  UNL     1       0.360  -2.022  -0.574  1.00  0.00     0.038 A 
HETATM    8  C6  UNL     1       0.795  -1.497   0.661  1.00  0.00     0.026 A 
HETATM    9  C7  UNL     1       0.520  -0.148   1.178  1.00  0.00     0.092 C 
HETATM   10  C8  UNL     1      -0.912   0.159   0.948  1.00  0.00     0.052 C 
HETATM   11  C9  UNL     1      -1.511  -1.205   0.796  1.00  0.00     0.069 C 
HETATM   12  C10 UNL     1      -2.216  -1.076  -0.507  1.00  0.00     0.044 C 
HETATM   13  C11 UNL     1      -1.719   0.023  -1.334  1.00  0.00     0.004 A 
HETATM   14  C12 UNL     1      -0.584   0.873  -1.462  1.00  0.00     0.024 A 
HETATM   15  C13 UNL     1       0.846   0.658  -1.566  1.00  0.00     0.112 C 
HETATM   16  C14 UNL     1      -1.288   0.983  -0.206  1.00  0.00    -0.025 A 
HETATM   17  C15 UNL     1      -2.408   2.004   0.061  1.00  0.00     0.016 C 
HETATM   18  C16 UNL     1      -0.353  -2.209   0.622  1.00  0.00     0.036 A 
ENDROOT
BRANCH  11  19
HETATM   19  O1  UNL     1      -2.305  -1.595   1.853  1.00  0.00    -0.389 OA
ATOM     20  H1  UNL     1      -2.685  -2.460   1.757  1.00  0.00     0.210 HD
ENDBRANCH  11  19
TORSDOF 1
