REMARK  13 active torsions:
REMARK  status: ('A' for Active; 'I' for Inactive)
REMARK    1  A    between atoms: C2_2  and  C5_6 
REMARK    2  A    between atoms: C3_3  and  C4_4 
REMARK    3  A    between atoms: C5_6  and  C6_7 
REMARK    4  A    between atoms: C6_7  and  C7_8 
REMARK    5  A    between atoms: C8_9  and  C10_11 
REMARK    6  A    between atoms: C10_11  and  C11_12 
REMARK    7  A    between atoms: C11_12  and  C12_13 
REMARK    8  A    between atoms: C12_13  and  C13_15 
REMARK    9  A    between atoms: C13_15  and  C14_17 
REMARK   10  A    between atoms: C15_18  and  O3_19 
REMARK   11  A    between atoms: C16_21  and  O4_22 
REMARK   12  A    between atoms: C20_27  and  O5_28 
REMARK   13  A    between atoms: C21_30  and  O6_31 
ROOT
HETATM    1  C14 UNL     1      -1.248  -1.743  -0.186  1.00  0.00     0.010 C 
HETATM    2  C15 UNL     1      -1.326  -3.206  -0.138  1.00  0.00     0.180 C 
HETATM    3  C16 UNL     1      -2.560  -3.770   0.480  1.00  0.00     0.152 C 
HETATM    4  C17 UNL     1      -3.339  -2.795   1.257  1.00  0.00     0.047 C 
HETATM    5  C18 UNL     1      -2.574  -1.672   1.927  1.00  0.00    -0.005 C 
HETATM    6  C19 UNL     1      -1.510  -2.292   2.883  1.00  0.00     0.019 C 
HETATM    7  C20 UNL     1      -3.524  -1.090   2.871  1.00  0.00     0.155 C 
HETATM    8  C21 UNL     1      -3.925   0.313   2.858  1.00  0.00     0.148 C 
HETATM    9  C22 UNL     1      -4.569   0.568   1.520  1.00  0.00     0.040 C 
HETATM   10  C23 UNL     1      -3.472   1.127   0.727  1.00  0.00     0.005 C 
HETATM   11  C24 UNL     1      -2.320   0.346   0.344  1.00  0.00     0.003 C 
HETATM   12  C25 UNL     1      -1.227   1.449   0.368  1.00  0.00     0.033 C 
HETATM   13  C26 UNL     1      -1.674   2.506  -0.623  1.00  0.00    -0.022 C 
HETATM   14  C27 UNL     1      -2.898   2.737  -0.987  1.00  0.00    -0.068 C 
HETATM   15  C28 UNL     1      -3.292   3.791  -1.974  1.00  0.00     0.113 C 
HETATM   16  C29 UNL     1      -4.283   3.158  -2.919  1.00  0.00     0.130 C 
HETATM   17  O7  UNL     1      -4.240   3.543  -4.085  1.00  0.00    -0.298 OA
HETATM   18  C30 UNL     1      -5.256   2.129  -2.476  1.00  0.00     0.079 C 
HETATM   19  C31 UNL     1      -4.506   1.110  -1.598  1.00  0.00     0.021 C 
HETATM   20  C32 UNL     1      -4.001   1.923  -0.426  1.00  0.00    -0.016 C 
HETATM   21  C33 UNL     1      -5.077   2.869   0.079  1.00  0.00     0.020 C 
HETATM   22  C34 UNL     1      -1.811  -0.883   0.943  1.00  0.00     0.037 C 
ENDROOT
BRANCH   1  23
HETATM   23  C13 UNL     1       0.056  -1.333  -0.739  1.00  0.00     0.222 C 
HETATM   24  O2  UNL     1       0.174  -0.662  -1.836  1.00  0.00    -0.284 OA
BRANCH  23  25
HETATM   25  C12 UNL     1       1.371  -1.596  -0.190  1.00  0.00     0.199 C 
HETATM   26  O1  UNL     1       1.444  -2.300   0.839  1.00  0.00    -0.289 OA
BRANCH  25  27
HETATM   27  C11 UNL     1       2.657  -1.111  -0.728  1.00  0.00     0.091 C 
BRANCH  27  28
HETATM   28  C10 UNL     1       3.759  -1.955  -0.122  1.00  0.00     0.041 C 
BRANCH  28  29
HETATM   29  C8  UNL     1       5.119  -1.508  -0.574  1.00  0.00    -0.087 C 
HETATM   30  C7  UNL     1       5.976  -1.167   0.356  1.00  0.00    -0.024 C 
HETATM   31  C9  UNL     1       5.350  -1.457  -2.022  1.00  0.00     0.043 C 
BRANCH  30  32
HETATM   32  C6  UNL     1       7.322  -0.653   0.344  1.00  0.00     0.031 C 
BRANCH  32  33
HETATM   33  C5  UNL     1       7.853   0.084  -0.827  1.00  0.00     0.037 C 
BRANCH  33  34
HETATM   34  C2  UNL     1       7.194   1.388  -1.108  1.00  0.00    -0.086 C 
HETATM   35  C1  UNL     1       7.715   2.154  -2.288  1.00  0.00     0.043 C 
HETATM   36  C3  UNL     1       6.215   1.934  -0.415  1.00  0.00    -0.010 C 
BRANCH  36  37
HETATM   37  C4  UNL     1       5.638   3.252  -0.768  1.00  0.00     0.142 C 
HETATM   38 CL1  UNL     1       5.843   4.372   0.604  1.00  0.00    -0.126 Cl
ENDBRANCH  36  37
ENDBRANCH  33  34
ENDBRANCH  32  33
ENDBRANCH  30  32
ENDBRANCH  28  29
ENDBRANCH  27  28
ENDBRANCH  25  27
ENDBRANCH  23  25
ENDBRANCH   1  23
BRANCH   2  39
HETATM   39  O3  UNL     1      -1.292  -3.761  -1.453  1.00  0.00    -0.388 OA
ATOM     40  H3  UNL     1      -1.343  -4.709  -1.422  1.00  0.00     0.210 HD
ENDBRANCH   2  39
BRANCH   3  41
HETATM   41  O4  UNL     1      -2.238  -4.863   1.266  1.00  0.00    -0.393 OA
ATOM     42  H4  UNL     1      -3.024  -5.222   1.660  1.00  0.00     0.210 HD
ENDBRANCH   3  41
BRANCH   7  43
HETATM   43  O5  UNL     1      -4.754  -1.832   2.990  1.00  0.00    -0.392 OA
ATOM     44  H5  UNL     1      -5.372  -1.453   3.604  1.00  0.00     0.210 HD
ENDBRANCH   7  43
BRANCH   8  45
HETATM   45  O6  UNL     1      -4.846   0.584   3.876  1.00  0.00    -0.393 OA
ATOM     46  H6  UNL     1      -5.107   1.497   3.868  1.00  0.00     0.210 HD
ENDBRANCH   8  45
TORSDOF 13
