REMARK  6 active torsions:
REMARK  status: ('A' for Active; 'I' for Inactive)
REMARK    1  A    between atoms: O1_1  and  C1_3 
REMARK    2  A    between atoms: C1_3  and  C2_4 
REMARK    3  A    between atoms: C1_3  and  C15_18 
REMARK    4  A    between atoms: C1_3  and  C19_26 
REMARK    5  A    between atoms: C2_4  and  C3_5 
REMARK    6  A    between atoms: N1_9  and  C7_10 
ROOT
HETATM    1  C1  UNL     1       3.196   0.411   0.351  1.00  0.00     0.136 C 
ENDROOT
BRANCH   1   2
HETATM    2  O1  UNL     1       3.039   0.918   1.637  1.00  0.00    -0.378 OA
ATOM      3  H1  UNL     1       3.798   0.812   2.198  1.00  0.00     0.211 HD
ENDBRANCH   1   2
BRANCH   1   4
HETATM    4  C2  UNL     1       2.024   0.575  -0.515  1.00  0.00     0.055 C 
BRANCH   4   5
HETATM    5  C3  UNL     1       0.712   0.013  -0.132  1.00  0.00    -0.009 C 
HETATM    6  C4  UNL     1       0.601  -1.453   0.070  1.00  0.00     0.006 C 
HETATM    7  C5  UNL     1      -0.774  -1.850   0.568  1.00  0.00     0.031 C 
HETATM    8  C6  UNL     1      -1.854  -1.100  -0.156  1.00  0.00     0.273 C 
HETATM    9  N1  UNL     1      -2.268  -0.007   0.668  1.00  0.00     0.093 N 
HETATM   10  C13 UNL     1      -1.406   1.126   0.571  1.00  0.00     0.273 C 
HETATM   11  C14 UNL     1       0.032   0.808   0.972  1.00  0.00     0.035 C 
BRANCH   9  12
HETATM   12  C7  UNL     1      -3.620   0.379   0.425  1.00  0.00     0.223 C 
HETATM   13  C8  UNL     1      -4.586  -0.756   0.764  1.00  0.00     0.036 C 
HETATM   14  C9  UNL     1      -5.935  -0.105   0.962  1.00  0.00     0.002 C 
HETATM   15  C10 UNL     1      -6.184   1.006  -0.026  1.00  0.00     0.000 C 
HETATM   16  C11 UNL     1      -5.349   0.905  -1.269  1.00  0.00     0.002 C 
HETATM   17  C12 UNL     1      -3.883   0.722  -1.021  1.00  0.00     0.036 C 
ENDBRANCH   9  12
ENDBRANCH   4   5
ENDBRANCH   1   4
BRANCH   1  18
HETATM   18  C15 UNL     1       3.782  -0.936   0.345  1.00  0.00     0.013 A 
HETATM   19  C16 UNL     1       4.278  -1.537   1.502  1.00  0.00     0.101 A 
HETATM   20  N2  UNL     1       4.833  -2.754   1.486  1.00  0.00    -0.361 N 
HETATM   21  C17 UNL     1       4.929  -3.443   0.333  1.00  0.00     0.180 A 
ATOM     22  H2  UNL     1       5.185  -3.162   2.352  1.00  0.00     0.166 HD
HETATM   23  N3  UNL     1       4.464  -2.896  -0.797  1.00  0.00    -0.361 N 
HETATM   24  C18 UNL     1       3.900  -1.677  -0.822  1.00  0.00     0.101 A 
ATOM     25  H3  UNL     1       4.540  -3.422  -1.668  1.00  0.00     0.166 HD
ENDBRANCH   1  18
BRANCH   1  26
HETATM   26  C19 UNL     1       4.293   1.302  -0.253  1.00  0.00     0.091 A 
HETATM   27  C20 UNL     1       4.566   1.416  -1.595  1.00  0.00     0.038 A 
HETATM   28  C21 UNL     1       5.610   2.303  -1.713  1.00  0.00     0.027 A 
HETATM   29  C22 UNL     1       5.926   2.691  -0.437  1.00  0.00     0.142 A 
HETATM   30  O2  UNL     1       5.121   2.073   0.394  1.00  0.00    -0.324 OA
ENDBRANCH   1  26
TORSDOF 6
