REMARK  20 active torsions:
REMARK  status: ('A' for Active; 'I' for Inactive)
REMARK    1  A    between atoms: O1_2  and  C2_3 
REMARK    2  A    between atoms: C2_3  and  C3_5 
REMARK    3  A    between atoms: C3_5  and  O3_6 
REMARK    4  A    between atoms: C6_11  and  C7_12 
REMARK    5  A    between atoms: C7_12  and  O5_13 
REMARK    6  A    between atoms: O5_13  and  C8_14 
REMARK    7  A    between atoms: C8_14  and  C9_16 
REMARK    8  A    between atoms: C11_18  and  O7_19 
REMARK    9  A    between atoms: C14_23  and  O8_24 
REMARK   10  A    between atoms: N1_29  and  N2_30 
REMARK   11  A    between atoms: N2_30  and  C17_32 
REMARK   12  A    between atoms: C17_32  and  C18_33 
REMARK   13  A    between atoms: C17_32  and  C23_44 
REMARK   14  A    between atoms: C18_33  and  C19_34 
REMARK   15  A    between atoms: C19_34  and  N3_35 
REMARK   16  A    between atoms: C19_34  and  C21_40 
REMARK   17  A    between atoms: N3_35  and  O10_36 
REMARK   18  A    between atoms: O10_36  and  C20_37 
REMARK   19  A    between atoms: C21_40  and  S1_42 
REMARK   20  A    between atoms: C25_48  and  O15_49 
ROOT
HETATM    1  C3  UNL     1      -2.597  -1.955   0.730  1.00  0.00     0.201 C 
HETATM    2  C4  UNL     1      -1.696  -3.130   0.380  1.00  0.00     0.145 C 
HETATM    3  C5  UNL     1      -2.542  -3.280  -0.837  1.00  0.00     0.179 C 
HETATM    4  O4  UNL     1      -2.921  -4.177  -1.555  1.00  0.00    -0.293 OA
HETATM    5  C6  UNL     1      -2.739  -1.797  -0.799  1.00  0.00     0.191 C 
HETATM    6  O9  UNL     1      -1.609  -1.118  -1.304  1.00  0.00    -0.324 OA
HETATM    7  C15 UNL     1      -0.359  -1.562  -0.898  1.00  0.00     0.098 A 
HETATM    8  C16 UNL     1       0.820  -1.010  -1.328  1.00  0.00     0.152 A 
HETATM    9  N1  UNL     1       2.036  -1.478  -0.901  1.00  0.00    -0.277 N 
HETATM   10  C24 UNL     1       2.003  -2.507  -0.037  1.00  0.00     0.152 A 
HETATM   11  C25 UNL     1       0.817  -3.088   0.418  1.00  0.00     0.093 A 
HETATM   12  C26 UNL     1      -0.374  -2.619  -0.009  1.00  0.00     0.026 A 
ENDROOT
BRANCH   9  13
HETATM   13  N2  UNL     1       3.193  -0.875  -1.390  1.00  0.00    -0.315 N 
ATOM     14  H2  UNL     1       3.049  -0.127  -2.069  1.00  0.00     0.181 HD
BRANCH  13  15
HETATM   15  C17 UNL     1       4.546  -1.162  -1.070  1.00  0.00     0.202 C 
BRANCH  15  16
HETATM   16  C18 UNL     1       4.990  -0.894   0.330  1.00  0.00     0.070 C 
BRANCH  16  17
HETATM   17  C19 UNL     1       4.832   0.560   0.722  1.00  0.00     0.190 C 
BRANCH  17  18
HETATM   18  N3  UNL     1       3.471   0.988   0.637  1.00  0.00    -0.076 NA
BRANCH  18  19
HETATM   19  O10 UNL     1       3.334   2.321   0.966  1.00  0.00    -0.191 OA
BRANCH  19  20
HETATM   20  C20 UNL     1       2.327   3.040   0.358  1.00  0.00     0.391 C 
HETATM   21  N4  UNL     1       2.128   4.419   0.649  1.00  0.00    -0.031 NA
HETATM   22  O11 UNL     1       1.581   2.455  -0.466  1.00  0.00    -0.241 OA
ENDBRANCH  19  20
ENDBRANCH  18  19
ENDBRANCH  17  18
BRANCH  17  23
HETATM   23  C21 UNL     1       5.738   1.399  -0.135  1.00  0.00     0.207 C 
HETATM   24  O12 UNL     1       5.291   2.321  -0.793  1.00  0.00    -0.284 OA
BRANCH  23  25
HETATM   25  S1  UNL     1       7.491   1.077  -0.216  1.00  0.00    -0.095 SA
HETATM   26  C22 UNL     1       8.258   2.273  -1.336  1.00  0.00     0.099 C 
ENDBRANCH  23  25
ENDBRANCH  17  23
ENDBRANCH  16  17
ENDBRANCH  15  16
BRANCH  15  27
HETATM   27  C23 UNL     1       5.021  -2.508  -1.481  1.00  0.00     0.198 C 
HETATM   28  O13 UNL     1       4.292  -3.299  -2.118  1.00  0.00    -0.646 OA
HETATM   29  O14 UNL     1       6.301  -2.927  -1.165  1.00  0.00    -0.646 OA
ENDBRANCH  15  27
ENDBRANCH  13  15
ENDBRANCH   9  13
BRANCH  11  30
HETATM   30  O15 UNL     1       0.911  -4.136   1.302  1.00  0.00    -0.359 OA
ATOM     31  H15 UNL     1       0.104  -4.531   1.611  1.00  0.00     0.217 HD
ENDBRANCH  11  30
BRANCH   5  32
HETATM   32  C7  UNL     1      -4.078  -1.326  -1.235  1.00  0.00     0.229 C 
BRANCH  32  33
HETATM   33  O5  UNL     1      -4.467  -0.049  -0.924  1.00  0.00    -0.314 OA
BRANCH  33  34
HETATM   34  C8  UNL     1      -3.971   1.149  -1.304  1.00  0.00     0.296 C 
HETATM   35  O6  UNL     1      -2.975   1.135  -2.094  1.00  0.00    -0.259 OA
BRANCH  34  36
HETATM   36  C9  UNL     1      -4.478   2.463  -0.887  1.00  0.00     0.075 A 
HETATM   37  C10 UNL     1      -3.829   3.582  -1.388  1.00  0.00     0.057 A 
HETATM   38  C11 UNL     1      -4.211   4.876  -1.071  1.00  0.00     0.066 A 
HETATM   39  C12 UNL     1      -5.277   5.028  -0.224  1.00  0.00     0.039 A 
HETATM   40  C13 UNL     1      -5.913   3.943   0.267  1.00  0.00     0.040 A 
HETATM   41  C14 UNL     1      -5.550   2.616  -0.036  1.00  0.00     0.082 A 
BRANCH  38  42
HETATM   42  O7  UNL     1      -3.547   5.974  -1.584  1.00  0.00    -0.361 OA
ATOM     43  H7  UNL     1      -3.809   6.861  -1.367  1.00  0.00     0.217 HD
ENDBRANCH  38  42
BRANCH  41  44
HETATM   44  O8  UNL     1      -6.244   1.579   0.501  1.00  0.00    -0.360 OA
ATOM     45  H8  UNL     1      -6.983   1.685   1.088  1.00  0.00     0.217 HD
ENDBRANCH  41  44
ENDBRANCH  34  36
ENDBRANCH  33  34
ENDBRANCH  32  33
ENDBRANCH   5  32
BRANCH   1  46
HETATM   46  C2  UNL     1      -3.826  -2.449   1.346  1.00  0.00     0.298 C 
HETATM   47  O2  UNL     1      -4.282  -1.828   2.366  1.00  0.00    -0.262 OA
BRANCH  46  48
HETATM   48  O1  UNL     1      -4.535  -3.532   0.916  1.00  0.00    -0.324 OA
HETATM   49  C1  UNL     1      -5.732  -4.009   1.522  1.00  0.00     0.213 C 
ENDBRANCH  46  48
ENDBRANCH   1  46
BRANCH   1  50
HETATM   50  O3  UNL     1      -1.992  -0.876   1.332  1.00  0.00    -0.375 OA
ATOM     51  H3  UNL     1      -1.193  -0.555   0.931  1.00  0.00     0.211 HD
ENDBRANCH   1  50
TORSDOF 20
