REMARK  3 active torsions:
REMARK  status: ('A' for Active; 'I' for Inactive)
REMARK    1  A    between atoms: C2_2  and  C5_5 
REMARK    2  A    between atoms: C8_8  and  N1_9 
REMARK    3  A    between atoms: C12_16  and  N3_17 
ROOT
HETATM    1  C5  UNL     1      -1.663   0.816   0.170  1.00  0.00    -0.032 A 
HETATM    2  C6  UNL     1      -0.600   1.658   0.411  1.00  0.00     0.011 A 
HETATM    3  C7  UNL     1       0.617   1.041   0.615  1.00  0.00     0.031 A 
HETATM    4  C8  UNL     1       0.817  -0.310   0.592  1.00  0.00     0.048 A 
HETATM    5  C13 UNL     1      -0.266  -1.183   0.346  1.00  0.00     0.032 A 
HETATM    6  C14 UNL     1      -0.245  -2.531   0.290  1.00  0.00     0.089 A 
HETATM    7  C15 UNL     1       0.958  -3.358   0.482  1.00  0.00     0.103 C 
HETATM    8  N4  UNL     1       1.919  -4.013   0.643  1.00  0.00    -0.191 NA
HETATM    9  C16 UNL     1      -1.431  -3.165   0.035  1.00  0.00     0.109 A 
HETATM   10  N5  UNL     1      -1.730  -4.550  -0.084  1.00  0.00    -0.093 NA
HETATM   11  S1  UNL     1      -2.535  -1.877  -0.117  1.00  0.00    -0.072 SA
HETATM   12  C17 UNL     1      -1.469  -0.569   0.145  1.00  0.00     0.028 A 
ENDROOT
BRANCH   4  13
HETATM   13  N1  UNL     1       2.135  -0.775   0.822  1.00  0.00    -0.321 N 
HETATM   14  C9  UNL     1       3.180  -0.296   0.237  1.00  0.00     0.230 A 
HETATM   15  N2  UNL     1       4.364  -0.841   0.558  1.00  0.00    -0.332 N 
HETATM   16  O1  UNL     1       3.131   0.676  -0.637  1.00  0.00    -0.262 OA
HETATM   17  C10 UNL     1       5.499  -0.404  -0.002  1.00  0.00     0.096 A 
ATOM     18  H2  UNL     1       4.400  -1.600   1.239  1.00  0.00     0.168 HD
HETATM   19  C11 UNL     1       5.451   0.612  -0.917  1.00  0.00     0.073 A 
HETATM   20  C12 UNL     1       4.211   1.138  -1.213  1.00  0.00     0.146 A 
ATOM     21  H1  UNL     1       2.266  -1.534   1.490  1.00  0.00     0.169 HD
BRANCH  20  22
HETATM   22  N3  UNL     1       4.176   2.102  -2.082  1.00  0.00    -0.380 N 
ATOM     23  H32 UNL     1       5.018   2.462  -2.531  1.00  0.00     0.158 HD
ATOM     24  H31 UNL     1       3.259   2.491  -2.301  1.00  0.00     0.158 HD
ENDBRANCH  20  22
ENDBRANCH   4  13
BRANCH   1  25
HETATM   25  C2  UNL     1      -3.014   1.341  -0.063  1.00  0.00    -0.023 C 
HETATM   26  C1  UNL     1      -2.996   2.854   0.008  1.00  0.00     0.019 C 
HETATM   27  C3  UNL     1      -3.995   0.874   1.006  1.00  0.00     0.019 C 
HETATM   28  C4  UNL     1      -3.460   0.924  -1.440  1.00  0.00     0.019 C 
ENDBRANCH   1  25
TORSDOF 3
