REMARK  9 active torsions:
REMARK  status: ('A' for Active; 'I' for Inactive)
REMARK       I    between atoms: C2_2  and  N1_4 
REMARK    1  A    between atoms: N1_4  and  C3_6 
REMARK    2  A    between atoms: C4_9  and  C5_10 
REMARK    3  A    between atoms: C6_11  and  C7_12 
REMARK    4  A    between atoms: C9_14  and  O2_15 
REMARK    5  A    between atoms: O2_15  and  C10_16 
REMARK    6  A    between atoms: C10_16  and  C11_17 
REMARK    7  A    between atoms: C11_17  and  O3_19 
REMARK    8  A    between atoms: C13_21  and  O4_22 
REMARK    9  A    between atoms: C14_24  and  O5_25 
ROOT
HETATM    1  C7  UNL     1       0.723  -1.959  -0.459  1.00  0.00     0.099 C 
HETATM    2  C8  UNL     1       1.726  -0.908  -0.802  1.00  0.00     0.054 C 
HETATM    3  C9  UNL     1       2.917  -1.112   0.092  1.00  0.00     0.154 C 
HETATM    4  C13 UNL     1       2.710  -2.499   0.667  1.00  0.00     0.177 C 
HETATM    5  C14 UNL     1       1.206  -2.537   0.858  1.00  0.00     0.165 C 
ENDROOT
BRANCH   1   6
HETATM    6  C6  UNL     1      -0.596  -1.343  -0.329  1.00  0.00    -0.092 C 
HETATM    7  C5  UNL     1      -1.695  -0.853  -0.224  1.00  0.00    -0.047 C 
BRANCH   7   8
HETATM    8  C4  UNL     1      -3.051  -0.275  -0.115  1.00  0.00     0.101 A 
HETATM    9  N2  UNL     1      -3.269   0.791   0.624  1.00  0.00    -0.329 N 
HETATM   10  C3  UNL     1      -4.514   1.271   0.687  1.00  0.00     0.152 A 
ATOM     11  H2  UNL     1      -2.508   1.239   1.135  1.00  0.00     0.168 HD
HETATM   12  S1  UNL     1      -5.399   0.212  -0.307  1.00  0.00    -0.056 SA
HETATM   13  C15 UNL     1      -4.126  -0.817  -0.770  1.00  0.00     0.018 A 
HETATM   14  C16 UNL     1      -4.132  -2.031  -1.671  1.00  0.00     0.059 C 
BRANCH  10  15
HETATM   15  N1  UNL     1      -4.943   2.317   1.361  1.00  0.00    -0.307 N 
HETATM   16  C2  UNL     1      -6.329   2.614   1.255  1.00  0.00     0.219 C 
HETATM   17  C1  UNL     1      -6.758   3.611   0.240  1.00  0.00     0.117 C 
HETATM   18  O1  UNL     1      -7.173   2.037   2.014  1.00  0.00    -0.274 OA
ATOM     19  H1  UNL     1      -4.314   2.884   1.929  1.00  0.00     0.171 HD
ENDBRANCH  10  15
ENDBRANCH   7   8
ENDBRANCH   1   6
BRANCH   5  20
HETATM   20  O5  UNL     1       0.831  -1.691   1.892  1.00  0.00    -0.392 OA
ATOM     21  H5  UNL     1       1.133  -2.053   2.717  1.00  0.00     0.210 HD
ENDBRANCH   5  20
BRANCH   3  22
HETATM   22  O2  UNL     1       4.090  -1.017  -0.633  1.00  0.00    -0.381 OA
BRANCH  22  23
HETATM   23  C10 UNL     1       4.953  -0.057  -0.162  1.00  0.00     0.199 C 
BRANCH  23  24
HETATM   24  C11 UNL     1       4.395   1.333  -0.166  1.00  0.00     0.138 C 
HETATM   25  C12 UNL     1       5.526   2.271   0.270  1.00  0.00     0.041 C 
BRANCH  24  26
HETATM   26  O3  UNL     1       4.051   1.714  -1.459  1.00  0.00    -0.394 OA
ATOM     27  H3  UNL     1       3.697   2.596  -1.462  1.00  0.00     0.210 HD
ENDBRANCH  24  26
ENDBRANCH  23  24
ENDBRANCH  22  23
ENDBRANCH   3  22
BRANCH   4  28
HETATM   28  O4  UNL     1       3.410  -2.693   1.836  1.00  0.00    -0.390 OA
ATOM     29  H4  UNL     1       3.280  -3.562   2.196  1.00  0.00     0.210 HD
ENDBRANCH   4  28
TORSDOF 9
