REMARK  7 active torsions:
REMARK  status: ('A' for Active; 'I' for Inactive)
REMARK    1  A    between atoms: O1_1  and  C1_3 
REMARK    2  A    between atoms: C1_3  and  N3_20 
REMARK    3  A    between atoms: C2_4  and  N1_5 
REMARK    4  A    between atoms: C5_8  and  C6_9 
REMARK    5  A    between atoms: C6_9  and  O2_10 
REMARK    6  A    between atoms: C6_9  and  N2_12 
REMARK    7  A    between atoms: N3_20  and  C13_22 
ROOT
HETATM    1  N1  UNL     1       1.022  -1.008   1.217  1.00  0.00    -0.386 N 
HETATM    2  C3  UNL     1       0.185  -2.122   1.512  1.00  0.00     0.123 C 
HETATM    3  C4  UNL     1      -1.184  -2.173   0.966  1.00  0.00     0.032 C 
HETATM    4  C5  UNL     1      -1.512  -0.859   0.292  1.00  0.00     0.063 C 
HETATM    5  C11 UNL     1      -0.453  -0.713  -0.769  1.00  0.00     0.032 C 
HETATM    6  C12 UNL     1       0.822  -0.363  -0.023  1.00  0.00     0.123 C 
ENDROOT
BRANCH   1   7
HETATM    7  C2  UNL     1       1.326  -0.203   2.338  1.00  0.00     0.141 C 
HETATM    8  C1  UNL     1       2.272   0.864   2.277  1.00  0.00     0.151 C 
BRANCH   8   9
HETATM    9  O1  UNL     1       2.409   1.543   3.380  1.00  0.00    -0.345 OA
ATOM     10  H1  UNL     1       3.039   2.253   3.339  1.00  0.00     0.219 HD
ENDBRANCH   8   9
BRANCH   8  11
HETATM   11  N3  UNL     1       3.071   1.288   1.220  1.00  0.00    -0.365 N 
ATOM     12  H3  UNL     1       3.018   0.812   0.319  1.00  0.00     0.162 HD
BRANCH  11  13
HETATM   13  C13 UNL     1       3.991   2.420   1.398  1.00  0.00     0.083 C 
HETATM   14  C14 UNL     1       3.945   3.395   0.268  1.00  0.00     0.025 C 
HETATM   15  C15 UNL     1       5.434   3.207   0.070  1.00  0.00     0.004 C 
HETATM   16  C16 UNL     1       5.370   1.992   0.941  1.00  0.00     0.025 C 
ENDBRANCH  11  13
ENDBRANCH   8  11
ENDBRANCH   1   7
BRANCH   4  17
HETATM   17  C6  UNL     1      -2.888  -0.674  -0.130  1.00  0.00     0.117 C 
BRANCH  17  18
HETATM   18  O2  UNL     1      -3.599   0.164   0.597  1.00  0.00    -0.349 OA
ATOM     19  H2  UNL     1      -4.500   0.285   0.321  1.00  0.00     0.219 HD
ENDBRANCH  17  18
BRANCH  17  20
HETATM   20  N2  UNL     1      -3.611  -1.234  -1.185  1.00  0.00    -0.364 N 
HETATM   21  C7  UNL     1      -3.145  -2.156  -2.192  1.00  0.00     0.134 C 
HETATM   22  C8  UNL     1      -2.979  -1.432  -3.521  1.00  0.00     0.093 C 
HETATM   23  S1  UNL     1      -4.591  -0.651  -3.968  1.00  0.00    -0.166 SA
HETATM   24  C9  UNL     1      -5.138   0.184  -2.428  1.00  0.00     0.093 C 
HETATM   25  C10 UNL     1      -5.042  -0.841  -1.318  1.00  0.00     0.134 C 
ENDBRANCH  17  20
ENDBRANCH   4  17
TORSDOF 7
