REMARK  8 active torsions:
REMARK  status: ('A' for Active; 'I' for Inactive)
REMARK    1  A    between atoms: C2_2  and  C3_3 
REMARK    2  A    between atoms: C2_2  and  N1_10 
REMARK    3  A    between atoms: C3_3  and  C4_4 
REMARK    4  A    between atoms: C4_4  and  C5_5 
REMARK       I    between atoms: N1_10  and  C10_12 
REMARK       I    between atoms: C10_12  and  N2_14 
REMARK    5  A    between atoms: N3_17  and  C13_18 
REMARK    6  A    between atoms: C13_18  and  C14_19 
REMARK    7  A    between atoms: C14_19  and  N4_20 
REMARK    8  A    between atoms: N4_20  and  C15_23 
ROOT
HETATM    1  N1  UNL     1      -2.505   0.272   0.869  1.00  0.00    -0.339 N 
ATOM      2  H1  UNL     1      -2.099   0.395  -0.059  1.00  0.00     0.164 HD
HETATM    3  C10 UNL     1      -1.699  -0.248   1.913  1.00  0.00     0.319 C 
HETATM    4  O1  UNL     1      -2.266  -0.380   3.039  1.00  0.00    -0.247 OA
HETATM    5  N2  UNL     1      -0.343  -0.614   1.772  1.00  0.00    -0.325 N 
HETATM    6  C11 UNL     1       0.358  -1.136   2.922  1.00  0.00     0.172 C 
HETATM    7  C12 UNL     1       1.732  -1.600   2.630  1.00  0.00     0.083 C 
HETATM    8  N3  UNL     1       2.415  -1.065   1.527  1.00  0.00    -0.369 N 
HETATM    9  C23 UNL     1       1.754  -0.088   0.770  1.00  0.00     0.083 C 
HETATM   10  C24 UNL     1       0.304  -0.448   0.488  1.00  0.00     0.172 C 
ENDROOT
BRANCH   1  11
HETATM   11  C2  UNL     1      -3.894   0.634   1.087  1.00  0.00     0.082 C 
HETATM   12  C1  UNL     1      -4.098   2.129   0.886  1.00  0.00     0.032 C 
BRANCH  11  13
HETATM   13  C3  UNL     1      -4.836  -0.064   0.132  1.00  0.00     0.025 C 
BRANCH  13  14
HETATM   14  C4  UNL     1      -6.243   0.364   0.476  1.00  0.00     0.006 C 
BRANCH  14  15
HETATM   15  C5  UNL     1      -7.261  -0.284  -0.442  1.00  0.00    -0.014 C 
HETATM   16  C6  UNL     1      -8.648   0.180  -0.059  1.00  0.00     0.004 C 
HETATM   17  C7  UNL     1      -9.454  -0.177  -1.293  1.00  0.00     0.000 C 
HETATM   18  C8  UNL     1      -8.507   0.047  -2.439  1.00  0.00     0.000 C 
HETATM   19  C9  UNL     1      -7.128   0.227  -1.858  1.00  0.00     0.004 C 
ENDBRANCH  14  15
ENDBRANCH  13  14
ENDBRANCH  11  13
ENDBRANCH   1  11
BRANCH   8  20
HETATM   20  C13 UNL     1       3.346  -1.922   0.894  1.00  0.00     0.154 C 
BRANCH  20  21
HETATM   21  C14 UNL     1       4.096  -1.347  -0.270  1.00  0.00     0.253 C 
BRANCH  21  22
HETATM   22  N4  UNL     1       4.876  -0.185   0.083  1.00  0.00    -0.069 N 
ATOM     23  H42 UNL     1       4.316   0.526   0.553  1.00  0.00     0.277 HD
ATOM     24  H41 UNL     1       5.532  -0.377   0.840  1.00  0.00     0.277 HD
BRANCH  22  25
HETATM   25  C15 UNL     1       5.526   0.322  -1.075  1.00  0.00     0.194 C 
HETATM   26  C16 UNL     1       6.529  -0.618  -1.707  1.00  0.00     0.017 C 
HETATM   27  C17 UNL     1       7.574  -0.676  -0.614  1.00  0.00     0.011 C 
HETATM   28  C21 UNL     1       7.095   0.268  -2.799  1.00  0.00     0.011 C 
HETATM   29  C18 UNL     1       7.656   0.792  -0.205  1.00  0.00    -0.007 C 
HETATM   30  C19 UNL     1       8.498   1.563  -1.231  1.00  0.00     0.010 C 
HETATM   31  C22 UNL     1       6.458   1.477  -0.788  1.00  0.00     0.025 C 
HETATM   32  C20 UNL     1       7.221   1.594  -2.082  1.00  0.00    -0.007 C 
ENDBRANCH  22  25
ENDBRANCH  21  22
ENDBRANCH  20  21
ENDBRANCH   8  20
TORSDOF 8
