REMARK  7 active torsions:
REMARK  status: ('A' for Active; 'I' for Inactive)
REMARK    1  A    between atoms: N1_1  and  C1_5 
REMARK    2  A    between atoms: C1_5  and  C2_6 
REMARK    3  A    between atoms: C2_6  and  N2_7 
REMARK    4  A    between atoms: N2_7  and  C3_9 
REMARK    5  A    between atoms: C4_12  and  N4_13 
REMARK    6  A    between atoms: C9_23  and  N7_24 
REMARK    7  A    between atoms: N7_24  and  C10_26 
ROOT
HETATM    1  C3  UNL     1      -0.124   1.408  -0.146  1.00  0.00     0.707 A 
HETATM    2  N3  UNL     1       1.112   0.914   0.069  1.00  0.00    -0.021 N 
ATOM      3  H3  UNL     1       1.878   1.569   0.223  1.00  0.00     0.203 HD
HETATM    4  C4  UNL     1       1.378  -0.395   0.089  1.00  0.00     0.709 A 
HETATM    5  N6  UNL     1       0.370  -1.263  -0.115  1.00  0.00    -0.021 N 
ATOM      6  H6  UNL     1       0.554  -2.266  -0.104  1.00  0.00     0.203 HD
HETATM    7  C9  UNL     1      -0.865  -0.819  -0.331  1.00  0.00     0.707 A 
HETATM    8  N8  UNL     1      -1.111   0.522  -0.347  1.00  0.00    -0.022 N 
ATOM      9  H8  UNL     1      -2.060   0.857  -0.514  1.00  0.00     0.203 HD
ENDROOT
BRANCH   1  10
HETATM   10  N2  UNL     1      -0.306   2.655  -0.152  1.00  0.00    -0.223 N 
ATOM     11  H2  UNL     1      -1.267   2.952  -0.322  1.00  0.00     0.177 HD
BRANCH  10  12
HETATM   12  C2  UNL     1       0.627   3.710   0.043  1.00  0.00     0.165 C 
BRANCH  12  13
HETATM   13  C1  UNL     1      -0.179   4.930   0.511  1.00  0.00     0.249 C 
BRANCH  13  14
HETATM   14  N1  UNL     1       0.650   6.071   0.744  1.00  0.00    -0.078 N 
ATOM     15  H13 UNL     1       1.401   5.853   1.398  1.00  0.00     0.274 HD
ATOM     16  H12 UNL     1       1.210   6.293  -0.079  1.00  0.00     0.274 HD
ATOM     17  H11 UNL     1       0.115   6.882   1.055  1.00  0.00     0.274 HD
ENDBRANCH  13  14
ENDBRANCH  12  13
ENDBRANCH  10  12
ENDBRANCH   1  10
BRANCH   4  18
HETATM   18  N4  UNL     1       2.657  -0.974   0.306  1.00  0.00    -0.213 N 
HETATM   19  C5  UNL     1       3.842  -0.212   0.505  1.00  0.00     0.168 C 
HETATM   20  C6  UNL     1       4.925  -0.704  -0.454  1.00  0.00     0.252 C 
HETATM   21  N5  UNL     1       5.139  -2.113  -0.342  1.00  0.00    -0.072 N 
HETATM   22  C7  UNL     1       3.933  -2.886  -0.554  1.00  0.00     0.252 C 
ATOM     23  H52 UNL     1       5.883  -2.419  -0.969  1.00  0.00     0.277 HD
ATOM     24  H51 UNL     1       5.569  -2.346   0.553  1.00  0.00     0.277 HD
HETATM   25  C8  UNL     1       2.807  -2.432   0.340  1.00  0.00     0.168 C 
ENDBRANCH   4  18
BRANCH   7  26
HETATM   26  N7  UNL     1      -1.785  -1.701  -0.520  1.00  0.00    -0.220 N 
ATOM     27  H7  UNL     1      -1.547  -2.693  -0.499  1.00  0.00     0.178 HD
BRANCH  26  28
HETATM   28  C10 UNL     1      -3.130  -1.302  -0.758  1.00  0.00     0.099 C 
HETATM   29  C11 UNL     1      -3.832  -1.056   0.558  1.00  0.00     0.026 C 
HETATM   30  C12 UNL     1      -5.295  -1.222   0.141  1.00  0.00     0.002 C 
HETATM   31  C13 UNL     1      -5.223  -2.533  -0.612  1.00  0.00     0.002 C 
HETATM   32  C14 UNL     1      -3.883  -2.523  -1.272  1.00  0.00     0.026 C 
ENDBRANCH  26  28
ENDBRANCH   7  26
TORSDOF 7
