REMARK  11 active torsions:
REMARK  status: ('A' for Active; 'I' for Inactive)
REMARK    1  A    between atoms: N1_1  and  C1_4 
REMARK    2  A    between atoms: C2_7  and  N3_8 
REMARK    3  A    between atoms: N3_8  and  N4_10 
REMARK    4  A    between atoms: C3_13  and  O1_14 
REMARK    5  A    between atoms: O1_14  and  C4_15 
REMARK    6  A    between atoms: C4_15  and  C5_16 
REMARK    7  A    between atoms: C5_16  and  N5_17 
REMARK    8  A    between atoms: C6_18  and  O2_19 
REMARK    9  A    between atoms: C8_24  and  N7_25 
REMARK   10  A    between atoms: N7_25  and  N8_27 
REMARK   11  A    between atoms: N11_36  and  N12_37 
ROOT
HETATM    1  C4  UNL     1      -0.699  -0.291  -0.534  1.00  0.00     0.198 C 
ENDROOT
BRANCH   1   2
HETATM    2  O1  UNL     1      -1.893  -1.040  -0.452  1.00  0.00    -0.329 OA
BRANCH   2   3
HETATM    3  C3  UNL     1      -3.006  -0.459   0.121  1.00  0.00     0.228 A 
HETATM    4  C2  UNL     1      -3.997   0.130  -0.608  1.00  0.00     0.190 A 
HETATM    5  N2  UNL     1      -5.032   0.668   0.104  1.00  0.00    -0.170 N 
HETATM    6  C1  UNL     1      -5.093   0.631   1.442  1.00  0.00     0.693 A 
ATOM      7  H2  UNL     1      -5.792   1.118  -0.406  1.00  0.00     0.186 HD
HETATM    8  N13 UNL     1      -4.093   0.038   2.118  1.00  0.00    -0.109 N 
HETATM    9  N11 UNL     1      -3.063  -0.501   1.488  1.00  0.00    -0.161 N 
ATOM     10  H13 UNL     1      -4.130   0.003   3.137  1.00  0.00     0.208 HD
BRANCH   4  11
HETATM   11  N3  UNL     1      -3.978   0.165  -1.874  1.00  0.00    -0.288 N 
ATOM     12  H3  UNL     1      -4.779   0.618  -2.314  1.00  0.00     0.188 HD
BRANCH  11  13
HETATM   13  N4  UNL     1      -3.026  -0.324  -2.734  1.00  0.00    -0.343 N 
ATOM     14  H42 UNL     1      -2.234  -0.773  -2.275  1.00  0.00     0.176 HD
ATOM     15  H41 UNL     1      -3.011  -0.296  -3.753  1.00  0.00     0.176 HD
ENDBRANCH  11  13
ENDBRANCH   4  11
BRANCH   6  16
HETATM   16  N1  UNL     1      -6.092   1.153   2.084  1.00  0.00    -0.233 N 
ATOM     17  H12 UNL     1      -6.850   1.603   1.571  1.00  0.00     0.174 HD
ATOM     18  H11 UNL     1      -6.138   1.125   3.103  1.00  0.00     0.174 HD
ENDBRANCH   6  16
BRANCH   9  19
HETATM   19  N12 UNL     1      -2.048  -1.112   2.215  1.00  0.00    -0.321 N 
ATOM     20 2H12 UNL     1      -1.253  -1.528   1.729  1.00  0.00     0.179 HD
ATOM     21 1H12 UNL     1      -2.090  -1.143   3.234  1.00  0.00     0.179 HD
ENDBRANCH   9  19
ENDBRANCH   2   3
ENDBRANCH   1   2
BRANCH   1  22
HETATM   22  C5  UNL     1       0.398  -1.099  -1.206  1.00  0.00     0.161 C 
BRANCH  22  23
HETATM   23  N5  UNL     1       1.626  -0.364  -1.306  1.00  0.00    -0.295 N 
HETATM   24  C6  UNL     1       2.031   0.433  -2.305  1.00  0.00     0.225 A 
HETATM   25  N6  UNL     1       3.239   0.927  -2.004  1.00  0.00    -0.316 N 
HETATM   26  C7  UNL     1       3.625   0.454  -0.808  1.00  0.00     0.126 A 
ATOM     27  H6  UNL     1       3.780   1.562  -2.591  1.00  0.00     0.169 HD
HETATM   28  C8  UNL     1       4.760   0.635  -0.031  1.00  0.00     0.151 A 
HETATM   29  C10 UNL     1       2.610  -0.365  -0.358  1.00  0.00     0.142 A 
HETATM   30  N9  UNL     1       4.794  -0.016   1.138  1.00  0.00    -0.336 N 
HETATM   31  C9  UNL     1       3.806  -0.816   1.582  1.00  0.00     0.183 A 
ATOM     32  H9  UNL     1       5.618   0.101   1.728  1.00  0.00     0.168 HD
HETATM   33  N10 UNL     1       2.704  -0.998   0.837  1.00  0.00    -0.336 N 
ATOM     34  H10 UNL     1       1.950  -1.602   1.165  1.00  0.00     0.168 HD
BRANCH  24  35
HETATM   35  O2  UNL     1       1.265   0.667  -3.451  1.00  0.00    -0.332 OA
ATOM     36  H2  UNL     1       1.552   1.232  -4.159  1.00  0.00     0.221 HD
ENDBRANCH  24  35
BRANCH  28  37
HETATM   37  N7  UNL     1       5.697   1.398  -0.459  1.00  0.00    -0.290 N 
ATOM     38  H7  UNL     1       5.594   1.860  -1.363  1.00  0.00     0.188 HD
BRANCH  37  39
HETATM   39  N8  UNL     1       6.857   1.608   0.292  1.00  0.00    -0.344 N 
ATOM     40  H82 UNL     1       6.944   1.139   1.194  1.00  0.00     0.176 HD
ATOM     41  H81 UNL     1       7.603   2.215  -0.049  1.00  0.00     0.176 HD
ENDBRANCH  37  39
ENDBRANCH  28  37
ENDBRANCH  22  23
ENDBRANCH   1  22
TORSDOF 11
