REMARK  5 active torsions:
REMARK  status: ('A' for Active; 'I' for Inactive)
REMARK    1  A    between atoms: N1_1  and  C1_5 
REMARK    2  A    between atoms: C3_7  and  N2_8 
REMARK       I    between atoms: N2_8  and  C4_10 
REMARK    3  A    between atoms: C4_10  and  C5_12 
REMARK    4  A    between atoms: C11_19  and  N3_20 
REMARK    5  A    between atoms: N3_20  and  C12_22 
ROOT
HETATM    1  C1  UNL     1      -1.112  -0.428   0.451  1.00  0.00     0.207 C 
HETATM    2  C2  UNL     1       0.192  -0.019   1.073  1.00  0.00     0.060 C 
HETATM    3  C3  UNL     1       1.043   0.921   0.313  1.00  0.00     0.086 C 
HETATM    4  C9  UNL     1       0.344   1.484  -0.900  1.00  0.00     0.027 C 
HETATM    5  C10 UNL     1      -1.035   1.931  -0.387  1.00  0.00     0.029 C 
HETATM    6  C11 UNL     1      -1.845   0.617  -0.295  1.00  0.00     0.107 C 
ENDROOT
BRANCH   3   7
HETATM    7  N2  UNL     1       2.352   0.429   0.008  1.00  0.00    -0.356 N 
HETATM    8  C4  UNL     1       3.512   1.030   0.516  1.00  0.00     0.224 C 
HETATM    9  O1  UNL     1       3.370   2.050   1.276  1.00  0.00    -0.273 OA
ATOM     10  H2  UNL     1       2.444  -0.386  -0.599  1.00  0.00     0.162 HD
BRANCH   8  11
HETATM   11  C5  UNL     1       4.883   0.578   0.244  1.00  0.00     0.103 C 
HETATM   12  C6  UNL     1       5.211   0.656  -1.256  1.00  0.00     0.042 C 
HETATM   13  C7  UNL     1       6.355  -0.330  -1.313  1.00  0.00     0.168 C 
HETATM   14  O2  UNL     1       6.161  -1.277  -0.350  1.00  0.00    -0.390 OA
HETATM   15  C8  UNL     1       5.093  -0.907   0.459  1.00  0.00     0.181 C 
ENDBRANCH   8  11
ENDBRANCH   3   7
BRANCH   1  16
HETATM   16  N1  UNL     1      -0.856  -1.635  -0.355  1.00  0.00    -0.073 N 
ATOM     17  H13 UNL     1      -0.111  -1.506  -1.040  1.00  0.00     0.274 HD
ATOM     18  H12 UNL     1      -0.417  -2.385   0.179  1.00  0.00     0.274 HD
ATOM     19  H11 UNL     1      -1.742  -1.913  -0.778  1.00  0.00     0.274 HD
ENDBRANCH   1  16
BRANCH   6  20
HETATM   20  N3  UNL     1      -3.105   0.938   0.173  1.00  0.00    -0.409 N 
ATOM     21  H3  UNL     1      -3.223   1.885   0.533  1.00  0.00     0.154 HD
BRANCH  20  22
HETATM   22  C12 UNL     1      -4.212   0.137   0.211  1.00  0.00     0.104 C 
HETATM   23  C13 UNL     1      -4.299  -1.104   1.004  1.00  0.00     0.054 C 
HETATM   24  C14 UNL     1      -5.743  -1.519   0.632  1.00  0.00     0.234 C 
HETATM   25  N4  UNL     1      -5.729  -1.372  -0.803  1.00  0.00    -0.073 N 
HETATM   26  C15 UNL     1      -4.736  -0.351  -1.137  1.00  0.00     0.256 C 
ATOM     27  H42 UNL     1      -5.570  -2.254  -1.290  1.00  0.00     0.277 HD
ATOM     28  H41 UNL     1      -6.651  -1.169  -1.189  1.00  0.00     0.277 HD
ENDBRANCH  20  22
ENDBRANCH   6  20
TORSDOF 5
