REMARK  3 active torsions:
REMARK  status: ('A' for Active; 'I' for Inactive)
REMARK    1  A    between atoms: N1_1  and  N2_4 
REMARK    2  A    between atoms: C1_6  and  N3_7 
REMARK    3  A    between atoms: N3_7  and  N4_9 
ROOT
HETATM    1  N4  UNL     1       0.205   0.924  -0.148  1.00  0.00    -0.217 N 
HETATM    2  C2  UNL     1      -1.186   1.164  -0.005  1.00  0.00     0.278 C 
HETATM    3  O1  UNL     1      -1.585   2.377  -0.029  1.00  0.00    -0.268 OA
HETATM    4  C3  UNL     1      -2.153   0.092   0.165  1.00  0.00     0.151 C 
HETATM    5  C4  UNL     1      -2.998  -0.175  -1.050  1.00  0.00     0.049 C 
HETATM    6  C5  UNL     1      -4.066  -1.099  -0.500  1.00  0.00     0.004 C 
HETATM    7  C6  UNL     1      -4.053  -0.905   1.022  1.00  0.00     0.004 C 
HETATM    8  C7  UNL     1      -3.237   0.387   1.200  1.00  0.00     0.049 C 
HETATM    9  O2  UNL     1      -1.544  -1.107   0.586  1.00  0.00    -0.321 OA
HETATM   10  C8  UNL     1      -0.158  -1.341   0.445  1.00  0.00     0.141 A 
HETATM   11  S1  UNL     1       0.786  -2.768   0.657  1.00  0.00    -0.056 SA
HETATM   12  C9  UNL     1       2.320  -2.124   0.286  1.00  0.00     0.091 A 
HETATM   13  C10 UNL     1       2.057  -0.821   0.007  1.00  0.00    -0.001 A 
HETATM   14  C11 UNL     1       0.765  -0.407   0.090  1.00  0.00     0.108 A 
HETATM   15  C12 UNL     1       3.275  -0.002  -0.370  1.00  0.00     0.069 C 
HETATM   16  C13 UNL     1       4.374  -0.834  -0.933  1.00  0.00     0.183 C 
HETATM   17  O3  UNL     1       4.769  -1.927  -0.107  1.00  0.00    -0.317 OA
HETATM   18  C14 UNL     1       3.685  -2.725   0.240  1.00  0.00     0.301 C 
HETATM   19  O4  UNL     1       3.743  -3.942   0.529  1.00  0.00    -0.259 OA
ENDROOT
BRANCH   1  20
HETATM   20  N3  UNL     1       1.000   2.015  -0.519  1.00  0.00    -0.285 N 
ATOM     21  H3  UNL     1       1.183   2.136  -1.515  1.00  0.00     0.188 HD
BRANCH  20  22
HETATM   22  C1  UNL     1       1.567   2.955   0.347  1.00  0.00     0.214 C 
HETATM   23  N2  UNL     1       1.290   4.220   0.229  1.00  0.00    -0.301 N 
ATOM     24  H2  UNL     1       0.651   4.527  -0.505  1.00  0.00     0.187 HD
BRANCH  23  25
HETATM   25  N1  UNL     1       1.844   5.154   1.078  1.00  0.00    -0.344 N 
ATOM     26  H12 UNL     1       2.481   4.830   1.806  1.00  0.00     0.176 HD
ATOM     27  H11 UNL     1       1.627   6.146   0.985  1.00  0.00     0.176 HD
ENDBRANCH  23  25
ENDBRANCH  20  22
ENDBRANCH   1  20
TORSDOF 3
