REMARK  5 active torsions:
REMARK  status: ('A' for Active; 'I' for Inactive)
REMARK    1  A    between atoms: C2_2  and  C3_3 
REMARK    2  A    between atoms: C3_3  and  O2_5 
REMARK    3  A    between atoms: O2_5  and  C4_6 
REMARK    4  A    between atoms: C4_6  and  O3_7 
REMARK    5  A    between atoms: O3_7  and  O4_8 
ROOT
HETATM    1  C4  UNL     1       1.861  -1.291   0.536  1.00  0.00     0.299 C 
HETATM    2  C5  UNL     1       1.413  -2.697   0.070  1.00  0.00     0.326 C 
HETATM    3  O5  UNL     1       2.264  -3.588  -0.126  1.00  0.00    -0.259 OA
HETATM    4  O6  UNL     1       0.051  -2.648  -0.033  1.00  0.00    -0.311 OA
HETATM    5  C6  UNL     1      -0.379  -1.329  -0.198  1.00  0.00     0.143 C 
HETATM    6  C7  UNL     1      -1.731  -1.091   0.476  1.00  0.00     0.047 C 
HETATM    7  C8  UNL     1      -2.434  -0.015  -0.257  1.00  0.00    -0.012 C 
HETATM    8  C9  UNL     1      -2.762  -0.425  -1.675  1.00  0.00     0.020 C 
HETATM    9  C10 UNL     1      -3.753   0.258   0.439  1.00  0.00     0.092 C 
HETATM   10  C11 UNL     1      -4.152   1.543  -0.172  1.00  0.00     0.131 C 
HETATM   11  O7  UNL     1      -5.279   1.885  -0.463  1.00  0.00    -0.298 OA
HETATM   12  C12 UNL     1      -2.906   2.332  -0.360  1.00  0.00     0.113 C 
HETATM   13  C13 UNL     1      -1.802   1.310  -0.166  1.00  0.00    -0.068 C 
HETATM   14  C14 UNL     1      -0.566   1.623   0.045  1.00  0.00    -0.022 C 
HETATM   15  C15 UNL     1       0.657   0.881   0.271  1.00  0.00     0.040 C 
HETATM   16  C16 UNL     1       0.607  -0.533   0.645  1.00  0.00     0.095 C 
ENDROOT
BRANCH   1  17
HETATM   17  O2  UNL     1       2.808  -0.946  -0.400  1.00  0.00    -0.267 OA
BRANCH  17  18
HETATM   18  C3  UNL     1       3.758   0.026  -0.362  1.00  0.00     0.285 C 
HETATM   19  O1  UNL     1       3.839   0.743   0.679  1.00  0.00    -0.260 OA
BRANCH  18  20
HETATM   20  C2  UNL     1       4.686   0.263  -1.489  1.00  0.00     0.072 C 
HETATM   21  C1  UNL     1       5.579   1.219  -1.383  1.00  0.00     0.017 C 
ENDBRANCH  18  20
ENDBRANCH  17  18
ENDBRANCH   1  17
BRANCH   1  22
HETATM   22  O3  UNL     1       2.455  -1.582   1.792  1.00  0.00    -0.191 OA
BRANCH  22  23
HETATM   23  O4  UNL     1       1.531  -1.907   2.661  1.00  0.00    -0.247 OA
ATOM     24  H4  UNL     1       1.929  -2.102   3.502  1.00  0.00     0.253 HD
ENDBRANCH  22  23
ENDBRANCH   1  22
TORSDOF 5
