REMARK  11 active torsions:
REMARK  status: ('A' for Active; 'I' for Inactive)
REMARK    1  A    between atoms: C4_4  and  O1_5 
REMARK    2  A    between atoms: C9_11  and  O2_12 
REMARK    3  A    between atoms: O2_12  and  C10_13 
REMARK    4  A    between atoms: C13_17  and  O4_18 
REMARK    5  A    between atoms: O4_18  and  C14_19 
REMARK    6  A    between atoms: C17_23  and  O6_24 
REMARK    7  A    between atoms: C18_26  and  O7_27 
REMARK    8  A    between atoms: C19_29  and  O8_30 
REMARK    9  A    between atoms: C20_32  and  O9_33 
REMARK   10  A    between atoms: C21_35  and  O10_36 
REMARK   11  A    between atoms: C22_38  and  O11_39 
ROOT
HETATM    1  C10 UNL     1       0.379  -0.432  -0.020  1.00  0.00     0.292 C 
HETATM    2  O3  UNL     1       0.914   0.205  -1.125  1.00  0.00    -0.351 OA
HETATM    3  C11 UNL     1       2.245   0.056  -1.347  1.00  0.00     0.152 C 
HETATM    4  C12 UNL     1       2.771   1.381  -1.884  1.00  0.00     0.042 C 
HETATM    5  C13 UNL     1       3.071  -0.460  -0.218  1.00  0.00     0.184 C 
HETATM    6  C20 UNL     1       2.471  -1.760   0.331  1.00  0.00     0.183 C 
HETATM    7  C21 UNL     1       0.987  -1.816   0.063  1.00  0.00     0.204 C 
ENDROOT
BRANCH   1   8
HETATM    8  O2  UNL     1      -0.974  -0.615  -0.275  1.00  0.00    -0.348 OA
BRANCH   8   9
HETATM    9  C9  UNL     1      -1.798  -0.122   0.770  1.00  0.00     0.180 C 
HETATM   10  C8  UNL     1      -2.542  -1.305   1.279  1.00  0.00     0.041 C 
HETATM   11  C6  UNL     1      -3.629  -1.123   2.243  1.00  0.00    -0.013 C 
HETATM   12  C5  UNL     1      -5.015  -0.870   1.751  1.00  0.00     0.040 C 
HETATM   13  C7  UNL     1      -3.257  -0.055   3.245  1.00  0.00     0.010 C 
HETATM   14  C4  UNL     1      -5.330  -1.454   0.424  1.00  0.00     0.142 C 
HETATM   15  C3  UNL     1      -6.538  -0.871  -0.192  1.00  0.00     0.011 C 
HETATM   16  C2  UNL     1      -6.825   0.381  -0.442  1.00  0.00    -0.063 C 
HETATM   17  C1  UNL     1      -8.196   0.554  -1.095  1.00  0.00     0.048 C 
HETATM   18  C27 UNL     1      -6.095   1.602  -0.191  1.00  0.00     0.011 C 
HETATM   19  C25 UNL     1      -4.959   2.059  -0.660  1.00  0.00    -0.055 C 
HETATM   20  C23 UNL     1      -4.007   1.498  -1.616  1.00  0.00     0.149 C 
HETATM   21  C26 UNL     1      -4.548   3.427  -0.114  1.00  0.00     0.046 C 
HETATM   22  O12 UNL     1      -2.940   0.791  -1.123  1.00  0.00    -0.350 OA
HETATM   23  C24 UNL     1      -4.616   0.659  -2.720  1.00  0.00     0.044 C 
HETATM   24  C22 UNL     1      -2.583   0.989   0.177  1.00  0.00     0.286 C 
BRANCH  14  25
HETATM   25  O1  UNL     1      -5.486  -2.853   0.658  1.00  0.00    -0.392 OA
ATOM     26  H1  UNL     1      -4.708  -3.228   1.054  1.00  0.00     0.210 HD
ENDBRANCH  14  25
BRANCH  24  27
HETATM   27  O11 UNL     1      -1.770   2.149   0.285  1.00  0.00    -0.369 OA
ATOM     28  H11 UNL     1      -2.273   2.860  -0.095  1.00  0.00     0.212 HD
ENDBRANCH  24  27
ENDBRANCH   8   9
ENDBRANCH   1   8
BRANCH   7  29
HETATM   29  O10 UNL     1       0.825  -2.442  -1.176  1.00  0.00    -0.388 OA
ATOM     30  H10 UNL     1       1.207  -3.310  -1.124  1.00  0.00     0.210 HD
ENDBRANCH   7  29
BRANCH   6  31
HETATM   31  O9  UNL     1       3.095  -2.805  -0.346  1.00  0.00    -0.390 OA
ATOM     32  H9  UNL     1       2.723  -3.610  -0.006  1.00  0.00     0.210 HD
ENDBRANCH   6  31
BRANCH   5  33
HETATM   33  O4  UNL     1       4.368  -0.744  -0.545  1.00  0.00    -0.348 OA
BRANCH  33  34
HETATM   34  C14 UNL     1       5.350  -0.133   0.176  1.00  0.00     0.292 C 
HETATM   35  O5  UNL     1       6.183  -1.047   0.843  1.00  0.00    -0.351 OA
HETATM   36  C15 UNL     1       7.183  -0.344   1.518  1.00  0.00     0.152 C 
HETATM   37  C16 UNL     1       7.832  -1.241   2.547  1.00  0.00     0.042 C 
HETATM   38  C17 UNL     1       8.223   0.074   0.501  1.00  0.00     0.178 C 
HETATM   39  C18 UNL     1       7.592   0.062  -0.851  1.00  0.00     0.183 C 
HETATM   40  C19 UNL     1       6.209   0.679  -0.767  1.00  0.00     0.204 C 
BRANCH  38  41
HETATM   41  O6  UNL     1       9.245  -0.901   0.534  1.00  0.00    -0.390 OA
ATOM     42  H6  UNL     1       9.898  -0.639  -0.104  1.00  0.00     0.210 HD
ENDBRANCH  38  41
BRANCH  39  43
HETATM   43  O7  UNL     1       8.363   0.629  -1.838  1.00  0.00    -0.390 OA
ATOM     44  H7  UNL     1       7.961   0.621  -2.699  1.00  0.00     0.210 HD
ENDBRANCH  39  43
BRANCH  40  45
HETATM   45  O8  UNL     1       6.253   2.020  -0.441  1.00  0.00    -0.388 OA
ATOM     46  H8  UNL     1       6.793   2.530  -1.033  1.00  0.00     0.210 HD
ENDBRANCH  40  45
ENDBRANCH  33  34
ENDBRANCH   5  33
TORSDOF 11
