REMARK  5 active torsions:
REMARK  status: ('A' for Active; 'I' for Inactive)
REMARK    1  A    between atoms: N1_3  and  C3_4 
REMARK    2  A    between atoms: C3_4  and  C4_5 
REMARK    3  A    between atoms: C4_5  and  C5_6 
REMARK    4  A    between atoms: C5_6  and  C6_7 
REMARK    5  A    between atoms: C6_7  and  C7_8 
ROOT
HETATM    1  C4  UNL     1       1.465  -1.671  -0.112  1.00  0.00     0.020 C 
ENDROOT
BRANCH   1   2
HETATM    2  C3  UNL     1       2.589  -1.209  -0.987  1.00  0.00     0.129 C 
BRANCH   2   3
HETATM    3  N1  UNL     1       3.062   0.098  -0.653  1.00  0.00    -0.352 N 
HETATM    4  C2  UNL     1       4.034   0.426   0.215  1.00  0.00     0.108 A 
HETATM    5  C1  UNL     1       4.179   1.807   0.242  1.00  0.00     0.106 A 
HETATM    6  N2  UNL     1       3.271   2.296  -0.628  1.00  0.00    -0.361 N 
HETATM    7  C12 UNL     1       2.600   1.250  -1.165  1.00  0.00     0.182 A 
ATOM      8  H2  UNL     1       3.117   3.281  -0.843  1.00  0.00     0.166 HD
ENDBRANCH   2   3
ENDBRANCH   1   2
BRANCH   1   9
HETATM    9  C5  UNL     1       0.258  -0.757  -0.194  1.00  0.00     0.002 C 
BRANCH   9  10
HETATM   10  C6  UNL     1      -0.786  -1.316   0.713  1.00  0.00     0.005 C 
BRANCH  10  11
HETATM   11  C7  UNL     1      -2.057  -0.547   0.768  1.00  0.00    -0.014 C 
HETATM   12  C8  UNL     1      -2.695  -0.476  -0.603  1.00  0.00     0.004 C 
HETATM   13  C9  UNL     1      -3.709   0.634  -0.405  1.00  0.00     0.000 C 
HETATM   14  C10 UNL     1      -3.011   1.621   0.470  1.00  0.00     0.000 C 
HETATM   15  C11 UNL     1      -1.961   0.843   1.266  1.00  0.00     0.004 C 
ENDBRANCH  10  11
ENDBRANCH   9  10
ENDBRANCH   1   9
TORSDOF 5
