REMARK  5 active torsions:
REMARK  status: ('A' for Active; 'I' for Inactive)
REMARK    1  A    between atoms: C3_3  and  C4_4 
REMARK    2  A    between atoms: C4_4  and  C5_5 
REMARK    3  A    between atoms: C5_5  and  S1_6 
REMARK    4  A    between atoms: S1_6  and  C6_7 
REMARK    5  A    between atoms: C6_7  and  C7_8 
ROOT
HETATM    1  C1  UNL     1       5.470   0.787   2.177  1.00  0.00     0.012 C 
HETATM    2  C2  UNL     1       4.524   0.589   1.450  1.00  0.00    -0.117 C 
HETATM    3  C3  UNL     1       3.377   0.352   0.575  1.00  0.00     0.093 C 
ENDROOT
BRANCH   3   4
HETATM    4  C4  UNL     1       3.065  -1.147   0.561  1.00  0.00     0.022 C 
BRANCH   4   5
HETATM    5  C5  UNL     1       1.875  -1.338  -0.356  1.00  0.00     0.075 C 
BRANCH   5   6
HETATM    6  S1  UNL     1       0.432  -0.411   0.235  1.00  0.00    -0.164 SA
BRANCH   6   7
HETATM    7  C6  UNL     1      -0.917  -0.713  -0.930  1.00  0.00     0.112 C 
BRANCH   7   8
HETATM    8  C7  UNL     1      -2.157   0.000  -0.545  1.00  0.00    -0.049 A 
HETATM    9  C8  UNL     1      -3.066  -0.631   0.279  1.00  0.00     0.008 A 
HETATM   10  C9  UNL     1      -4.242  -0.030   0.680  1.00  0.00     0.001 A 
HETATM   11  C10 UNL     1      -4.547   1.252   0.254  1.00  0.00     0.000 A 
HETATM   12  C11 UNL     1      -3.631   1.873  -0.569  1.00  0.00     0.001 A 
HETATM   13  C12 UNL     1      -2.456   1.273  -0.970  1.00  0.00     0.008 A 
ENDBRANCH   7   8
ENDBRANCH   6   7
ENDBRANCH   5   6
ENDBRANCH   4   5
ENDBRANCH   3   4
TORSDOF 5
