REMARK  11 active torsions:
REMARK  status: ('A' for Active; 'I' for Inactive)
REMARK    1  A    between atoms: N1_2  and  C3_4 
REMARK    2  A    between atoms: C3_4  and  C4_5 
REMARK    3  A    between atoms: C6_8  and  N2_9 
REMARK       I    between atoms: N2_9  and  C7_11 
REMARK       I    between atoms: C7_11  and  N4_15 
REMARK    4  A    between atoms: N4_15  and  N5_17 
REMARK    5  A    between atoms: N6_20  and  N7_21 
REMARK       I    between atoms: N7_21  and  C8_23 
REMARK    6  A    between atoms: C8_23  and  C9_25 
REMARK    7  A    between atoms: C9_25  and  C10_26 
REMARK    8  A    between atoms: C10_26  and  C11_28 
REMARK    9  A    between atoms: C11_28  and  N8_29 
REMARK   10  A    between atoms: C11_28  and  C12_33 
REMARK   11  A    between atoms: C12_33  and  O3_36 
ROOT
HETATM    1  C4  UNL     1      -2.912  -0.771  -0.880  1.00  0.00     0.071 A 
HETATM    2  C5  UNL     1      -4.189  -0.327  -1.023  1.00  0.00     0.082 A 
HETATM    3  S1  UNL     1      -4.123   1.270  -0.484  1.00  0.00    -0.061 SA
HETATM    4  C6  UNL     1      -2.453   1.311  -0.093  1.00  0.00     0.185 A 
HETATM    5  N6  UNL     1      -2.014   0.097  -0.393  1.00  0.00    -0.233 N 
ENDROOT
BRANCH   5   6
HETATM    6  N7  UNL     1      -0.655  -0.311  -0.269  1.00  0.00    -0.261 N 
HETATM    7  C8  UNL     1       0.424   0.329   0.266  1.00  0.00     0.243 C 
HETATM    8  O1  UNL     1       0.489   1.426   0.782  1.00  0.00    -0.271 OA
ATOM      9  H7  UNL     1      -0.455  -1.238  -0.644  1.00  0.00     0.190 HD
BRANCH   7  10
HETATM   10  C9  UNL     1       1.744  -0.427   0.217  1.00  0.00     0.185 C 
BRANCH  10  11
HETATM   11  C10 UNL     1       2.839   0.329   0.840  1.00  0.00     0.169 C 
HETATM   12  O2  UNL     1       2.687   1.484   1.279  1.00  0.00    -0.295 OA
BRANCH  11  13
HETATM   13  C11 UNL     1       4.204  -0.227   0.998  1.00  0.00     0.286 C 
BRANCH  13  14
HETATM   14  N8  UNL     1       4.888   0.649   1.988  1.00  0.00    -0.065 N 
ATOM     15  H83 UNL     1       4.877   1.637   1.735  1.00  0.00     0.275 HD
ATOM     16  H82 UNL     1       4.381   0.743   2.868  1.00  0.00     0.275 HD
ATOM     17  H81 UNL     1       5.827   0.266   2.097  1.00  0.00     0.275 HD
ENDBRANCH  13  14
BRANCH  13  18
HETATM   18  C12 UNL     1       4.984  -0.052  -0.295  1.00  0.00     0.086 C 
HETATM   19  C13 UNL     1       4.522  -0.904  -1.424  1.00  0.00     0.048 C 
HETATM   20  C14 UNL     1       4.968   1.394  -0.722  1.00  0.00     0.048 C 
BRANCH  18  21
HETATM   21  O3  UNL     1       6.319  -0.435  -0.014  1.00  0.00    -0.388 OA
ATOM     22  H3  UNL     1       6.806  -0.326  -0.822  1.00  0.00     0.210 HD
ENDBRANCH  18  21
ENDBRANCH  13  18
ENDBRANCH  11  13
ENDBRANCH  10  11
ENDBRANCH   7  10
ENDBRANCH   5   6
BRANCH   1  23
HETATM   23  C3  UNL     1      -2.603  -2.226  -1.252  1.00  0.00     0.330 C 
BRANCH  23  24
HETATM   24  N1  UNL     1      -3.811  -3.025  -1.112  1.00  0.00     0.085 N 
HETATM   25  C1  UNL     1      -3.551  -4.400  -1.488  1.00  0.00     0.309 C 
HETATM   26  C2  UNL     1      -4.333  -2.947   0.246  1.00  0.00     0.309 C 
ENDBRANCH  23  24
ENDBRANCH   1  23
BRANCH   4  27
HETATM   27  N2  UNL     1      -1.873   2.374   0.382  1.00  0.00    -0.167 N 
HETATM   28  C7  UNL     1      -2.610   3.552   0.595  1.00  0.00     0.692 C 
HETATM   29  N3  UNL     1      -3.318   4.046  -0.353  1.00  0.00    -0.233 N 
HETATM   30  N4  UNL     1      -2.572   4.191   1.851  1.00  0.00    -0.139 N 
ATOM     31  H32 UNL     1      -3.345   3.584  -1.262  1.00  0.00     0.174 HD
ATOM     32  H31 UNL     1      -3.853   4.901  -0.198  1.00  0.00     0.174 HD
ATOM     33  H4  UNL     1      -1.832   3.935   2.504  1.00  0.00     0.205 HD
ATOM     34  H2  UNL     1      -0.877   2.353   0.601  1.00  0.00     0.186 HD
BRANCH  30  35
HETATM   35  N5  UNL     1      -3.500   5.159   2.243  1.00  0.00    -0.331 N 
ATOM     36  H52 UNL     1      -4.233   5.403   1.577  1.00  0.00     0.177 HD
ATOM     37  H51 UNL     1      -3.473   5.621   3.152  1.00  0.00     0.177 HD
ENDBRANCH  30  35
ENDBRANCH   4  27
TORSDOF 11
