REMARK  7 active torsions:
REMARK  status: ('A' for Active; 'I' for Inactive)
REMARK       I    between atoms: C1_4  and  N2_5 
REMARK       I    between atoms: C1_4  and  N4_10 
REMARK    1  A    between atoms: N2_5  and  N3_7 
REMARK    2  A    between atoms: N4_10  and  C2_11 
REMARK    3  A    between atoms: N4_10  and  C4_15 
REMARK    4  A    between atoms: C2_11  and  C3_12 
REMARK    5  A    between atoms: C5_18  and  N6_19 
REMARK    6  A    between atoms: C10_24  and  N7_25 
REMARK    7  A    between atoms: C11_28  and  N8_29 
ROOT
HETATM    1  C4  UNL     1       1.139  -0.468  -0.092  1.00  0.00     0.702 A 
HETATM    2  N5  UNL     1      -0.052  -0.041   0.348  1.00  0.00    -0.173 N 
ATOM      3  H5  UNL     1      -0.099   0.479   1.224  1.00  0.00     0.186 HD
HETATM    4  C5  UNL     1      -1.208  -0.283  -0.345  1.00  0.00     0.156 A 
HETATM    5  C10 UNL     1      -1.083  -0.986  -1.516  1.00  0.00     0.191 A 
HETATM    6  C11 UNL     1       0.179  -1.420  -1.950  1.00  0.00     0.152 A 
HETATM    7  N9  UNL     1       1.277  -1.158  -1.236  1.00  0.00    -0.174 N 
ATOM      8  H9  UNL     1       2.195  -1.473  -1.551  1.00  0.00     0.186 HD
ENDROOT
BRANCH   1   9
HETATM    9  N4  UNL     1       2.302  -0.199   0.669  1.00  0.00    -0.003 N 
HETATM   10  C1  UNL     1       3.059   0.946   0.366  1.00  0.00     0.712 C 
HETATM   11  N1  UNL     1       2.532   2.101   0.490  1.00  0.00    -0.232 N 
HETATM   12  N2  UNL     1       4.395   0.776  -0.066  1.00  0.00    -0.071 N 
ATOM     13  H12 UNL     1       3.081   2.932   0.270  1.00  0.00     0.174 HD
ATOM     14  H11 UNL     1       1.569   2.224   0.802  1.00  0.00     0.174 HD
ATOM     15  H2  UNL     1       5.021   0.218   0.514  1.00  0.00     0.212 HD
BRANCH  12  16
HETATM   16  N3  UNL     1       4.903   1.328  -1.239  1.00  0.00    -0.024 N 
HETATM   17  O1  UNL     1       5.983   1.968  -1.260  1.00  0.00    -0.516 OA
HETATM   18  O2  UNL     1       4.229   1.185  -2.412  1.00  0.00    -0.516 OA
ENDBRANCH  12  16
BRANCH   9  19
HETATM   19  C2  UNL     1       2.643  -1.114   1.726  1.00  0.00     0.279 C 
BRANCH  19  20
HETATM   20  C3  UNL     1       2.465  -0.480   3.073  1.00  0.00     0.193 C 
HETATM   21  O3  UNL     1       2.718  -1.191   4.068  1.00  0.00    -0.647 OA
HETATM   22  O4  UNL     1       2.037   0.843   3.189  1.00  0.00    -0.647 OA
ENDBRANCH  19  20
ENDBRANCH   9  19
ENDBRANCH   1   9
BRANCH   4  23
HETATM   23  N6  UNL     1      -2.453   0.165   0.147  1.00  0.00    -0.365 N 
HETATM   24  C6  UNL     1      -3.484  -0.662   0.732  1.00  0.00     0.124 C 
HETATM   25  C7  UNL     1      -4.736  -0.103   0.090  1.00  0.00     0.021 C 
HETATM   26  C8  UNL     1      -4.457   1.389   0.210  1.00  0.00     0.021 C 
HETATM   27  C9  UNL     1      -2.964   1.540   0.180  1.00  0.00     0.124 C 
ENDBRANCH   4  23
BRANCH   6  28
HETATM   28  N8  UNL     1       0.296  -2.077  -3.042  1.00  0.00    -0.383 N 
ATOM     29  H82 UNL     1      -0.542  -2.277  -3.587  1.00  0.00     0.157 HD
ATOM     30  H81 UNL     1       1.213  -2.392  -3.357  1.00  0.00     0.157 HD
ENDBRANCH   6  28
BRANCH   5  31
HETATM   31  N7  UNL     1      -2.156  -1.306  -2.379  1.00  0.00    -0.108 N 
HETATM   32  O5  UNL     1      -2.889  -2.267  -2.146  1.00  0.00    -0.531 OA
HETATM   33  O6  UNL     1      -2.358  -0.551  -3.499  1.00  0.00    -0.531 OA
ENDBRANCH   5  31
TORSDOF 7
