REMARK  5 active torsions:
REMARK  status: ('A' for Active; 'I' for Inactive)
REMARK    1  A    between atoms: N1_2  and  C2_3 
REMARK    2  A    between atoms: N1_2  and  S2_24 
REMARK    3  A    between atoms: C2_3  and  C3_4 
REMARK    4  A    between atoms: C2_3  and  C10_13 
REMARK    5  A    between atoms: N5_20  and  C11_21 
ROOT
HETATM    1  C2  UNL     1      -1.070   0.933   0.123  1.00  0.00     0.170 C 
ENDROOT
BRANCH   1   2
HETATM    2  N1  UNL     1      -1.758   2.062  -0.443  1.00  0.00    -0.200 NA
HETATM    3  C1  UNL     1      -1.076   3.309  -0.289  1.00  0.00     0.130 C 
BRANCH   2   4
HETATM    4  S2  UNL     1      -3.339   2.253   0.239  1.00  0.00     0.208 S 
HETATM    5  C14 UNL     1      -4.257   3.495  -0.603  1.00  0.00     0.180 C 
HETATM    6  O2  UNL     1      -4.025   0.910   0.212  1.00  0.00    -0.212 OA
HETATM    7  O3  UNL     1      -3.144   2.712   1.664  1.00  0.00    -0.212 OA
ENDBRANCH   2   4
ENDBRANCH   1   2
BRANCH   1   8
HETATM    8  C3  UNL     1       0.165   1.295   0.849  1.00  0.00     0.045 C 
HETATM    9  C4  UNL     1       1.324   0.689   0.769  1.00  0.00     0.104 C 
HETATM   10  O1  UNL     1       1.598  -0.419  -0.026  1.00  0.00    -0.334 OA
HETATM   11  S1  UNL     1       2.707   1.282   1.732  1.00  0.00    -0.105 SA
HETATM   12  C5  UNL     1       2.919  -0.968  -0.059  1.00  0.00     0.062 C 
HETATM   13  C6  UNL     1       3.886  -0.051  -0.764  1.00  0.00     0.046 C 
HETATM   14  C7  UNL     1       2.831  -2.244  -0.866  1.00  0.00     0.046 C 
HETATM   15  C8  UNL     1       3.344  -1.312   1.336  1.00  0.00     0.048 C 
HETATM   16  C9  UNL     1       3.744  -0.122   2.155  1.00  0.00     0.084 C 
ENDBRANCH   1   8
BRANCH   1  17
HETATM   17  C10 UNL     1      -0.883  -0.054  -0.959  1.00  0.00     0.138 A 
HETATM   18  N2  UNL     1      -0.438   0.229  -2.200  1.00  0.00    -0.270 N 
HETATM   19  N3  UNL     1      -0.400  -0.874  -2.909  1.00  0.00    -0.227 N 
ATOM     20  H2  UNL     1      -0.173   1.155  -2.535  1.00  0.00     0.190 HD
HETATM   21  N4  UNL     1      -0.806  -1.886  -2.174  1.00  0.00    -0.224 N 
ATOM     22  H3  UNL     1      -0.101  -0.937  -3.882  1.00  0.00     0.210 HD
HETATM   23  N5  UNL     1      -1.104  -1.384  -0.974  1.00  0.00    -0.257 N 
ATOM     24  H4  UNL     1      -0.879  -2.861  -2.464  1.00  0.00     0.210 HD
BRANCH  23  25
HETATM   25  C11 UNL     1      -1.595  -2.155   0.148  1.00  0.00     0.111 A 
HETATM   26  C12 UNL     1      -1.918  -3.606  -0.080  1.00  0.00     0.029 A 
HETATM   27  C13 UNL     1      -3.009  -2.603   0.197  1.00  0.00     0.029 A 
ENDBRANCH  23  25
ENDBRANCH   1  17
TORSDOF 5
