REMARK  5 active torsions:
REMARK  status: ('A' for Active; 'I' for Inactive)
REMARK    1  A    between atoms: C2_2  and  N1_3 
REMARK    2  A    between atoms: N1_3  and  C4_5 
REMARK    3  A    between atoms: C6_10  and  C7_11 
REMARK    4  A    between atoms: C7_11  and  N3_12 
REMARK    5  A    between atoms: N4_15  and  C10_16 
ROOT
HETATM    1  C4  UNL     1       5.355   0.791  -0.897  1.00  0.00     0.697 A 
HETATM    2  N2  UNL     1       4.238   1.562  -0.903  1.00  0.00    -0.167 N 
ATOM      3  H2  UNL     1       4.182   2.570  -1.048  1.00  0.00     0.186 HD
HETATM    4  C5  UNL     1       3.201   0.696  -0.673  1.00  0.00     0.186 A 
HETATM    5  S1  UNL     1       1.516   0.560  -0.486  1.00  0.00    -0.052 SA
HETATM    6  C6  UNL     1       1.416  -1.116  -0.225  1.00  0.00     0.028 A 
HETATM    7  C18 UNL     1       2.740  -1.498  -0.299  1.00  0.00     0.048 A 
HETATM    8  C19 UNL     1       3.103  -2.972  -0.111  1.00  0.00     0.071 C 
HETATM    9  N5  UNL     1       3.628  -0.547  -0.529  1.00  0.00    -0.222 N 
HETATM   10  N6  UNL     1       4.975  -0.466  -0.673  1.00  0.00    -0.123 N 
ATOM     11  H6  UNL     1       5.611  -1.261  -0.617  1.00  0.00     0.206 HD
ENDROOT
BRANCH   6  12
HETATM   12  C7  UNL     1       0.244  -2.035   0.002  1.00  0.00     0.165 C 
BRANCH  12  13
HETATM   13  N3  UNL     1      -0.944  -1.267   0.053  1.00  0.00    -0.405 N 
HETATM   14  C8  UNL     1      -1.148  -0.405   1.151  1.00  0.00     0.136 C 
HETATM   15  C9  UNL     1      -2.423   0.414   0.873  1.00  0.00     0.136 C 
HETATM   16  N4  UNL     1      -3.542  -0.444   0.820  1.00  0.00    -0.405 N 
HETATM   17  C16 UNL     1      -3.311  -1.767   0.342  1.00  0.00     0.136 C 
HETATM   18  C17 UNL     1      -2.094  -1.888  -0.515  1.00  0.00     0.136 C 
BRANCH  16  19
HETATM   19  C10 UNL     1      -4.798   0.089   0.489  1.00  0.00     0.079 C 
HETATM   20  C11 UNL     1      -5.371   1.109   1.444  1.00  0.00     0.025 C 
HETATM   21  C12 UNL     1      -6.876   1.140   1.147  1.00  0.00     0.002 C 
HETATM   22  C13 UNL     1      -7.125   1.584  -0.258  1.00  0.00     0.000 C 
HETATM   23  C14 UNL     1      -6.283   0.907  -1.293  1.00  0.00     0.002 C 
HETATM   24  C15 UNL     1      -4.841   0.725  -0.893  1.00  0.00     0.025 C 
ENDBRANCH  16  19
ENDBRANCH  12  13
ENDBRANCH   6  12
BRANCH   1  25
HETATM   25  N1  UNL     1       6.690   1.265  -1.091  1.00  0.00    -0.221 N 
HETATM   26  C3  UNL     1       6.908   2.683  -1.275  1.00  0.00     0.168 C 
BRANCH  25  27
HETATM   27  C2  UNL     1       7.841   0.394  -1.100  1.00  0.00     0.136 C 
HETATM   28  C1  UNL     1       8.667   0.661   0.155  1.00  0.00     0.027 C 
ENDBRANCH  25  27
ENDBRANCH   1  25
TORSDOF 5
