REMARK  5 active torsions:
REMARK  status: ('A' for Active; 'I' for Inactive)
REMARK    1  A    between atoms: C2_2  and  C3_3 
REMARK    2  A    between atoms: C3_3  and  C4_4 
REMARK    3  A    between atoms: C4_4  and  N1_5 
REMARK    4  A    between atoms: C5_6  and  C6_7 
REMARK    5  A    between atoms: C11_18  and  N4_19 
ROOT
HETATM    1  N1  UNL     1      -0.351   0.150  -0.057  1.00  0.00    -0.319 N 
HETATM    2  C5  UNL     1      -1.218  -0.695   0.500  1.00  0.00     0.109 A 
HETATM    3  N2  UNL     1      -2.370  -0.011   0.664  1.00  0.00    -0.337 N 
ATOM      4  H2  UNL     1      -3.217  -0.407   1.072  1.00  0.00     0.167 HD
HETATM    5  C9  UNL     1      -2.266   1.251   0.226  1.00  0.00     0.148 A 
HETATM    6  C10 UNL     1      -3.068   2.362   0.141  1.00  0.00     0.290 A 
HETATM    7  O1  UNL     1      -4.239   2.299   0.547  1.00  0.00    -0.265 OA
HETATM    8  N3  UNL     1      -2.580   3.505  -0.380  1.00  0.00    -0.154 N 
ATOM      9  H3  UNL     1      -3.188   4.322  -0.437  1.00  0.00     0.187 HD
HETATM   10  C11 UNL     1      -1.317   3.601  -0.826  1.00  0.00     0.680 A 
HETATM   11  N5  UNL     1      -0.554   2.514  -0.735  1.00  0.00    -0.174 N 
ATOM     12  H5  UNL     1       0.408   2.570  -1.070  1.00  0.00     0.186 HD
HETATM   13  C12 UNL     1      -0.987   1.335  -0.221  1.00  0.00     0.157 A 
ENDROOT
BRANCH   1  14
HETATM   14  C4  UNL     1       1.013  -0.054  -0.474  1.00  0.00     0.132 C 
BRANCH  14  15
HETATM   15  C3  UNL     1       2.076   0.204   0.532  1.00  0.00     0.020 C 
BRANCH  15  16
HETATM   16  C2  UNL     1       3.480   0.077  -0.015  1.00  0.00    -0.003 C 
HETATM   17  C1  UNL     1       3.843  -1.254  -0.584  1.00  0.00     0.005 C 
ENDBRANCH  15  16
ENDBRANCH  14  15
ENDBRANCH   1  14
BRANCH   2  18
HETATM   18  C6  UNL     1      -1.041  -2.097   0.905  1.00  0.00     0.088 C 
HETATM   19  C7  UNL     1      -2.467  -2.646   1.177  1.00  0.00     0.041 C 
HETATM   20  C8  UNL     1      -0.510  -3.056  -0.083  1.00  0.00     0.041 C 
HETATM   21 CL1  UNL     1      -0.294  -2.287   2.525  1.00  0.00    -0.112 Cl
ENDBRANCH   2  18
BRANCH  10  22
HETATM   22  N4  UNL     1      -0.882   4.732  -1.315  1.00  0.00    -0.234 N 
ATOM     23  H42 UNL     1      -1.467   5.565  -1.385  1.00  0.00     0.174 HD
ATOM     24  H41 UNL     1       0.077   4.805  -1.654  1.00  0.00     0.174 HD
ENDBRANCH  10  22
TORSDOF 5
