REMARK  5 active torsions:
REMARK  status: ('A' for Active; 'I' for Inactive)
REMARK    1  A    between atoms: O1_2  and  C2_3 
REMARK    2  A    between atoms: C5_9  and  N2_10 
REMARK    3  A    between atoms: N2_10  and  C6_12 
REMARK    4  A    between atoms: C7_15  and  C8_16 
REMARK    5  A    between atoms: C12_22  and  N5_23 
ROOT
HETATM    1  C6  UNL     1      -0.635  -1.357  -0.749  1.00  0.00     0.151 A 
HETATM    2  N3  UNL     1      -1.194  -0.150  -0.620  1.00  0.00    -0.341 N 
ATOM      3  H3  UNL     1      -0.587   0.668  -0.570  1.00  0.00     0.167 HD
HETATM    4  C7  UNL     1      -2.520   0.029  -0.554  1.00  0.00     0.030 A 
HETATM    5  C11 UNL     1      -3.302  -1.118  -0.628  1.00  0.00     0.115 A 
HETATM    6  N4  UNL     1      -2.763  -2.337  -0.758  1.00  0.00    -0.348 N 
ATOM      7  H4  UNL     1      -3.362  -3.161  -0.810  1.00  0.00     0.167 HD
HETATM    8  C12 UNL     1      -1.434  -2.465  -0.819  1.00  0.00     0.143 A 
ENDROOT
BRANCH   1   9
HETATM    9  N2  UNL     1       0.632  -1.532  -0.813  1.00  0.00    -0.325 N 
ATOM     10  H2  UNL     1       0.953  -2.495  -0.913  1.00  0.00     0.169 HD
BRANCH   9  11
HETATM   11  C5  UNL     1       1.620  -0.549  -0.761  1.00  0.00     0.115 A 
HETATM   12  N1  UNL     1       1.683   0.350  -1.761  1.00  0.00    -0.349 N 
HETATM   13  C4  UNL     1       2.597   1.335  -1.804  1.00  0.00     0.135 A 
ATOM     14  H1  UNL     1       1.006   0.281  -2.521  1.00  0.00     0.167 HD
HETATM   15  C3  UNL     1       3.537   1.484  -0.810  1.00  0.00     0.165 A 
HETATM   16  C2  UNL     1       3.485   0.562   0.232  1.00  0.00     0.117 A 
HETATM   17  F1  UNL     1       4.475   2.461  -0.813  1.00  0.00    -0.202 F 
HETATM   18  C13 UNL     1       2.540  -0.450   0.268  1.00  0.00     0.019 A 
HETATM   19  C14 UNL     1       2.512  -1.412   1.387  1.00  0.00     0.055 C 
BRANCH  16  20
HETATM   20  O1  UNL     1       4.390   0.647   1.257  1.00  0.00    -0.352 OA
HETATM   21  C1  UNL     1       4.243   1.370   2.438  1.00  0.00     0.210 C 
ENDBRANCH  16  20
ENDBRANCH   9  11
ENDBRANCH   1   9
BRANCH   8  22
HETATM   22  N5  UNL     1      -0.940  -3.666  -0.946  1.00  0.00    -0.382 N 
ATOM     23  H52 UNL     1       0.074  -3.764  -0.993  1.00  0.00     0.157 HD
ATOM     24  H51 UNL     1      -1.536  -4.492  -0.998  1.00  0.00     0.157 HD
ENDBRANCH   8  22
BRANCH   4  25
HETATM   25  C8  UNL     1      -3.183   1.349  -0.410  1.00  0.00     0.037 A 
HETATM   26  C9  UNL     1      -4.569   1.559  -0.882  1.00  0.00     0.011 A 
HETATM   27  C10 UNL     1      -4.352   1.381   0.598  1.00  0.00     0.011 A 
ENDBRANCH   4  25
TORSDOF 5
