REMARK  8 active torsions:
REMARK  status: ('A' for Active; 'I' for Inactive)
REMARK    1  A    between atoms: C2_2  and  C3_3 
REMARK    2  A    between atoms: C3_3  and  O1_4 
REMARK    3  A    between atoms: O1_4  and  C4_5 
REMARK    4  A    between atoms: C4_5  and  O3_7 
REMARK    5  A    between atoms: O3_7  and  C5_8 
REMARK    6  A    between atoms: C7_11  and  O5_12 
REMARK    7  A    between atoms: C16_24  and  C17_25 
REMARK    8  A    between atoms: C24_32  and  O7_33 
ROOT
HETATM    1  C5  UNL     1       1.101   0.002  -1.611  1.00  0.00     0.306 C 
HETATM    2  O4  UNL     1       0.395   1.173  -1.281  1.00  0.00    -0.316 OA
HETATM    3  C6  UNL     1       0.176   1.838   0.002  1.00  0.00     0.112 C 
HETATM    4  C7  UNL     1      -0.392   1.175   0.973  1.00  0.00     0.216 C 
HETATM    5  O6  UNL     1      -0.938  -0.137   0.771  1.00  0.00    -0.260 OA
HETATM    6  C8  UNL     1      -2.226  -0.255   0.039  1.00  0.00     0.203 C 
HETATM    7  N1  UNL     1      -2.949   0.614  -0.376  1.00  0.00    -0.396 NA
HETATM    8  C9  UNL     1      -3.535   1.783  -0.714  1.00  0.00     0.191 C 
HETATM    9  C10 UNL     1      -3.041   3.045  -0.872  1.00  0.00    -0.037 C 
HETATM   10  C11 UNL     1      -3.885   4.181  -1.254  1.00  0.00     0.050 C 
HETATM   11  C12 UNL     1      -1.644   3.149  -0.603  1.00  0.00    -0.017 C 
HETATM   12  C13 UNL     1      -0.552   4.042  -0.877  1.00  0.00     0.038 C 
HETATM   13  C14 UNL     1       0.658   3.236  -0.172  1.00  0.00     0.047 C 
HETATM   14  C15 UNL     1       0.983   4.104   0.969  1.00  0.00     0.017 C 
HETATM   15  C16 UNL     1      -2.433  -1.797  -0.078  1.00  0.00     0.079 C 
HETATM   16  C20 UNL     1      -1.200  -2.177  -0.752  1.00  0.00     0.018 C 
HETATM   17  C21 UNL     1      -0.876  -3.004  -1.881  1.00  0.00    -0.015 C 
HETATM   18  C22 UNL     1      -0.517  -4.416  -1.457  1.00  0.00     0.010 C 
HETATM   19  C23 UNL     1       0.505  -2.393  -2.324  1.00  0.00     0.041 C 
HETATM   20  C24 UNL     1       0.492  -0.934  -2.596  1.00  0.00     0.174 C 
ENDROOT
BRANCH   1  21
HETATM   21  O3  UNL     1       1.630  -0.570  -0.444  1.00  0.00    -0.263 OA
BRANCH  21  22
HETATM   22  C4  UNL     1       2.961  -0.560  -0.057  1.00  0.00     0.408 C 
HETATM   23  O2  UNL     1       3.745   0.021  -0.844  1.00  0.00    -0.229 OA
BRANCH  22  24
HETATM   24  O1  UNL     1       3.426  -1.136   1.098  1.00  0.00    -0.298 OA
BRANCH  24  25
HETATM   25  C3  UNL     1       4.767  -1.117   1.474  1.00  0.00     0.180 C 
BRANCH  25  26
HETATM   26  C2  UNL     1       5.367   0.232   1.682  1.00  0.00     0.022 C 
HETATM   27  C1  UNL     1       6.837   0.116   2.092  1.00  0.00     0.007 C 
ENDBRANCH  25  26
ENDBRANCH  24  25
ENDBRANCH  22  24
ENDBRANCH  21  22
ENDBRANCH   1  21
BRANCH  20  28
HETATM   28  O7  UNL     1       1.290  -0.843  -3.792  1.00  0.00    -0.391 OA
ATOM     29  H7  UNL     1       0.901  -1.440  -4.420  1.00  0.00     0.210 HD
ENDBRANCH  20  28
BRANCH   4  30
HETATM   30  O5  UNL     1      -0.717   1.420   2.323  1.00  0.00    -0.339 OA
ATOM     31  H5  UNL     1      -1.130   0.938   3.029  1.00  0.00     0.220 HD
ENDBRANCH   4  30
BRANCH  15  32
HETATM   32  C17 UNL     1      -2.610  -2.269   1.336  1.00  0.00    -0.010 C 
HETATM   33  C18 UNL     1      -3.825  -1.569   1.927  1.00  0.00     0.010 C 
HETATM   34  C19 UNL     1      -2.905  -3.753   1.378  1.00  0.00     0.010 C 
ENDBRANCH  15  32
TORSDOF 8
