REMARK  8 active torsions:
REMARK  status: ('A' for Active; 'I' for Inactive)
REMARK    1  A    between atoms: C3_3  and  C4_4 
REMARK    2  A    between atoms: C4_4  and  C5_6 
REMARK    3  A    between atoms: C5_6  and  O2_7 
REMARK    4  A    between atoms: O2_7  and  C6_8 
REMARK    5  A    between atoms: C6_8  and  C7_10 
REMARK    6  A    between atoms: C10_16  and  N2_17 
REMARK    7  A    between atoms: N4_24  and  O6_25 
REMARK    8  A    between atoms: N5_29  and  O8_30 
ROOT
HETATM    1  C5  UNL     1      -0.424  -0.383   0.080  1.00  0.00     0.263 C 
ENDROOT
BRANCH   1   2
HETATM    2  C4  UNL     1      -1.383   0.626   0.596  1.00  0.00     0.191 C 
HETATM    3  O1  UNL     1      -1.001   1.754   1.021  1.00  0.00    -0.290 OA
BRANCH   2   4
HETATM    4  C3  UNL     1      -2.796   0.256   0.590  1.00  0.00     0.107 A 
HETATM    5  C2  UNL     1      -3.599   0.526  -0.506  1.00  0.00     0.061 A 
HETATM    6  C1  UNL     1      -3.046   1.201  -1.709  1.00  0.00     0.072 C 
HETATM    7  N5  UNL     1      -4.899   0.180  -0.499  1.00  0.00    -0.174 N 
HETATM    8  C12 UNL     1      -5.447  -0.441   0.584  1.00  0.00     0.380 A 
HETATM    9  N4  UNL     1      -4.703  -0.722   1.669  1.00  0.00    -0.131 N 
HETATM   10  O7  UNL     1      -6.662  -0.765   0.591  1.00  0.00    -0.242 OA
HETATM   11  C11 UNL     1      -3.403  -0.373   1.656  1.00  0.00     0.291 A 
HETATM   12  O5  UNL     1      -2.720  -0.642   2.678  1.00  0.00    -0.265 OA
BRANCH   7  13
HETATM   13  O8  UNL     1      -5.694   0.449  -1.587  1.00  0.00    -0.279 OA
ATOM     14  H8  UNL     1      -6.612   0.205  -1.582  1.00  0.00     0.245 HD
ENDBRANCH   7  13
BRANCH   9  15
HETATM   15  O6  UNL     1      -5.266  -1.356   2.773  1.00  0.00    -0.276 OA
ATOM     16  H6  UNL     1      -6.183  -1.602   2.782  1.00  0.00     0.245 HD
ENDBRANCH   9  15
ENDBRANCH   2   4
ENDBRANCH   1   2
BRANCH   1  17
HETATM   17  O2  UNL     1       0.914   0.128   0.152  1.00  0.00    -0.309 OA
BRANCH  17  18
HETATM   18  C6  UNL     1       1.963  -0.652  -0.279  1.00  0.00     0.311 C 
HETATM   19  O3  UNL     1       1.708  -1.798  -0.725  1.00  0.00    -0.258 OA
BRANCH  18  20
HETATM   20  C7  UNL     1       3.344  -0.186  -0.230  1.00  0.00     0.129 A 
HETATM   21  C8  UNL     1       3.685   1.060   0.248  1.00  0.00     0.111 A 
HETATM   22  C9  UNL     1       5.015   1.449   0.270  1.00  0.00     0.261 A 
HETATM   23  O4  UNL     1       5.333   2.581   0.704  1.00  0.00    -0.268 OA
HETATM   24  N1  UNL     1       6.010   0.634  -0.169  1.00  0.00    -0.156 N 
HETATM   25  C10 UNL     1       5.634  -0.573  -0.628  1.00  0.00     0.679 A 
ATOM     26  H1  UNL     1       6.988   0.922  -0.151  1.00  0.00     0.187 HD
HETATM   27  N3  UNL     1       4.348  -0.968  -0.657  1.00  0.00    -0.186 N 
ATOM     28  H3  UNL     1       4.128  -1.897  -1.017  1.00  0.00     0.184 HD
BRANCH  25  29
HETATM   29  N2  UNL     1       6.545  -1.369  -1.051  1.00  0.00    -0.234 N 
ATOM     30  H22 UNL     1       7.520  -1.070  -1.029  1.00  0.00     0.174 HD
ATOM     31  H21 UNL     1       6.260  -2.284  -1.399  1.00  0.00     0.174 HD
ENDBRANCH  25  29
ENDBRANCH  18  20
ENDBRANCH  17  18
ENDBRANCH   1  17
TORSDOF 8
