REMARK  4 active torsions:
REMARK  status: ('A' for Active; 'I' for Inactive)
REMARK    1  A    between atoms: O1_2  and  C2_3 
REMARK    2  A    between atoms: C2_3  and  C3_4 
REMARK    3  A    between atoms: C5_7  and  O3_8 
REMARK    4  A    between atoms: C10_14  and  N1_15 
ROOT
HETATM    1  C3  UNL     1       1.315  -0.341   0.038  1.00  0.00     0.168 C 
HETATM    2  O2  UNL     1       0.583  -1.539   0.241  1.00  0.00    -0.373 OA
HETATM    3  C4  UNL     1      -0.620  -1.420  -0.415  1.00  0.00     0.157 C 
HETATM    4  C5  UNL     1      -1.709  -1.991   0.466  1.00  0.00     0.147 C 
HETATM    5  C6  UNL     1      -3.092  -1.671   0.018  1.00  0.00     0.034 C 
HETATM    6  C7  UNL     1      -3.163  -0.557  -1.007  1.00  0.00     0.003 C 
HETATM    7  C8  UNL     1      -2.195   0.524  -0.500  1.00  0.00     0.009 C 
HETATM    8  C9  UNL     1      -0.819   0.003  -0.791  1.00  0.00     0.042 C 
HETATM    9  C10 UNL     1       0.235   0.699   0.080  1.00  0.00     0.115 C 
ENDROOT
BRANCH   1  10
HETATM   10  C2  UNL     1       2.230  -0.252   1.250  1.00  0.00     0.201 C 
BRANCH  10  11
HETATM   11  O1  UNL     1       3.067  -1.344   1.387  1.00  0.00    -0.393 OA
HETATM   12  C1  UNL     1       3.899  -1.483   0.303  1.00  0.00     0.201 C 
ENDBRANCH  10  11
ENDBRANCH   1  10
BRANCH   9  13
HETATM   13  N1  UNL     1       0.468   1.947  -0.495  1.00  0.00    -0.414 N 
HETATM   14  C11 UNL     1      -0.232   3.009   0.194  1.00  0.00     0.143 C 
HETATM   15  C12 UNL     1       1.760   2.353  -0.864  1.00  0.00     0.143 C 
ENDBRANCH   9  13
BRANCH   4  16
HETATM   16  O3  UNL     1      -1.501  -1.632   1.816  1.00  0.00    -0.393 OA
ATOM     17  H3  UNL     1      -2.185  -1.991   2.369  1.00  0.00     0.210 HD
ENDBRANCH   4  16
TORSDOF 4
