REMARK  10 active torsions:
REMARK  status: ('A' for Active; 'I' for Inactive)
REMARK    1  A    between atoms: C2_2  and  C3_3 
REMARK    2  A    between atoms: C3_3  and  C4_4 
REMARK    3  A    between atoms: C4_4  and  C5_5 
REMARK    4  A    between atoms: C5_5  and  O1_6 
REMARK    5  A    between atoms: O1_6  and  C6_7 
REMARK    6  A    between atoms: N1_10  and  C9_11 
REMARK    7  A    between atoms: N2_13  and  C10_14 
REMARK    8  A    between atoms: C10_14  and  C11_15 
REMARK       I    between atoms: C11_15  and  N3_17 
REMARK    9  A    between atoms: N3_17  and  C12_19 
REMARK   10  A    between atoms: C21_30  and  O4_31 
ROOT
HETATM    1  C9  UNL     1      -0.861   1.402   0.455  1.00  0.00     0.141 A 
HETATM    2  S1  UNL     1      -0.121   0.373   1.585  1.00  0.00     0.013 SA
HETATM    3  N2  UNL     1       0.937   1.669   1.638  1.00  0.00    -0.285 N 
HETATM    4  C21 UNL     1       0.166   2.277   0.723  1.00  0.00     0.185 A 
ENDROOT
BRANCH   3   5
HETATM    5  C10 UNL     1       2.168   1.937   2.398  1.00  0.00     0.242 C 
BRANCH   5   6
HETATM    6  C11 UNL     1       3.281   1.396   1.524  1.00  0.00     0.241 C 
HETATM    7  O2  UNL     1       3.835   2.193   0.746  1.00  0.00    -0.271 OA
HETATM    8  N3  UNL     1       3.572   0.030   1.689  1.00  0.00    -0.326 N 
ATOM      9  H3  UNL     1       3.010  -0.474   2.375  1.00  0.00     0.169 HD
BRANCH   8  10
HETATM   10  C12 UNL     1       4.563  -0.726   1.005  1.00  0.00     0.035 A 
HETATM   11  C13 UNL     1       4.530  -2.128   1.050  1.00  0.00     0.032 A 
HETATM   12  C14 UNL     1       5.487  -2.872   0.408  1.00  0.00     0.039 A 
HETATM   13  C15 UNL     1       6.519  -2.320  -0.305  1.00  0.00     0.077 A 
HETATM   14  C16 UNL     1       6.569  -0.949  -0.361  1.00  0.00     0.011 A 
HETATM   15  O3  UNL     1       7.485  -3.086  -0.953  1.00  0.00    -0.350 OA
HETATM   16  C17 UNL     1       5.605  -0.183   0.286  1.00  0.00     0.042 A 
HETATM   17  C18 UNL     1       7.672  -0.323  -1.122  1.00  0.00     0.208 C 
HETATM   18  F1  UNL     1       7.457  -0.332  -2.476  1.00  0.00    -0.244 F 
HETATM   19  C19 UNL     1       8.921  -1.146  -0.774  1.00  0.00     0.069 C 
HETATM   20  C20 UNL     1       8.799  -2.576  -1.187  1.00  0.00     0.178 C 
ENDBRANCH   8  10
ENDBRANCH   5   6
ENDBRANCH   3   5
BRANCH   4  21
HETATM   21  O4  UNL     1       0.374   3.557   0.154  1.00  0.00    -0.344 OA
ATOM     22  H4  UNL     1       1.083   4.161   0.339  1.00  0.00     0.219 HD
ENDBRANCH   4  21
BRANCH   1  23
HETATM   23  N1  UNL     1      -2.021   1.369  -0.390  1.00  0.00    -0.367 N 
HETATM   24  C8  UNL     1      -2.852   0.208  -0.363  1.00  0.00     0.165 C 
HETATM   25  C4  UNL     1      -4.332   0.487  -0.341  1.00  0.00     0.162 C 
HETATM   26  N4  UNL     1      -4.612   1.898  -0.469  1.00  0.00    -0.061 N 
HETATM   27  C23 UNL     1      -3.817   2.541  -1.483  1.00  0.00     0.253 C 
ATOM     28  H42 UNL     1      -5.606   2.058  -0.630  1.00  0.00     0.278 HD
ATOM     29  H41 UNL     1      -4.510   2.372   0.428  1.00  0.00     0.278 HD
HETATM   30  C22 UNL     1      -2.353   2.471  -1.252  1.00  0.00     0.151 C 
BRANCH  25  31
HETATM   31  C3  UNL     1      -4.900   0.035   0.981  1.00  0.00     0.042 C 
BRANCH  31  32
HETATM   32  C2  UNL     1      -4.310   0.724   2.162  1.00  0.00    -0.002 C 
HETATM   33  C1  UNL     1      -4.992   0.154   3.414  1.00  0.00     0.005 C 
ENDBRANCH  31  32
ENDBRANCH  25  31
BRANCH  25  34
HETATM   34  C5  UNL     1      -5.006  -0.280  -1.466  1.00  0.00     0.208 C 
BRANCH  34  35
HETATM   35  O1  UNL     1      -4.755  -1.645  -1.375  1.00  0.00    -0.389 OA
BRANCH  35  36
HETATM   36  C6  UNL     1      -5.392  -2.294  -2.423  1.00  0.00     0.163 C 
HETATM   37  C7  UNL     1      -6.870  -2.039  -2.324  1.00  0.00     0.033 C 
ENDBRANCH  35  36
ENDBRANCH  34  35
ENDBRANCH  25  34
ENDBRANCH   1  23
TORSDOF 10
