REMARK  6 active torsions:
REMARK  status: ('A' for Active; 'I' for Inactive)
REMARK    1  A    between atoms: C2_2  and  O1_3 
REMARK    2  A    between atoms: O1_3  and  C3_4 
REMARK    3  A    between atoms: C11_12  and  O2_13 
REMARK    4  A    between atoms: O2_13  and  C12_14 
REMARK    5  A    between atoms: C18_22  and  C20_24 
REMARK    6  A    between atoms: C20_24  and  O5_25 
ROOT
HETATM    1  C3  UNL     1       5.195  -0.183   0.364  1.00  0.00     0.126 C 
HETATM    2  C4  UNL     1       4.652  -0.473   1.745  1.00  0.00     0.066 C 
HETATM    3  C5  UNL     1       3.202  -0.645   1.507  1.00  0.00    -0.072 C 
HETATM    4  C6  UNL     1       2.315  -1.381   2.141  1.00  0.00    -0.023 C 
HETATM    5  C7  UNL     1       0.872  -1.459   1.788  1.00  0.00     0.033 C 
HETATM    6  C8  UNL     1       0.590  -0.194   0.991  1.00  0.00     0.003 C 
HETATM    7  C9  UNL     1      -0.866  -0.115   0.772  1.00  0.00    -0.003 C 
HETATM    8  C10 UNL     1      -1.584  -1.446   0.727  1.00  0.00     0.039 C 
HETATM    9  C11 UNL     1      -3.030  -1.103   0.983  1.00  0.00     0.148 C 
HETATM   10  C14 UNL     1      -3.573   0.043   0.278  1.00  0.00     0.048 C 
HETATM   11  C15 UNL     1      -4.490   0.823   1.255  1.00  0.00     0.026 C 
HETATM   12  C16 UNL     1      -4.484  -0.321  -0.837  1.00  0.00     0.139 C 
HETATM   13  O4  UNL     1      -4.869  -1.421  -1.114  1.00  0.00    -0.297 OA
HETATM   14  C17 UNL     1      -4.780   0.980  -1.491  1.00  0.00     0.090 C 
HETATM   15  C18 UNL     1      -3.343   1.524  -1.594  1.00  0.00    -0.011 C 
HETATM   16  C19 UNL     1      -3.472   3.026  -1.652  1.00  0.00     0.018 C 
HETATM   17  C21 UNL     1      -2.665   1.027  -0.352  1.00  0.00     0.019 C 
HETATM   18  C22 UNL     1      -1.273   0.582  -0.512  1.00  0.00    -0.004 C 
HETATM   19  C23 UNL     1      -0.258   1.696  -0.638  1.00  0.00     0.006 C 
HETATM   20  C24 UNL     1       1.003   1.001  -1.126  1.00  0.00     0.011 C 
HETATM   21  C25 UNL     1       1.483  -0.074  -0.201  1.00  0.00    -0.029 C 
HETATM   22  C26 UNL     1       1.607  -1.356  -0.994  1.00  0.00     0.016 C 
HETATM   23  C27 UNL     1       2.873   0.214   0.343  1.00  0.00    -0.011 C 
HETATM   24  C28 UNL     1       3.050   1.685   0.652  1.00  0.00     0.021 C 
HETATM   25  C29 UNL     1       3.986  -0.178  -0.586  1.00  0.00     0.046 C 
ENDROOT
BRANCH   9  26
HETATM   26  O2  UNL     1      -3.796  -2.270   0.780  1.00  0.00    -0.315 OA
BRANCH  26  27
HETATM   27  C12 UNL     1      -4.427  -2.977   1.786  1.00  0.00     0.255 C 
HETATM   28  C13 UNL     1      -5.229  -4.202   1.562  1.00  0.00     0.126 C 
HETATM   29  O3  UNL     1      -4.304  -2.539   2.960  1.00  0.00    -0.266 OA
ENDBRANCH  26  27
ENDBRANCH   9  26
BRANCH  15  30
HETATM   30  C20 UNL     1      -2.758   1.040  -2.870  1.00  0.00     0.173 C 
BRANCH  30  31
HETATM   31  O5  UNL     1      -3.488   1.473  -3.987  1.00  0.00    -0.400 OA
ATOM     32  H5  UNL     1      -3.114   1.163  -4.803  1.00  0.00     0.209 HD
ENDBRANCH  30  31
ENDBRANCH  15  30
BRANCH   1  33
HETATM   33  O1  UNL     1       5.881   1.001   0.288  1.00  0.00    -0.386 OA
BRANCH  33  34
HETATM   34  C2  UNL     1       7.185   0.805  -0.084  1.00  0.00     0.163 C 
HETATM   35  C1  UNL     1       7.352   0.148  -1.427  1.00  0.00     0.033 C 
ENDBRANCH  33  34
ENDBRANCH   1  33
TORSDOF 6
