REMARK  1 active torsions:
REMARK  status: ('A' for Active; 'I' for Inactive)
REMARK    1  A    between atoms: C3_3  and  C4_4 
ROOT
HETATM    1  C1  UNL     1       2.857   1.113  -0.667  1.00  0.00     0.012 C 
HETATM    2  C2  UNL     1       2.141   0.199  -0.342  1.00  0.00    -0.110 C 
HETATM    3  C3  UNL     1       1.268  -0.925   0.078  1.00  0.00     0.171 C 
ENDROOT
BRANCH   3   4
HETATM    4  C4  UNL     1      -0.129  -0.475   0.008  1.00  0.00     0.109 A 
HETATM    5  N1  UNL     1      -0.935  -0.568  -1.044  1.00  0.00    -0.320 N 
HETATM    6  C5  UNL     1      -2.123  -0.044  -0.701  1.00  0.00     0.192 A 
ATOM      7  H1  UNL     1      -0.694  -0.967  -1.951  1.00  0.00     0.169 HD
HETATM    8  S1  UNL     1      -3.478   0.098  -1.613  1.00  0.00    -0.039 SA
HETATM    9  N2  UNL     1      -2.038   0.372   0.574  1.00  0.00    -0.275 N 
HETATM   10  N3  UNL     1      -0.803   0.101   0.999  1.00  0.00    -0.286 N 
ATOM     11  H2  UNL     1      -2.781   0.813   1.116  1.00  0.00     0.189 HD
ATOM     12  H3  UNL     1      -0.437   0.302   1.929  1.00  0.00     0.188 HD
ENDBRANCH   3   4
TORSDOF 1
