REMARK  2 active torsions:
REMARK  status: ('A' for Active; 'I' for Inactive)
REMARK    1  A    between atoms: C2_2  and  C3_3 
REMARK    2  A    between atoms: C7_9  and  N2_10 
ROOT
HETATM    1  C3  UNL     1      -0.558   0.085  -0.242  1.00  0.00     0.028 A 
HETATM    2  C4  UNL     1       0.510   0.851   0.164  1.00  0.00     0.050 A 
HETATM    3  C5  UNL     1       1.744   0.247   0.281  1.00  0.00     0.024 A 
HETATM    4  C6  UNL     1       2.957   1.004   0.716  1.00  0.00     0.068 C 
HETATM    5  N1  UNL     1       1.911  -1.054   0.009  1.00  0.00    -0.196 N 
ATOM      6  H1  UNL     1       2.827  -1.493   0.098  1.00  0.00     0.184 HD
HETATM    7  C7  UNL     1       0.841  -1.768  -0.385  1.00  0.00     0.676 A 
HETATM    8  N3  UNL     1      -0.378  -1.218  -0.512  1.00  0.00    -0.196 N 
ATOM      9  H3  UNL     1      -1.167  -1.790  -0.814  1.00  0.00     0.184 HD
ENDROOT
BRANCH   7  10
HETATM   10  N2  UNL     1       1.002  -3.018  -0.647  1.00  0.00    -0.234 N 
ATOM     11  H22 UNL     1       1.928  -3.436  -0.551  1.00  0.00     0.174 HD
ATOM     12  H21 UNL     1       0.191  -3.559  -0.946  1.00  0.00     0.174 HD
ENDBRANCH   7  10
BRANCH   1  13
HETATM   13  C2  UNL     1      -1.924   0.706  -0.382  1.00  0.00     0.053 C 
HETATM   14  C1  UNL     1      -2.601   0.551   0.971  1.00  0.00     0.011 C 
ENDBRANCH   1  13
TORSDOF 2
