REMARK  2 active torsions:
REMARK  status: ('A' for Active; 'I' for Inactive)
REMARK    1  A    between atoms: C2_2  and  N1_4 
REMARK    2  A    between atoms: C2_2  and  C4_8 
ROOT
HETATM    1  C4  UNL     1      -0.104   0.353  -0.065  1.00  0.00     0.220 C 
HETATM    2  C5  UNL     1       0.679  -0.060   1.155  1.00  0.00     0.036 C 
HETATM    3  C6  UNL     1       2.063   0.586   1.014  1.00  0.00     0.004 C 
HETATM    4  C7  UNL     1       2.686  -0.015  -0.206  1.00  0.00     0.027 C 
HETATM    5  C8  UNL     1       1.878   0.433  -1.413  1.00  0.00     0.233 C 
HETATM    6  N2  UNL     1       0.549  -0.169  -1.245  1.00  0.00    -0.069 N 
ATOM      7  H21 UNL     1      -0.027  -0.052  -2.079  1.00  0.00     0.277 HD
ATOM      8  H22 UNL     1       0.595  -1.188  -1.232  1.00  0.00     0.277 HD
ENDROOT
BRANCH   1   9
HETATM    9  C2  UNL     1      -1.506  -0.237  -0.043  1.00  0.00     0.144 C 
HETATM   10  C1  UNL     1      -2.284   0.173  -1.255  1.00  0.00     0.048 C 
HETATM   11  C3  UNL     1      -2.215   0.329   1.183  1.00  0.00     0.048 C 
BRANCH   9  12
HETATM   12  N1  UNL     1      -1.452  -1.656   0.101  1.00  0.00    -0.069 N 
ATOM     13  H13 UNL     1      -2.387  -2.064   0.105  1.00  0.00     0.275 HD
ATOM     14  H12 UNL     1      -1.087  -2.100  -0.741  1.00  0.00     0.275 HD
ATOM     15  H11 UNL     1      -0.922  -1.935   0.927  1.00  0.00     0.275 HD
ENDBRANCH   9  12
ENDBRANCH   1   9
TORSDOF 2
