REMARK  4 active torsions:
REMARK  status: ('A' for Active; 'I' for Inactive)
REMARK    1  A    between atoms: N3_6  and  C4_7 
REMARK    2  A    between atoms: C7_13  and  N5_14 
REMARK    3  A    between atoms: C10_17  and  C11_18 
REMARK    4  A    between atoms: C11_18  and  N6_19 
ROOT
HETATM    1  N1  UNL     1      -6.411   2.862  -0.782  1.00  0.00    -0.172 NA
HETATM    2  C1  UNL     1      -5.705   2.003  -0.395  1.00  0.00     0.179 C 
HETATM    3  N2  UNL     1      -4.887   0.988   0.081  1.00  0.00    -0.317 N 
HETATM    4  C2  UNL     1      -3.996   1.222   1.190  1.00  0.00     0.154 C 
HETATM    5  C3  UNL     1      -2.622   0.779   0.745  1.00  0.00     0.145 C 
HETATM    6  N3  UNL     1      -2.654  -0.587   0.248  1.00  0.00    -0.364 N 
HETATM    7  C13 UNL     1      -3.923  -1.262   0.178  1.00  0.00     0.145 C 
HETATM    8  C14 UNL     1      -4.912  -0.321  -0.524  1.00  0.00     0.154 C 
ENDROOT
BRANCH   6   9
HETATM    9  C4  UNL     1      -1.426  -1.174  -0.142  1.00  0.00     0.124 A 
HETATM   10  C5  UNL     1      -1.310  -2.463  -0.607  1.00  0.00     0.123 A 
HETATM   11  C6  UNL     1      -0.093  -3.033  -0.992  1.00  0.00     0.263 A 
HETATM   12  O1  UNL     1      -0.088  -4.220  -1.405  1.00  0.00    -0.268 OA
HETATM   13  N4  UNL     1       0.991  -2.258  -0.890  1.00  0.00    -0.156 N 
HETATM   14  C7  UNL     1       0.924  -0.993  -0.441  1.00  0.00     0.684 A 
ATOM     15  H4  UNL     1       1.898  -2.638  -1.161  1.00  0.00     0.187 HD
HETATM   16  N7  UNL     1      -0.257  -0.470  -0.077  1.00  0.00    -0.176 N 
ATOM     17  H7  UNL     1      -0.283   0.492   0.262  1.00  0.00     0.186 HD
BRANCH  14  18
HETATM   18  N5  UNL     1       2.081  -0.184  -0.337  1.00  0.00    -0.217 N 
HETATM   19  C8  UNL     1       2.154   1.187   0.130  1.00  0.00     0.141 C 
HETATM   20  C9  UNL     1       3.375   1.725  -0.537  1.00  0.00     0.028 C 
HETATM   21  C10 UNL     1       4.298   0.562  -0.744  1.00  0.00     0.031 C 
HETATM   22  C12 UNL     1       3.415  -0.643  -0.704  1.00  0.00     0.147 C 
BRANCH  21  23
HETATM   23  C11 UNL     1       5.394   0.493   0.287  1.00  0.00     0.235 C 
BRANCH  23  24
HETATM   24  N6  UNL     1       4.859   0.362   1.629  1.00  0.00    -0.079 N 
ATOM     25  H63 UNL     1       4.196   1.108   1.840  1.00  0.00     0.274 HD
ATOM     26  H62 UNL     1       4.228  -0.436   1.702  1.00  0.00     0.274 HD
ATOM     27  H61 UNL     1       5.601   0.315   2.327  1.00  0.00     0.274 HD
ENDBRANCH  23  24
ENDBRANCH  21  23
ENDBRANCH  14  18
ENDBRANCH   6   9
TORSDOF 4
