REMARK  6 active torsions:
REMARK  status: ('A' for Active; 'I' for Inactive)
REMARK    1  A    between atoms: C4_4  and  N1_5 
REMARK    2  A    between atoms: C7_10  and  N2_11 
REMARK       I    between atoms: N2_11  and  C8_13 
REMARK    3  A    between atoms: C8_13  and  C9_15 
REMARK    4  A    between atoms: C15_23  and  C16_24 
REMARK    5  A    between atoms: C16_24  and  O4_25 
REMARK    6  A    between atoms: C16_24  and  N3_27 
ROOT
HETATM    1  C1  UNL     1      -5.267  -0.091  -0.400  1.00  0.00     0.018 C 
HETATM    2  C2  UNL     1      -4.144  -0.547  -0.457  1.00  0.00    -0.074 C 
HETATM    3  C3  UNL     1      -2.799  -1.119  -0.473  1.00  0.00     0.066 A 
HETATM    4  C4  UNL     1      -2.802  -2.522  -0.442  1.00  0.00     0.122 A 
HETATM    5  C5  UNL     1      -1.560  -3.116  -0.345  1.00  0.00     0.040 A 
HETATM    6  C6  UNL     1      -0.421  -2.365  -0.285  1.00  0.00     0.033 A 
HETATM    7  C7  UNL     1      -0.415  -0.986  -0.319  1.00  0.00     0.051 A 
HETATM    8  C15 UNL     1      -1.666  -0.345  -0.417  1.00  0.00     0.062 A 
ENDROOT
BRANCH   4   9
HETATM    9  N1  UNL     1      -3.971  -3.314  -0.512  1.00  0.00    -0.114 N 
HETATM   10  O1  UNL     1      -5.059  -3.020  -0.044  1.00  0.00    -0.532 OA
HETATM   11  O2  UNL     1      -3.913  -4.560  -1.142  1.00  0.00    -0.532 OA
ENDBRANCH   4   9
BRANCH   8  12
HETATM   12  C16 UNL     1      -1.690   1.092  -0.302  1.00  0.00     0.149 C 
BRANCH  12  13
HETATM   13  O4  UNL     1      -0.546   1.599   0.133  1.00  0.00    -0.346 OA
ATOM     14  H4  UNL     1      -0.562   2.546   0.209  1.00  0.00     0.219 HD
ENDBRANCH  12  13
BRANCH  12  15
HETATM   15  N3  UNL     1      -2.633   2.072  -0.546  1.00  0.00    -0.375 N 
HETATM   16  C17 UNL     1      -2.289   3.503  -0.274  1.00  0.00     0.148 C 
ATOM     17  H3  UNL     1      -3.554   1.823  -0.908  1.00  0.00     0.161 HD
ENDBRANCH  12  15
ENDBRANCH   8  12
BRANCH   7  18
HETATM   18  N2  UNL     1       0.826  -0.301  -0.394  1.00  0.00    -0.322 N 
HETATM   19  C8  UNL     1       1.979  -0.688   0.337  1.00  0.00     0.257 C 
HETATM   20  O3  UNL     1       1.944  -1.689   1.139  1.00  0.00    -0.267 OA
ATOM     21  H2  UNL     1       0.892   0.512  -1.006  1.00  0.00     0.169 HD
BRANCH  19  22
HETATM   22  C9  UNL     1       3.248   0.006   0.246  1.00  0.00     0.051 A 
HETATM   23  C10 UNL     1       3.634   0.804   1.313  1.00  0.00     0.037 A 
HETATM   24  C11 UNL     1       4.806   1.518   1.308  1.00  0.00     0.012 A 
HETATM   25 BR1  UNL     1       5.319   2.623   2.764  1.00  0.00    -0.051 Br
HETATM   26  C12 UNL     1       5.598   1.413   0.189  1.00  0.00     0.020 A 
HETATM   27  C13 UNL     1       5.245   0.623  -0.900  1.00  0.00     0.021 A 
HETATM   28  C14 UNL     1       4.046  -0.089  -0.859  1.00  0.00     0.026 A 
HETATM   29 BR2  UNL     1       3.565  -1.184  -2.333  1.00  0.00    -0.050 Br
ENDBRANCH  19  22
ENDBRANCH   7  18
TORSDOF 6
