REMARK  6 active torsions:
REMARK  status: ('A' for Active; 'I' for Inactive)
REMARK    1  A    between atoms: C2_2  and  O1_3 
REMARK    2  A    between atoms: O1_3  and  C3_4 
REMARK    3  A    between atoms: C5_6  and  C6_7 
REMARK       I    between atoms: N1_12  and  C9_13 
REMARK    4  A    between atoms: C9_13  and  C10_15 
REMARK    5  A    between atoms: C13_20  and  S1_21 
REMARK    6  A    between atoms: S1_21  and  N3_22 
ROOT
HETATM    1  C3  UNL     1      -1.183  -0.482  -0.289  1.00  0.00     0.226 C 
HETATM    2  C4  UNL     1      -2.437   0.443  -0.553  1.00  0.00     0.065 C 
HETATM    3  C5  UNL     1      -2.413   1.103   0.833  1.00  0.00     0.049 C 
HETATM    4  C8  UNL     1      -1.014   1.634   0.812  1.00  0.00     0.139 C 
HETATM    5  N1  UNL     1      -0.244   0.463   0.264  1.00  0.00    -0.319 N 
HETATM    6  C9  UNL     1       1.152   0.491   0.377  1.00  0.00     0.274 C 
HETATM    7  O2  UNL     1       1.634   1.537   0.949  1.00  0.00    -0.266 OA
ENDROOT
BRANCH   6   8
HETATM    8  C10 UNL     1       2.071  -0.512  -0.075  1.00  0.00     0.124 A 
HETATM    9  N2  UNL     1       1.863  -1.691  -0.685  1.00  0.00    -0.360 N 
HETATM   10  C11 UNL     1       3.015  -2.346  -0.939  1.00  0.00     0.090 A 
ATOM     11  H2  UNL     1       0.940  -2.050  -0.928  1.00  0.00     0.165 HD
HETATM   12  C12 UNL     1       4.025  -1.562  -0.476  1.00  0.00     0.044 A 
HETATM   13  C13 UNL     1       3.463  -0.404   0.072  1.00  0.00     0.112 A 
BRANCH  13  14
HETATM   14  S1  UNL     1       4.380   0.890   0.764  1.00  0.00     0.259 S 
HETATM   15  O3  UNL     1       4.090   1.105   2.238  1.00  0.00    -0.201 OA
HETATM   16  O4  UNL     1       5.859   0.491   0.744  1.00  0.00    -0.201 OA
BRANCH  14  17
HETATM   17  N3  UNL     1       4.187   2.373  -0.114  1.00  0.00    -0.324 N 
ATOM     18  H32 UNL     1       3.597   2.457  -0.942  1.00  0.00     0.169 HD
ATOM     19  H31 UNL     1       4.728   3.136   0.294  1.00  0.00     0.169 HD
ENDBRANCH  14  17
ENDBRANCH  13  14
ENDBRANCH   6   8
BRANCH   1  20
HETATM   20  O1  UNL     1      -1.676  -1.370   0.648  1.00  0.00    -0.367 OA
BRANCH  20  21
HETATM   21  C2  UNL     1      -1.805  -2.669   0.255  1.00  0.00     0.166 C 
HETATM   22  C1  UNL     1      -2.733  -2.852  -0.927  1.00  0.00     0.033 C 
ENDBRANCH  20  21
ENDBRANCH   1  20
BRANCH   3  23
HETATM   23  C6  UNL     1      -3.446   2.118   0.980  1.00  0.00     0.001 C 
HETATM   24 BR1  UNL     1      -5.277   1.626   1.026  1.00  0.00    -0.055 Br
HETATM   25  C7  UNL     1      -3.128   3.391   1.083  1.00  0.00     0.071 C 
HETATM   26 BR2  UNL     1      -4.465   4.750   1.278  1.00  0.00    -0.062 Br
ENDBRANCH   3  23
TORSDOF 6
