REMARK  16 active torsions:
REMARK  status: ('A' for Active; 'I' for Inactive)
REMARK    1  A    between atoms: C2_3  and  S1_4 
REMARK    2  A    between atoms: S1_4  and  C3_5 
REMARK    3  A    between atoms: C3_5  and  C4_6 
REMARK    4  A    between atoms: C4_6  and  N2_7 
REMARK    5  A    between atoms: N2_7  and  C5_9 
REMARK    6  A    between atoms: C6_12  and  N4_13 
REMARK    7  A    between atoms: N4_13  and  C7_15 
REMARK    8  A    between atoms: C7_15  and  C8_16 
REMARK    9  A    between atoms: C11_19  and  C12_20 
REMARK   10  A    between atoms: C15_23  and  O1_24 
REMARK   11  A    between atoms: O1_24  and  C16_25 
REMARK   12  A    between atoms: C16_25  and  C17_26 
REMARK   13  A    between atoms: C17_26  and  N5_27 
REMARK   14  A    between atoms: C26_38  and  N7_39 
REMARK   15  A    between atoms: N7_39  and  C27_41 
REMARK   16  A    between atoms: C27_41  and  C28_42 
ROOT
HETATM    1  N1  UNL     1      -7.943   2.398  -1.773  1.00  0.00    -0.197 NA
HETATM    2  C1  UNL     1      -7.437   2.900  -0.866  1.00  0.00     0.069 C 
HETATM    3  C2  UNL     1      -6.771   3.530   0.297  1.00  0.00     0.197 C 
ENDROOT
BRANCH   3   4
HETATM    4  S1  UNL     1      -7.545   3.010   1.827  1.00  0.00    -0.153 SA
BRANCH   4   5
HETATM    5  C3  UNL     1      -7.344   1.261   2.188  1.00  0.00     0.095 C 
BRANCH   5   6
HETATM    6  C4  UNL     1      -5.926   0.853   2.472  1.00  0.00     0.148 C 
BRANCH   6   7
HETATM    7  N2  UNL     1      -5.005   1.089   1.411  1.00  0.00    -0.224 N 
ATOM      8  H2  UNL     1      -4.524   1.988   1.418  1.00  0.00     0.177 HD
BRANCH   7   9
HETATM    9  C5  UNL     1      -4.715   0.292   0.447  1.00  0.00     0.707 A 
HETATM   10  N3  UNL     1      -3.810   0.685  -0.479  1.00  0.00    -0.022 N 
HETATM   11  C6  UNL     1      -3.452  -0.082  -1.510  1.00  0.00     0.707 A 
ATOM     12  H3  UNL     1      -3.383   1.607  -0.385  1.00  0.00     0.203 HD
HETATM   13  N6  UNL     1      -4.018  -1.315  -1.642  1.00  0.00    -0.022 N 
HETATM   14  C26 UNL     1      -4.929  -1.737  -0.729  1.00  0.00     0.707 A 
ATOM     15  H6  UNL     1      -3.758  -1.917  -2.423  1.00  0.00     0.203 HD
HETATM   16  N8  UNL     1      -5.261  -0.925   0.300  1.00  0.00    -0.022 N 
ATOM     17  H8  UNL     1      -5.946  -1.247   0.984  1.00  0.00     0.203 HD
BRANCH  11  18
HETATM   18  N4  UNL     1      -2.604   0.218  -2.420  1.00  0.00    -0.221 N 
ATOM     19  H4  UNL     1      -2.424  -0.464  -3.156  1.00  0.00     0.178 HD
BRANCH  18  20
HETATM   20  C7  UNL     1      -1.897   1.458  -2.459  1.00  0.00     0.176 C 
BRANCH  20  21
HETATM   21  C8  UNL     1      -0.602   1.240  -1.753  1.00  0.00    -0.040 A 
HETATM   22  C9  UNL     1       0.333   0.369  -2.290  1.00  0.00     0.009 A 
HETATM   23  C10 UNL     1       1.541   0.128  -1.684  1.00  0.00     0.013 A 
HETATM   24  C11 UNL     1       1.870   0.765  -0.486  1.00  0.00    -0.026 A 
HETATM   25  C24 UNL     1       0.931   1.628   0.034  1.00  0.00     0.013 A 
HETATM   26  C25 UNL     1      -0.272   1.867  -0.571  1.00  0.00     0.009 A 
BRANCH  24  27
HETATM   27  C12 UNL     1       3.149   0.504   0.170  1.00  0.00    -0.026 A 
HETATM   28  C13 UNL     1       3.792   1.465   0.913  1.00  0.00     0.015 A 
HETATM   29  C14 UNL     1       4.991   1.244   1.543  1.00  0.00     0.037 A 
HETATM   30  C15 UNL     1       5.614  -0.013   1.441  1.00  0.00     0.068 A 
HETATM   31  C22 UNL     1       4.981  -0.965   0.707  1.00  0.00     0.037 A 
HETATM   32  C23 UNL     1       3.778  -0.718   0.085  1.00  0.00     0.015 A 
BRANCH  30  33
HETATM   33  O1  UNL     1       6.797  -0.158   2.091  1.00  0.00    -0.349 OA
BRANCH  33  34
HETATM   34  C16 UNL     1       7.671  -1.207   2.203  1.00  0.00     0.206 C 
BRANCH  34  35
HETATM   35  C17 UNL     1       8.333  -1.723   0.979  1.00  0.00     0.299 C 
BRANCH  35  36
HETATM   36  N5  UNL     1       9.148  -0.820   0.250  1.00  0.00     0.090 N 
HETATM   37  C18 UNL     1      10.349  -0.399   0.881  1.00  0.00     0.272 C 
HETATM   38  C19 UNL     1      10.897   0.623  -0.100  1.00  0.00     0.032 C 
HETATM   39  C20 UNL     1       9.738   0.942  -1.055  1.00  0.00     0.032 C 
HETATM   40  C21 UNL     1       8.559   0.367  -0.247  1.00  0.00     0.272 C 
ENDBRANCH  35  36
ENDBRANCH  34  35
ENDBRANCH  33  34
ENDBRANCH  30  33
ENDBRANCH  24  27
ENDBRANCH  20  21
ENDBRANCH  18  20
ENDBRANCH  11  18
BRANCH  14  41
HETATM   41  N7  UNL     1      -5.428  -2.911  -0.906  1.00  0.00    -0.219 N 
ATOM     42  H7  UNL     1      -5.112  -3.448  -1.713  1.00  0.00     0.178 HD
BRANCH  41  43
HETATM   43  C27 UNL     1      -6.401  -3.510  -0.038  1.00  0.00     0.203 C 
BRANCH  43  44
HETATM   44  C28 UNL     1      -7.780  -3.120  -0.480  1.00  0.00     0.070 A 
HETATM   45  C29 UNL     1      -8.499  -3.654  -1.534  1.00  0.00     0.036 A 
HETATM   46  C30 UNL     1      -9.709  -2.999  -1.572  1.00  0.00     0.027 A 
HETATM   47  C31 UNL     1      -9.686  -2.086  -0.536  1.00  0.00     0.142 A 
HETATM   48  O2  UNL     1      -8.538  -2.207   0.059  1.00  0.00    -0.325 OA
ENDBRANCH  43  44
ENDBRANCH  41  43
ENDBRANCH  14  41
ENDBRANCH   7   9
ENDBRANCH   6   7
ENDBRANCH   5   6
ENDBRANCH   4   5
ENDBRANCH   3   4
TORSDOF 16
