REMARK  15 active torsions:
REMARK  status: ('A' for Active; 'I' for Inactive)
REMARK       I    between atoms: C2_2  and  N1_4 
REMARK    1  A    between atoms: N1_4  and  C3_6 
REMARK    2  A    between atoms: C3_6  and  C4_7 
REMARK    3  A    between atoms: C3_6  and  C32_46 
REMARK       I    between atoms: C4_7  and  N2_9 
REMARK    4  A    between atoms: N2_9  and  C5_11 
REMARK    5  A    between atoms: C5_11  and  C6_12 
REMARK    6  A    between atoms: C7_13  and  C8_14 
REMARK    7  A    between atoms: C8_14  and  C9_15 
REMARK    8  A    between atoms: C9_15  and  C10_16 
REMARK    9  A    between atoms: C10_16  and  C11_17 
REMARK   10  A    between atoms: C11_17  and  C12_18 
REMARK   11  A    between atoms: C12_18  and  C13_19 
REMARK   12  A    between atoms: N3_22  and  C14_23 
REMARK   13  A    between atoms: C14_23  and  C15_24 
REMARK   14  A    between atoms: C14_23  and  C19_28 
REMARK   15  A    between atoms: C15_24  and  C16_25 
REMARK       I    between atoms: C19_28  and  N4_30 
REMARK       I    between atoms: N4_30  and  C20_32 
REMARK       I    between atoms: C20_32  and  N5_34 
ROOT
HETATM    1  C6  UNL     1      -2.688   0.187  -1.097  1.00  0.00     0.275 A 
HETATM    2  C7  UNL     1      -1.744   0.316  -2.324  1.00  0.00     0.259 A 
HETATM    3  N3  UNL     1      -1.335   0.623  -1.031  1.00  0.00     0.117 N 
ENDROOT
BRANCH   3   4
HETATM    4  C14 UNL     1      -0.342   0.036  -0.192  1.00  0.00     0.316 C 
BRANCH   4   5
HETATM    5  C15 UNL     1      -0.747   0.393   1.214  1.00  0.00     0.049 C 
BRANCH   5   6
HETATM    6  C16 UNL     1       0.066  -0.129   2.326  1.00  0.00    -0.020 C 
HETATM    7  C17 UNL     1      -0.008  -1.658   2.282  1.00  0.00     0.009 C 
HETATM    8  C18 UNL     1      -0.653   0.278   3.628  1.00  0.00     0.009 C 
ENDBRANCH   5   6
ENDBRANCH   4   5
BRANCH   4   9
HETATM    9  C19 UNL     1       1.000   0.583  -0.511  1.00  0.00     0.259 C 
HETATM   10  O5  UNL     1       1.076   1.574  -1.337  1.00  0.00    -0.271 OA
HETATM   11  N4  UNL     1       2.245   0.135  -0.008  1.00  0.00    -0.277 N 
HETATM   12  C20 UNL     1       3.475   0.741  -0.419  1.00  0.00     0.325 C 
ATOM     13  H4  UNL     1       2.266  -0.635   0.661  1.00  0.00     0.173 HD
HETATM   14  O6  UNL     1       3.432   1.683  -1.278  1.00  0.00    -0.247 OA
HETATM   15  N5  UNL     1       4.727   0.360   0.068  1.00  0.00    -0.334 N 
HETATM   16  C21 UNL     1       5.930   1.010  -0.460  1.00  0.00     0.128 C 
HETATM   17  C31 UNL     1       4.904  -0.616   1.091  1.00  0.00     0.128 C 
HETATM   18  C22 UNL     1       7.012   0.018  -0.784  1.00  0.00     0.029 C 
HETATM   19  C23 UNL     1       7.241  -0.936   0.378  1.00  0.00    -0.037 C 
HETATM   20  C24 UNL     1       7.749  -0.214   1.581  1.00  0.00     0.010 C 
HETATM   21  C29 UNL     1       8.180  -2.018  -0.096  1.00  0.00     0.010 C 
HETATM   22  C30 UNL     1       5.916  -1.640   0.677  1.00  0.00     0.029 C 
HETATM   23  C25 UNL     1       9.233  -0.208   1.746  1.00  0.00     0.005 C 
HETATM   24  C26 UNL     1      10.021  -0.405   0.492  1.00  0.00    -0.019 C 
HETATM   25  C27 UNL     1      11.467  -0.688   0.935  1.00  0.00     0.010 C 
HETATM   26  C28 UNL     1       9.578  -1.558  -0.346  1.00  0.00     0.005 C 
ENDBRANCH   4   9
ENDBRANCH   3   4
BRANCH   1  27
HETATM   27  C5  UNL     1      -3.072  -1.257  -0.916  1.00  0.00     0.161 C 
BRANCH  27  28
HETATM   28  N2  UNL     1      -3.943  -1.587   0.146  1.00  0.00    -0.357 N 
HETATM   29  C4  UNL     1      -5.258  -1.101   0.318  1.00  0.00     0.240 C 
HETATM   30  O2  UNL     1      -5.656  -0.289  -0.589  1.00  0.00    -0.271 OA
ATOM     31  H2  UNL     1      -3.591  -2.234   0.852  1.00  0.00     0.162 HD
BRANCH  29  32
HETATM   32  C3  UNL     1      -6.185  -1.435   1.403  1.00  0.00     0.179 C 
BRANCH  32  33
HETATM   33  N1  UNL     1      -7.520  -0.878   1.132  1.00  0.00    -0.348 N 
HETATM   34  C2  UNL     1      -8.607  -1.689   0.759  1.00  0.00     0.214 C 
HETATM   35  C1  UNL     1      -9.964  -1.178   0.483  1.00  0.00     0.117 C 
HETATM   36  O1  UNL     1      -8.394  -2.921   0.660  1.00  0.00    -0.274 OA
ATOM     37  H1  UNL     1      -7.662   0.129   1.217  1.00  0.00     0.163 HD
ENDBRANCH  32  33
BRANCH  32  38
HETATM   38  C32 UNL     1      -5.742  -0.947   2.754  1.00  0.00     0.009 C 
HETATM   39  C33 UNL     1      -6.723  -1.391   3.837  1.00  0.00     0.012 C 
HETATM   40  C34 UNL     1      -4.389  -1.404   3.202  1.00  0.00     0.012 C 
ENDBRANCH  32  38
ENDBRANCH  29  32
ENDBRANCH  27  28
ENDBRANCH   1  27
BRANCH   2  41
HETATM   41  C8  UNL     1      -2.001   1.510  -3.224  1.00  0.00     0.038 C 
BRANCH  41  42
HETATM   42  C9  UNL     1      -3.390   1.519  -3.812  1.00  0.00     0.002 C 
BRANCH  42  43
HETATM   43  C10 UNL     1      -3.485   2.768  -4.669  1.00  0.00     0.001 C 
BRANCH  43  44
HETATM   44  C11 UNL     1      -4.811   2.948  -5.330  1.00  0.00     0.010 C 
BRANCH  44  45
HETATM   45  C12 UNL     1      -5.921   3.070  -4.323  1.00  0.00     0.113 C 
BRANCH  45  46
HETATM   46  C13 UNL     1      -5.740   4.234  -3.429  1.00  0.00     0.172 C 
HETATM   47  O3  UNL     1      -5.007   4.265  -2.416  1.00  0.00    -0.648 OA
HETATM   48  O4  UNL     1      -6.451   5.398  -3.747  1.00  0.00    -0.648 OA
ENDBRANCH  45  46
ENDBRANCH  44  45
ENDBRANCH  43  44
ENDBRANCH  42  43
ENDBRANCH  41  42
ENDBRANCH   2  41
TORSDOF 15
