REMARK  14 active torsions:
REMARK  status: ('A' for Active; 'I' for Inactive)
REMARK    1  A    between atoms: C3_3  and  N1_4 
REMARK    2  A    between atoms: C6_8  and  O1_9 
REMARK    3  A    between atoms: C6_8  and  N2_11 
REMARK    4  A    between atoms: N2_11  and  C7_13 
REMARK    5  A    between atoms: C12_19  and  C13_20 
REMARK    6  A    between atoms: C13_20  and  O3_22 
REMARK    7  A    between atoms: C19_30  and  C20_31 
REMARK       I    between atoms: C20_31  and  N4_33 
REMARK    8  A    between atoms: N4_33  and  C21_34 
REMARK    9  A    between atoms: N4_33  and  C25_43 
REMARK   10  A    between atoms: C21_34  and  C22_35 
REMARK   11  A    between atoms: C22_35  and  C23_36 
REMARK   12  A    between atoms: C23_36  and  N5_37 
REMARK   13  A    between atoms: N5_37  and  S2_39 
REMARK   14  A    between atoms: C25_43  and  C27_45 
ROOT
HETATM    1  C1  UNL     1      -1.351  -5.812  -1.743  1.00  0.00     0.018 C 
HETATM    2  C2  UNL     1      -1.542  -4.672  -1.402  1.00  0.00    -0.072 C 
HETATM    3  C3  UNL     1      -1.750  -3.258  -0.985  1.00  0.00     0.152 C 
ENDROOT
BRANCH   3   4
HETATM    4  N1  UNL     1      -0.675  -2.678  -0.355  1.00  0.00    -0.360 N 
HETATM    5  C4  UNL     1      -0.381  -1.928   0.622  1.00  0.00     0.044 C 
HETATM    6  C5  UNL     1      -1.456  -1.367   1.537  1.00  0.00     0.061 C 
HETATM    7  C19 UNL     1       1.028  -1.669   0.998  1.00  0.00     0.174 C 
HETATM    8  C6  UNL     1      -2.603  -0.734   0.987  1.00  0.00     0.155 C 
HETATM    9  C15 UNL     1      -1.155  -1.616   2.798  1.00  0.00     0.021 C 
HETATM   10  C16 UNL     1      -2.075  -1.192   3.886  1.00  0.00     0.069 C 
HETATM   11  N3  UNL     1       0.183  -2.008   3.165  1.00  0.00    -0.365 N 
HETATM   12  C17 UNL     1       1.177  -2.126   2.391  1.00  0.00     0.002 C 
ATOM     13  H3  UNL     1       0.345  -2.211   4.151  1.00  0.00     0.165 HD
HETATM   14  C18 UNL     1       2.456  -2.560   2.980  1.00  0.00     0.064 C 
ATOM     15  H1  UNL     1       0.181  -2.943  -0.842  1.00  0.00     0.165 HD
BRANCH   8  16
HETATM   16  O1  UNL     1      -2.522  -0.529  -0.317  1.00  0.00    -0.345 OA
ATOM     17  H1  UNL     1      -3.289  -0.106  -0.685  1.00  0.00     0.219 HD
ENDBRANCH   8  16
BRANCH   8  18
HETATM   18  N2  UNL     1      -3.781  -0.303   1.577  1.00  0.00    -0.330 N 
ATOM     19  H2  UNL     1      -3.919  -0.500   2.568  1.00  0.00     0.168 HD
BRANCH  18  20
HETATM   20  C7  UNL     1      -4.840   0.418   0.866  1.00  0.00     0.093 A 
HETATM   21  S1  UNL     1      -6.526   0.048   1.044  1.00  0.00    -0.076 SA
HETATM   22  C8  UNL     1      -7.167   1.248   0.047  1.00  0.00    -0.012 A 
HETATM   23  C9  UNL     1      -8.629   1.496  -0.259  1.00  0.00     0.057 C 
HETATM   24  C10 UNL     1      -6.072   1.918  -0.403  1.00  0.00    -0.030 A 
HETATM   25  C11 UNL     1      -6.275   3.087  -1.359  1.00  0.00     0.050 C 
HETATM   26  C12 UNL     1      -4.844   1.481   0.037  1.00  0.00     0.080 A 
BRANCH  26  27
HETATM   27  C13 UNL     1      -3.645   2.358  -0.183  1.00  0.00     0.296 C 
HETATM   28  O2  UNL     1      -2.568   2.238   0.420  1.00  0.00    -0.259 OA
BRANCH  27  29
HETATM   29  O3  UNL     1      -3.661   3.403  -1.116  1.00  0.00    -0.322 OA
HETATM   30  C14 UNL     1      -2.539   4.236  -1.336  1.00  0.00     0.213 C 
ENDBRANCH  27  29
ENDBRANCH  26  27
ENDBRANCH  18  20
ENDBRANCH   8  18
BRANCH   7  31
HETATM   31  C20 UNL     1       1.932  -2.295   0.047  1.00  0.00     0.235 C 
HETATM   32  O4  UNL     1       1.622  -3.437  -0.382  1.00  0.00    -0.272 OA
HETATM   33  N4  UNL     1       3.148  -1.758  -0.456  1.00  0.00    -0.347 N 
BRANCH  33  34
HETATM   34  C21 UNL     1       3.539  -0.460  -0.041  1.00  0.00     0.128 C 
BRANCH  34  35
HETATM   35  C22 UNL     1       3.008   0.643  -0.946  1.00  0.00     0.040 C 
BRANCH  35  36
HETATM   36  C23 UNL     1       3.502   1.952  -0.371  1.00  0.00     0.133 C 
BRANCH  36  37
HETATM   37  N5  UNL     1       3.008   3.022  -1.227  1.00  0.00    -0.320 N 
ATOM     38  H5  UNL     1       2.434   2.872  -2.057  1.00  0.00     0.172 HD
BRANCH  37  39
HETATM   39  S2  UNL     1       3.510   4.570  -0.669  1.00  0.00     0.222 S 
HETATM   40  C24 UNL     1       2.868   4.886   0.951  1.00  0.00     0.185 C 
HETATM   41  O5  UNL     1       2.960   5.603  -1.613  1.00  0.00    -0.206 OA
HETATM   42  O6  UNL     1       5.007   4.691  -0.688  1.00  0.00    -0.206 OA
ENDBRANCH  37  39
ENDBRANCH  36  37
ENDBRANCH  35  36
ENDBRANCH  34  35
ENDBRANCH  33  34
BRANCH  33  43
HETATM   43  C25 UNL     1       3.897  -2.515  -1.387  1.00  0.00     0.082 C 
HETATM   44  C26 UNL     1       4.156  -1.894  -2.716  1.00  0.00     0.032 C 
BRANCH  43  45
HETATM   45  C27 UNL     1       5.173  -3.151  -0.913  1.00  0.00     0.020 C 
HETATM   46  C28 UNL     1       6.247  -2.258  -0.412  1.00  0.00     0.007 C 
ENDBRANCH  43  45
ENDBRANCH  33  43
ENDBRANCH   7  31
ENDBRANCH   3   4
TORSDOF 14
