REMARK  16 active torsions:
REMARK  status: ('A' for Active; 'I' for Inactive)
REMARK    1  A    between atoms: C4_5  and  C5_6 
REMARK       I    between atoms: C5_6  and  N1_8 
REMARK    2  A    between atoms: N1_8  and  O3_10 
REMARK    3  A    between atoms: C6_12  and  O4_13 
REMARK    4  A    between atoms: C13_21  and  C14_22 
REMARK    5  A    between atoms: C15_23  and  C16_24 
REMARK    6  A    between atoms: C16_24  and  O5_27 
REMARK    7  A    between atoms: O5_27  and  C19_28 
REMARK    8  A    between atoms: C19_28  and  C20_29 
REMARK    9  A    between atoms: C20_29  and  C21_30 
REMARK   10  A    between atoms: C21_30  and  N2_31 
REMARK   11  A    between atoms: C32_42  and  O6_43 
REMARK   12  A    between atoms: O6_43  and  C33_44 
REMARK   13  A    between atoms: C33_44  and  C34_46 
REMARK   14  A    between atoms: C34_46  and  C35_47 
REMARK   15  A    between atoms: C35_47  and  C36_48 
REMARK   16  A    between atoms: C36_48  and  C37_49 
ROOT
HETATM    1  C1  UNL     1      -6.443  -0.781   2.280  1.00  0.00     0.025 C 
HETATM    2  C2  UNL     1      -5.812  -1.120   1.189  1.00  0.00     0.010 C 
HETATM    3  C3  UNL     1      -6.316  -2.144   0.278  1.00  0.00     0.173 C 
HETATM    4  O1  UNL     1      -7.364  -2.773   0.589  1.00  0.00    -0.292 OA
HETATM    5  C4  UNL     1      -5.604  -2.426  -0.977  1.00  0.00     0.193 C 
HETATM    6  C6  UNL     1      -4.147  -2.152  -0.951  1.00  0.00     0.105 C 
HETATM    7  C7  UNL     1      -3.284  -3.245  -1.413  1.00  0.00     0.009 C 
HETATM    8  C8  UNL     1      -2.064  -3.410  -1.015  1.00  0.00    -0.022 C 
HETATM    9  C9  UNL     1      -1.418  -2.507  -0.048  1.00  0.00     0.018 C 
HETATM   10  C10 UNL     1       0.049  -2.302  -0.321  1.00  0.00     0.002 C 
HETATM   11  C11 UNL     1       0.925  -2.896   0.742  1.00  0.00     0.007 C 
HETATM   12  C12 UNL     1       1.984  -1.878   1.070  1.00  0.00     0.010 C 
HETATM   13  C13 UNL     1       1.961  -0.992  -0.160  1.00  0.00     0.016 C 
HETATM   14  C25 UNL     1       0.478  -0.880  -0.425  1.00  0.00    -0.033 C 
HETATM   15  C26 UNL     1       0.318  -0.434  -1.869  1.00  0.00     0.016 C 
HETATM   16  C27 UNL     1      -0.169   0.046   0.537  1.00  0.00     0.010 C 
HETATM   17  C28 UNL     1      -1.523  -0.347   1.034  1.00  0.00     0.007 C 
HETATM   18  C29 UNL     1      -2.189  -1.231   0.044  1.00  0.00     0.008 C 
HETATM   19  C30 UNL     1      -3.618  -1.614   0.367  1.00  0.00     0.027 C 
HETATM   20  C31 UNL     1      -3.570  -2.609   1.476  1.00  0.00     0.022 C 
HETATM   21  C32 UNL     1      -4.500  -0.477   0.761  1.00  0.00     0.179 C 
ENDROOT
BRANCH  13  22
HETATM   22  C14 UNL     1       2.674   0.264   0.022  1.00  0.00    -0.022 C 
HETATM   23  C15 UNL     1       3.660   0.572  -0.811  1.00  0.00     0.006 C 
BRANCH  23  24
HETATM   24  C16 UNL     1       4.471   1.821  -0.737  1.00  0.00     0.071 C 
HETATM   25  C17 UNL     1       3.764   2.832   0.139  1.00  0.00     0.050 C 
HETATM   26  C18 UNL     1       4.671   2.443  -2.102  1.00  0.00     0.050 C 
BRANCH  24  27
HETATM   27  O5  UNL     1       5.729   1.529  -0.207  1.00  0.00    -0.377 OA
BRANCH  27  28
HETATM   28  C19 UNL     1       6.381   0.611  -0.991  1.00  0.00     0.170 C 
BRANCH  28  29
HETATM   29  C20 UNL     1       7.745   0.268  -0.453  1.00  0.00     0.054 C 
BRANCH  29  30
HETATM   30  C21 UNL     1       8.669   1.465  -0.360  1.00  0.00     0.238 C 
BRANCH  30  31
HETATM   31  N2  UNL     1       9.967   1.082   0.159  1.00  0.00    -0.079 N 
HETATM   32  C22 UNL     1       9.767   0.166   1.282  1.00  0.00     0.271 C 
HETATM   33  C23 UNL     1      10.779   0.453  -0.874  1.00  0.00     0.271 C 
HETATM   34  C24 UNL     1      10.655   2.283   0.573  1.00  0.00     0.271 C 
ENDBRANCH  30  31
ENDBRANCH  29  30
ENDBRANCH  28  29
ENDBRANCH  27  28
ENDBRANCH  24  27
ENDBRANCH  23  24
ENDBRANCH  13  22
BRANCH   6  35
HETATM   35  O4  UNL     1      -3.889  -1.082  -1.870  1.00  0.00    -0.384 OA
ATOM     36  H4  UNL     1      -2.956  -0.906  -1.853  1.00  0.00     0.211 HD
ENDBRANCH   6  35
BRANCH  21  37
HETATM   37  O6  UNL     1      -4.883   0.375  -0.303  1.00  0.00    -0.310 OA
BRANCH  37  38
HETATM   38  C33 UNL     1      -4.906   1.738  -0.072  1.00  0.00     0.259 C 
HETATM   39  O7  UNL     1      -4.584   2.142   1.080  1.00  0.00    -0.265 OA
BRANCH  38  40
HETATM   40  C34 UNL     1      -5.300   2.715  -1.142  1.00  0.00     0.111 C 
BRANCH  40  41
HETATM   41  C35 UNL     1      -6.793   2.662  -1.386  1.00  0.00     0.010 C 
BRANCH  41  42
HETATM   42  C36 UNL     1      -7.623   2.971  -0.181  1.00  0.00     0.000 C 
BRANCH  42  43
HETATM   43  C37 UNL     1      -7.389   4.343   0.401  1.00  0.00    -0.005 C 
HETATM   44  C38 UNL     1      -8.295   4.530   1.609  1.00  0.00     0.005 C 
ENDBRANCH  42  43
ENDBRANCH  41  42
ENDBRANCH  40  41
ENDBRANCH  38  40
ENDBRANCH  37  38
ENDBRANCH  21  37
BRANCH   5  45
HETATM   45  C5  UNL     1      -5.852  -3.792  -1.500  1.00  0.00     0.256 C 
HETATM   46  O2  UNL     1      -6.294  -3.982  -2.690  1.00  0.00    -0.270 OA
HETATM   47  N1  UNL     1      -5.627  -4.969  -0.747  1.00  0.00    -0.237 N 
ATOM     48  H1  UNL     1      -5.278  -4.880   0.207  1.00  0.00     0.197 HD
BRANCH  47  49
HETATM   49  O3  UNL     1      -5.854  -6.197  -1.237  1.00  0.00    -0.287 OA
ATOM     50  H3  UNL     1      -5.703  -6.987  -0.732  1.00  0.00     0.244 HD
ENDBRANCH  47  49
ENDBRANCH   5  45
TORSDOF 16
