REMARK  16 active torsions:
REMARK  status: ('A' for Active; 'I' for Inactive)
REMARK    1  A    between atoms: O1_2  and  C2_3 
REMARK    2  A    between atoms: C3_5  and  C4_6 
REMARK    3  A    between atoms: C4_6  and  C5_11 
REMARK    4  A    between atoms: N1_7  and  O3_9 
REMARK    5  A    between atoms: C5_11  and  O4_12 
REMARK    6  A    between atoms: C5_11  and  C6_14 
REMARK    7  A    between atoms: C6_14  and  O5_16 
REMARK    8  A    between atoms: C8_18  and  O6_19 
REMARK    9  A    between atoms: O6_19  and  C9_20 
REMARK   10  A    between atoms: C14_27  and  O9_28 
REMARK   11  A    between atoms: C15_30  and  O10_31 
REMARK   12  A    between atoms: O10_31  and  S1_32 
REMARK   13  A    between atoms: C16_36  and  O14_37 
REMARK   14  A    between atoms: O14_37  and  S2_38 
REMARK   15  A    between atoms: C17_42  and  O18_43 
REMARK   16  A    between atoms: O18_43  and  S3_44 
ROOT
HETATM    1  C2  UNL     1      -2.786  -0.658   0.771  1.00  0.00     0.293 C 
HETATM    2  O2  UNL     1      -2.487  -0.360  -0.554  1.00  0.00    -0.345 OA
HETATM    3  C3  UNL     1      -1.363   0.496  -0.672  1.00  0.00     0.206 C 
HETATM    4  C8  UNL     1      -0.281  -0.120   0.183  1.00  0.00     0.190 C 
HETATM    5  C16 UNL     1      -0.609  -1.581   0.323  1.00  0.00     0.212 C 
HETATM    6  C17 UNL     1      -1.746  -1.629   1.363  1.00  0.00     0.233 C 
ENDROOT
BRANCH   4   7
HETATM    7  O6  UNL     1       0.980   0.039  -0.273  1.00  0.00    -0.372 OA
BRANCH   7   8
HETATM    8  C9  UNL     1       1.867   0.808   0.444  1.00  0.00     0.157 C 
HETATM    9  C10 UNL     1       2.165   2.004  -0.498  1.00  0.00     0.069 C 
HETATM   10  C11 UNL     1       3.040   1.447  -1.554  1.00  0.00     0.158 C 
HETATM   11  O7  UNL     1       3.308   2.209  -2.650  1.00  0.00    -0.359 OA
HETATM   12  C13 UNL     1       4.440   1.446  -0.922  1.00  0.00     0.184 C 
HETATM   13  C12 UNL     1       4.484   1.605  -3.141  1.00  0.00     0.339 C 
HETATM   14  O8  UNL     1       5.138   1.021  -2.039  1.00  0.00    -0.356 OA
HETATM   15  C14 UNL     1       4.404   0.573   0.248  1.00  0.00     0.182 C 
HETATM   16  C15 UNL     1       3.098   0.001   0.694  1.00  0.00     0.205 C 
BRANCH  15  17
HETATM   17  O9  UNL     1       5.253  -0.533  -0.033  1.00  0.00    -0.390 OA
ATOM     18  H9  UNL     1       5.230  -1.101   0.728  1.00  0.00     0.210 HD
ENDBRANCH  15  17
BRANCH  16  19
HETATM   19  O10 UNL     1       3.218  -0.126   2.108  1.00  0.00    -0.246 OA
BRANCH  19  20
HETATM   20  S1  UNL     1       3.516  -1.671   2.608  1.00  0.00     0.252 S 
HETATM   21  O11 UNL     1       4.709  -1.700   3.560  1.00  0.00    -0.572 OA
HETATM   22  O12 UNL     1       2.356  -2.163   3.427  1.00  0.00    -0.572 OA
HETATM   23  O13 UNL     1       3.757  -2.753   1.352  1.00  0.00    -0.572 OA
ENDBRANCH  19  20
ENDBRANCH  16  19
ENDBRANCH   7   8
ENDBRANCH   4   7
BRANCH   3  24
HETATM   24  C4  UNL     1      -1.848   1.807  -0.176  1.00  0.00     0.072 C 
HETATM   25  N1  UNL     1      -1.317   2.238   0.948  1.00  0.00    -0.272 N 
ATOM     26  H1  UNL     1      -0.613   1.673   1.424  1.00  0.00     0.193 HD
BRANCH  25  27
HETATM   27  O3  UNL     1      -1.697   3.428   1.481  1.00  0.00    -0.290 OA
ATOM     28  H3  UNL     1      -1.314   3.739   2.293  1.00  0.00     0.244 HD
ENDBRANCH  25  27
BRANCH  24  29
HETATM   29  C5  UNL     1      -2.852   2.630  -0.821  1.00  0.00     0.196 C 
BRANCH  29  30
HETATM   30  O4  UNL     1      -4.121   2.006  -0.818  1.00  0.00    -0.387 OA
ATOM     31  H4  UNL     1      -4.779   2.545  -1.241  1.00  0.00     0.210 HD
ENDBRANCH  29  30
BRANCH  29  32
HETATM   32  C6  UNL     1      -2.557   3.149  -2.189  1.00  0.00     0.148 C 
HETATM   33  C7  UNL     1      -2.707   2.059  -3.208  1.00  0.00     0.042 C 
BRANCH  32  34
HETATM   34  O5  UNL     1      -3.550   4.118  -2.509  1.00  0.00    -0.393 OA
ATOM     35  H5  UNL     1      -3.362   4.448  -3.380  1.00  0.00     0.210 HD
ENDBRANCH  32  34
ENDBRANCH  29  32
ENDBRANCH  24  29
ENDBRANCH   3  24
BRANCH   5  36
HETATM   36  O14 UNL     1       0.455  -2.359   0.656  1.00  0.00    -0.246 OA
BRANCH  36  37
HETATM   37  S2  UNL     1       0.654  -3.676  -0.374  1.00  0.00     0.252 S 
HETATM   38  O15 UNL     1       1.044  -4.848   0.490  1.00  0.00    -0.572 OA
HETATM   39  O16 UNL     1       1.776  -3.459  -1.347  1.00  0.00    -0.572 OA
HETATM   40  O17 UNL     1      -0.803  -3.963  -1.159  1.00  0.00    -0.572 OA
ENDBRANCH  36  37
ENDBRANCH   5  36
BRANCH   6  41
HETATM   41  O18 UNL     1      -2.253  -2.912   1.472  1.00  0.00    -0.244 OA
BRANCH  41  42
HETATM   42  S3  UNL     1      -2.190  -3.538   3.004  1.00  0.00     0.252 S 
HETATM   43  O19 UNL     1      -1.015  -2.985   3.790  1.00  0.00    -0.572 OA
HETATM   44  O20 UNL     1      -3.427  -3.210   3.818  1.00  0.00    -0.572 OA
HETATM   45  O21 UNL     1      -2.002  -5.212   2.987  1.00  0.00    -0.572 OA
ENDBRANCH  41  42
ENDBRANCH   6  41
BRANCH   1  46
HETATM   46  O1  UNL     1      -3.992  -1.356   0.758  1.00  0.00    -0.363 OA
HETATM   47  C1  UNL     1      -4.962  -0.783   1.541  1.00  0.00     0.204 C 
ENDBRANCH   1  46
TORSDOF 16
