REMARK  4 active torsions:
REMARK  status: ('A' for Active; 'I' for Inactive)
REMARK    1  A    between atoms: C2_2  and  N1_5 
REMARK       I    between atoms: N1_5  and  C5_7 
REMARK       I    between atoms: C5_7  and  N2_9 
REMARK    2  A    between atoms: N3_11  and  N4_13 
REMARK    3  A    between atoms: N4_13  and  C6_15 
REMARK    4  A    between atoms: C10_20  and  N5_21 
ROOT
HETATM    1  N4  UNL     1       1.112  -0.446   0.185  1.00  0.00    -0.283 N 
ATOM      2  H4  UNL     1       0.370   0.162   0.533  1.00  0.00     0.188 HD
ENDROOT
BRANCH   1   3
HETATM    3  N3  UNL     1       0.788  -1.709  -0.302  1.00  0.00    -0.238 N 
HETATM    4  N2  UNL     1      -0.407  -2.124  -0.308  1.00  0.00    -0.237 N 
HETATM    5  C5  UNL     1      -1.483  -1.309   0.189  1.00  0.00     0.336 C 
ATOM      6  H2  UNL     1      -0.611  -3.055  -0.672  1.00  0.00     0.193 HD
HETATM    7  N1  UNL     1      -2.427  -0.766  -0.720  1.00  0.00    -0.334 N 
HETATM    8  O1  UNL     1      -1.610  -1.064   1.411  1.00  0.00    -0.246 OA
ATOM      9  H1  UNL     1      -2.338  -0.957  -1.718  1.00  0.00     0.165 HD
ATOM     10  H3  UNL     1       1.528  -2.312  -0.661  1.00  0.00     0.208 HD
BRANCH   7  11
HETATM   11  C2  UNL     1      -3.506   0.050  -0.243  1.00  0.00     0.023 C 
HETATM   12  C1  UNL     1      -4.398  -0.688   0.735  1.00  0.00     0.037 C 
HETATM   13  C3  UNL     1      -2.913   1.234   0.489  1.00  0.00     0.037 C 
HETATM   14  C4  UNL     1      -4.316   0.517  -1.452  1.00  0.00     0.037 C 
ENDBRANCH   7  11
ENDBRANCH   1   3
BRANCH   1  15
HETATM   15  C6  UNL     1       2.456   0.012   0.206  1.00  0.00     0.093 A 
HETATM   16  C7  UNL     1       2.742   1.268   0.696  1.00  0.00     0.076 A 
HETATM   17  C8  UNL     1       4.024   1.775   0.745  1.00  0.00     0.121 A 
HETATM   18  F1  UNL     1       4.297   3.008   1.227  1.00  0.00    -0.206 F 
HETATM   19  C9  UNL     1       5.056   0.988   0.284  1.00  0.00     0.081 A 
HETATM   20  C10 UNL     1       4.817  -0.291  -0.222  1.00  0.00     0.146 A 
HETATM   21  C11 UNL     1       3.519  -0.740  -0.245  1.00  0.00     0.177 A 
HETATM   22  F2  UNL     1       3.268  -1.975  -0.731  1.00  0.00    -0.201 F 
BRANCH  20  23
HETATM   23  N5  UNL     1       5.906  -1.073  -0.689  1.00  0.00    -0.112 N 
HETATM   24  O2  UNL     1       5.896  -2.318  -0.599  1.00  0.00    -0.532 OA
HETATM   25  O3  UNL     1       6.995  -0.486  -1.248  1.00  0.00    -0.532 OA
ENDBRANCH  20  23
ENDBRANCH   1  15
TORSDOF 4
