REMARK  5 active torsions:
REMARK  status: ('A' for Active; 'I' for Inactive)
REMARK    1  A    between atoms: C3_3  and  C4_4 
REMARK    2  A    between atoms: C6_6  and  C7_7 
REMARK    3  A    between atoms: C7_7  and  C9_9 
REMARK    4  A    between atoms: C9_9  and  O1_10 
REMARK    5  A    between atoms: C15_17  and  O2_18 
ROOT
HETATM    1  C1  UNL     1       3.616   0.870   3.110  1.00  0.00     0.012 C 
HETATM    2  C2  UNL     1       2.554   0.693   2.583  1.00  0.00    -0.116 C 
HETATM    3  C3  UNL     1       1.275   0.479   2.002  1.00  0.00     0.107 C 
ENDROOT
BRANCH   3   4
HETATM    4  C4  UNL     1       1.158  -0.346   0.758  1.00  0.00    -0.003 C 
HETATM    5  C5  UNL     1       1.781  -1.662   1.202  1.00  0.00     0.021 C 
HETATM    6  C6  UNL     1       1.571   0.153  -0.529  1.00  0.00    -0.063 C 
HETATM    7  C10 UNL     1       1.026   1.553  -0.732  1.00  0.00     0.036 C 
HETATM    8  C11 UNL     1      -0.394   1.742  -0.380  1.00  0.00     0.014 C 
HETATM    9  C12 UNL     1      -1.151   0.590   0.203  1.00  0.00    -0.027 C 
HETATM   10  C13 UNL     1      -1.864   1.155   1.458  1.00  0.00     0.016 C 
HETATM   11  C14 UNL     1      -0.399  -0.580   0.663  1.00  0.00     0.036 C 
HETATM   12  C20 UNL     1      -2.309   0.329  -0.765  1.00  0.00    -0.002 C 
HETATM   13  C15 UNL     1      -0.752  -1.869  -0.027  1.00  0.00     0.124 C 
HETATM   14  C16 UNL     1      -2.280  -1.999   0.199  1.00  0.00     0.047 C 
HETATM   15  C17 UNL     1      -3.007  -0.974  -0.570  1.00  0.00     0.099 C 
HETATM   16  C18 UNL     1      -4.379  -0.703  -0.053  1.00  0.00     0.264 C 
HETATM   17  O3  UNL     1      -5.125  -1.592   0.423  1.00  0.00    -0.265 OA
HETATM   18  O4  UNL     1      -4.594   0.632  -0.214  1.00  0.00    -0.320 OA
HETATM   19  C19 UNL     1      -3.439   1.335  -0.571  1.00  0.00     0.189 C 
HETATM   20  C21 UNL     1      -1.951   0.432  -2.222  1.00  0.00     0.019 C 
BRANCH   6  21
HETATM   21  C7  UNL     1       2.797  -0.094  -1.228  1.00  0.00    -0.041 C 
HETATM   22  C8  UNL     1       2.838  -1.164  -2.075  1.00  0.00     0.021 C 
BRANCH  21  23
HETATM   23  C9  UNL     1       4.029   0.702  -1.274  1.00  0.00     0.202 C 
BRANCH  23  24
HETATM   24  O1  UNL     1       4.777   0.859  -0.165  1.00  0.00    -0.396 OA
ATOM     25  H1  UNL     1       5.575   1.374  -0.195  1.00  0.00     0.209 HD
ENDBRANCH  23  24
ENDBRANCH  21  23
ENDBRANCH   6  21
BRANCH  13  26
HETATM   26  O2  UNL     1      -0.338  -3.011   0.701  1.00  0.00    -0.395 OA
ATOM     27  H2  UNL     1      -0.561  -3.825   0.265  1.00  0.00     0.210 HD
ENDBRANCH  13  26
ENDBRANCH   3   4
TORSDOF 5
