REMARK  8 active torsions:
REMARK  status: ('A' for Active; 'I' for Inactive)
REMARK    1  A    between atoms: N1_1  and  C1_5 
REMARK    2  A    between atoms: C1_5  and  C2_6 
REMARK    3  A    between atoms: C2_6  and  C3_7 
REMARK    4  A    between atoms: C3_7  and  C4_8 
REMARK    5  A    between atoms: C4_8  and  C5_9 
REMARK    6  A    between atoms: C5_9  and  C6_10 
REMARK    7  A    between atoms: C6_10  and  C7_11 
REMARK    8  A    between atoms: C7_11  and  N2_12 
ROOT
HETATM    1  C6  UNL     1       0.071   0.671  -1.193  1.00  0.00     0.020 C 
ENDROOT
BRANCH   1   2
HETATM    2  C5  UNL     1      -0.991   1.658  -1.593  1.00  0.00     0.002 C 
BRANCH   2   3
HETATM    3  C4  UNL     1      -2.304   1.426  -0.879  1.00  0.00     0.000 C 
BRANCH   3   4
HETATM    4  C3  UNL     1      -2.826   0.059  -1.188  1.00  0.00     0.002 C 
BRANCH   4   5
HETATM    5  C2  UNL     1      -4.120  -0.291  -0.541  1.00  0.00     0.027 C 
BRANCH   5   6
HETATM    6  C1  UNL     1      -4.109  -0.259   0.953  1.00  0.00     0.229 C 
BRANCH   6   7
HETATM    7  N1  UNL     1      -3.126  -1.207   1.437  1.00  0.00    -0.079 N 
ATOM      8  H13 UNL     1      -3.278  -2.146   1.069  1.00  0.00     0.274 HD
ATOM      9  H12 UNL     1      -2.201  -1.046   1.038  1.00  0.00     0.274 HD
ATOM     10  H11 UNL     1      -3.118  -1.185   2.457  1.00  0.00     0.274 HD
ENDBRANCH   6   7
ENDBRANCH   5   6
ENDBRANCH   4   5
ENDBRANCH   3   4
ENDBRANCH   2   3
ENDBRANCH   1   2
BRANCH   1  11
HETATM   11  C7  UNL     1       0.390   0.709   0.272  1.00  0.00     0.128 C 
BRANCH  11  12
HETATM   12  N2  UNL     1       1.431  -0.299   0.501  1.00  0.00    -0.356 N 
HETATM   13  C8  UNL     1       1.160  -1.582   0.810  1.00  0.00     0.092 A 
HETATM   14  C9  UNL     1       2.336  -2.247   0.956  1.00  0.00     0.031 A 
HETATM   15  C10 UNL     1       3.343  -1.313   0.723  1.00  0.00    -0.008 A 
HETATM   16  C11 UNL     1       4.723  -1.403   0.729  1.00  0.00     0.014 A 
HETATM   17  C15 UNL     1       2.765  -0.110   0.442  1.00  0.00     0.044 A 
HETATM   18  C12 UNL     1       5.475  -0.294   0.457  1.00  0.00     0.001 A 
HETATM   19  C13 UNL     1       4.912   0.934   0.171  1.00  0.00     0.002 A 
HETATM   20  C14 UNL     1       3.535   1.019   0.165  1.00  0.00     0.030 A 
ENDBRANCH  11  12
ENDBRANCH   1  11
TORSDOF 8
