REMARK  3 active torsions:
REMARK  status: ('A' for Active; 'I' for Inactive)
REMARK    1  A    between atoms: C7_7  and  N1_8 
REMARK    2  A    between atoms: C11_16  and  C12_17 
REMARK    3  A    between atoms: C13_19  and  N3_20 
REMARK       I    between atoms: N5_27  and  C17_28 
ROOT
HETATM    1  N1  UNL     1       0.568   0.604  -0.260  1.00  0.00    -0.289 N 
HETATM    2  C8  UNL     1       0.886   1.964  -0.495  1.00  0.00     0.330 A 
HETATM    3  O1  UNL     1       2.025   2.423  -0.754  1.00  0.00    -0.246 OA
HETATM    4  N2  UNL     1      -0.250   2.796  -0.411  1.00  0.00    -0.273 N 
ATOM      5  H2  UNL     1      -0.275   3.807  -0.541  1.00  0.00     0.173 HD
HETATM    6  C9  UNL     1      -1.347   1.956  -0.112  1.00  0.00     0.276 A 
HETATM    7  O2  UNL     1      -2.537   2.408   0.036  1.00  0.00    -0.266 OA
HETATM    8  C10 UNL     1      -0.859   0.595  -0.016  1.00  0.00     0.109 A 
HETATM    9  C11 UNL     1      -1.562  -0.466   0.294  1.00  0.00     0.056 C 
ENDROOT
BRANCH   1  10
HETATM   10  C7  UNL     1       1.408  -0.532  -0.226  1.00  0.00     0.107 C 
HETATM   11  C3  UNL     1       2.371  -0.673   0.899  1.00  0.00     0.060 C 
HETATM   12  C2  UNL     1       3.621   0.088   0.816  1.00  0.00     0.012 C 
HETATM   13  C4  UNL     1       2.986  -2.038   0.425  1.00  0.00     0.038 C 
HETATM   14  C1  UNL     1       4.020   0.952   1.728  1.00  0.00     0.039 C 
HETATM   15  N5  UNL     1       4.283  -0.321  -0.371  1.00  0.00    -0.318 N 
HETATM   16  C5  UNL     1       3.498  -1.450  -0.875  1.00  0.00     0.095 C 
HETATM   17  C17 UNL     1       5.414   0.159  -1.015  1.00  0.00     0.220 C 
HETATM   18  C6  UNL     1       2.216  -0.836  -1.440  1.00  0.00     0.052 C 
HETATM   19  C18 UNL     1       6.203   1.300  -0.541  1.00  0.00     0.117 C 
HETATM   20  O3  UNL     1       5.780  -0.440  -2.089  1.00  0.00    -0.273 OA
ENDBRANCH   1  10
BRANCH   9  21
HETATM   21  C12 UNL     1      -3.010  -0.463   0.530  1.00  0.00     0.033 A 
HETATM   22  S1  UNL     1      -3.796  -0.667   2.027  1.00  0.00    -0.052 SA
HETATM   23  C13 UNL     1      -5.435  -0.622   1.463  1.00  0.00     0.145 A 
HETATM   24  N4  UNL     1      -5.274  -0.452   0.156  1.00  0.00    -0.339 N 
HETATM   25  C15 UNL     1      -4.057  -0.371  -0.335  1.00  0.00     0.024 A 
ATOM     26  H4  UNL     1      -6.085  -0.385  -0.460  1.00  0.00     0.168 HD
HETATM   27  C16 UNL     1      -3.830  -0.227  -1.838  1.00  0.00     0.069 C 
BRANCH  23  28
HETATM   28  N3  UNL     1      -6.499  -0.734   2.197  1.00  0.00    -0.375 N 
HETATM   29  C14 UNL     1      -7.806  -0.687   1.661  1.00  0.00     0.148 C 
ATOM     30  H3  UNL     1      -6.388  -0.861   3.203  1.00  0.00     0.161 HD
ENDBRANCH  23  28
ENDBRANCH   9  21
TORSDOF 3
