REMARK  5 active torsions:
REMARK  status: ('A' for Active; 'I' for Inactive)
REMARK    1  A    between atoms: C2_2  and  C3_3 
REMARK    2  A    between atoms: C6_6  and  N1_7 
REMARK    3  A    between atoms: N1_7  and  C7_9 
REMARK    4  A    between atoms: C8_12  and  C9_13 
REMARK    5  A    between atoms: C16_22  and  N4_23 
ROOT
HETATM    1  C7  UNL     1       1.220  -0.622   0.132  1.00  0.00     0.700 A 
HETATM    2  N2  UNL     1      -0.090  -0.655   0.420  1.00  0.00    -0.179 N 
ATOM      3  H2  UNL     1      -0.414  -1.305   1.136  1.00  0.00     0.185 HD
HETATM    4  C8  UNL     1      -0.991   0.124  -0.188  1.00  0.00     0.117 A 
HETATM    5  N3  UNL     1      -0.544   0.973  -1.128  1.00  0.00    -0.179 N 
ATOM      6  H3  UNL     1      -1.214   1.577  -1.604  1.00  0.00     0.185 HD
HETATM    7  C16 UNL     1       0.755   1.056  -1.464  1.00  0.00     0.691 A 
HETATM    8  N5  UNL     1       1.612   0.246  -0.817  1.00  0.00    -0.022 N 
ATOM      9  H5  UNL     1       2.602   0.292  -1.057  1.00  0.00     0.203 HD
ENDROOT
BRANCH   1  10
HETATM   10  N1  UNL     1       2.075  -1.379   0.727  1.00  0.00    -0.169 N 
ATOM     11  H1  UNL     1       1.744  -2.026   1.442  1.00  0.00     0.186 HD
BRANCH  10  12
HETATM   12  C6  UNL     1       3.467  -1.345   0.422  1.00  0.00     0.163 A 
HETATM   13  C5  UNL     1       4.196  -2.215  -0.361  1.00  0.00     0.060 A 
HETATM   14  C4  UNL     1       5.504  -1.809  -0.385  1.00  0.00     0.041 A 
HETATM   15  C3  UNL     1       5.525  -0.662   0.415  1.00  0.00     0.077 A 
HETATM   16  O1  UNL     1       4.325  -0.444   0.852  1.00  0.00    -0.293 OA
BRANCH  15  17
HETATM   17  C2  UNL     1       6.747   0.116   0.671  1.00  0.00     0.027 C 
HETATM   18  C1  UNL     1       7.899  -0.221   0.163  1.00  0.00     0.014 C 
ENDBRANCH  15  17
ENDBRANCH  10  12
ENDBRANCH   1  10
BRANCH   4  19
HETATM   19  C9  UNL     1      -2.449   0.124   0.096  1.00  0.00     0.054 C 
HETATM   20  C10 UNL     1      -3.144  -0.207  -1.189  1.00  0.00     0.012 C 
HETATM   21  C11 UNL     1      -4.623  -0.214  -1.120  1.00  0.00     0.001 C 
HETATM   22  C12 UNL     1      -5.098  -0.526   0.269  1.00  0.00     0.000 C 
HETATM   23  C13 UNL     1      -5.113   0.665   1.163  1.00  0.00     0.000 C 
HETATM   24  C14 UNL     1      -4.234   1.796   0.685  1.00  0.00     0.001 C 
HETATM   25  C15 UNL     1      -2.792   1.460   0.658  1.00  0.00     0.012 C 
ENDBRANCH   4  19
BRANCH   7  26
HETATM   26  N4  UNL     1       1.190   1.861  -2.358  1.00  0.00    -0.234 N 
ATOM     27  H42 UNL     1       0.540   2.475  -2.849  1.00  0.00     0.174 HD
ATOM     28  H41 UNL     1       2.176   1.924  -2.613  1.00  0.00     0.174 HD
ENDBRANCH   7  26
TORSDOF 5
