REMARK  7 active torsions:
REMARK  status: ('A' for Active; 'I' for Inactive)
REMARK    1  A    between atoms: C2_2  and  C4_4 
REMARK    2  A    between atoms: C4_4  and  C5_5 
REMARK    3  A    between atoms: C5_5  and  O1_7 
REMARK    4  A    between atoms: C5_5  and  C7_9 
REMARK    5  A    between atoms: C8_12  and  N2_13 
REMARK    6  A    between atoms: N2_13  and  C9_15 
REMARK    7  A    between atoms: C13_22  and  C14_23 
ROOT
HETATM    1  C7  UNL     1       0.100   0.551  -0.342  1.00  0.00     0.073 A 
HETATM    2  N1  UNL     1      -0.400   1.779  -0.222  1.00  0.00    -0.192 N 
ATOM      3  H1  UNL     1       0.252   2.557  -0.322  1.00  0.00     0.184 HD
HETATM    4  C8  UNL     1      -1.692   2.089   0.020  1.00  0.00     0.679 A 
HETATM    5  N3  UNL     1      -2.526   1.055   0.149  1.00  0.00    -0.185 N 
ATOM      6  H3  UNL     1      -3.514   1.229   0.335  1.00  0.00     0.185 HD
HETATM    7  C12 UNL     1      -2.079  -0.237   0.036  1.00  0.00     0.103 A 
HETATM    8  S1  UNL     1      -2.842  -1.759   0.126  1.00  0.00    -0.069 SA
HETATM    9  C13 UNL     1      -1.502  -2.763  -0.150  1.00  0.00     0.035 A 
HETATM   10  C17 UNL     1      -0.471  -1.872  -0.308  1.00  0.00     0.037 A 
HETATM   11  C18 UNL     1      -0.774  -0.554  -0.209  1.00  0.00     0.026 A 
ENDROOT
BRANCH   1  12
HETATM   12  C5  UNL     1       1.569   0.368  -0.564  1.00  0.00     0.098 C 
HETATM   13  C6  UNL     1       1.878  -0.279  -1.856  1.00  0.00     0.053 C 
BRANCH  12  14
HETATM   14  C4  UNL     1       2.240  -0.141   0.672  1.00  0.00     0.048 C 
BRANCH  14  15
HETATM   15  C2  UNL     1       3.726  -0.056   0.728  1.00  0.00    -0.020 C 
HETATM   16  C1  UNL     1       4.214  -0.598   2.105  1.00  0.00     0.009 C 
HETATM   17  C3  UNL     1       4.431  -0.850  -0.345  1.00  0.00     0.009 C 
ENDBRANCH  14  15
ENDBRANCH  12  14
BRANCH  12  18
HETATM   18  O1  UNL     1       2.100   1.704  -0.685  1.00  0.00    -0.384 OA
ATOM     19  H1  UNL     1       1.674   2.027  -1.470  1.00  0.00     0.211 HD
ENDBRANCH  12  18
ENDBRANCH   1  12
BRANCH   4  20
HETATM   20  N2  UNL     1      -2.033   3.315   0.111  1.00  0.00    -0.222 N 
ATOM     21  H2  UNL     1      -1.293   4.007  -0.007  1.00  0.00     0.178 HD
BRANCH  20  22
HETATM   22  C9  UNL     1      -3.341   3.812   0.361  1.00  0.00     0.091 C 
HETATM   23  C10 UNL     1      -4.456   2.948  -0.121  1.00  0.00     0.032 C 
HETATM   24  C11 UNL     1      -3.466   5.156  -0.369  1.00  0.00     0.032 C 
ENDBRANCH  20  22
ENDBRANCH   4  20
BRANCH   9  25
HETATM   25  C14 UNL     1      -1.440  -4.254  -0.210  1.00  0.00     0.056 A 
HETATM   26  C15 UNL     1      -2.588  -4.990  -0.026  1.00  0.00     0.081 A 
HETATM   27  S2  UNL     1      -1.997  -6.584  -0.186  1.00  0.00    -0.094 SA
HETATM   28  C16 UNL     1      -0.356  -6.221  -0.471  1.00  0.00     0.138 A 
HETATM   29  N4  UNL     1      -0.346  -4.901  -0.430  1.00  0.00    -0.358 N 
ATOM     30  H4  UNL     1       0.527  -4.393  -0.572  1.00  0.00     0.166 HD
ENDBRANCH   9  25
TORSDOF 7
