REMARK  7 active torsions:
REMARK  status: ('A' for Active; 'I' for Inactive)
REMARK    1  A    between atoms: C5_5  and  C6_6 
REMARK    2  A    between atoms: C6_6  and  O1_7 
REMARK    3  A    between atoms: C6_6  and  C7_9 
REMARK    4  A    between atoms: C7_9  and  O2_10 
REMARK    5  A    between atoms: O2_10  and  C8_11 
REMARK    6  A    between atoms: C8_11  and  C11_14 
REMARK    7  A    between atoms: C11_14  and  C12_15 
ROOT
HETATM    1  C1  UNL     1      -2.659  -2.406  -0.928  1.00  0.00     0.017 C 
HETATM    2  C2  UNL     1      -2.387  -1.170  -1.324  1.00  0.00    -0.058 C 
HETATM    3  C3  UNL     1      -1.009  -0.708  -1.112  1.00  0.00     0.036 C 
HETATM    4  C4  UNL     1      -0.707   0.726  -1.190  1.00  0.00     0.011 C 
HETATM    5  C5  UNL     1       0.153   1.262  -0.089  1.00  0.00     0.017 C 
HETATM    6  C14 UNL     1      -0.510   1.196   1.265  1.00  0.00     0.011 C 
HETATM    7  C15 UNL     1      -1.716   2.090   1.368  1.00  0.00     0.034 C 
HETATM    8  C16 UNL     1      -2.555   1.673   2.526  1.00  0.00    -0.087 C 
HETATM    9  C17 UNL     1      -1.881   1.721   3.880  1.00  0.00     0.043 C 
HETATM   10  C18 UNL     1      -3.813   1.280   2.407  1.00  0.00    -0.024 C 
HETATM   11  C19 UNL     1      -4.563   1.198   1.125  1.00  0.00     0.030 C 
HETATM   12  C20 UNL     1      -4.321  -0.158   0.447  1.00  0.00     0.044 C 
HETATM   13  C21 UNL     1      -4.596  -0.093  -1.037  1.00  0.00     0.088 A 
HETATM   14  C22 UNL     1      -6.033  -0.097  -1.440  1.00  0.00     0.049 C 
HETATM   15  O3  UNL     1      -3.821   0.870  -1.685  1.00  0.00    -0.365 OA
HETATM   16  C23 UNL     1      -3.507  -0.428  -1.932  1.00  0.00     0.185 A 
ENDROOT
BRANCH   5  17
HETATM   17  C6  UNL     1       1.467   0.482   0.069  1.00  0.00     0.146 C 
BRANCH  17  18
HETATM   18  O1  UNL     1       2.101   1.147   1.146  1.00  0.00    -0.393 OA
ATOM     19  H1  UNL     1       2.914   0.665   1.244  1.00  0.00     0.210 HD
ENDBRANCH  17  18
BRANCH  17  20
HETATM   20  C7  UNL     1       2.342   0.586  -1.124  1.00  0.00     0.200 C 
BRANCH  20  21
HETATM   21  O2  UNL     1       3.533   0.031  -1.049  1.00  0.00    -0.378 OA
BRANCH  21  22
HETATM   22  C8  UNL     1       3.884  -1.225  -0.951  1.00  0.00     0.053 C 
HETATM   23  C9  UNL     1       3.414  -1.936   0.282  1.00  0.00     0.045 C 
HETATM   24  C10 UNL     1       3.429  -2.118  -2.117  1.00  0.00     0.045 C 
BRANCH  22  25
HETATM   25  C11 UNL     1       5.424  -1.363  -1.002  1.00  0.00     0.037 C 
BRANCH  25  26
HETATM   26  C12 UNL     1       6.095  -0.625   0.103  1.00  0.00    -0.002 C 
HETATM   27  C13 UNL     1       5.828   0.856   0.076  1.00  0.00     0.005 C 
ENDBRANCH  25  26
ENDBRANCH  22  25
ENDBRANCH  21  22
ENDBRANCH  20  21
ENDBRANCH  17  20
ENDBRANCH   5  17
TORSDOF 7
