REMARK  10 active torsions:
REMARK  status: ('A' for Active; 'I' for Inactive)
REMARK    1  A    between atoms: C2_2  and  O1_3 
REMARK    2  A    between atoms: C2_2  and  O2_5 
REMARK    3  A    between atoms: C2_2  and  C3_7 
REMARK       I    between atoms: C3_7  and  N1_9 
REMARK    4  A    between atoms: N1_9  and  S1_11 
REMARK    5  A    between atoms: S1_11  and  O6_14 
REMARK    6  A    between atoms: O6_14  and  C4_15 
REMARK    7  A    between atoms: C5_16  and  C6_17 
REMARK    8  A    between atoms: C6_17  and  N2_18 
REMARK    9  A    between atoms: C6_17  and  O7_22 
REMARK   10  A    between atoms: C7_26  and  N4_27 
ROOT
HETATM    1  C4  UNL     1      -1.538  -0.801   0.384  1.00  0.00     0.186 A 
HETATM    2  C5  UNL     1      -2.615   0.061   0.345  1.00  0.00     0.122 A 
HETATM    3  N3  UNL     1      -3.870  -0.473   0.265  1.00  0.00    -0.188 N 
ATOM      4  H3  UNL     1      -4.672   0.157   0.236  1.00  0.00     0.184 HD
HETATM    5  C7  UNL     1      -4.086  -1.803   0.223  1.00  0.00     0.679 A 
HETATM    6  N5  UNL     1      -3.050  -2.670   0.262  1.00  0.00    -0.154 N 
ATOM      7  H5  UNL     1      -3.204  -3.678   0.233  1.00  0.00     0.187 HD
HETATM    8  C8  UNL     1      -1.809  -2.159   0.340  1.00  0.00     0.296 A 
HETATM    9  O8  UNL     1      -0.826  -2.944   0.377  1.00  0.00    -0.264 OA
ENDROOT
BRANCH   1  10
HETATM   10  O6  UNL     1      -0.225  -0.294   0.464  1.00  0.00    -0.208 OA
BRANCH  10  11
HETATM   11  S1  UNL     1       0.681   0.042  -0.916  1.00  0.00     0.369 S 
HETATM   12  O4  UNL     1       0.189  -0.769  -2.090  1.00  0.00    -0.175 OA
HETATM   13  O5  UNL     1       0.552   1.495  -1.344  1.00  0.00    -0.175 OA
BRANCH  11  14
HETATM   14  N1  UNL     1       2.356  -0.250  -0.659  1.00  0.00    -0.226 N 
HETATM   15  C3  UNL     1       3.287   0.830  -0.493  1.00  0.00     0.294 C 
HETATM   16  O3  UNL     1       2.853   1.999  -0.526  1.00  0.00    -0.266 OA
ATOM     17  H1  UNL     1       2.695  -1.211  -0.624  1.00  0.00     0.184 HD
BRANCH  15  18
HETATM   18  C2  UNL     1       4.728   0.599  -0.288  1.00  0.00     0.240 C 
HETATM   19  C1  UNL     1       4.933  -0.290   0.909  1.00  0.00     0.090 C 
BRANCH  18  20
HETATM   20  O1  UNL     1       5.423   1.788  -0.079  1.00  0.00    -0.358 OA
ATOM     21  H1  UNL     1       5.294   2.349  -0.835  1.00  0.00     0.213 HD
ENDBRANCH  18  20
BRANCH  18  22
HETATM   22  O2  UNL     1       5.302   0.007  -1.429  1.00  0.00    -0.358 OA
ATOM     23  H2  UNL     1       5.173   0.568  -2.185  1.00  0.00     0.213 HD
ENDBRANCH  18  22
ENDBRANCH  15  18
ENDBRANCH  11  14
ENDBRANCH  10  11
ENDBRANCH   1  10
BRANCH   2  24
HETATM   24  C6  UNL     1      -2.464   1.525   0.394  1.00  0.00     0.371 C 
BRANCH  24  25
HETATM   25  N2  UNL     1      -3.444   2.100   1.322  1.00  0.00    -0.047 N 
ATOM     26  H23 UNL     1      -4.398   1.822   1.091  1.00  0.00     0.277 HD
ATOM     27  H22 UNL     1      -3.386   1.678   2.249  1.00  0.00     0.277 HD
ATOM     28  H21 UNL     1      -3.339   3.114   1.356  1.00  0.00     0.277 HD
ENDBRANCH  24  25
BRANCH  24  29
HETATM   29  O7  UNL     1      -2.763   2.024  -0.869  1.00  0.00    -0.365 OA
ATOM     30  H7  UNL     1      -2.666   2.968  -0.837  1.00  0.00     0.212 HD
ENDBRANCH  24  29
ENDBRANCH   2  24
BRANCH   5  31
HETATM   31  N4  UNL     1      -5.279  -2.281   0.142  1.00  0.00    -0.234 N 
ATOM     32  H42 UNL     1      -6.061  -1.627   0.113  1.00  0.00     0.174 HD
ATOM     33  H41 UNL     1      -5.442  -3.287   0.110  1.00  0.00     0.174 HD
ENDBRANCH   5  31
TORSDOF 10
