REMARK  8 active torsions:
REMARK  status: ('A' for Active; 'I' for Inactive)
REMARK    1  A    between atoms: N1_1  and  N2_4 
REMARK       I    between atoms: N2_4  and  C1_6 
REMARK    2  A    between atoms: C1_6  and  C2_8 
REMARK    3  A    between atoms: C5_14  and  C6_15 
REMARK    4  A    between atoms: C7_17  and  C8_18 
REMARK    5  A    between atoms: C8_18  and  N8_26 
REMARK    6  A    between atoms: N4_19  and  N5_21 
REMARK    7  A    between atoms: N8_26  and  N9_28 
REMARK    8  A    between atoms: N11_34  and  N12_35 
ROOT
HETATM    1  C2  UNL     1       3.605  -0.088   0.428  1.00  0.00     0.199 A 
HETATM    2  N3  UNL     1       3.171   1.116   0.017  1.00  0.00    -0.330 N 
ATOM      3  H3  UNL     1       3.763   1.937  -0.107  1.00  0.00     0.168 HD
HETATM    4  C3  UNL     1       1.832   1.083  -0.209  1.00  0.00     0.132 A 
HETATM    5  C4  UNL     1       0.925   2.033  -0.632  1.00  0.00     0.218 A 
HETATM    6  O2  UNL     1       1.289   3.214  -0.896  1.00  0.00    -0.285 OA
HETATM    7  C5  UNL     1      -0.394   1.631  -0.752  1.00  0.00     0.085 A 
HETATM    8  C7  UNL     1      -0.765   0.335  -0.458  1.00  0.00     0.098 A 
HETATM    9  N10 UNL     1       0.163  -0.554  -0.048  1.00  0.00    -0.335 N 
ATOM     10  H10 UNL     1      -0.124  -1.509   0.167  1.00  0.00     0.168 HD
HETATM   11  C10 UNL     1       1.458  -0.213   0.085  1.00  0.00     0.160 A 
HETATM   12  N11 UNL     1       2.550  -0.922   0.474  1.00  0.00    -0.222 N 
ENDROOT
BRANCH   8  13
HETATM   13  C8  UNL     1      -2.160  -0.030  -0.602  1.00  0.00     0.162 C 
HETATM   14  N4  UNL     1      -3.124   0.823  -0.431  1.00  0.00    -0.281 N 
ATOM     15  H4  UNL     1      -2.883   1.783  -0.186  1.00  0.00     0.188 HD
BRANCH  14  16
HETATM   16  N5  UNL     1      -4.453   0.496  -0.564  1.00  0.00    -0.274 N 
HETATM   17  C9  UNL     1      -5.194   0.124   0.450  1.00  0.00     0.215 C 
HETATM   18  N6  UNL     1      -6.559  -0.205   0.275  1.00  0.00    -0.065 NA
HETATM   19  N7  UNL     1      -4.571   0.068   1.714  1.00  0.00    -0.065 NA
ATOM     20  H5  UNL     1      -4.879   0.545  -1.490  1.00  0.00     0.189 HD
ENDBRANCH  14  16
BRANCH  13  21
HETATM   21  N8  UNL     1      -2.529  -1.359  -0.942  1.00  0.00    -0.289 N 
ATOM     22  H8  UNL     1      -3.086  -1.942  -0.317  1.00  0.00     0.188 HD
BRANCH  21  23
HETATM   23  N9  UNL     1      -2.078  -1.826  -2.197  1.00  0.00    -0.344 N 
ATOM     24  H92 UNL     1      -1.521  -1.231  -2.811  1.00  0.00     0.176 HD
ATOM     25  H91 UNL     1      -2.343  -2.780  -2.441  1.00  0.00     0.176 HD
ENDBRANCH  21  23
ENDBRANCH  13  21
ENDBRANCH   8  13
BRANCH   7  26
HETATM   26  C6  UNL     1      -1.378   2.595  -1.193  1.00  0.00     0.276 C 
HETATM   27  O3  UNL     1      -1.601   2.703  -2.424  1.00  0.00    -0.301 OA
ENDBRANCH   7  26
BRANCH  12  28
HETATM   28  N12 UNL     1       2.555  -2.259   0.846  1.00  0.00    -0.335 N 
ATOM     29 2H12 UNL     1       3.375  -2.791   1.138  1.00  0.00     0.177 HD
ATOM     30 1H12 UNL     1       1.755  -2.891   0.881  1.00  0.00     0.177 HD
ENDBRANCH  12  28
BRANCH   1  31
HETATM   31  C1  UNL     1       5.007  -0.404   0.762  1.00  0.00     0.305 C 
HETATM   32  N2  UNL     1       6.007   0.582   0.664  1.00  0.00    -0.270 N 
ATOM     33  H2  UNL     1       5.766   1.525   0.359  1.00  0.00     0.189 HD
HETATM   34  O1  UNL     1       5.277  -1.562   1.131  1.00  0.00    -0.263 OA
BRANCH  32  35
HETATM   35  N1  UNL     1       7.318   0.269   0.982  1.00  0.00    -0.342 N 
ATOM     36  H12 UNL     1       7.542  -0.679   1.285  1.00  0.00     0.176 HD
ATOM     37  H11 UNL     1       8.043   0.983   0.911  1.00  0.00     0.176 HD
ENDBRANCH  32  35
ENDBRANCH   1  31
TORSDOF 8
