REMARK  11 active torsions:
REMARK  status: ('A' for Active; 'I' for Inactive)
REMARK    1  A    between atoms: C6_7  and  C7_8 
REMARK    2  A    between atoms: C12_13  and  O2_14 
REMARK    3  A    between atoms: O2_14  and  C13_15 
REMARK    4  A    between atoms: C13_15  and  C14_16 
REMARK    5  A    between atoms: C14_16  and  O3_17 
REMARK    6  A    between atoms: C14_16  and  C15_19 
REMARK    7  A    between atoms: C15_19  and  C16_20 
REMARK    8  A    between atoms: C16_20  and  O4_21 
REMARK    9  A    between atoms: C16_20  and  N1_23 
REMARK   10  A    between atoms: C17_26  and  N2_27 
REMARK   11  A    between atoms: N2_27  and  C18_29 
ROOT
HETATM    1  N1  UNL     1       7.116   1.867  -0.298  1.00  0.00    -0.262 NA
HETATM    2  O5  UNL     1       7.692   1.284  -1.216  1.00  0.00    -0.217 OA
ATOM      3  H5  UNL     1       8.158   0.870  -1.933  1.00  0.00     0.261 HD
ENDROOT
BRANCH   1   4
HETATM    4  C16 UNL     1       6.477   2.434   0.685  1.00  0.00     0.225 C 
BRANCH   4   5
HETATM    5  C15 UNL     1       5.555   1.641   1.369  1.00  0.00     0.137 C 
BRANCH   5   6
HETATM    6  C14 UNL     1       4.082   1.987   0.600  1.00  0.00     0.151 C 
BRANCH   6   7
HETATM    7  C13 UNL     1       3.298   0.965   1.339  1.00  0.00     0.207 C 
BRANCH   7   8
HETATM    8  O2  UNL     1       2.128   0.306   0.790  1.00  0.00    -0.348 OA
BRANCH   8   9
HETATM    9  C12 UNL     1       2.079  -0.317  -0.434  1.00  0.00     0.075 A 
HETATM   10  C7  UNL     1       0.667  -0.645  -0.715  1.00  0.00    -0.016 A 
HETATM   11  C8  UNL     1       0.371  -1.265  -1.929  1.00  0.00     0.010 A 
HETATM   12  C9  UNL     1       1.419  -1.564  -2.802  1.00  0.00     0.001 A 
HETATM   13  C10 UNL     1       2.665  -1.314  -2.571  1.00  0.00     0.003 A 
HETATM   14  C11 UNL     1       3.014  -0.668  -1.360  1.00  0.00     0.037 A 
BRANCH  10  15
HETATM   15  C6  UNL     1      -0.265  -0.650   0.464  1.00  0.00     0.073 C 
HETATM   16  C5  UNL     1      -0.223  -2.167   0.900  1.00  0.00     0.137 C 
HETATM   17  O1  UNL     1       0.356  -2.925  -0.103  1.00  0.00    -0.384 OA
HETATM   18  C25 UNL     1      -1.618  -2.590   1.099  1.00  0.00     0.027 C 
HETATM   19  C4  UNL     1      -0.297  -4.184  -0.024  1.00  0.00     0.177 C 
HETATM   20  C2  UNL     1      -1.741  -3.795   0.245  1.00  0.00    -0.020 C 
HETATM   21  C1  UNL     1      -2.304  -5.021   0.961  1.00  0.00     0.017 C 
HETATM   22  C3  UNL     1      -2.423  -3.639  -1.048  1.00  0.00     0.017 C 
HETATM   23  C24 UNL     1      -2.512  -1.445   0.886  1.00  0.00     0.033 C 
HETATM   24  C17 UNL     1      -1.663  -0.274   0.172  1.00  0.00     0.088 C 
BRANCH  24  25
HETATM   25  N2  UNL     1      -1.945   0.936   0.794  1.00  0.00    -0.412 N 
ATOM     26  H2  UNL     1      -1.324   1.293   1.521  1.00  0.00     0.154 HD
BRANCH  25  27
HETATM   27  C18 UNL     1      -3.088   1.670   0.421  1.00  0.00     0.081 C 
HETATM   28  C19 UNL     1      -2.917   2.149  -1.006  1.00  0.00     0.025 C 
HETATM   29  C20 UNL     1      -4.228   2.813  -1.500  1.00  0.00     0.006 C 
HETATM   30  C21 UNL     1      -5.039   3.331  -0.328  1.00  0.00     0.060 C 
HETATM   31  C22 UNL     1      -4.236   3.862   0.799  1.00  0.00     0.180 C 
HETATM   32  F1  UNL     1      -3.732   5.098   0.467  1.00  0.00    -0.226 F 
HETATM   33 CL1  UNL     1      -5.380   4.076   2.214  1.00  0.00    -0.083 Cl
HETATM   34  C23 UNL     1      -3.183   2.884   1.296  1.00  0.00     0.085 C 
ENDBRANCH  25  27
ENDBRANCH  24  25
ENDBRANCH  10  15
ENDBRANCH   8   9
ENDBRANCH   7   8
ENDBRANCH   6   7
BRANCH   6  35
HETATM   35  O3  UNL     1       4.421   1.791  -0.674  1.00  0.00    -0.393 OA
ATOM     36  H3  UNL     1       4.923   2.445  -1.147  1.00  0.00     0.210 HD
ENDBRANCH   6  35
ENDBRANCH   5   6
ENDBRANCH   4   5
BRANCH   4  37
HETATM   37  O4  UNL     1       6.931   3.789   0.734  1.00  0.00    -0.337 OA
ATOM     38  H4  UNL     1       7.559   4.329   0.268  1.00  0.00     0.220 HD
ENDBRANCH   4  37
ENDBRANCH   1   4
TORSDOF 11
