REMARK  7 active torsions:
REMARK  status: ('A' for Active; 'I' for Inactive)
REMARK    1  A    between atoms: C2_2  and  C5_5 
REMARK    2  A    between atoms: C5_5  and  C6_6 
REMARK    3  A    between atoms: C5_5  and  C7_11 
REMARK    4  A    between atoms: C6_6  and  N1_7 
REMARK    5  A    between atoms: C7_11  and  N2_12 
REMARK    6  A    between atoms: N2_12  and  C8_14 
REMARK    7  A    between atoms: C13_24  and  C14_25 
ROOT
HETATM    1  C8  UNL     1      -0.475  -0.924  -0.872  1.00  0.00     0.701 A 
HETATM    2  N3  UNL     1      -0.185  -2.105  -1.409  1.00  0.00    -0.177 N 
ATOM      3  H3  UNL     1       0.778  -2.296  -1.686  1.00  0.00     0.185 HD
HETATM    4  C9  UNL     1      -1.120  -3.061  -1.601  1.00  0.00     0.145 A 
HETATM    5 CL1  UNL     1      -0.713  -4.604  -2.308  1.00  0.00    -0.062 Cl
HETATM    6  C10 UNL     1      -2.427  -2.805  -1.225  1.00  0.00     0.116 A 
HETATM    7  N4  UNL     1      -3.448  -3.777  -1.406  1.00  0.00    -0.097 NA
HETATM    8  C11 UNL     1      -2.730  -1.584  -0.669  1.00  0.00     0.126 A 
HETATM    9  C12 UNL     1      -3.912  -1.032  -0.203  1.00  0.00     0.096 A 
HETATM   10 CL2  UNL     1      -5.469  -1.813  -0.195  1.00  0.00    -0.079 Cl
HETATM   11  C13 UNL     1      -3.637   0.233   0.249  1.00  0.00     0.107 A 
HETATM   12  N5  UNL     1      -2.318   0.387   0.039  1.00  0.00    -0.275 N 
ATOM     13  H5  UNL     1      -1.802   1.235   0.274  1.00  0.00     0.188 HD
HETATM   14  N6  UNL     1      -1.765  -0.681  -0.505  1.00  0.00    -0.082 N 
ENDROOT
BRANCH   1  15
HETATM   15  N2  UNL     1       0.361   0.020  -0.671  1.00  0.00    -0.224 N 
ATOM     16  H2  UNL     1      -0.007   0.872  -0.248  1.00  0.00     0.177 HD
BRANCH  15  17
HETATM   17  C7  UNL     1       1.745   0.009  -0.973  1.00  0.00     0.145 C 
BRANCH  17  18
HETATM   18  C5  UNL     1       2.495   0.848   0.022  1.00  0.00     0.037 C 
BRANCH  18  19
HETATM   19  C2  UNL     1       3.965   0.825  -0.330  1.00  0.00    -0.045 C 
HETATM   20  C1  UNL     1       4.801   1.699   0.554  1.00  0.00     0.015 C 
HETATM   21  C3  UNL     1       4.069   1.401  -1.749  1.00  0.00     0.015 C 
HETATM   22  C4  UNL     1       4.549  -0.549  -0.369  1.00  0.00     0.015 C 
ENDBRANCH  18  19
BRANCH  18  23
HETATM   23  C6  UNL     1       2.263   0.374   1.440  1.00  0.00     0.236 C 
BRANCH  23  24
HETATM   24  N1  UNL     1       0.888   0.375   1.839  1.00  0.00    -0.079 N 
ATOM     25  H13 UNL     1       0.476   1.297   1.698  1.00  0.00     0.274 HD
ATOM     26  H12 UNL     1       0.325  -0.168   1.184  1.00  0.00     0.274 HD
ATOM     27  H11 UNL     1       0.732   0.055   2.795  1.00  0.00     0.274 HD
ENDBRANCH  23  24
ENDBRANCH  18  23
ENDBRANCH  17  18
ENDBRANCH  15  17
ENDBRANCH   1  15
BRANCH  11  28
HETATM   28  C14 UNL     1      -4.532   1.231   0.835  1.00  0.00     0.104 A 
HETATM   29  C15 UNL     1      -5.860   1.150   1.077  1.00  0.00     0.041 A 
HETATM   30  C16 UNL     1      -6.239   2.362   1.643  1.00  0.00     0.027 A 
HETATM   31  C17 UNL     1      -5.113   3.125   1.717  1.00  0.00     0.142 A 
HETATM   32  O1  UNL     1      -4.141   2.426   1.235  1.00  0.00    -0.320 OA
ENDBRANCH  11  28
TORSDOF 7
