REMARK  4 active torsions:
REMARK  status: ('A' for Active; 'I' for Inactive)
REMARK    1  A    between atoms: N3_13  and  O3_14 
REMARK    2  A    between atoms: C6_16  and  N4_17 
REMARK    3  A    between atoms: N4_17  and  N5_19 
REMARK    4  A    between atoms: C7_21  and  C8_22 
ROOT
HETATM    1  N1  UNL     1      -2.841   1.784   2.601  1.00  0.00    -0.383 N 
ATOM      2  H11 UNL     1      -2.166   1.864   3.361  1.00  0.00     0.158 HD
ATOM      3  H12 UNL     1      -3.808   2.051   2.784  1.00  0.00     0.158 HD
HETATM    4  C1  UNL     1      -2.426   1.352   1.461  1.00  0.00     0.125 C 
HETATM    5  C2  UNL     1      -3.408   1.236   0.355  1.00  0.00     0.169 C 
HETATM    6  C3  UNL     1      -3.125  -0.049  -0.332  1.00  0.00     0.186 C 
HETATM    7  O1  UNL     1      -4.043  -0.821  -0.703  1.00  0.00    -0.290 OA
HETATM    8  C4  UNL     1      -1.738  -0.420  -0.579  1.00  0.00     0.121 A 
HETATM    9  N2  UNL     1      -1.429  -1.290  -1.586  1.00  0.00    -0.301 N 
ATOM     10  H2  UNL     1      -2.170  -1.682  -2.167  1.00  0.00     0.171 HD
HETATM   11  C5  UNL     1      -0.147  -1.630  -1.812  1.00  0.00     0.353 A 
HETATM   12  O2  UNL     1       0.172  -2.439  -2.743  1.00  0.00    -0.244 OA
HETATM   13  N3  UNL     1       0.834  -1.115  -1.048  1.00  0.00    -0.151 N 
HETATM   14  C6  UNL     1       0.557  -0.250  -0.043  1.00  0.00     0.189 A 
HETATM   15  C9  UNL     1      -0.747   0.115   0.210  1.00  0.00     0.155 A 
HETATM   16  O5  UNL     1      -1.116   0.990   1.213  1.00  0.00    -0.291 OA
ENDROOT
BRANCH  14  17
HETATM   17  N4  UNL     1       1.523   0.232   0.678  1.00  0.00    -0.281 N 
ATOM     18  H4  UNL     1       1.286   0.882   1.428  1.00  0.00     0.188 HD
BRANCH  17  19
HETATM   19  N5  UNL     1       2.851  -0.084   0.488  1.00  0.00    -0.307 N 
HETATM   20  C7  UNL     1       3.834   0.684   0.739  1.00  0.00     0.148 C 
ATOM     21  H5  UNL     1       3.063  -1.010   0.116  1.00  0.00     0.186 HD
BRANCH  20  22
HETATM   22  C8  UNL     1       5.188   0.212   0.487  1.00  0.00     0.277 C 
HETATM   23  O4  UNL     1       5.393  -0.938   0.026  1.00  0.00    -0.301 OA
ENDBRANCH  20  22
ENDBRANCH  17  19
ENDBRANCH  14  17
BRANCH  13  24
HETATM   24  O3  UNL     1       2.140  -1.491  -1.314  1.00  0.00    -0.277 OA
ATOM     25  H3  UNL     1       2.832  -1.127  -0.775  1.00  0.00     0.245 HD
ENDBRANCH  13  24
TORSDOF 4
