REMARK  11 active torsions:
REMARK  status: ('A' for Active; 'I' for Inactive)
REMARK    1  A    between atoms: C2_2  and  C3_3 
REMARK    2  A    between atoms: C3_3  and  C4_4 
REMARK    3  A    between atoms: C4_4  and  N1_5 
REMARK    4  A    between atoms: N1_5  and  C5_8 
REMARK    5  A    between atoms: C5_8  and  C6_9 
REMARK    6  A    between atoms: C6_9  and  N2_10 
REMARK    7  A    between atoms: N2_10  and  C7_12 
REMARK    8  A    between atoms: N4_16  and  C9_18 
REMARK    9  A    between atoms: C9_18  and  C10_19 
REMARK   10  A    between atoms: N6_24  and  C13_26 
REMARK   11  A    between atoms: C13_26  and  C14_27 
ROOT
HETATM    1  C7  UNL     1      -0.437   0.101  -0.002  1.00  0.00     0.707 A 
HETATM    2  N3  UNL     1      -1.328  -0.837   0.348  1.00  0.00    -0.021 N 
ATOM      3  H3  UNL     1      -0.990  -1.719   0.732  1.00  0.00     0.203 HD
HETATM    4  C8  UNL     1      -2.656  -0.653   0.209  1.00  0.00     0.711 A 
HETATM    5  N4  UNL     1      -3.572  -1.431   0.512  1.00  0.00    -0.201 N 
ATOM      6  H4  UNL     1      -4.465  -0.997   0.279  1.00  0.00     0.183 HD
HETATM    7  N5  UNL     1      -3.040   0.559  -0.317  1.00  0.00    -0.021 N 
ATOM      8  H5  UNL     1      -4.039   0.730  -0.436  1.00  0.00     0.203 HD
HETATM    9  C12 UNL     1      -2.204   1.519  -0.680  1.00  0.00     0.707 A 
HETATM   10  N6  UNL     1      -2.526   2.653  -1.179  1.00  0.00    -0.222 N 
ATOM     11  H6  UNL     1      -1.780   3.308  -1.414  1.00  0.00     0.178 HD
HETATM   12  N7  UNL     1      -0.861   1.269  -0.511  1.00  0.00    -0.022 N 
ATOM     13  H7  UNL     1      -0.179   1.980  -0.776  1.00  0.00     0.203 HD
ENDROOT
BRANCH   1  14
HETATM   14  N2  UNL     1       0.805  -0.052   0.146  1.00  0.00    -0.223 N 
ATOM     15  H2  UNL     1       1.415   0.711  -0.148  1.00  0.00     0.177 HD
BRANCH  14  16
HETATM   16  C6  UNL     1       1.419  -1.219   0.696  1.00  0.00     0.165 C 
BRANCH  16  17
HETATM   17  C5  UNL     1       2.630  -0.685   1.490  1.00  0.00     0.252 C 
BRANCH  17  18
HETATM   18  N1  UNL     1       3.486  -0.005   0.557  1.00  0.00    -0.073 N 
ATOM     19  H12 UNL     1       4.154   0.609   1.023  1.00  0.00     0.277 HD
ATOM     20  H11 UNL     1       2.986   0.704   0.021  1.00  0.00     0.277 HD
BRANCH  18  21
HETATM   21  C4  UNL     1       4.136  -0.972  -0.292  1.00  0.00     0.236 C 
BRANCH  21  22
HETATM   22  C3  UNL     1       5.022  -0.162  -1.249  1.00  0.00     0.054 C 
BRANCH  22  23
HETATM   23  C2  UNL     1       5.965   0.599  -0.364  1.00  0.00    -0.035 C 
HETATM   24  C1  UNL     1       7.260   0.382  -0.505  1.00  0.00     0.007 C 
ENDBRANCH  22  23
ENDBRANCH  21  22
ENDBRANCH  18  21
ENDBRANCH  17  18
ENDBRANCH  16  17
ENDBRANCH  14  16
ENDBRANCH   1  14
BRANCH   5  25
HETATM   25  C9  UNL     1      -3.807  -2.678   1.054  1.00  0.00     0.105 C 
BRANCH  25  26
HETATM   26  C10 UNL     1      -2.664  -3.399   1.662  1.00  0.00     0.007 C 
HETATM   27  C11 UNL     1      -2.309  -4.567   1.184  1.00  0.00     0.012 C 
ENDBRANCH  25  26
ENDBRANCH   5  25
BRANCH  10  28
HETATM   28  C13 UNL     1      -3.877   3.048  -1.423  1.00  0.00     0.164 C 
BRANCH  28  29
HETATM   29  C14 UNL     1      -3.939   4.535  -1.439  1.00  0.00    -0.017 C 
HETATM   30  C15 UNL     1      -4.745   5.127  -0.561  1.00  0.00     0.008 C 
ENDBRANCH  28  29
ENDBRANCH  10  28
TORSDOF 11
