REMARK  6 active torsions:
REMARK  status: ('A' for Active; 'I' for Inactive)
REMARK    1  A    between atoms: C12_12  and  O1_13 
REMARK    2  A    between atoms: C12_12  and  C13_15 
REMARK    3  A    between atoms: C13_15  and  C14_16 
REMARK    4  A    between atoms: C14_16  and  C15_17 
REMARK    5  A    between atoms: C15_17  and  O2_18 
REMARK    6  A    between atoms: O2_18  and  C16_19 
ROOT
HETATM    1  C1  UNL     1      -0.824   1.902   1.731  1.00  0.00     0.015 C 
HETATM    2  C2  UNL     1      -1.802   1.099   1.428  1.00  0.00    -0.084 C 
HETATM    3  C3  UNL     1      -3.166   1.725   1.724  1.00  0.00     0.034 C 
HETATM    4  C4  UNL     1      -3.727   1.985   0.325  1.00  0.00     0.013 C 
HETATM    5  C5  UNL     1      -3.765   0.723  -0.462  1.00  0.00    -0.043 C 
HETATM    6  C6  UNL     1      -4.158   1.098  -1.898  1.00  0.00     0.015 C 
HETATM    7  C7  UNL     1      -4.914  -0.130   0.060  1.00  0.00     0.015 C 
HETATM    8  C8  UNL     1      -2.494  -0.050  -0.539  1.00  0.00     0.002 C 
HETATM    9  C9  UNL     1      -1.489   0.678  -1.380  1.00  0.00     0.006 C 
HETATM   10  C10 UNL     1      -0.087   0.198  -1.218  1.00  0.00     0.009 C 
HETATM   11  C11 UNL     1      -0.006  -1.147  -0.486  1.00  0.00     0.029 C 
HETATM   12  C12 UNL     1       1.375  -1.702  -0.478  1.00  0.00     0.062 C 
HETATM   13  C18 UNL     1       1.813  -2.223   0.868  1.00  0.00     0.038 C 
HETATM   14  C19 UNL     1       1.545  -1.140   1.878  1.00  0.00     0.004 C 
HETATM   15  C20 UNL     1       0.048  -1.171   2.066  1.00  0.00     0.010 C 
HETATM   16  C21 UNL     1      -0.761  -1.173   0.818  1.00  0.00    -0.030 C 
HETATM   17  C22 UNL     1      -1.443  -2.580   0.836  1.00  0.00     0.016 C 
HETATM   18  C23 UNL     1      -1.893  -0.222   0.866  1.00  0.00     0.027 C 
ENDROOT
BRANCH  12  19
HETATM   19  O1  UNL     1       1.448  -2.868  -1.299  1.00  0.00    -0.389 OA
ATOM     20  H1  UNL     1       2.329  -3.222  -1.294  1.00  0.00     0.210 HD
ENDBRANCH  12  19
BRANCH  12  21
HETATM   21  C13 UNL     1       2.428  -0.802  -0.998  1.00  0.00     0.040 C 
BRANCH  21  22
HETATM   22  C14 UNL     1       3.835  -1.331  -1.012  1.00  0.00     0.030 C 
BRANCH  22  23
HETATM   23  C15 UNL     1       4.784  -0.272  -1.617  1.00  0.00     0.178 C 
BRANCH  23  24
HETATM   24  O2  UNL     1       4.681   0.872  -0.785  1.00  0.00    -0.322 OA
BRANCH  24  25
HETATM   25  C16 UNL     1       5.410   2.024  -1.044  1.00  0.00     0.254 C 
HETATM   26  C17 UNL     1       5.319   3.224  -0.194  1.00  0.00     0.126 C 
HETATM   27  O3  UNL     1       6.168   1.974  -2.070  1.00  0.00    -0.266 OA
ENDBRANCH  24  25
ENDBRANCH  23  24
ENDBRANCH  22  23
ENDBRANCH  21  22
ENDBRANCH  12  21
TORSDOF 6
