REMARK  15 active torsions:
REMARK  status: ('A' for Active; 'I' for Inactive)
REMARK    1  A    between atoms: C2_3  and  C3_4 
REMARK    2  A    between atoms: C3_4  and  O1_5 
REMARK    3  A    between atoms: N2_7  and  C4_8 
REMARK    4  A    between atoms: C4_8  and  C5_9 
REMARK    5  A    between atoms: C5_9  and  C6_10 
REMARK    6  A    between atoms: C6_10  and  O2_11 
REMARK    7  A    between atoms: O2_11  and  C7_12 
REMARK    8  A    between atoms: C7_12  and  C8_13 
REMARK    9  A    between atoms: C7_12  and  C10_19 
REMARK   10  A    between atoms: C8_13  and  C9_14 
REMARK   11  A    between atoms: C9_14  and  N3_15 
REMARK   12  A    between atoms: C10_19  and  C11_20 
REMARK   13  A    between atoms: C11_20  and  N4_21 
REMARK   14  A    between atoms: C13_28  and  N6_29 
REMARK   15  A    between atoms: C14_34  and  N8_35 
ROOT
HETATM    1  C1  UNL     1      -3.612   0.318   2.455  1.00  0.00     0.158 C 
HETATM    2  N1  UNL     1      -3.135   0.252   1.106  1.00  0.00    -0.333 N 
HETATM    3  C2  UNL     1      -1.879   0.654   0.730  1.00  0.00     0.111 A 
HETATM    4  N2  UNL     1      -1.705   0.476  -0.567  1.00  0.00    -0.318 N 
HETATM    5  C12 UNL     1      -2.859  -0.047  -1.062  1.00  0.00     0.155 A 
HETATM    6  N5  UNL     1      -3.230  -0.417  -2.303  1.00  0.00    -0.174 N 
ATOM      7  H5  UNL     1      -2.573  -0.315  -3.076  1.00  0.00     0.186 HD
HETATM    8  C13 UNL     1      -4.452  -0.917  -2.534  1.00  0.00     0.679 A 
HETATM    9  N7  UNL     1      -5.323  -1.058  -1.533  1.00  0.00    -0.175 N 
ATOM     10  H7  UNL     1      -6.249  -1.441  -1.724  1.00  0.00     0.186 HD
HETATM   11  C14 UNL     1      -4.994  -0.696  -0.248  1.00  0.00     0.145 A 
HETATM   12  C15 UNL     1      -3.723  -0.175  -0.005  1.00  0.00     0.125 A 
ENDROOT
BRANCH   4  13
HETATM   13  C4  UNL     1      -0.543   0.706  -1.418  1.00  0.00     0.134 C 
BRANCH  13  14
HETATM   14  C5  UNL     1       0.300  -0.493  -1.646  1.00  0.00     0.046 C 
BRANCH  14  15
HETATM   15  C6  UNL     1       0.967  -1.155  -0.530  1.00  0.00     0.169 C 
BRANCH  15  16
HETATM   16  O2  UNL     1       1.929  -0.546   0.197  1.00  0.00    -0.386 OA
BRANCH  16  17
HETATM   17  C7  UNL     1       3.075  -0.176  -0.433  1.00  0.00     0.124 C 
BRANCH  17  18
HETATM   18  C8  UNL     1       3.192   1.331  -0.386  1.00  0.00     0.059 C 
BRANCH  18  19
HETATM   19  C9  UNL     1       3.237   1.819   1.037  1.00  0.00     0.232 C 
BRANCH  19  20
HETATM   20  N3  UNL     1       3.324   3.281   0.996  1.00  0.00    -0.079 N 
ATOM     21  H33 UNL     1       4.106   3.618   0.434  1.00  0.00     0.274 HD
ATOM     22  H32 UNL     1       2.575   3.709   0.451  1.00  0.00     0.274 HD
ATOM     23  H31 UNL     1       3.354   3.612   1.960  1.00  0.00     0.274 HD
ENDBRANCH  19  20
ENDBRANCH  18  19
ENDBRANCH  17  18
BRANCH  17  24
HETATM   24  C10 UNL     1       4.360  -0.720   0.118  1.00  0.00     0.059 C 
BRANCH  24  25
HETATM   25  C11 UNL     1       4.503  -2.198   0.138  1.00  0.00     0.232 C 
BRANCH  25  26
HETATM   26  N4  UNL     1       3.494  -2.835   0.960  1.00  0.00    -0.079 N 
ATOM     27  H43 UNL     1       3.492  -2.452   1.905  1.00  0.00     0.274 HD
ATOM     28  H42 UNL     1       2.555  -2.559   0.672  1.00  0.00     0.274 HD
ATOM     29  H41 UNL     1       3.592  -3.850   0.974  1.00  0.00     0.274 HD
ENDBRANCH  25  26
ENDBRANCH  24  25
ENDBRANCH  17  24
ENDBRANCH  16  17
ENDBRANCH  15  16
ENDBRANCH  14  15
ENDBRANCH  13  14
ENDBRANCH   4  13
BRANCH   3  30
HETATM   30  C3  UNL     1      -0.871   1.237   1.658  1.00  0.00     0.241 C 
BRANCH  30  31
HETATM   31  O1  UNL     1      -1.326   2.465   2.162  1.00  0.00    -0.393 OA
ATOM     32  H1  UNL     1      -0.683   2.837   2.754  1.00  0.00     0.209 HD
ENDBRANCH  30  31
ENDBRANCH   3  30
BRANCH   8  33
HETATM   33  N6  UNL     1      -4.834  -1.282  -3.730  1.00  0.00    -0.234 N 
ATOM     34  H62 UNL     1      -4.168  -1.174  -4.495  1.00  0.00     0.174 HD
ATOM     35  H61 UNL     1      -5.764  -1.662  -3.906  1.00  0.00     0.174 HD
ENDBRANCH   8  33
BRANCH  11  36
HETATM   36  N8  UNL     1      -5.809  -0.826   0.691  1.00  0.00    -0.383 N 
ATOM     37  H82 UNL     1      -6.738  -1.207   0.513  1.00  0.00     0.157 HD
ATOM     38  H81 UNL     1      -5.565  -0.557   1.644  1.00  0.00     0.157 HD
ENDBRANCH  11  36
TORSDOF 15
