REMARK  1 active torsions:
REMARK  status: ('A' for Active; 'I' for Inactive)
REMARK    1  A    between atoms: N1_1  and  C1_4 
ROOT
HETATM    1  C1  UNL     1      -1.075  -0.256  -0.044  1.00  0.00     0.183 A 
HETATM    2  N2  UNL     1      -0.209  -1.254  -0.206  1.00  0.00    -0.277 N 
ATOM      3  H2  UNL     1      -0.583  -2.190  -0.360  1.00  0.00     0.189 HD
HETATM    4  N3  UNL     1       1.111  -1.109  -0.180  1.00  0.00    -0.250 N 
ATOM      5  H3  UNL     1       1.734  -1.906  -0.309  1.00  0.00     0.192 HD
HETATM    6  C2  UNL     1       1.597   0.132   0.024  1.00  0.00     0.341 A 
HETATM    7  O1  UNL     1       2.835   0.366   0.065  1.00  0.00    -0.245 OA
HETATM    8  N4  UNL     1       0.747   1.168   0.193  1.00  0.00    -0.271 N 
ATOM      9  H4  UNL     1       1.134   2.099   0.346  1.00  0.00     0.174 HD
HETATM   10  C3  UNL     1      -0.589   1.019   0.167  1.00  0.00     0.294 A 
HETATM   11  O2  UNL     1      -1.378   1.998   0.326  1.00  0.00    -0.264 OA
ENDROOT
BRANCH   1  12
HETATM   12  N1  UNL     1      -2.362  -0.434  -0.075  1.00  0.00    -0.380 N 
ATOM     13  H12 UNL     1      -2.721  -1.376  -0.231  1.00  0.00     0.158 HD
ATOM     14  H11 UNL     1      -3.026   0.331   0.049  1.00  0.00     0.158 HD
ENDBRANCH   1  12
TORSDOF 1
