REMARK  1 active torsions:
REMARK  status: ('A' for Active; 'I' for Inactive)
REMARK    1  A    between atoms: C1_2  and  C2_4 
REMARK       I    between atoms: N3_6  and  C3_8 
REMARK       I    between atoms: C3_8  and  N4_9 
REMARK       I    between atoms: C3_8  and  N5_13 
ROOT
HETATM    1  C2  UNL     1       0.915   0.404  -0.129  1.00  0.00     0.180 C 
HETATM    2  N2  UNL     1       0.568   1.766  -0.066  1.00  0.00    -0.077 NA
HETATM    3  N3  UNL     1       0.031  -0.538  -0.055  1.00  0.00    -0.325 N 
ATOM      4  H3  UNL     1       0.323  -1.514  -0.104  1.00  0.00     0.164 HD
HETATM    5  C3  UNL     1      -1.366  -0.211   0.097  1.00  0.00     0.481 C 
HETATM    6  N4  UNL     1      -1.706   0.808  -0.854  1.00  0.00    -0.033 N 
ATOM      7  H41 UNL     1      -2.694   1.039  -0.747  1.00  0.00     0.278 HD
ATOM      8  H42 UNL     1      -1.469   0.544  -1.810  1.00  0.00     0.278 HD
ATOM      9  H43 UNL     1      -1.103   1.627  -0.780  1.00  0.00     0.278 HD
HETATM   10  N5  UNL     1      -2.117  -1.443  -0.162  1.00  0.00    -0.033 N 
ATOM     11  H51 UNL     1      -3.105  -1.212  -0.055  1.00  0.00     0.278 HD
ATOM     12  H52 UNL     1      -1.821  -2.225   0.421  1.00  0.00     0.278 HD
ATOM     13  H53 UNL     1      -1.898  -1.866  -1.064  1.00  0.00     0.278 HD
ENDROOT
BRANCH   1  14
HETATM   14  C1  UNL     1       2.305   0.002  -0.282  1.00  0.00     0.295 C 
HETATM   15  N1  UNL     1       2.722  -1.350  -0.352  1.00  0.00    -0.055 NA
HETATM   16  O1  UNL     1       3.183   0.896  -0.356  1.00  0.00    -0.268 OA
ENDBRANCH   1  14
TORSDOF 1
