REMARK  9 active torsions:
REMARK  status: ('A' for Active; 'I' for Inactive)
REMARK    1  A    between atoms: N3_7  and  C3_8 
REMARK    2  A    between atoms: C4_14  and  N6_15 
REMARK    3  A    between atoms: C5_18  and  C6_19 
REMARK    4  A    between atoms: C6_19  and  C7_20 
REMARK    5  A    between atoms: C6_19  and  N7_27 
REMARK    6  A    between atoms: C7_20  and  C8_21 
REMARK       I    between atoms: N7_27  and  C14_29 
REMARK    7  A    between atoms: C14_29  and  C15_31 
REMARK    8  A    between atoms: C15_31  and  C16_32 
REMARK    9  A    between atoms: C16_32  and  C17_33 
ROOT
HETATM    1  C6  UNL     1       0.455   1.126  -0.034  1.00  0.00     0.043 C 
ENDROOT
BRANCH   1   2
HETATM    2  C5  UNL     1       0.607   2.476  -0.634  1.00  0.00     0.106 A 
HETATM    3  C2  UNL     1      -0.214   3.004  -1.624  1.00  0.00     0.054 A 
HETATM    4  C1  UNL     1      -1.325   2.426  -2.387  1.00  0.00     0.072 C 
HETATM    5  N1  UNL     1       0.187   4.298  -1.888  1.00  0.00    -0.288 N 
HETATM    6  N2  UNL     1       1.175   4.529  -1.116  1.00  0.00    -0.234 N 
ATOM      7  H1  UNL     1      -0.225   4.941  -2.565  1.00  0.00     0.188 HD
HETATM    8  N3  UNL     1       1.460   3.451  -0.342  1.00  0.00    -0.216 N 
ATOM      9  H2  UNL     1       1.686   5.411  -1.084  1.00  0.00     0.209 HD
BRANCH   8  10
HETATM   10  C3  UNL     1       2.533   3.538   0.582  1.00  0.00     0.196 A 
HETATM   11  N4  UNL     1       3.835   3.209   0.452  1.00  0.00    -0.220 N 
HETATM   12  O1  UNL     1       4.472   3.518   1.554  1.00  0.00    -0.153 OA
ATOM     13  H4  UNL     1       4.257   2.786  -0.375  1.00  0.00     0.198 HD
HETATM   14  N5  UNL     1       3.689   4.040   2.433  1.00  0.00    -0.222 N 
HETATM   15  C4  UNL     1       2.451   4.071   1.861  1.00  0.00     0.169 A 
ATOM     16  H5  UNL     1       3.943   4.364   3.366  1.00  0.00     0.198 HD
BRANCH  15  17
HETATM   17  N6  UNL     1       1.427   4.533   2.480  1.00  0.00    -0.381 N 
ATOM     18  H62 UNL     1       0.501   4.556   2.052  1.00  0.00     0.157 HD
ATOM     19  H61 UNL     1       1.367   4.925   3.420  1.00  0.00     0.157 HD
ENDBRANCH  15  17
ENDBRANCH   8  10
ENDBRANCH   1   2
BRANCH   1  20
HETATM   20  C7  UNL     1       1.677   0.582   0.577  1.00  0.00     0.064 C 
BRANCH  20  21
HETATM   21  C8  UNL     1       1.611  -0.844   1.148  1.00  0.00    -0.009 C 
HETATM   22  C9  UNL     1       1.322  -1.868   0.144  1.00  0.00     0.005 C 
HETATM   23  C10 UNL     1       1.950  -3.228   0.472  1.00  0.00     0.000 C 
HETATM   24  C11 UNL     1       3.438  -2.988   0.544  1.00  0.00     0.000 C 
HETATM   25  C12 UNL     1       3.650  -2.226   1.834  1.00  0.00     0.000 C 
HETATM   26  C13 UNL     1       2.873  -0.987   1.936  1.00  0.00     0.005 C 
ENDBRANCH  20  21
ENDBRANCH   1  20
BRANCH   1  27
HETATM   27  N7  UNL     1      -0.380   0.230  -0.754  1.00  0.00    -0.328 N 
HETATM   28  C14 UNL     1      -1.714  -0.041  -0.266  1.00  0.00     0.222 C 
HETATM   29  O2  UNL     1      -2.125   0.519   0.790  1.00  0.00    -0.273 OA
ATOM     30  H7  UNL     1      -0.042  -0.217  -1.606  1.00  0.00     0.168 HD
BRANCH  28  31
HETATM   31  C15 UNL     1      -2.602  -0.960  -0.976  1.00  0.00     0.109 C 
BRANCH  31  32
HETATM   32  C16 UNL     1      -3.926  -1.120  -0.257  1.00  0.00     0.068 C 
BRANCH  32  33
HETATM   33  C17 UNL     1      -4.794  -2.051  -0.999  1.00  0.00     0.035 A 
HETATM   34  C18 UNL     1      -4.914  -3.417  -0.876  1.00  0.00     0.170 A 
HETATM   35  O3  UNL     1      -5.794  -3.832  -1.733  1.00  0.00    -0.295 OA
HETATM   36  C19 UNL     1      -6.274  -2.840  -2.422  1.00  0.00     0.219 A 
HETATM   37  S1  UNL     1      -7.403  -2.976  -3.593  1.00  0.00    -0.033 SA
HETATM   38  N8  UNL     1      -5.673  -1.728  -1.989  1.00  0.00    -0.329 N 
ATOM     39  H8  UNL     1      -5.845  -0.787  -2.343  1.00  0.00     0.168 HD
ENDBRANCH  32  33
ENDBRANCH  31  32
ENDBRANCH  28  31
ENDBRANCH   1  27
TORSDOF 9
