REMARK  5 active torsions:
REMARK  status: ('A' for Active; 'I' for Inactive)
REMARK    1  A    between atoms: C2_2  and  C3_3 
REMARK    2  A    between atoms: C3_3  and  C4_4 
REMARK    3  A    between atoms: C4_4  and  C5_5 
REMARK    4  A    between atoms: C5_5  and  C6_6 
REMARK    5  A    between atoms: C13_16  and  O1_17 
ROOT
HETATM    1  C6  UNL     1       0.993  -0.009   0.275  1.00  0.00     0.082 C 
HETATM    2  C7  UNL     1       1.901  -0.969  -0.396  1.00  0.00     0.076 C 
HETATM    3  C8  UNL     1       1.221  -2.325  -0.348  1.00  0.00    -0.016 C 
HETATM    4  N1  UNL     1       1.829  -3.375   0.016  1.00  0.00    -0.405 N 
ATOM      5  H11 UNL     1       1.372  -4.286   0.048  1.00  0.00     0.155 HD
ATOM      6  H12 UNL     1       2.808  -3.385   0.301  1.00  0.00     0.155 HD
HETATM    7  C9  UNL     1      -0.209  -2.311  -0.764  1.00  0.00     0.085 C 
HETATM    8  C10 UNL     1      -0.932  -1.482   0.268  1.00  0.00     0.061 C 
HETATM    9  C11 UNL     1      -1.540  -2.447   1.268  1.00  0.00     0.036 C 
HETATM   10  C12 UNL     1      -2.995  -2.585   0.905  1.00  0.00     0.037 C 
HETATM   11  C13 UNL     1      -3.166  -1.838  -0.405  1.00  0.00     0.151 C 
HETATM   12  C14 UNL     1      -2.122  -0.752  -0.244  1.00  0.00     0.105 C 
HETATM   13  C15 UNL     1      -2.589   0.171   0.891  1.00  0.00     0.205 C 
HETATM   14  O2  UNL     1      -3.761   0.768   0.430  1.00  0.00    -0.374 OA
HETATM   15  C16 UNL     1      -3.370   1.786  -0.438  1.00  0.00     0.209 C 
HETATM   16  C17 UNL     1      -4.615   2.565  -0.794  1.00  0.00     0.049 C 
HETATM   17  C18 UNL     1      -2.737   1.166  -1.628  1.00  0.00     0.247 C 
HETATM   18  O3  UNL     1      -2.921   1.639  -2.802  1.00  0.00    -0.271 OA
HETATM   19  N2  UNL     1      -1.916   0.024  -1.417  1.00  0.00    -0.343 N 
ATOM     20  H2  UNL     1      -1.196  -0.232  -2.092  1.00  0.00     0.163 HD
HETATM   21  N3  UNL     1      -0.091  -0.597   0.986  1.00  0.00    -0.405 N 
ATOM     22  H3  UNL     1      -0.255  -0.390   1.971  1.00  0.00     0.154 HD
ENDROOT
BRANCH  11  23
HETATM   23  O1  UNL     1      -2.850  -2.652  -1.469  1.00  0.00    -0.393 OA
ATOM     24  H1  UNL     1      -2.957  -2.184  -2.289  1.00  0.00     0.210 HD
ENDBRANCH  11  23
BRANCH   1  25
HETATM   25  C5  UNL     1       1.614   0.999   1.183  1.00  0.00     0.025 C 
BRANCH  25  26
HETATM   26  C4  UNL     1       2.574   1.974   0.655  1.00  0.00     0.002 C 
BRANCH  26  27
HETATM   27  C3  UNL     1       3.799   1.422   0.036  1.00  0.00    -0.000 C 
BRANCH  27  28
HETATM   28  C2  UNL     1       4.741   2.566  -0.412  1.00  0.00    -0.005 C 
HETATM   29  C1  UNL     1       5.953   1.901  -1.025  1.00  0.00     0.005 C 
ENDBRANCH  27  28
ENDBRANCH  26  27
ENDBRANCH  25  26
ENDBRANCH   1  25
TORSDOF 5
