REMARK  10 active torsions:
REMARK  status: ('A' for Active; 'I' for Inactive)
REMARK    1  A    between atoms: C2_2  and  N1_3 
REMARK    2  A    between atoms: N1_3  and  C3_4 
REMARK    3  A    between atoms: N1_3  and  C5_6 
REMARK    4  A    between atoms: C5_6  and  C6_7 
REMARK    5  A    between atoms: C6_7  and  C7_8 
REMARK    6  A    between atoms: C7_8  and  N2_9 
REMARK    7  A    between atoms: N2_9  and  C8_10 
REMARK    8  A    between atoms: N2_9  and  C14_16 
REMARK    9  A    between atoms: C8_10  and  C9_11 
REMARK   10  A    between atoms: C9_11  and  C10_12 
ROOT
HETATM    1  N2  UNL     1      -1.355   0.235   0.309  1.00  0.00     0.102 N 
ENDROOT
BRANCH   1   2
HETATM    2  C7  UNL     1       0.006   0.691   0.427  1.00  0.00     0.275 C 
BRANCH   2   3
HETATM    3  C6  UNL     1       0.990   0.159  -0.568  1.00  0.00     0.060 C 
BRANCH   3   4
HETATM    4  C5  UNL     1       2.324   0.820  -0.142  1.00  0.00     0.274 C 
BRANCH   4   5
HETATM    5  N1  UNL     1       3.397   0.433  -0.971  1.00  0.00     0.087 N 
BRANCH   5   6
HETATM    6  C2  UNL     1       3.798  -0.922  -0.878  1.00  0.00     0.268 C 
HETATM    7  C1  UNL     1       4.222  -1.418   0.457  1.00  0.00     0.037 C 
ENDBRANCH   5   6
BRANCH   5   8
HETATM    8  C3  UNL     1       4.535   1.291  -0.748  1.00  0.00     0.268 C 
HETATM    9  C4  UNL     1       5.544   1.198  -1.870  1.00  0.00     0.037 C 
ENDBRANCH   5   8
ENDBRANCH   4   5
ENDBRANCH   3   4
ENDBRANCH   2   3
ENDBRANCH   1   2
BRANCH   1  10
HETATM   10  C8  UNL     1      -1.841   0.895  -0.925  1.00  0.00     0.277 C 
BRANCH  10  11
HETATM   11  C9  UNL     1      -1.996   2.349  -0.892  1.00  0.00     0.057 C 
BRANCH  11  12
HETATM   12  C10 UNL     1      -2.965   2.781   0.132  1.00  0.00    -0.023 C 
HETATM   13  C11 UNL     1      -2.750   3.635   1.090  1.00  0.00    -0.091 C 
HETATM   14  C12 UNL     1      -3.859   3.969   2.063  1.00  0.00     0.042 C 
HETATM   15  C13 UNL     1      -1.437   4.309   1.246  1.00  0.00     0.042 C 
ENDBRANCH  11  12
ENDBRANCH  10  11
ENDBRANCH   1  10
BRANCH   1  16
HETATM   16  C14 UNL     1      -1.474  -1.146   0.042  1.00  0.00     0.296 C 
HETATM   17  C15 UNL     1      -0.840  -2.122   0.955  1.00  0.00    -0.048 C 
HETATM   18  C16 UNL     1      -0.335  -1.784   2.284  1.00  0.00     0.046 C 
HETATM   19  C17 UNL     1      -0.693  -3.413   0.614  1.00  0.00    -0.008 C 
HETATM   20  C18 UNL     1      -1.100  -4.122  -0.669  1.00  0.00     0.097 C 
HETATM   21  C19 UNL     1      -0.184  -3.805  -1.806  1.00  0.00     0.024 C 
HETATM   22  C20 UNL     1      -2.503  -3.778  -1.016  1.00  0.00     0.229 C 
HETATM   23  O1  UNL     1      -3.066  -4.447  -1.906  1.00  0.00    -0.273 OA
HETATM   24  N3  UNL     1      -3.285  -2.748  -0.427  1.00  0.00    -0.332 N 
HETATM   25  C21 UNL     1      -2.898  -1.576   0.056  1.00  0.00     0.023 C 
ATOM     26  H3  UNL     1      -4.285  -2.937  -0.368  1.00  0.00     0.168 HD
HETATM   27  C22 UNL     1      -3.976  -0.809   0.662  1.00  0.00     0.066 C 
ENDBRANCH   1  16
TORSDOF 10
