REMARK  2 active torsions:
REMARK  status: ('A' for Active; 'I' for Inactive)
REMARK    1  A    between atoms: C9_16  and  N4_17 
REMARK    2  A    between atoms: N4_17  and  O1_19 
ROOT
HETATM    1  N1  UNL     1       0.604  -2.573  -1.013  1.00  0.00    -0.386 N 
ATOM      2  H11 UNL     1       1.332  -2.646  -1.723  1.00  0.00     0.157 HD
ATOM      3  H12 UNL     1       0.098  -3.442  -0.846  1.00  0.00     0.157 HD
HETATM    4  C1  UNL     1       0.352  -1.491  -0.393  1.00  0.00     0.111 C 
HETATM    5  N2  UNL     1      -0.661  -1.390   0.595  1.00  0.00    -0.372 N 
ATOM      6  H2  UNL     1      -1.054  -2.255   0.967  1.00  0.00     0.161 HD
HETATM    7  C2  UNL     1      -1.171  -0.138   1.107  1.00  0.00     0.087 C 
HETATM    8  C3  UNL     1      -2.684  -0.279   1.148  1.00  0.00     0.025 C 
HETATM    9  C4  UNL     1      -3.058   0.224  -0.240  1.00  0.00     0.002 C 
HETATM   10  C5  UNL     1      -2.252   1.512  -0.287  1.00  0.00     0.007 C 
HETATM   11  C6  UNL     1      -0.902   1.032   0.223  1.00  0.00     0.012 C 
HETATM   12  C7  UNL     1      -0.019   0.799  -0.932  1.00  0.00     0.058 C 
HETATM   13  C8  UNL     1       1.108  -0.193  -0.643  1.00  0.00     0.146 A 
HETATM   14  N3  UNL     1       1.961   0.101   0.379  1.00  0.00    -0.344 N 
ATOM     15  H3  UNL     1       1.762   0.270   1.365  1.00  0.00     0.163 HD
HETATM   16  C9  UNL     1       3.039   0.106  -0.219  1.00  0.00     0.164 A 
HETATM   17  S1  UNL     1       2.397  -0.274  -1.801  1.00  0.00    -0.053 SA
ENDROOT
BRANCH  16  18
HETATM   18  N4  UNL     1       4.395   0.360   0.307  1.00  0.00    -0.247 N 
ATOM     19  H4  UNL     1       4.804   1.293   0.264  1.00  0.00     0.196 HD
BRANCH  18  20
HETATM   20  O1  UNL     1       5.074  -0.658   0.840  1.00  0.00    -0.288 OA
ATOM     21  H1  UNL     1       5.946  -0.495   1.178  1.00  0.00     0.244 HD
ENDBRANCH  18  20
ENDBRANCH  16  18
TORSDOF 2
