REMARK  7 active torsions:
REMARK  status: ('A' for Active; 'I' for Inactive)
REMARK    1  A    between atoms: C2_2  and  O1_3 
REMARK    2  A    between atoms: O1_3  and  C3_4 
REMARK    3  A    between atoms: C12_16  and  C13_17 
REMARK    4  A    between atoms: C17_22  and  O4_23 
REMARK    5  A    between atoms: C21_27  and  C22_28 
REMARK    6  A    between atoms: C22_28  and  O5_29 
REMARK    7  A    between atoms: C24_32  and  O6_33 
ROOT
HETATM    1  C3  UNL     1       1.047  -0.380   0.392  1.00  0.00     0.070 C 
HETATM    2  C4  UNL     1       2.516  -0.500   0.067  1.00  0.00     0.070 C 
HETATM    3  C5  UNL     1       2.721   0.826   0.763  1.00  0.00     0.043 C 
HETATM    4  C6  UNL     1       3.670   1.750   0.080  1.00  0.00     0.041 C 
HETATM    5  C7  UNL     1       4.924   1.776   0.946  1.00  0.00     0.105 C 
HETATM    6  C8  UNL     1       4.568   0.926   2.116  1.00  0.00     0.218 C 
HETATM    7  O2  UNL     1       5.434   0.470   2.915  1.00  0.00    -0.274 OA
HETATM    8  N1  UNL     1       3.155   0.760   2.123  1.00  0.00    -0.351 N 
ATOM      9  H1  UNL     1       2.564   0.620   2.943  1.00  0.00     0.163 HD
HETATM   10  C9  UNL     1       1.248   1.069   0.539  1.00  0.00     0.056 C 
HETATM   11  C10 UNL     1       0.847   1.996  -0.518  1.00  0.00     0.021 C 
HETATM   12  C11 UNL     1       1.233   1.727  -1.891  1.00  0.00    -0.011 C 
HETATM   13  C12 UNL     1       0.581   1.013  -2.760  1.00  0.00    -0.023 C 
HETATM   14  C14 UNL     1      -0.691   0.291  -2.579  1.00  0.00     0.057 C 
HETATM   15  C15 UNL     1      -0.993  -0.137  -1.155  1.00  0.00     0.027 C 
HETATM   16  C16 UNL     1       0.142  -0.886  -0.646  1.00  0.00     0.054 C 
HETATM   17  C17 UNL     1      -2.149  -1.086  -1.325  1.00  0.00     0.133 C 
HETATM   18  C19 UNL     1      -2.555  -1.857  -0.119  1.00  0.00     0.037 C 
HETATM   19  C20 UNL     1      -3.669  -1.023   0.529  1.00  0.00     0.038 C 
HETATM   20  C21 UNL     1      -2.954  -0.027   1.368  1.00  0.00    -0.057 C 
HETATM   21  C23 UNL     1      -2.041   0.838   0.938  1.00  0.00     0.016 C 
HETATM   22  C24 UNL     1      -1.491   1.059  -0.429  1.00  0.00     0.087 C 
HETATM   23  C25 UNL     1      -0.635   2.257  -0.360  1.00  0.00     0.052 C 
ENDROOT
BRANCH   1  24
HETATM   24  O1  UNL     1       0.798  -0.922   1.634  1.00  0.00    -0.380 OA
BRANCH  24  25
HETATM   25  C2  UNL     1       1.078  -2.224   1.852  1.00  0.00     0.164 C 
HETATM   26  C1  UNL     1       0.707  -2.674   3.266  1.00  0.00     0.033 C 
ENDBRANCH  24  25
ENDBRANCH   1  24
BRANCH  13  27
HETATM   27  C13 UNL     1       1.150   0.874  -4.085  1.00  0.00     0.265 C 
HETATM   28  O3  UNL     1       2.234   1.426  -4.374  1.00  0.00    -0.302 OA
ENDBRANCH  13  27
BRANCH  22  29
HETATM   29  O6  UNL     1      -2.637   1.440  -1.193  1.00  0.00    -0.385 OA
ATOM     30  H6  UNL     1      -2.956   2.205  -0.729  1.00  0.00     0.211 HD
ENDBRANCH  22  29
BRANCH  17  31
HETATM   31  O4  UNL     1      -1.855  -1.999  -2.321  1.00  0.00    -0.390 OA
HETATM   32  C18 UNL     1      -2.792  -1.999  -3.361  1.00  0.00     0.202 C 
ENDBRANCH  17  31
BRANCH  20  33
HETATM   33  C22 UNL     1      -3.343  -0.056   2.802  1.00  0.00     0.198 C 
BRANCH  33  34
HETATM   34  O5  UNL     1      -2.643   0.901   3.543  1.00  0.00    -0.397 OA
ATOM     35  H5  UNL     1      -2.892   0.882   4.460  1.00  0.00     0.209 HD
ENDBRANCH  33  34
ENDBRANCH  20  33
TORSDOF 7
