REMARK  7 active torsions:
REMARK  status: ('A' for Active; 'I' for Inactive)
REMARK    1  A    between atoms: N1_1  and  C1_4 
REMARK    2  A    between atoms: C2_7  and  N3_8 
REMARK    3  A    between atoms: N4_11  and  C5_12 
REMARK    4  A    between atoms: C5_12  and  C6_13 
REMARK    5  A    between atoms: N7_29  and  C17_30 
REMARK    6  A    between atoms: C17_30  and  C18_31 
REMARK    7  A    between atoms: C18_31  and  C19_32 
ROOT
HETATM    1  C1  UNL     1       1.339  -1.259   2.057  1.00  0.00     0.123 A 
HETATM    2  N2  UNL     1       0.161  -0.810   1.560  1.00  0.00    -0.176 N 
ATOM      3  H2  UNL     1      -0.683  -1.001   2.100  1.00  0.00     0.186 HD
HETATM    4  C2  UNL     1       0.024  -0.134   0.412  1.00  0.00     0.690 A 
HETATM    5  N6  UNL     1       1.128   0.113  -0.290  1.00  0.00    -0.194 N 
ATOM      6  H6  UNL     1       1.067   0.626  -1.170  1.00  0.00     0.184 HD
HETATM    7  C13 UNL     1       2.321  -0.311   0.157  1.00  0.00     0.038 A 
HETATM    8  C14 UNL     1       2.477  -1.014   1.346  1.00  0.00     0.011 A 
HETATM    9  C15 UNL     1       3.734  -1.547   1.931  1.00  0.00     0.074 C 
HETATM   10  C16 UNL     1       4.806  -1.678   0.883  1.00  0.00     0.277 C 
HETATM   11  N7  UNL     1       5.486  -0.478   0.523  1.00  0.00     0.089 N 
HETATM   12  C23 UNL     1       4.570   0.584   0.147  1.00  0.00     0.278 C 
HETATM   13  C24 UNL     1       3.455   0.070  -0.745  1.00  0.00     0.088 C 
ENDROOT
BRANCH   4  14
HETATM   14  N3  UNL     1      -1.253   0.305  -0.051  1.00  0.00    -0.126 N 
HETATM   15  C3  UNL     1      -1.516   0.792  -1.376  1.00  0.00     0.199 C 
HETATM   16  C4  UNL     1      -2.787   0.181  -1.908  1.00  0.00     0.109 C 
HETATM   17  N4  UNL     1      -3.908   0.224  -1.060  1.00  0.00    -0.280 N 
HETATM   18  N5  UNL     1      -3.721   0.397   0.277  1.00  0.00    -0.245 N 
HETATM   19  C12 UNL     1      -2.393   0.276   0.829  1.00  0.00     0.356 C 
ATOM     20  H5  UNL     1      -4.513   0.610   0.884  1.00  0.00     0.192 HD
HETATM   21  O1  UNL     1      -2.202   0.146   2.061  1.00  0.00    -0.244 OA
BRANCH  17  22
HETATM   22  C5  UNL     1      -5.133   0.626  -1.630  1.00  0.00     0.093 C 
BRANCH  22  23
HETATM   23  C6  UNL     1      -6.319   0.668  -0.725  1.00  0.00     0.026 C 
HETATM   24  C7  UNL     1      -7.499   1.127  -1.596  1.00  0.00     0.010 C 
HETATM   25  C8  UNL     1      -8.753   1.282  -0.801  1.00  0.00     0.001 C 
HETATM   26  C9  UNL     1      -9.071   0.033  -0.031  1.00  0.00     0.000 C 
HETATM   27  C10 UNL     1      -8.111  -1.067  -0.427  1.00  0.00     0.001 C 
HETATM   28  C11 UNL     1      -6.684  -0.653  -0.139  1.00  0.00     0.010 C 
ENDBRANCH  22  23
ENDBRANCH  17  22
ENDBRANCH   4  14
BRANCH   1  29
HETATM   29  N1  UNL     1       1.385  -1.890   3.173  1.00  0.00    -0.385 N 
ATOM     30  H12 UNL     1       0.534  -2.073   3.705  1.00  0.00     0.157 HD
ATOM     31  H11 UNL     1       2.272  -2.228   3.547  1.00  0.00     0.157 HD
ENDBRANCH   1  29
BRANCH  11  32
HETATM   32  C17 UNL     1       6.257  -0.026   1.659  1.00  0.00     0.277 C 
BRANCH  32  33
HETATM   33  C18 UNL     1       7.162   1.131   1.393  1.00  0.00     0.070 C 
BRANCH  33  34
HETATM   34  C19 UNL     1       8.197   0.853   0.397  1.00  0.00    -0.032 A 
HETATM   35  C20 UNL     1       8.125   1.047  -0.954  1.00  0.00     0.033 A 
HETATM   36  C21 UNL     1       9.349   0.636  -1.464  1.00  0.00     0.142 A 
HETATM   37  O2  UNL     1      10.102   0.221  -0.460  1.00  0.00    -0.334 OA
HETATM   38  C22 UNL     1       9.439   0.340   0.655  1.00  0.00     0.148 A 
ENDBRANCH  33  34
ENDBRANCH  32  33
ENDBRANCH  11  32
TORSDOF 7
