REMARK  9 active torsions:
REMARK  status: ('A' for Active; 'I' for Inactive)
REMARK    1  A    between atoms: C2_2  and  O1_3 
REMARK    2  A    between atoms: O1_3  and  C3_4 
REMARK    3  A    between atoms: C3_4  and  O2_5 
REMARK    4  A    between atoms: C6_9  and  C7_10 
REMARK    5  A    between atoms: N2_13  and  C8_14 
REMARK    6  A    between atoms: C8_14  and  C9_15 
REMARK    7  A    between atoms: C9_15  and  O3_16 
REMARK    8  A    between atoms: C9_15  and  C10_18 
REMARK    9  A    between atoms: C19_28  and  C20_29 
ROOT
HETATM    1  C7  UNL     1      -0.059   0.119  -0.129  1.00  0.00     0.043 A 
HETATM    2  N1  UNL     1       0.894  -0.626   0.513  1.00  0.00    -0.300 N 
ATOM      3  H1  UNL     1       0.717  -1.481   1.040  1.00  0.00     0.187 HD
HETATM    4  N2  UNL     1       2.064  -0.071   0.346  1.00  0.00    -0.282 N 
HETATM    5  C14 UNL     1       1.864   1.049  -0.416  1.00  0.00     0.104 A 
HETATM    6  S1  UNL     1       2.671   2.347  -1.148  1.00  0.00    -0.073 SA
HETATM    7  C15 UNL     1       1.340   3.113  -1.879  1.00  0.00     0.001 A 
HETATM    8  C16 UNL     1       0.275   2.325  -1.527  1.00  0.00    -0.028 A 
HETATM    9  C17 UNL     1       0.557   1.228  -0.749  1.00  0.00     0.031 A 
HETATM   10  C18 UNL     1      -1.113   2.721  -2.035  1.00  0.00     0.065 C 
HETATM   11  C19 UNL     1      -1.432   4.128  -1.954  1.00  0.00     0.159 C 
HETATM   12  S2  UNL     1      -0.080   5.312  -1.950  1.00  0.00    -0.150 SA
HETATM   13  C21 UNL     1       1.281   4.345  -2.726  1.00  0.00     0.121 C 
ENDROOT
BRANCH   1  14
HETATM   14  C6  UNL     1      -1.493  -0.238  -0.101  1.00  0.00     0.038 C 
HETATM   15  C5  UNL     1      -1.585  -1.724   0.325  1.00  0.00     0.016 C 
HETATM   16  C4  UNL     1      -2.926  -2.297   0.024  1.00  0.00     0.069 C 
HETATM   17  C3  UNL     1      -3.962  -1.298   0.551  1.00  0.00     0.161 C 
HETATM   18  C23 UNL     1      -3.357  -0.386   1.565  1.00  0.00     0.069 C 
HETATM   19  C22 UNL     1      -2.240   0.487   1.005  1.00  0.00     0.016 C 
BRANCH  17  20
HETATM   20  O1  UNL     1      -4.967  -2.046   1.094  1.00  0.00    -0.356 OA
BRANCH  20  21
HETATM   21  C2  UNL     1      -6.079  -1.372   1.510  1.00  0.00     0.167 C 
HETATM   22  C1  UNL     1      -7.064  -2.392   2.058  1.00  0.00     0.033 C 
ENDBRANCH  20  21
ENDBRANCH  17  20
BRANCH  17  23
HETATM   23  O2  UNL     1      -4.440  -0.626  -0.567  1.00  0.00    -0.365 OA
ATOM     24  H2  UNL     1      -3.741  -0.106  -0.945  1.00  0.00     0.213 HD
ENDBRANCH  17  23
ENDBRANCH   1  14
BRANCH   4  25
HETATM   25  C8  UNL     1       3.358  -0.484   0.827  1.00  0.00     0.182 C 
BRANCH  25  26
HETATM   26  C9  UNL     1       3.985  -1.405  -0.207  1.00  0.00     0.145 C 
BRANCH  26  27
HETATM   27  O3  UNL     1       4.096  -0.683  -1.381  1.00  0.00    -0.393 OA
ATOM     28  H3  UNL     1       4.488  -1.259  -2.027  1.00  0.00     0.210 HD
ENDBRANCH  26  27
BRANCH  26  29
HETATM   29  C10 UNL     1       5.350  -1.808   0.317  1.00  0.00    -0.024 C 
HETATM   30  C11 UNL     1       6.230  -0.598   0.527  1.00  0.00     0.017 C 
HETATM   31  C12 UNL     1       6.029  -2.741  -0.666  1.00  0.00     0.017 C 
HETATM   32  C13 UNL     1       5.240  -2.529   1.638  1.00  0.00     0.017 C 
ENDBRANCH  26  29
ENDBRANCH  25  26
ENDBRANCH   4  25
BRANCH  11  33
HETATM   33  C20 UNL     1      -2.314   4.448  -0.772  1.00  0.00     0.400 C 
HETATM   34  F1  UNL     1      -2.574   5.807  -0.736  1.00  0.00    -0.170 F 
HETATM   35  F2  UNL     1      -3.491   3.726  -0.877  1.00  0.00    -0.170 F 
HETATM   36  F3  UNL     1      -1.695   4.072   0.396  1.00  0.00    -0.170 F 
ENDBRANCH  11  33
TORSDOF 9
