REMARK  4 active torsions:
REMARK  status: ('A' for Active; 'I' for Inactive)
REMARK    1  A    between atoms: C4_4  and  N1_5 
REMARK    2  A    between atoms: N1_5  and  C5_7 
REMARK    3  A    between atoms: C5_7  and  C6_8 
REMARK    4  A    between atoms: C6_8  and  N2_9 
ROOT
HETATM    1  C6  UNL     1      -0.641  -0.084   0.393  1.00  0.00     0.077 C 
ENDROOT
BRANCH   1   2
HETATM    2  C5  UNL     1       0.308  -0.770  -0.575  1.00  0.00     0.158 C 
BRANCH   2   3
HETATM    3  N1  UNL     1       1.685  -0.688  -0.232  1.00  0.00    -0.413 N 
ATOM      4  H1  UNL     1       2.181  -1.513   0.105  1.00  0.00     0.153 HD
BRANCH   3   5
HETATM    5  C4  UNL     1       2.360   0.543  -0.361  1.00  0.00     0.076 C 
HETATM    6  C3  UNL     1       3.731   0.255  -1.040  1.00  0.00     0.024 C 
HETATM    7  C2  UNL     1       4.361  -0.629   0.048  1.00  0.00     0.002 C 
HETATM    8  C1  UNL     1       3.882  -0.014   1.372  1.00  0.00     0.002 C 
HETATM    9  C11 UNL     1       2.881   1.053   0.965  1.00  0.00     0.024 C 
ENDBRANCH   3   5
ENDBRANCH   2   3
ENDBRANCH   1   2
BRANCH   1  10
HETATM   10  N2  UNL     1      -1.987  -0.284   0.028  1.00  0.00    -0.389 N 
HETATM   11  C7  UNL     1      -2.503   0.313  -1.134  1.00  0.00     0.149 C 
HETATM   12  C8  UNL     1      -3.810  -0.462  -1.441  1.00  0.00     0.252 C 
HETATM   13  N3  UNL     1      -4.792   0.042  -0.510  1.00  0.00    -0.072 N 
HETATM   14  C9  UNL     1      -4.211   0.482   0.735  1.00  0.00     0.252 C 
ATOM     15  H32 UNL     1      -5.350   0.783  -0.934  1.00  0.00     0.277 HD
ATOM     16  H31 UNL     1      -5.527  -0.646  -0.347  1.00  0.00     0.277 HD
HETATM   17  C10 UNL     1      -2.949  -0.272   1.077  1.00  0.00     0.149 C 
ENDBRANCH   1  10
TORSDOF 4
