REMARK  3 active torsions:
REMARK  status: ('A' for Active; 'I' for Inactive)
REMARK    1  A    between atoms: C2_2  and  C3_3 
REMARK    2  A    between atoms: C3_3  and  C4_4 
REMARK    3  A    between atoms: C4_4  and  N1_5 
ROOT
HETATM    1  C4  UNL     1       0.023   0.366  -0.421  1.00  0.00     0.225 C 
HETATM    2  C6  UNL     1      -0.665  -0.673  -1.240  1.00  0.00     0.071 C 
HETATM    3  C7  UNL     1      -1.422  -1.677  -0.377  1.00  0.00     0.044 C 
HETATM    4  C8  UNL     1      -2.451  -0.910   0.434  1.00  0.00     0.194 C 
HETATM    5  F1  UNL     1      -3.035  -1.677   1.397  1.00  0.00    -0.247 F 
HETATM    6  C9  UNL     1      -1.706   0.229   1.106  1.00  0.00     0.208 C 
HETATM    7  O1  UNL     1      -0.330   0.152   0.912  1.00  0.00    -0.351 OA
ENDROOT
BRANCH   1   8
HETATM    8  C3  UNL     1       1.490   0.466  -0.600  1.00  0.00     0.068 C 
BRANCH   8   9
HETATM    9  C2  UNL     1       2.305  -0.736  -0.322  1.00  0.00     0.000 C 
HETATM   10  C1  UNL     1       2.230  -1.276   1.069  1.00  0.00     0.005 C 
ENDBRANCH   8   9
ENDBRANCH   1   8
BRANCH   1  11
HETATM   11  N1  UNL     1      -0.543   1.676  -0.757  1.00  0.00    -0.047 N 
HETATM   12  C5  UNL     1      -0.085   2.715   0.113  1.00  0.00     0.270 C 
ATOM     13  H12 UNL     1      -0.366   1.912  -1.733  1.00  0.00     0.280 HD
ATOM     14  H11 UNL     1      -1.562   1.640  -0.779  1.00  0.00     0.280 HD
ENDBRANCH   1  11
TORSDOF 3
