REMARK  11 active torsions:
REMARK  status: ('A' for Active; 'I' for Inactive)
REMARK    1  A    between atoms: O1_2  and  C2_3 
REMARK    2  A    between atoms: C2_3  and  C3_5 
REMARK    3  A    between atoms: C4_6  and  O3_7 
REMARK    4  A    between atoms: C5_9  and  C6_10 
REMARK    5  A    between atoms: C6_10  and  O5_12 
REMARK    6  A    between atoms: O5_12  and  C7_13 
REMARK    7  A    between atoms: C17_23  and  O6_24 
REMARK    8  A    between atoms: O6_24  and  C18_25 
REMARK    9  A    between atoms: C22_30  and  C24_32 
REMARK   10  A    between atoms: C24_32  and  C25_33 
REMARK   11  A    between atoms: C26_34  and  C27_35 
ROOT
HETATM    1  C3  UNL     1      -1.773  -1.824   1.743  1.00  0.00     0.119 C 
HETATM    2  C4  UNL     1      -2.551  -0.650   1.305  1.00  0.00     0.146 C 
HETATM    3  C5  UNL     1      -2.548  -0.357  -0.168  1.00  0.00     0.120 C 
HETATM    4  C10 UNL     1      -1.357  -0.760  -0.911  1.00  0.00     0.014 C 
HETATM    5  C11 UNL     1      -0.918  -2.178  -0.632  1.00  0.00     0.003 C 
HETATM    6  C12 UNL     1      -0.888  -2.532   0.811  1.00  0.00     0.007 C 
HETATM    7  C13 UNL     1       0.586  -2.518   1.251  1.00  0.00     0.011 C 
HETATM    8  C14 UNL     1       1.249  -1.758   0.117  1.00  0.00    -0.002 C 
HETATM    9  C15 UNL     1       0.825  -0.329   0.274  1.00  0.00     0.006 C 
HETATM   10  C16 UNL     1      -0.096  -0.000  -0.869  1.00  0.00     0.032 C 
HETATM   11  C17 UNL     1       0.667  -0.852  -1.917  1.00  0.00     0.079 C 
HETATM   12  C20 UNL     1       2.093  -0.500  -2.032  1.00  0.00     0.040 C 
HETATM   13  C21 UNL     1       2.604   0.610  -1.207  1.00  0.00     0.013 C 
HETATM   14  C22 UNL     1       2.030   0.632   0.161  1.00  0.00    -0.036 C 
HETATM   15  C23 UNL     1       1.468   2.038   0.442  1.00  0.00     0.016 C 
HETATM   16  C28 UNL     1       0.485  -2.172  -1.133  1.00  0.00     0.030 C 
ENDROOT
BRANCH  14  17
HETATM   17  C24 UNL     1       3.002   0.331   1.266  1.00  0.00     0.036 C 
BRANCH  17  18
HETATM   18  C25 UNL     1       4.199   1.144   1.386  1.00  0.00    -0.019 C 
HETATM   19  C26 UNL     1       4.573   2.172   0.670  1.00  0.00     0.080 C 
BRANCH  19  20
HETATM   20  C27 UNL     1       5.835   2.885   0.932  1.00  0.00     0.198 C 
HETATM   21  O8  UNL     1       6.150   3.862   0.221  1.00  0.00    -0.645 OA
HETATM   22  O9  UNL     1       6.686   2.509   1.943  1.00  0.00    -0.645 OA
ENDBRANCH  19  20
ENDBRANCH  17  18
ENDBRANCH  14  17
BRANCH  11  23
HETATM   23  O6  UNL     1       0.002  -0.848  -3.127  1.00  0.00    -0.309 OA
BRANCH  23  24
HETATM   24  C18 UNL     1       0.410  -1.511  -4.238  1.00  0.00     0.255 C 
HETATM   25  C19 UNL     1      -0.445  -1.388  -5.473  1.00  0.00     0.126 C 
HETATM   26  O7  UNL     1       1.444  -2.193  -4.246  1.00  0.00    -0.266 OA
ENDBRANCH  23  24
ENDBRANCH  11  23
BRANCH   3  27
HETATM   27  C6  UNL     1      -2.967   1.029  -0.445  1.00  0.00     0.266 C 
HETATM   28  O4  UNL     1      -3.959   1.220  -1.191  1.00  0.00    -0.265 OA
BRANCH  27  29
HETATM   29  O5  UNL     1      -2.365   2.169   0.043  1.00  0.00    -0.316 OA
BRANCH  29  30
HETATM   30  C7  UNL     1      -2.795   3.480  -0.244  1.00  0.00     0.123 C 
HETATM   31  C8  UNL     1      -1.773   4.295  -0.974  1.00  0.00     0.040 C 
HETATM   32  C9  UNL     1      -3.255   4.210   0.983  1.00  0.00     0.040 C 
ENDBRANCH  29  30
ENDBRANCH  27  29
ENDBRANCH   3  27
BRANCH   1  33
HETATM   33  C2  UNL     1      -2.625  -2.819   2.498  1.00  0.00     0.265 C 
HETATM   34  O2  UNL     1      -3.831  -2.526   2.648  1.00  0.00    -0.265 OA
BRANCH  33  35
HETATM   35  O1  UNL     1      -2.122  -3.985   3.000  1.00  0.00    -0.326 OA
HETATM   36  C1  UNL     1      -2.994  -4.864   3.698  1.00  0.00     0.213 C 
ENDBRANCH  33  35
ENDBRANCH   1  33
BRANCH   2  37
HETATM   37  O3  UNL     1      -2.279   0.530   2.051  1.00  0.00    -0.394 OA
ATOM     38  H3  UNL     1      -2.780   1.286   1.769  1.00  0.00     0.210 HD
ENDBRANCH   2  37
TORSDOF 11
