REMARK  2 active torsions:
REMARK  status: ('A' for Active; 'I' for Inactive)
REMARK    1  A    between atoms: C2_2  and  C3_3 
REMARK    2  A    between atoms: C3_3  and  O1_4 
ROOT
HETATM    1  C3  UNL     1       0.397   0.531  -0.453  1.00  0.00     0.069 C 
HETATM    2  C4  UNL     1       0.327   1.876   0.203  1.00  0.00     0.076 C 
HETATM    3  C5  UNL     1      -0.635   1.793   1.334  1.00  0.00     0.196 C 
HETATM    4  O2  UNL     1      -0.287   1.013   2.415  1.00  0.00    -0.232 OA
HETATM    5  O3  UNL     1      -1.310   0.155   2.381  1.00  0.00    -0.232 OA
HETATM    6  C6  UNL     1      -1.499   0.597   1.052  1.00  0.00     0.203 C 
HETATM    7  C7  UNL     1      -0.683  -0.291   0.132  1.00  0.00     0.015 C 
HETATM    8  C8  UNL     1      -1.637  -0.708  -0.992  1.00  0.00     0.021 C 
HETATM    9  C9  UNL     1      -0.250  -1.543   0.821  1.00  0.00     0.021 C 
ENDROOT
BRANCH   1  10
HETATM   10  C2  UNL     1       1.793  -0.014  -0.267  1.00  0.00     0.034 C 
HETATM   11  C1  UNL     1       2.029  -1.329  -0.940  1.00  0.00     0.008 C 
ENDBRANCH   1  10
BRANCH   1  12
HETATM   12  O1  UNL     1       0.236   0.681  -1.852  1.00  0.00    -0.389 OA
ATOM     13  H1  UNL     1      -0.642   1.024  -1.969  1.00  0.00     0.210 HD
ENDBRANCH   1  12
TORSDOF 2
