REMARK  8 active torsions:
REMARK  status: ('A' for Active; 'I' for Inactive)
REMARK    1  A    between atoms: C3_4  and  N2_5 
REMARK       I    between atoms: N2_5  and  C4_7 
REMARK    2  A    between atoms: C4_7  and  C5_9 
REMARK    3  A    between atoms: N3_10  and  N4_12 
REMARK    4  A    between atoms: C9_21  and  C10_22 
REMARK       I    between atoms: C10_22  and  N6_24 
REMARK    5  A    between atoms: N6_24  and  N7_26 
REMARK    6  A    between atoms: C19_39  and  N10_40 
REMARK    7  A    between atoms: N10_40  and  C20_42 
REMARK    8  A    between atoms: C22_44  and  N11_45 
ROOT
HETATM    1  N1  UNL     1      -5.007   1.925  -1.594  1.00  0.00    -0.191 NA
HETATM    2  C1  UNL     1      -4.341   1.138  -1.080  1.00  0.00     0.106 C 
HETATM    3  C2  UNL     1      -3.535   0.144  -0.437  1.00  0.00     0.123 A 
HETATM    4  C3  UNL     1      -4.207  -0.995   0.015  1.00  0.00     0.174 A 
HETATM    5  O2  UNL     1      -3.478  -1.912   0.606  1.00  0.00    -0.291 OA
HETATM    6  C6  UNL     1      -2.197  -1.831   0.795  1.00  0.00     0.090 A 
HETATM    7  C7  UNL     1      -1.522  -2.871   1.438  1.00  0.00     0.039 A 
HETATM    8  C8  UNL     1      -0.163  -2.751   1.620  1.00  0.00     0.020 A 
HETATM    9  C9  UNL     1       0.552  -1.649   1.196  1.00  0.00     0.034 A 
HETATM   10  C17 UNL     1      -0.132  -0.641   0.567  1.00  0.00     0.033 A 
HETATM   11  C18 UNL     1      -1.519  -0.735   0.366  1.00  0.00     0.027 A 
HETATM   12  C19 UNL     1      -2.179   0.317  -0.281  1.00  0.00     0.072 A 
ENDROOT
BRANCH   4  13
HETATM   13  N2  UNL     1      -5.610  -1.144  -0.162  1.00  0.00    -0.301 N 
HETATM   14  C4  UNL     1      -6.255  -2.309   0.307  1.00  0.00     0.264 C 
HETATM   15  O1  UNL     1      -5.595  -3.213   0.879  1.00  0.00    -0.267 OA
ATOM     16  H2  UNL     1      -6.148  -0.412  -0.626  1.00  0.00     0.171 HD
BRANCH  14  17
HETATM   17  C5  UNL     1      -7.686  -2.500   0.146  1.00  0.00     0.182 C 
HETATM   18  N3  UNL     1      -8.435  -1.612  -0.433  1.00  0.00    -0.293 N 
ATOM     19  H3  UNL     1      -7.997  -0.760  -0.782  1.00  0.00     0.187 HD
BRANCH  18  20
HETATM   20  N4  UNL     1      -9.799  -1.767  -0.599  1.00  0.00    -0.250 N 
HETATM   21  N5  UNL     1     -10.361  -2.908  -0.533  1.00  0.00    -0.331 N 
ATOM     22  H52 UNL     1      -9.773  -3.721  -0.352  1.00  0.00     0.178 HD
ATOM     23  H51 UNL     1     -11.367  -3.022  -0.655  1.00  0.00     0.178 HD
ATOM     24  H4  UNL     1     -10.372  -0.943  -0.780  1.00  0.00     0.207 HD
ENDBRANCH  18  20
ENDBRANCH  14  17
ENDBRANCH   4  13
BRANCH  12  25
HETATM   25  N10 UNL     1      -1.486   1.285  -0.642  1.00  0.00    -0.339 N 
ATOM     26  H10 UNL     1      -0.508   1.138  -0.392  1.00  0.00     0.167 HD
BRANCH  25  27
HETATM   27  C20 UNL     1      -1.643   2.486  -1.273  1.00  0.00     0.124 A 
HETATM   28  C21 UNL     1      -1.858   3.714  -0.634  1.00  0.00     0.099 A 
HETATM   29  C22 UNL     1      -1.951   4.698  -1.579  1.00  0.00     0.117 A 
HETATM   30  N12 UNL     1      -1.796   4.089  -2.776  1.00  0.00    -0.284 N 
HETATM   31  N13 UNL     1      -1.616   2.793  -2.604  1.00  0.00    -0.284 N 
ATOM     32  H12 UNL     1      -1.815   4.562  -3.680  1.00  0.00     0.188 HD
ATOM     33  H13 UNL     1      -1.477   2.118  -3.356  1.00  0.00     0.188 HD
BRANCH  29  34
HETATM   34  N11 UNL     1      -2.149   5.950  -1.331  1.00  0.00    -0.384 N 
ATOM     35 2H11 UNL     1      -2.266   6.409  -0.428  1.00  0.00     0.157 HD
ATOM     36 1H11 UNL     1      -2.218   6.684  -2.036  1.00  0.00     0.157 HD
ENDBRANCH  29  34
ENDBRANCH  25  27
ENDBRANCH  12  25
BRANCH   9  37
HETATM   37  C10 UNL     1       2.017  -1.584   1.439  1.00  0.00     0.270 C 
HETATM   38  O3  UNL     1       2.456  -2.279   2.411  1.00  0.00    -0.266 OA
HETATM   39  N6  UNL     1       2.787  -0.782   0.600  1.00  0.00    -0.253 N 
ATOM     40  H6  UNL     1       2.272  -0.294  -0.133  1.00  0.00     0.191 HD
BRANCH  39  41
HETATM   41  N7  UNL     1       4.154  -0.553   0.621  1.00  0.00    -0.172 N 
HETATM   42  C11 UNL     1       4.784   0.260  -0.263  1.00  0.00     0.223 A 
HETATM   43  S1  UNL     1       4.106   1.092  -1.467  1.00  0.00    -0.037 SA
HETATM   44  N8  UNL     1       6.105   0.291  -0.002  1.00  0.00    -0.234 N 
HETATM   45  N9  UNL     1       6.332  -0.482   1.025  1.00  0.00    -0.232 N 
HETATM   46  C16 UNL     1       7.198   0.981  -0.627  1.00  0.00     0.115 A 
HETATM   47  C12 UNL     1       5.114  -1.005   1.410  1.00  0.00     0.365 A 
HETATM   48  C13 UNL     1       7.636  -0.706   1.604  1.00  0.00     0.158 A 
HETATM   49  O4  UNL     1       5.052  -1.779   2.373  1.00  0.00    -0.243 OA
HETATM   50  C14 UNL     1       8.749   0.004   0.959  1.00  0.00     0.050 A 
HETATM   51  C15 UNL     1       8.427   0.853  -0.186  1.00  0.00    -0.006 A 
ENDBRANCH  39  41
ENDBRANCH   9  37
TORSDOF 8
