REMARK  11 active torsions:
REMARK  status: ('A' for Active; 'I' for Inactive)
REMARK    1  A    between atoms: C2_2  and  C4_4 
REMARK    2  A    between atoms: C7_7  and  O1_8 
REMARK    3  A    between atoms: C7_7  and  C8_10 
REMARK    4  A    between atoms: C9_11  and  C10_12 
REMARK    5  A    between atoms: C13_15  and  O2_16 
REMARK    6  A    between atoms: C14_18  and  O3_19 
REMARK    7  A    between atoms: C15_21  and  O4_22 
REMARK    8  A    between atoms: O4_22  and  C16_23 
REMARK    9  A    between atoms: C16_23  and  C19_26 
REMARK   10  A    between atoms: C19_26  and  C20_27 
REMARK   11  A    between atoms: C20_27  and  O5_29 
ROOT
HETATM    1  C10 UNL     1      -0.903  -1.573  -0.046  1.00  0.00     0.040 C 
HETATM    2  C11 UNL     1      -0.934  -2.817  -0.901  1.00  0.00     0.013 C 
HETATM    3  C12 UNL     1      -2.360  -3.180  -1.276  1.00  0.00     0.035 C 
HETATM    4  C13 UNL     1      -2.935  -2.072  -2.110  1.00  0.00     0.149 C 
HETATM    5  C14 UNL     1      -2.004  -0.886  -2.092  1.00  0.00     0.176 C 
HETATM    6  C15 UNL     1      -1.698  -0.429  -0.656  1.00  0.00     0.161 C 
ENDROOT
BRANCH   1   7
HETATM    7  C9  UNL     1       0.509  -1.202   0.176  1.00  0.00    -0.021 C 
HETATM    8  C8  UNL     1       1.569  -1.785  -0.336  1.00  0.00     0.007 C 
BRANCH   8   9
HETATM    9  C7  UNL     1       2.915  -1.206   0.052  1.00  0.00     0.075 C 
HETATM   10  C6  UNL     1       3.978  -1.626  -0.901  1.00  0.00     0.043 C 
HETATM   11  C5  UNL     1       5.302  -1.049  -0.466  1.00  0.00     0.012 C 
HETATM   12  C4  UNL     1       5.149   0.211   0.330  1.00  0.00     0.013 C 
HETATM   13  C23 UNL     1       4.029   1.008  -0.363  1.00  0.00     0.012 C 
HETATM   14  C22 UNL     1       2.744   0.277   0.025  1.00  0.00     0.043 C 
BRANCH  12  15
HETATM   15  C2  UNL     1       6.387   1.025   0.422  1.00  0.00    -0.089 C 
HETATM   16  C1  UNL     1       7.496   0.620  -0.126  1.00  0.00     0.014 C 
HETATM   17  C3  UNL     1       6.365   2.343   1.152  1.00  0.00     0.043 C 
ENDBRANCH  12  15
BRANCH   9  18
HETATM   18  O1  UNL     1       3.141  -1.724   1.339  1.00  0.00    -0.386 OA
ATOM     19  H1  UNL     1       2.462  -1.456   1.947  1.00  0.00     0.211 HD
ENDBRANCH   9  18
ENDBRANCH   8   9
ENDBRANCH   1   7
BRANCH   6  20
HETATM   20  O4  UNL     1      -2.877  -0.188  -0.063  1.00  0.00    -0.372 OA
BRANCH  20  21
HETATM   21  C16 UNL     1      -3.223   1.020   0.419  1.00  0.00     0.056 C 
HETATM   22  C17 UNL     1      -3.261   2.171  -0.548  1.00  0.00     0.045 C 
HETATM   23  C18 UNL     1      -2.347   1.332   1.622  1.00  0.00     0.045 C 
BRANCH  21  24
HETATM   24  C19 UNL     1      -4.638   0.882   0.946  1.00  0.00     0.068 C 
BRANCH  24  25
HETATM   25  C20 UNL     1      -5.224   2.118   1.519  1.00  0.00     0.117 C 
HETATM   26  C21 UNL     1      -6.661   1.865   2.013  1.00  0.00     0.039 C 
BRANCH  25  27
HETATM   27  O5  UNL     1      -4.547   2.558   2.655  1.00  0.00    -0.396 OA
ATOM     28  H5  UNL     1      -4.922   3.350   3.022  1.00  0.00     0.210 HD
ENDBRANCH  25  27
ENDBRANCH  24  25
ENDBRANCH  21  24
ENDBRANCH  20  21
ENDBRANCH   6  20
BRANCH   5  29
HETATM   29  O3  UNL     1      -2.654   0.127  -2.800  1.00  0.00    -0.390 OA
ATOM     30  H3  UNL     1      -2.067   0.874  -2.789  1.00  0.00     0.210 HD
ENDBRANCH   5  29
BRANCH   4  31
HETATM   31  O2  UNL     1      -4.200  -1.682  -1.666  1.00  0.00    -0.393 OA
ATOM     32  H2  UNL     1      -4.564  -0.981  -2.194  1.00  0.00     0.210 HD
ENDBRANCH   4  31
TORSDOF 11
