REMARK  3 active torsions:
REMARK  status: ('A' for Active; 'I' for Inactive)
REMARK    1  A    between atoms: C5_9  and  N3_10 
REMARK    2  A    between atoms: N3_10  and  C6_12 
REMARK    3  A    between atoms: C8_14  and  C9_15 
ROOT
HETATM    1  N3  UNL     1      -0.953  -1.237   1.039  1.00  0.00    -0.189 N 
ATOM      2  H3  UNL     1      -1.020  -2.045   1.657  1.00  0.00     0.184 HD
ENDROOT
BRANCH   1   3
HETATM    3  C5  UNL     1       0.191  -0.809   0.660  1.00  0.00     0.687 A 
HETATM    4  N2  UNL     1       0.393   0.240  -0.149  1.00  0.00    -0.173 N 
HETATM    5  C4  UNL     1       1.735   0.408  -0.340  1.00  0.00     0.160 A 
ATOM      6  H2  UNL     1      -0.339   0.821  -0.557  1.00  0.00     0.186 HD
HETATM    7  C3  UNL     1       2.325  -0.604   0.404  1.00  0.00     0.164 A 
HETATM    8  N7  UNL     1       2.468   1.289  -1.045  1.00  0.00    -0.287 N 
HETATM    9  C2  UNL     1       3.704  -0.692   0.406  1.00  0.00     0.282 A 
HETATM   10  N6  UNL     1       1.363  -1.340   1.009  1.00  0.00    -0.178 N 
HETATM   11  N1  UNL     1       4.415   0.198  -0.305  1.00  0.00    -0.269 N 
HETATM   12  O1  UNL     1       4.278  -1.600   1.071  1.00  0.00    -0.265 OA
HETATM   13  C1  UNL     1       5.864   0.071  -0.276  1.00  0.00     0.164 C 
HETATM   14  C16 UNL     1       3.789   1.167  -1.014  1.00  0.00     0.332 A 
HETATM   15  O5  UNL     1       4.499   1.989  -1.674  1.00  0.00    -0.246 OA
HETATM   16  C14 UNL     1       1.673  -2.470   1.856  1.00  0.00     0.176 C 
HETATM   17  C15 UNL     1       1.755   2.310  -1.789  1.00  0.00     0.163 C 
ENDBRANCH   1   3
BRANCH   1  18
HETATM   18  C6  UNL     1      -2.128  -0.578   0.592  1.00  0.00     0.079 A 
HETATM   19  C7  UNL     1      -2.457   0.699   0.995  1.00  0.00     0.054 A 
HETATM   20  C8  UNL     1      -3.615   1.279   0.521  1.00  0.00     0.084 A 
HETATM   21  C10 UNL     1      -4.422   0.590  -0.339  1.00  0.00     0.162 A 
HETATM   22  F1  UNL     1      -5.553   1.207  -0.779  1.00  0.00    -0.203 F 
HETATM   23  C11 UNL     1      -4.128  -0.698  -0.771  1.00  0.00     0.105 A 
HETATM   24  N4  UNL     1      -4.746  -1.564  -1.594  1.00  0.00    -0.304 N 
HETATM   25  C13 UNL     1      -2.951  -1.269  -0.280  1.00  0.00     0.094 A 
HETATM   26  C12 UNL     1      -3.984  -2.671  -1.633  1.00  0.00     0.325 A 
ATOM     27  H4  UNL     1      -5.623  -1.411  -2.092  1.00  0.00     0.171 HD
HETATM   28  O4  UNL     1      -4.216  -3.718  -2.291  1.00  0.00    -0.247 OA
HETATM   29  N5  UNL     1      -2.905  -2.493  -0.843  1.00  0.00    -0.304 N 
ATOM     30  H5  UNL     1      -2.166  -3.180  -0.694  1.00  0.00     0.171 HD
BRANCH  20  31
HETATM   31  C9  UNL     1      -3.975   2.635   0.943  1.00  0.00     0.212 C 
HETATM   32  O2  UNL     1      -5.026   3.169   0.515  1.00  0.00    -0.644 OA
HETATM   33  O3  UNL     1      -3.169   3.343   1.811  1.00  0.00    -0.644 OA
ENDBRANCH  20  31
ENDBRANCH   1  18
TORSDOF 3
