REMARK  9 active torsions:
REMARK  status: ('A' for Active; 'I' for Inactive)
REMARK    1  A    between atoms: C2_2  and  C3_3 
REMARK    2  A    between atoms: C3_3  and  N1_4 
REMARK    3  A    between atoms: C4_5  and  C5_6 
REMARK    4  A    between atoms: C5_6  and  O1_7 
REMARK    5  A    between atoms: C6_9  and  O2_10 
REMARK    6  A    between atoms: C7_12  and  O3_13 
REMARK    7  A    between atoms: C8_15  and  C9_16 
REMARK    8  A    between atoms: C9_16  and  C10_17 
REMARK    9  A    between atoms: C10_17  and  C11_18 
ROOT
HETATM    1  N1  UNL     1      -1.419  -0.055  -0.278  1.00  0.00     0.105 N 
HETATM    2  C4  UNL     1      -1.661  -1.370  -0.724  1.00  0.00     0.277 C 
HETATM    3  C6  UNL     1      -0.629  -2.221  -0.030  1.00  0.00     0.184 C 
HETATM    4  C7  UNL     1      -0.470  -1.454   1.291  1.00  0.00     0.182 C 
HETATM    5  C8  UNL     1      -0.429  -0.044   0.774  1.00  0.00     0.255 C 
ENDROOT
BRANCH   5   6
HETATM    6  C9  UNL     1       0.874   0.264   0.111  1.00  0.00     0.040 C 
BRANCH   6   7
HETATM    7  C10 UNL     1       2.082   0.371   0.967  1.00  0.00     0.017 C 
BRANCH   7   8
HETATM    8  C11 UNL     1       3.234   0.720  -0.008  1.00  0.00     0.048 C 
HETATM    9  C12 UNL     1       4.556   0.875   0.662  1.00  0.00     0.025 C 
HETATM   10  C13 UNL     1       5.217   0.481  -0.660  1.00  0.00     0.075 C 
HETATM   11  S1  UNL     1       3.854  -0.704  -0.905  1.00  0.00    -0.164 SA
ENDBRANCH   7   8
ENDBRANCH   6   7
ENDBRANCH   5   6
BRANCH   1  12
HETATM   12  C3  UNL     1      -2.549   0.763  -0.073  1.00  0.00     0.273 C 
BRANCH  12  13
HETATM   13  C2  UNL     1      -2.316   2.145   0.390  1.00  0.00     0.026 C 
HETATM   14  C1  UNL     1      -3.696   2.809   0.530  1.00  0.00     0.007 C 
ENDBRANCH  12  13
ENDBRANCH   1  12
BRANCH   4  15
HETATM   15  O3  UNL     1       0.575  -1.884   2.038  1.00  0.00    -0.391 OA
ATOM     16  H3  UNL     1       0.673  -1.410   2.855  1.00  0.00     0.210 HD
ENDBRANCH   4  15
BRANCH   2  17
HETATM   17  C5  UNL     1      -1.430  -1.517  -2.234  1.00  0.00     0.202 C 
BRANCH  17  18
HETATM   18  O1  UNL     1      -2.291  -0.658  -2.906  1.00  0.00    -0.399 OA
ATOM     19  H1  UNL     1      -2.148  -0.749  -3.841  1.00  0.00     0.209 HD
ENDBRANCH  17  18
ENDBRANCH   2  17
BRANCH   3  20
HETATM   20  O2  UNL     1      -1.107  -3.510   0.222  1.00  0.00    -0.391 OA
ATOM     21  H2  UNL     1      -0.456  -4.046   0.660  1.00  0.00     0.210 HD
ENDBRANCH   3  20
TORSDOF 9
