REMARK  11 active torsions:
REMARK  status: ('A' for Active; 'I' for Inactive)
REMARK    1  A    between atoms: O1_2  and  C2_3 
REMARK    2  A    between atoms: C5_6  and  N1_7 
REMARK    3  A    between atoms: N1_7  and  C6_8 
REMARK    4  A    between atoms: N3_12  and  C8_14 
REMARK    5  A    between atoms: C10_16  and  C11_17 
REMARK    6  A    between atoms: C17_23  and  C18_24 
REMARK    7  A    between atoms: C18_24  and  O2_25 
REMARK    8  A    between atoms: C18_24  and  C19_27 
REMARK    9  A    between atoms: C23_36  and  O3_37 
REMARK   10  A    between atoms: O3_37  and  C24_38 
REMARK   11  A    between atoms: C24_38  and  C25_39 
ROOT
HETATM    1  C6  UNL     1       0.076  -1.393   1.301  1.00  0.00     0.217 A 
HETATM    2  N2  UNL     1      -1.100  -1.066   0.567  1.00  0.00    -0.162 N 
ATOM      3  H2  UNL     1      -0.988  -0.643  -0.355  1.00  0.00     0.187 HD
HETATM    4  C7  UNL     1      -2.305  -1.274   1.001  1.00  0.00     0.685 A 
HETATM    5  N3  UNL     1      -3.412  -1.045   0.564  1.00  0.00    -0.191 N 
ATOM      6  H3  UNL     1      -4.035  -1.398   1.291  1.00  0.00     0.184 HD
HETATM    7  N4  UNL     1      -2.430  -1.883   2.318  1.00  0.00    -0.200 N 
ATOM      8  H4  UNL     1      -3.353  -2.065   2.711  1.00  0.00     0.183 HD
HETATM    9  C20 UNL     1      -1.392  -2.185   2.973  1.00  0.00     0.135 A 
HETATM   10  C21 UNL     1      -0.135  -1.962   2.511  1.00  0.00     0.108 A 
HETATM   11 CL1  UNL     1       1.242  -2.409   3.470  1.00  0.00    -0.078 Cl
ENDROOT
BRANCH   5  12
HETATM   12  C8  UNL     1      -4.252  -0.573  -0.369  1.00  0.00     0.058 A 
HETATM   13  C9  UNL     1      -5.373   0.135   0.164  1.00  0.00     0.038 A 
HETATM   14  C10 UNL     1      -6.384   0.672  -0.576  1.00  0.00    -0.048 A 
HETATM   15  C15 UNL     1      -6.328   0.541  -1.935  1.00  0.00     0.009 A 
HETATM   16  C16 UNL     1      -5.237  -0.151  -2.506  1.00  0.00     0.013 A 
HETATM   17  C17 UNL     1      -4.256  -0.685  -1.740  1.00  0.00     0.003 A 
BRANCH  14  18
HETATM   18  C11 UNL     1      -7.579   1.304   0.079  1.00  0.00    -0.024 C 
HETATM   19  C12 UNL     1      -7.152   2.199   1.255  1.00  0.00     0.019 C 
HETATM   20  C13 UNL     1      -8.421   0.170   0.684  1.00  0.00     0.019 C 
HETATM   21  C14 UNL     1      -8.462   2.060  -0.828  1.00  0.00     0.019 C 
ENDBRANCH  14  18
BRANCH  17  22
HETATM   22  C18 UNL     1      -3.128  -1.413  -2.416  1.00  0.00     0.218 C 
BRANCH  22  23
HETATM   23  O2  UNL     1      -2.273  -0.341  -2.872  1.00  0.00    -0.385 OA
ATOM     24  H2  UNL     1      -1.560  -0.801  -3.299  1.00  0.00     0.210 HD
ENDBRANCH  22  23
BRANCH  22  25
HETATM   25  C19 UNL     1      -3.489  -2.123  -3.685  1.00  0.00     0.386 C 
HETATM   26  F1  UNL     1      -3.951  -1.430  -4.731  1.00  0.00    -0.211 F 
HETATM   27  F2  UNL     1      -2.414  -2.947  -4.063  1.00  0.00    -0.211 F 
ENDBRANCH  22  25
ENDBRANCH  17  22
ENDBRANCH   5  12
BRANCH   1  28
HETATM   28  N1  UNL     1       1.147  -1.163   0.810  1.00  0.00    -0.385 NA
BRANCH  28  29
HETATM   29  C5  UNL     1       2.464  -1.060   0.602  1.00  0.00     0.112 A 
HETATM   30  C4  UNL     1       3.035  -2.137  -0.154  1.00  0.00     0.048 A 
HETATM   31  C3  UNL     1       4.339  -2.136  -0.429  1.00  0.00     0.043 A 
HETATM   32  C2  UNL     1       5.195  -1.060   0.033  1.00  0.00     0.101 A 
HETATM   33  C23 UNL     1       4.691   0.005   0.771  1.00  0.00     0.105 A 
HETATM   34  C22 UNL     1       3.291  -0.121   0.985  1.00  0.00     0.084 A 
BRANCH  32  35
HETATM   35  O1  UNL     1       6.518  -1.151  -0.304  1.00  0.00    -0.353 OA
HETATM   36  C1  UNL     1       7.113  -2.178  -1.025  1.00  0.00     0.210 C 
ENDBRANCH  32  35
BRANCH  33  37
HETATM   37  O3  UNL     1       5.478   0.947   1.166  1.00  0.00    -0.344 OA
BRANCH  37  38
HETATM   38  C24 UNL     1       6.070   1.961   1.643  1.00  0.00     0.214 C 
BRANCH  38  39
HETATM   39  C25 UNL     1       7.566   2.160   1.470  1.00  0.00    -0.034 A 
HETATM   40  C26 UNL     1       8.020   3.435   1.307  1.00  0.00     0.009 A 
HETATM   41  C27 UNL     1       9.385   3.753   1.206  1.00  0.00     0.001 A 
HETATM   42  C28 UNL     1      10.297   2.726   1.271  1.00  0.00     0.000 A 
HETATM   43  C29 UNL     1       9.850   1.396   1.437  1.00  0.00     0.001 A 
HETATM   44  C30 UNL     1       8.502   1.183   1.530  1.00  0.00     0.009 A 
ENDBRANCH  38  39
ENDBRANCH  37  38
ENDBRANCH  33  37
ENDBRANCH  28  29
ENDBRANCH   1  28
TORSDOF 11
