REMARK  11 active torsions:
REMARK  status: ('A' for Active; 'I' for Inactive)
REMARK    1  A    between atoms: O1_2  and  C2_3 
REMARK    2  A    between atoms: C8_11  and  N2_12 
REMARK    3  A    between atoms: N2_12  and  C9_14 
REMARK    4  A    between atoms: C9_14  and  C10_15 
REMARK    5  A    between atoms: C10_15  and  N3_16 
REMARK    6  A    between atoms: N3_16  and  C11_17 
REMARK    7  A    between atoms: N3_16  and  C27_40 
REMARK    8  A    between atoms: C11_17  and  C12_18 
REMARK    9  A    between atoms: N4_19  and  C13_21 
REMARK   10  A    between atoms: C21_31  and  C22_32 
REMARK   11  A    between atoms: C27_40  and  C29_42 
ROOT
HETATM    1  N3  UNL     1      -0.249  -1.032  -0.637  1.00  0.00    -0.382 N 
ENDROOT
BRANCH   1   2
HETATM    2  C10 UNL     1      -1.377  -0.315  -0.203  1.00  0.00     0.142 C 
BRANCH   2   3
HETATM    3  C9  UNL     1      -2.496  -0.312  -1.251  1.00  0.00     0.139 C 
BRANCH   3   4
HETATM    4  N2  UNL     1      -3.624   0.432  -0.795  1.00  0.00    -0.388 N 
ATOM      5  H2  UNL     1      -3.467   1.436  -0.708  1.00  0.00     0.159 HD
BRANCH   4   6
HETATM    6  C8  UNL     1      -4.788   0.047  -0.481  1.00  0.00     0.042 A 
HETATM    7  C7  UNL     1      -5.184  -1.272  -0.537  1.00  0.00     0.047 A 
HETATM    8  C6  UNL     1      -6.477  -1.572  -0.161  1.00  0.00     0.090 A 
HETATM    9  N1  UNL     1      -7.321  -0.602   0.247  1.00  0.00    -0.365 N 
HETATM   10  C5  UNL     1      -6.940   0.686   0.303  1.00  0.00     0.044 A 
ATOM     11  H1  UNL     1      -8.272  -0.852   0.520  1.00  0.00     0.165 HD
HETATM   12  C4  UNL     1      -7.827   1.678   0.728  1.00  0.00     0.033 A 
HETATM   13  C32 UNL     1      -5.669   1.057  -0.056  1.00  0.00     0.020 A 
HETATM   14  C3  UNL     1      -7.404   3.009   0.777  1.00  0.00     0.039 A 
HETATM   15  C2  UNL     1      -6.128   3.383   0.417  1.00  0.00     0.069 A 
HETATM   16  C33 UNL     1      -5.284   2.379   0.004  1.00  0.00     0.052 A 
BRANCH  15  17
HETATM   17  O1  UNL     1      -5.793   4.721   0.495  1.00  0.00    -0.356 OA
HETATM   18  C1  UNL     1      -4.523   5.244   0.156  1.00  0.00     0.210 C 
ENDBRANCH  15  17
ENDBRANCH   4   6
ENDBRANCH   3   4
ENDBRANCH   2   3
ENDBRANCH   1   2
BRANCH   1  19
HETATM   19  C11 UNL     1       0.376  -0.394  -1.722  1.00  0.00     0.103 C 
BRANCH  19  20
HETATM   20  C12 UNL     1       1.724  -0.843  -2.169  1.00  0.00     0.105 C 
HETATM   21  N4  UNL     1       2.817  -0.748  -1.379  1.00  0.00    -0.363 N 
ATOM     22  H4  UNL     1       2.941  -1.724  -1.108  1.00  0.00     0.165 HD
BRANCH  21  23
HETATM   23  C13 UNL     1       3.740  -0.233  -0.792  1.00  0.00     0.057 A 
HETATM   24  C14 UNL     1       4.574  -1.073  -0.022  1.00  0.00     0.018 A 
HETATM   25  C15 UNL     1       4.359  -2.426   0.005  1.00  0.00     0.016 A 
HETATM   26  C19 UNL     1       5.605  -0.568   0.694  1.00  0.00     0.045 A 
HETATM   27  C16 UNL     1       5.173  -3.240   0.743  1.00  0.00     0.001 A 
HETATM   28  C17 UNL     1       6.226  -2.728   1.475  1.00  0.00     0.002 A 
HETATM   29  C18 UNL     1       6.457  -1.373   1.459  1.00  0.00     0.030 A 
HETATM   30  N5  UNL     1       5.868   0.761   0.691  1.00  0.00    -0.354 N 
HETATM   31  C20 UNL     1       5.119   1.613  -0.020  1.00  0.00     0.060 A 
ATOM     32  H5  UNL     1       6.650   1.119   1.240  1.00  0.00     0.166 HD
HETATM   33  C21 UNL     1       5.460   2.969   0.020  1.00  0.00     0.075 A 
HETATM   34  C26 UNL     1       4.061   1.127  -0.759  1.00  0.00     0.019 A 
HETATM   35  C23 UNL     1       4.649   3.804  -0.748  1.00  0.00     0.018 A 
HETATM   36  C24 UNL     1       3.609   3.339  -1.480  1.00  0.00     0.002 A 
HETATM   37  C25 UNL     1       3.297   2.003  -1.500  1.00  0.00     0.016 A 
BRANCH  33  38
HETATM   38  C22 UNL     1       6.574   3.524   0.794  1.00  0.00     0.419 C 
HETATM   39  F1  UNL     1       6.582   4.913   0.574  1.00  0.00    -0.166 F 
HETATM   40  F2  UNL     1       7.826   3.117   0.365  1.00  0.00    -0.166 F 
HETATM   41  F3  UNL     1       6.417   3.413   2.170  1.00  0.00    -0.166 F 
ENDBRANCH  33  38
ENDBRANCH  21  23
ENDBRANCH  19  20
ENDBRANCH   1  19
BRANCH   1  42
HETATM   42  C27 UNL     1       0.312  -2.069   0.070  1.00  0.00     0.083 C 
HETATM   43  C28 UNL     1       0.857  -1.659   1.446  1.00  0.00     0.033 C 
BRANCH  42  44
HETATM   44  C29 UNL     1      -0.454  -3.368   0.198  1.00  0.00    -0.000 C 
HETATM   45  C30 UNL     1      -1.774  -3.279   0.894  1.00  0.00     0.011 C 
HETATM   46  C31 UNL     1       0.427  -4.451   0.820  1.00  0.00     0.011 C 
ENDBRANCH  42  44
ENDBRANCH   1  42
TORSDOF 11
