REMARK  11 active torsions:
REMARK  status: ('A' for Active; 'I' for Inactive)
REMARK    1  A    between atoms: C2_2  and  C3_3 
REMARK    2  A    between atoms: C2_2  and  N3_15 
REMARK    3  A    between atoms: C3_3  and  C4_4 
REMARK    4  A    between atoms: C4_4  and  C5_5 
REMARK    5  A    between atoms: C5_5  and  N1_6 
REMARK    6  A    between atoms: N1_6  and  C6_8 
REMARK    7  A    between atoms: N3_15  and  C11_17 
REMARK    8  A    between atoms: C12_20  and  S1_21 
REMARK    9  A    between atoms: S1_21  and  C13_22 
REMARK   10  A    between atoms: C17_30  and  C18_31 
REMARK   11  A    between atoms: C23_36  and  C24_37 
ROOT
HETATM    1  C11 UNL     1      -1.079   0.918  -1.140  1.00  0.00     0.134 A 
HETATM    2  N4  UNL     1      -1.295   2.249  -0.971  1.00  0.00    -0.321 N 
ATOM      3  H4  UNL     1      -0.520   2.905  -1.068  1.00  0.00     0.169 HD
HETATM    4  C12 UNL     1      -2.509   2.699  -0.681  1.00  0.00     0.147 A 
HETATM    5  N5  UNL     1      -3.526   1.832  -0.555  1.00  0.00    -0.321 N 
ATOM      6  H5  UNL     1      -4.454   2.193  -0.332  1.00  0.00     0.169 HD
HETATM    7  C16 UNL     1      -3.366   0.486  -0.714  1.00  0.00     0.140 A 
HETATM    8  N6  UNL     1      -4.147  -0.567  -0.654  1.00  0.00    -0.326 N 
ATOM      9  H6  UNL     1      -5.145  -0.524  -0.447  1.00  0.00     0.169 HD
HETATM   10  C17 UNL     1      -3.457  -1.749  -0.905  1.00  0.00     0.118 A 
HETATM   11  N7  UNL     1      -2.234  -1.343  -1.117  1.00  0.00    -0.336 N 
ATOM     12  H7  UNL     1      -1.456  -1.966  -1.335  1.00  0.00     0.168 HD
HETATM   13  C25 UNL     1      -2.117   0.028  -1.012  1.00  0.00     0.122 A 
ENDROOT
BRANCH   1  14
HETATM   14  N3  UNL     1       0.086   0.485  -1.418  1.00  0.00    -0.370 N 
ATOM     15  H3  UNL     1       0.183  -0.524  -1.532  1.00  0.00     0.161 HD
BRANCH  14  16
HETATM   16  C2  UNL     1       1.274   1.266  -1.587  1.00  0.00     0.079 C 
HETATM   17  C1  UNL     1       1.384   2.469  -0.712  1.00  0.00     0.032 C 
BRANCH  16  18
HETATM   18  C3  UNL     1       2.492   0.385  -1.286  1.00  0.00     0.026 C 
BRANCH  18  19
HETATM   19  C4  UNL     1       2.426   0.024   0.184  1.00  0.00     0.022 C 
BRANCH  19  20
HETATM   20  C5  UNL     1       3.639  -0.847   0.465  1.00  0.00     0.121 C 
BRANCH  20  21
HETATM   21  N1  UNL     1       4.811  -0.085   0.156  1.00  0.00    -0.376 N 
ATOM     22  H1  UNL     1       4.697   0.808  -0.323  1.00  0.00     0.161 HD
BRANCH  21  23
HETATM   23  C6  UNL     1       5.999  -0.473   0.454  1.00  0.00     0.100 A 
HETATM   24  C7  UNL     1       6.181  -1.670   1.100  1.00  0.00     0.048 A 
HETATM   25  C8  UNL     1       7.461  -2.068   1.408  1.00  0.00     0.005 A 
HETATM   26  C9  UNL     1       8.537  -1.278   1.074  1.00  0.00     0.017 A 
HETATM   27  C10 UNL     1       8.306  -0.091   0.430  1.00  0.00     0.089 A 
HETATM   28  N2  UNL     1       7.054   0.289   0.133  1.00  0.00    -0.353 N 
ATOM     29  H2  UNL     1       6.902   1.176  -0.347  1.00  0.00     0.166 HD
ENDBRANCH  21  23
ENDBRANCH  20  21
ENDBRANCH  19  20
ENDBRANCH  18  19
ENDBRANCH  16  18
ENDBRANCH  14  16
ENDBRANCH   1  14
BRANCH   4  30
HETATM   30  S1  UNL     1      -2.722   4.461  -0.470  1.00  0.00    -0.090 SA
BRANCH  30  31
HETATM   31  C13 UNL     1      -2.431   4.837   1.276  1.00  0.00     0.047 C 
HETATM   32  C14 UNL     1      -3.540   4.178   2.078  1.00  0.00     0.021 C 
HETATM   33  C15 UNL     1      -2.370   6.328   1.519  1.00  0.00     0.021 C 
ENDBRANCH  30  31
ENDBRANCH   4  30
BRANCH  10  34
HETATM   34  C18 UNL     1      -4.123  -3.045  -0.815  1.00  0.00     0.023 A 
HETATM   35  C19 UNL     1      -5.536  -3.026  -0.929  1.00  0.00     0.016 A 
HETATM   36  C20 UNL     1      -6.353  -4.098  -0.783  1.00  0.00     0.001 A 
HETATM   37  C21 UNL     1      -5.759  -5.309  -0.497  1.00  0.00     0.001 A 
HETATM   38  C22 UNL     1      -4.396  -5.392  -0.374  1.00  0.00     0.017 A 
HETATM   39  C23 UNL     1      -3.575  -4.247  -0.537  1.00  0.00     0.061 A 
BRANCH  39  40
HETATM   40  C24 UNL     1      -2.112  -4.447  -0.428  1.00  0.00     0.418 C 
HETATM   41  F1  UNL     1      -1.432  -4.312  -1.610  1.00  0.00    -0.166 F 
HETATM   42  F2  UNL     1      -1.545  -3.738   0.622  1.00  0.00    -0.166 F 
HETATM   43  F3  UNL     1      -1.916  -5.805  -0.080  1.00  0.00    -0.166 F 
ENDBRANCH  39  40
ENDBRANCH  10  34
TORSDOF 11
