REMARK  10 active torsions:
REMARK  status: ('A' for Active; 'I' for Inactive)
REMARK    1  A    between atoms: N1_1  and  C1_5 
REMARK    2  A    between atoms: C1_5  and  C2_6 
REMARK    3  A    between atoms: C2_6  and  C3_7 
REMARK    4  A    between atoms: C3_7  and  C4_8 
REMARK    5  A    between atoms: C4_8  and  C5_9 
REMARK    6  A    between atoms: C5_9  and  C6_10 
REMARK    7  A    between atoms: C6_10  and  C7_11 
REMARK    8  A    between atoms: C7_11  and  C8_12 
REMARK    9  A    between atoms: C8_12  and  C9_13 
REMARK   10  A    between atoms: C9_13  and  C10_14 
ROOT
HETATM    1  C6  UNL     1       0.411   1.507  -0.010  1.00  0.00     0.000 C 
ENDROOT
BRANCH   1   2
HETATM    2  C5  UNL     1       0.728   0.575   1.117  1.00  0.00     0.000 C 
BRANCH   2   3
HETATM    3  C4  UNL     1       1.794  -0.431   0.791  1.00  0.00     0.000 C 
BRANCH   3   4
HETATM    4  C3  UNL     1       3.105   0.222   0.422  1.00  0.00     0.002 C 
BRANCH   4   5
HETATM    5  C2  UNL     1       4.087  -0.916   0.118  1.00  0.00     0.027 C 
BRANCH   5   6
HETATM    6  C1  UNL     1       5.434  -0.319  -0.263  1.00  0.00     0.229 C 
BRANCH   6   7
HETATM    7  N1  UNL     1       5.938   0.475   0.825  1.00  0.00    -0.079 N 
ATOM      8  H13 UNL     1       5.272   1.188   1.121  1.00  0.00     0.274 HD
ATOM      9  H12 UNL     1       5.985  -0.053   1.696  1.00  0.00     0.274 HD
ATOM     10  H11 UNL     1       6.841   0.875   0.570  1.00  0.00     0.274 HD
ENDBRANCH   6   7
ENDBRANCH   5   6
ENDBRANCH   4   5
ENDBRANCH   3   4
ENDBRANCH   2   3
ENDBRANCH   1   2
BRANCH   1  11
HETATM   11  C7  UNL     1      -0.080   0.807  -1.246  1.00  0.00     0.000 C 
BRANCH  11  12
HETATM   12  C8  UNL     1      -1.344   0.021  -0.987  1.00  0.00     0.005 C 
BRANCH  12  13
HETATM   13  C9  UNL     1      -2.487   0.890  -0.506  1.00  0.00     0.038 C 
BRANCH  13  14
HETATM   14  C10 UNL     1      -3.651  -0.017  -0.297  1.00  0.00    -0.058 A 
HETATM   15  C11 UNL     1      -4.567  -0.299  -1.294  1.00  0.00     0.007 A 
HETATM   16  C12 UNL     1      -5.641  -1.136  -1.102  1.00  0.00     0.001 A 
HETATM   17  C13 UNL     1      -5.850  -1.737   0.115  1.00  0.00     0.000 A 
HETATM   18  C14 UNL     1      -4.950  -1.472   1.129  1.00  0.00     0.001 A 
HETATM   19  C15 UNL     1      -3.872  -0.629   0.924  1.00  0.00     0.007 A 
ENDBRANCH  13  14
ENDBRANCH  12  13
ENDBRANCH  11  12
ENDBRANCH   1  11
TORSDOF 10
