REMARK  8 active torsions:
REMARK  status: ('A' for Active; 'I' for Inactive)
REMARK    1  A    between atoms: C3_3  and  O1_4 
REMARK    2  A    between atoms: O1_4  and  C4_5 
REMARK    3  A    between atoms: C4_5  and  C5_6 
REMARK    4  A    between atoms: C5_6  and  O2_7 
REMARK    5  A    between atoms: O2_7  and  C6_8 
REMARK    6  A    between atoms: C6_8  and  C7_9 
REMARK    7  A    between atoms: C10_15  and  N2_16 
REMARK    8  A    between atoms: C15_24  and  N4_25 
ROOT
HETATM    1  C1  UNL     1       8.032   0.894  -1.922  1.00  0.00     0.014 C 
HETATM    2  C2  UNL     1       7.567   0.756  -0.833  1.00  0.00    -0.091 C 
HETATM    3  C3  UNL     1       6.960   0.599   0.524  1.00  0.00     0.260 C 
ENDROOT
BRANCH   3   4
HETATM    4  O1  UNL     1       5.718   0.033   0.345  1.00  0.00    -0.377 OA
BRANCH   4   5
HETATM    5  C4  UNL     1       4.950  -0.147   1.480  1.00  0.00     0.195 C 
BRANCH   5   6
HETATM    6  C5  UNL     1       3.691  -0.851   0.863  1.00  0.00     0.194 C 
BRANCH   6   7
HETATM    7  O2  UNL     1       3.191  -0.018  -0.006  1.00  0.00    -0.385 OA
BRANCH   7   8
HETATM    8  C6  UNL     1       2.172  -0.121  -0.838  1.00  0.00     0.207 C 
BRANCH   8   9
HETATM    9  C7  UNL     1       1.033  -0.984  -0.303  1.00  0.00    -0.011 A 
HETATM   10  C8  UNL     1       1.268  -2.325  -0.201  1.00  0.00     0.062 A 
HETATM   11  S1  UNL     1      -0.302  -2.997   0.077  1.00  0.00    -0.082 SA
HETATM   12  C9  UNL     1      -1.187  -1.512   0.046  1.00  0.00     0.104 A 
HETATM   13  N1  UNL     1      -2.520  -1.218   0.262  1.00  0.00    -0.184 N 
HETATM   14  C16 UNL     1      -0.243  -0.575  -0.170  1.00  0.00     0.051 A 
HETATM   15  C10 UNL     1      -2.925   0.046   0.275  1.00  0.00     0.682 A 
ATOM     16  H1  UNL     1      -3.192  -1.971   0.411  1.00  0.00     0.185 HD
HETATM   17  N3  UNL     1      -2.024   0.998   0.077  1.00  0.00    -0.176 N 
HETATM   18  C15 UNL     1      -0.693   0.784  -0.151  1.00  0.00     0.128 A 
ATOM     19  H3  UNL     1      -2.349   1.965   0.096  1.00  0.00     0.186 HD
BRANCH  15  20
HETATM   20  N2  UNL     1      -4.263   0.324   0.525  1.00  0.00    -0.213 N 
HETATM   21  C11 UNL     1      -5.268  -0.663   0.861  1.00  0.00     0.167 C 
HETATM   22  C12 UNL     1      -6.172  -0.665  -0.404  1.00  0.00     0.188 C 
HETATM   23  O3  UNL     1      -6.813   0.554  -0.374  1.00  0.00    -0.388 OA
HETATM   24  C13 UNL     1      -5.991   1.632  -0.581  1.00  0.00     0.188 C 
HETATM   25  C14 UNL     1      -4.811   1.689   0.407  1.00  0.00     0.167 C 
ENDBRANCH  15  20
BRANCH  18  26
HETATM   26  N4  UNL     1       0.021   1.783  -0.288  1.00  0.00    -0.384 N 
ATOM     27  H42 UNL     1      -0.300   2.751  -0.274  1.00  0.00     0.157 HD
ATOM     28  H41 UNL     1       1.014   1.623  -0.458  1.00  0.00     0.157 HD
ENDBRANCH  18  26
ENDBRANCH   8   9
ENDBRANCH   7   8
ENDBRANCH   6   7
ENDBRANCH   5   6
ENDBRANCH   4   5
ENDBRANCH   3   4
TORSDOF 8
