REMARK  11 active torsions:
REMARK  status: ('A' for Active; 'I' for Inactive)
REMARK    1  A    between atoms: C2_2  and  O1_3 
REMARK    2  A    between atoms: O1_3  and  C3_4 
REMARK    3  A    between atoms: C3_4  and  C4_5 
REMARK    4  A    between atoms: C4_5  and  C5_6 
REMARK    5  A    between atoms: C4_5  and  O3_11 
REMARK    6  A    between atoms: C5_6  and  O2_7 
REMARK    7  A    between atoms: O2_7  and  C6_8 
REMARK    8  A    between atoms: O3_11  and  C9_12 
REMARK    9  A    between atoms: C10_13  and  O4_14 
REMARK   10  A    between atoms: C11_16  and  O5_17 
REMARK   11  A    between atoms: C15_23  and  O7_25 
ROOT
HETATM    1  C9  UNL     1      -1.380   0.537  -0.075  1.00  0.00     0.190 C 
HETATM    2  C10 UNL     1      -2.224   1.747   0.114  1.00  0.00     0.179 C 
HETATM    3  C11 UNL     1      -3.050   1.903  -1.178  1.00  0.00     0.159 C 
HETATM    4  C12 UNL     1      -4.111   0.837  -1.049  1.00  0.00     0.089 A 
HETATM    5  C13 UNL     1      -3.903  -0.369  -1.996  1.00  0.00     0.170 A 
HETATM    6  O6  UNL     1      -4.193  -1.646  -1.236  1.00  0.00    -0.365 OA
HETATM    7  C14 UNL     1      -3.630  -0.484  -0.708  1.00  0.00     0.129 A 
HETATM    8  C15 UNL     1      -2.312  -0.675  -0.093  1.00  0.00     0.117 C 
HETATM    9  C16 UNL     1      -2.486  -1.233   1.302  1.00  0.00     0.052 C 
ENDROOT
BRANCH   1  10
HETATM   10  O3  UNL     1      -0.457   0.283   0.898  1.00  0.00    -0.370 OA
BRANCH  10  11
HETATM   11  C4  UNL     1       0.820  -0.003   0.569  1.00  0.00     0.169 C 
BRANCH  11  12
HETATM   12  C3  UNL     1       1.772   1.020   1.140  1.00  0.00     0.201 C 
BRANCH  12  13
HETATM   13  O1  UNL     1       1.629   2.298   0.680  1.00  0.00    -0.389 OA
BRANCH  13  14
HETATM   14  C2  UNL     1       1.842   2.444  -0.672  1.00  0.00     0.163 C 
HETATM   15  C1  UNL     1       1.643   3.926  -1.015  1.00  0.00     0.033 C 
ENDBRANCH  13  14
ENDBRANCH  12  13
ENDBRANCH  11  12
BRANCH  11  16
HETATM   16  C5  UNL     1       1.302  -1.368   1.068  1.00  0.00     0.202 C 
BRANCH  16  17
HETATM   17  O2  UNL     1       2.639  -1.568   0.682  1.00  0.00    -0.384 OA
BRANCH  17  18
HETATM   18  C6  UNL     1       3.122  -2.779   1.105  1.00  0.00     0.113 C 
HETATM   19  C7  UNL     1       4.250  -2.577   2.118  1.00  0.00     0.039 C 
HETATM   20  C8  UNL     1       3.587  -3.668  -0.006  1.00  0.00     0.039 C 
ENDBRANCH  17  18
ENDBRANCH  16  17
ENDBRANCH  11  16
ENDBRANCH  10  11
ENDBRANCH   1  10
BRANCH   2  21
HETATM   21  O4  UNL     1      -1.605   2.939   0.315  1.00  0.00    -0.390 OA
ATOM     22  H4  UNL     1      -2.144   3.712   0.436  1.00  0.00     0.210 HD
ENDBRANCH   2  21
BRANCH   8  23
HETATM   23  O7  UNL     1      -1.638  -1.673  -0.838  1.00  0.00    -0.384 OA
ATOM     24  H7  UNL     1      -2.217  -2.426  -0.849  1.00  0.00     0.210 HD
ENDBRANCH   8  23
BRANCH   3  25
HETATM   25  O5  UNL     1      -3.632   3.163  -1.170  1.00  0.00    -0.392 OA
ATOM     26  H5  UNL     1      -4.141   3.259  -1.966  1.00  0.00     0.210 HD
ENDBRANCH   3  25
TORSDOF 11
