REMARK  10 active torsions:
REMARK  status: ('A' for Active; 'I' for Inactive)
REMARK    1  A    between atoms: C2_2  and  C3_3 
REMARK    2  A    between atoms: C3_3  and  S1_4 
REMARK    3  A    between atoms: S1_4  and  C4_5 
REMARK    4  A    between atoms: C4_5  and  C5_6 
REMARK    5  A    between atoms: C5_6  and  O1_7 
REMARK    6  A    between atoms: C6_10  and  S2_11 
REMARK    7  A    between atoms: S2_11  and  C7_13 
REMARK    8  A    between atoms: C7_13  and  C8_14 
REMARK    9  A    between atoms: C10_16  and  O4_17 
REMARK   10  A    between atoms: C11_19  and  O5_20 
ROOT
HETATM    1  C5  UNL     1      -0.023   0.706   0.585  1.00  0.00     0.190 C 
HETATM    2  O2  UNL     1      -0.985   0.701  -0.431  1.00  0.00    -0.332 OA
HETATM    3  C6  UNL     1      -1.189  -0.507  -1.021  1.00  0.00     0.249 C 
HETATM    4  C10 UNL     1      -1.255  -1.703  -0.167  1.00  0.00     0.189 C 
HETATM    5  C11 UNL     1      -0.192  -1.770   0.904  1.00  0.00     0.173 C 
HETATM    6  C12 UNL     1      -0.235  -0.385   1.564  1.00  0.00     0.187 C 
HETATM    7  C13 UNL     1       0.558  -0.282   2.748  1.00  0.00     0.072 C 
HETATM    8  N1  UNL     1       1.185  -0.214   3.729  1.00  0.00    -0.197 NA
ENDROOT
BRANCH   1   9
HETATM    9  C4  UNL     1       1.337   0.792  -0.056  1.00  0.00     0.143 C 
BRANCH   9  10
HETATM   10  S1  UNL     1       2.606   1.055   1.167  1.00  0.00    -0.164 SA
BRANCH  10  11
HETATM   11  C3  UNL     1       4.256   1.171   0.497  1.00  0.00     0.073 C 
BRANCH  11  12
HETATM   12  C2  UNL     1       4.731  -0.136  -0.116  1.00  0.00     0.006 C 
HETATM   13  C1  UNL     1       6.133   0.022  -0.666  1.00  0.00     0.006 C 
ENDBRANCH  11  12
ENDBRANCH  10  11
ENDBRANCH   9  10
ENDBRANCH   1   9
BRANCH   1  14
HETATM   14  O1  UNL     1      -0.234   1.917   1.250  1.00  0.00    -0.363 OA
ATOM     15  H1  UNL     1      -1.092   1.863   1.654  1.00  0.00     0.213 HD
ENDBRANCH   1  14
BRANCH   5  16
HETATM   16  O5  UNL     1       1.047  -2.138   0.466  1.00  0.00    -0.391 OA
ATOM     17  H5  UNL     1       1.716  -2.180   1.140  1.00  0.00     0.210 HD
ENDBRANCH   5  16
BRANCH   4  18
HETATM   18  O4  UNL     1      -1.115  -2.845  -0.974  1.00  0.00    -0.389 OA
ATOM     19  H4  UNL     1      -1.158  -3.617  -0.423  1.00  0.00     0.210 HD
ENDBRANCH   4  18
BRANCH   3  20
HETATM   20  S2  UNL     1      -2.703  -0.405  -1.953  1.00  0.00     0.047 S 
HETATM   21  O3  UNL     1      -3.006  -1.887  -2.714  1.00  0.00    -0.255 OA
BRANCH  20  22
HETATM   22  C7  UNL     1      -4.088   0.030  -0.977  1.00  0.00     0.111 C 
BRANCH  22  23
HETATM   23  C8  UNL     1      -3.973   1.356  -0.293  1.00  0.00     0.008 C 
HETATM   24  C9  UNL     1      -5.241   1.637   0.525  1.00  0.00     0.006 C 
ENDBRANCH  22  23
ENDBRANCH  20  22
ENDBRANCH   3  20
TORSDOF 10
