REMARK  7 active torsions:
REMARK  status: ('A' for Active; 'I' for Inactive)
REMARK    1  A    between atoms: O1_2  and  C2_3 
REMARK    2  A    between atoms: C3_5  and  O3_6 
REMARK    3  A    between atoms: O3_6  and  C4_7 
REMARK    4  A    between atoms: C7_10  and  N1_11 
REMARK       I    between atoms: N1_11  and  C8_13 
REMARK    5  A    between atoms: C8_13  and  C9_15 
REMARK    6  A    between atoms: C12_22  and  O5_23 
REMARK    7  A    between atoms: C14_25  and  O6_26 
ROOT
HETATM    1  C2  UNL     1      -1.743   0.797   1.763  1.00  0.00     0.293 C 
HETATM    2  O2  UNL     1      -1.441  -0.547   1.916  1.00  0.00    -0.327 OA
HETATM    3  C3  UNL     1      -0.510  -0.997   0.978  1.00  0.00     0.288 C 
HETATM    4  C7  UNL     1       0.390   0.168   0.594  1.00  0.00     0.171 C 
HETATM    5  C12 UNL     1      -0.447   1.002  -0.377  1.00  0.00     0.182 C 
HETATM    6  C14 UNL     1      -1.764   1.245   0.318  1.00  0.00     0.207 C 
ENDROOT
BRANCH   4   7
HETATM    7  N1  UNL     1       1.644  -0.247   0.061  1.00  0.00    -0.342 N 
HETATM    8  C8  UNL     1       2.868   0.155   0.636  1.00  0.00     0.286 C 
HETATM    9  O4  UNL     1       2.899   0.909   1.660  1.00  0.00    -0.264 OA
ATOM     10  H1  UNL     1       1.657  -0.852  -0.760  1.00  0.00     0.163 HD
BRANCH   8  11
HETATM   11  C9  UNL     1       4.150  -0.269   0.092  1.00  0.00     0.174 A 
HETATM   12  N2  UNL     1       4.288  -1.065  -0.987  1.00  0.00    -0.346 N 
HETATM   13  C10 UNL     1       5.609  -1.265  -1.226  1.00  0.00     0.107 A 
ATOM     14  H2  UNL     1       3.522  -1.455  -1.536  1.00  0.00     0.167 HD
HETATM   15  C11 UNL     1       6.304  -0.569  -0.264  1.00  0.00     0.107 A 
HETATM   16  N3  UNL     1       5.374   0.014   0.504  1.00  0.00    -0.346 N 
ATOM     17  H3  UNL     1       5.585   0.604   1.309  1.00  0.00     0.167 HD
ENDBRANCH   8  11
ENDBRANCH   4   7
BRANCH   3  18
HETATM   18  O3  UNL     1      -1.231  -1.335  -0.144  1.00  0.00    -0.354 OA
BRANCH  18  19
HETATM   19  C4  UNL     1      -1.070  -2.603  -0.623  1.00  0.00     0.116 C 
HETATM   20  C5  UNL     1      -0.544  -2.690  -2.032  1.00  0.00     0.039 C 
HETATM   21  C6  UNL     1      -2.321  -3.451  -0.506  1.00  0.00     0.039 C 
ENDBRANCH  18  19
ENDBRANCH   3  18
BRANCH   5  22
HETATM   22  O5  UNL     1       0.199   2.165  -0.737  1.00  0.00    -0.386 OA
HETATM   23  C13 UNL     1       0.369   2.205  -2.135  1.00  0.00     0.202 C 
ENDBRANCH   5  22
BRANCH   6  24
HETATM   24  O6  UNL     1      -2.053   2.605   0.288  1.00  0.00    -0.383 OA
HETATM   25  C15 UNL     1      -3.280   2.836  -0.342  1.00  0.00     0.202 C 
ENDBRANCH   6  24
BRANCH   1  26
HETATM   26  O1  UNL     1      -3.069   0.950   2.231  1.00  0.00    -0.363 OA
HETATM   27  C1  UNL     1      -3.137   1.878   3.267  1.00  0.00     0.204 C 
ENDBRANCH   1  26
TORSDOF 7
