REMARK  2 active torsions:
REMARK  status: ('A' for Active; 'I' for Inactive)
REMARK    1  A    between atoms: C8_9  and  O1_10 
REMARK    2  A    between atoms: C8_9  and  C9_12 
ROOT
HETATM    1  C1  UNL     1      -2.228   0.081   0.666  1.00  0.00     0.276 C 
HETATM    2  N1  UNL     1      -0.881  -0.125   0.132  1.00  0.00    -0.034 N 
HETATM    3  C2  UNL     1      -1.089  -0.670  -1.195  1.00  0.00     0.276 C 
HETATM    4  C3  UNL     1      -0.354  -1.185   0.954  1.00  0.00     0.240 C 
HETATM    5  C4  UNL     1       0.865  -1.838   0.461  1.00  0.00     0.028 C 
HETATM    6  C5  UNL     1       2.029  -0.883   0.748  1.00  0.00     0.002 C 
HETATM    7  C6  UNL     1       2.153  -0.013  -0.444  1.00  0.00     0.005 C 
HETATM    8  C7  UNL     1       1.132   1.000  -0.691  1.00  0.00     0.079 C 
HETATM    9  C8  UNL     1      -0.089   1.058   0.155  1.00  0.00     0.325 C 
ENDROOT
BRANCH   9  10
HETATM   10  O1  UNL     1       0.211   1.327   1.507  1.00  0.00    -0.358 OA
ATOM     11  H1  UNL     1       0.739   2.116   1.522  1.00  0.00     0.213 HD
ENDBRANCH   9  10
BRANCH   9  12
HETATM   12  C9  UNL     1      -0.802   2.296  -0.340  1.00  0.00     0.446 C 
HETATM   13  F1  UNL     1       0.146   3.331  -0.237  1.00  0.00    -0.166 F 
HETATM   14  F2  UNL     1      -1.873   2.695   0.338  1.00  0.00    -0.166 F 
HETATM   15  F3  UNL     1      -1.099   2.221  -1.693  1.00  0.00    -0.166 F 
ENDBRANCH   9  12
TORSDOF 2
