REMARK  7 active torsions:
REMARK  status: ('A' for Active; 'I' for Inactive)
REMARK    1  A    between atoms: C2_2  and  N1_3 
REMARK    2  A    between atoms: N1_3  and  C3_4 
REMARK    3  A    between atoms: N1_3  and  C8_14 
REMARK    4  A    between atoms: C3_4  and  C4_5 
REMARK    5  A    between atoms: C11_17  and  C12_18 
REMARK    6  A    between atoms: C13_20  and  N4_21 
REMARK       I    between atoms: N4_21  and  C14_23 
REMARK    7  A    between atoms: C15_30  and  C16_31 
ROOT
HETATM    1  C8  UNL     1       1.415  -0.371  -0.117  1.00  0.00     0.034 A 
HETATM    2  C9  UNL     1       0.862  -0.155  -1.334  1.00  0.00     0.030 A 
HETATM    3  C10 UNL     1      -0.493   0.220  -1.413  1.00  0.00     0.015 A 
HETATM    4  C11 UNL     1      -1.231   0.360  -0.280  1.00  0.00    -0.017 A 
HETATM    5  C22 UNL     1      -0.649   0.140   0.961  1.00  0.00     0.015 A 
HETATM    6  C23 UNL     1       0.669  -0.225   1.061  1.00  0.00     0.030 A 
ENDROOT
BRANCH   4   7
HETATM    7  C12 UNL     1      -2.665   0.719  -0.242  1.00  0.00     0.046 A 
HETATM    8  S1  UNL     1      -3.328   2.282  -0.356  1.00  0.00    -0.051 SA
HETATM    9  C13 UNL     1      -4.969   1.871  -0.155  1.00  0.00     0.152 A 
HETATM   10  N7  UNL     1      -4.941   0.549  -0.007  1.00  0.00    -0.335 N 
HETATM   11  C15 UNL     1      -3.763  -0.054  -0.051  1.00  0.00     0.062 A 
ATOM     12  H7  UNL     1      -5.800   0.017   0.136  1.00  0.00     0.168 HD
BRANCH   9  13
HETATM   13  N4  UNL     1      -6.035   2.648  -0.142  1.00  0.00    -0.311 N 
HETATM   14  C14 UNL     1      -5.774   4.050  -0.323  1.00  0.00     0.187 C 
HETATM   15  N5  UNL     1      -6.334   4.638  -1.358  1.00  0.00    -0.373 N 
HETATM   16  N6  UNL     1      -4.969   4.838   0.503  1.00  0.00    -0.064 NA
ATOM     17  H52 UNL     1      -6.922   4.063  -1.961  1.00  0.00     0.158 HD
ATOM     18  H51 UNL     1      -6.149   5.633  -1.486  1.00  0.00     0.158 HD
ATOM     19  H4  UNL     1      -6.978   2.280  -0.013  1.00  0.00     0.170 HD
ENDBRANCH   9  13
BRANCH  11  20
HETATM   20  C16 UNL     1      -3.689  -1.541   0.074  1.00  0.00    -0.008 A 
HETATM   21  C17 UNL     1      -3.179  -2.237  -0.980  1.00  0.00     0.014 A 
HETATM   22  C18 UNL     1      -3.111  -3.609  -0.965  1.00  0.00     0.001 A 
HETATM   23  C19 UNL     1      -3.567  -4.287   0.146  1.00  0.00     0.000 A 
HETATM   24  C20 UNL     1      -4.082  -3.586   1.213  1.00  0.00     0.001 A 
HETATM   25  C21 UNL     1      -4.150  -2.200   1.197  1.00  0.00     0.014 A 
ENDBRANCH  11  20
ENDBRANCH   4   7
BRANCH   1  26
HETATM   26  N1  UNL     1       2.795  -0.773   0.126  1.00  0.00    -0.355 N 
BRANCH  26  27
HETATM   27  C2  UNL     1       3.251  -1.990  -0.383  1.00  0.00     0.060 C 
HETATM   28  C1  UNL     1       4.396  -1.836  -1.369  1.00  0.00     0.055 C 
ENDBRANCH  26  27
BRANCH  26  29
HETATM   29  C3  UNL     1       3.478   0.156   0.966  1.00  0.00     0.191 C 
BRANCH  29  30
HETATM   30  C4  UNL     1       4.881   0.497   0.574  1.00  0.00     0.096 A 
HETATM   31  N2  UNL     1       5.960  -0.162   0.992  1.00  0.00    -0.362 N 
HETATM   32  C5  UNL     1       7.175   0.336   0.746  1.00  0.00     0.105 A 
ATOM     33  H2  UNL     1       5.859  -1.042   1.497  1.00  0.00     0.165 HD
HETATM   34  C6  UNL     1       7.335   1.535   0.057  1.00  0.00     0.108 A 
HETATM   35  N3  UNL     1       6.215   2.182  -0.354  1.00  0.00    -0.331 N 
HETATM   36  C7  UNL     1       5.016   1.695  -0.114  1.00  0.00     0.269 A 
ATOM     37  H3  UNL     1       6.304   3.064  -0.859  1.00  0.00     0.168 HD
HETATM   38  O1  UNL     1       3.965   2.304  -0.506  1.00  0.00    -0.266 OA
ENDBRANCH  29  30
ENDBRANCH  26  29
ENDBRANCH   1  26
TORSDOF 7
