REMARK  6 active torsions:
REMARK  status: ('A' for Active; 'I' for Inactive)
REMARK    1  A    between atoms: C1_2  and  C2_3 
REMARK       I    between atoms: C1_2  and  N2_13 
REMARK    2  A    between atoms: C2_3  and  O2_4 
REMARK    3  A    between atoms: O2_4  and  C3_5 
REMARK    4  A    between atoms: C3_5  and  C4_7 
REMARK    5  A    between atoms: N2_13  and  N3_15 
REMARK    6  A    between atoms: C8_17  and  C9_18 
ROOT
HETATM    1  O1  UNL     1       0.282  -1.325  -1.395  1.00  0.00    -0.269 OA
HETATM    2  C1  UNL     1       0.491  -0.087  -1.389  1.00  0.00     0.260 C 
HETATM    3  N2  UNL     1       1.725   0.425  -1.911  1.00  0.00    -0.269 N 
ATOM      4  H2  UNL     1       1.879   1.433  -1.898  1.00  0.00     0.190 HD
ENDROOT
BRANCH   2   5
HETATM    5  C2  UNL     1      -0.549   0.800  -0.841  1.00  0.00     0.283 C 
BRANCH   5   6
HETATM    6  O2  UNL     1      -1.657   0.045  -0.396  1.00  0.00    -0.307 OA
BRANCH   6   7
HETATM    7  C3  UNL     1      -2.772   0.646   0.163  1.00  0.00     0.310 C 
HETATM    8  O3  UNL     1      -2.819   1.895   0.288  1.00  0.00    -0.258 OA
BRANCH   7   9
HETATM    9  C4  UNL     1      -3.922  -0.155   0.623  1.00  0.00     0.108 A 
HETATM   10  C5  UNL     1      -4.063  -1.524   0.576  1.00  0.00     0.037 A 
HETATM   11  C6  UNL     1      -5.283  -1.880   1.104  1.00  0.00     0.019 A 
HETATM   12  C7  UNL     1      -5.883  -0.701   1.475  1.00  0.00     0.088 A 
HETATM   13  N1  UNL     1      -5.049   0.311   1.177  1.00  0.00    -0.361 N 
ATOM     14  H1  UNL     1      -5.247   1.297   1.349  1.00  0.00     0.165 HD
ENDBRANCH   7   9
ENDBRANCH   6   7
ENDBRANCH   5   6
ENDBRANCH   2   5
BRANCH   3  15
HETATM   15  N3  UNL     1       2.708  -0.384  -2.428  1.00  0.00    -0.307 N 
HETATM   16  C8  UNL     1       3.820  -0.616  -1.884  1.00  0.00     0.144 C 
ATOM     17  H3  UNL     1       2.522  -0.833  -3.325  1.00  0.00     0.186 HD
BRANCH  16  18
HETATM   18  C9  UNL     1       4.330  -0.119  -0.640  1.00  0.00     0.093 A 
HETATM   19  C10 UNL     1       3.779   0.721   0.286  1.00  0.00     0.042 A 
HETATM   20  C11 UNL     1       4.693   0.898   1.339  1.00  0.00     0.048 A 
HETATM   21  C12 UNL     1       5.771   0.131   0.971  1.00  0.00     0.122 A 
HETATM   22 BR1  UNL     1       7.381  -0.061   1.994  1.00  0.00    -0.023 Br
HETATM   23  O4  UNL     1       5.535  -0.445  -0.176  1.00  0.00    -0.302 OA
ENDBRANCH  16  18
ENDBRANCH   3  15
TORSDOF 6
