REMARK  4 active torsions:
REMARK  status: ('A' for Active; 'I' for Inactive)
REMARK       I    between atoms: N1_2  and  C2_4 
REMARK    1  A    between atoms: C2_4  and  C3_6 
REMARK       I    between atoms: N3_15  and  C8_16 
REMARK    2  A    between atoms: C12_21  and  C13_22 
REMARK    3  A    between atoms: C13_22  and  C14_23 
REMARK    4  A    between atoms: C14_23  and  O4_24 
ROOT
HETATM    1  C3  UNL     1       1.277  -0.292  -0.242  1.00  0.00     0.132 C 
HETATM    2  C4  UNL     1       0.529   0.841   0.402  1.00  0.00     0.100 C 
HETATM    3  C5  UNL     1       0.508   0.409   1.825  1.00  0.00     0.224 C 
HETATM    4  O2  UNL     1       0.631   1.047   2.879  1.00  0.00    -0.273 OA
HETATM    5  N2  UNL     1       0.303  -0.996   1.758  1.00  0.00    -0.339 N 
ATOM      6  H2  UNL     1      -0.112  -1.567   2.494  1.00  0.00     0.164 HD
HETATM    7  C6  UNL     1       0.775  -1.490   0.482  1.00  0.00     0.120 C 
HETATM    8 BR1  UNL     1       2.080  -2.837   0.850  1.00  0.00    -0.059 Br
HETATM    9  C7  UNL     1      -0.339  -2.105  -0.335  1.00  0.00     0.170 C 
HETATM   10  N3  UNL     1      -1.482  -1.176  -0.420  1.00  0.00    -0.344 N 
HETATM   11  C8  UNL     1      -2.637  -1.687   0.174  1.00  0.00     0.216 C 
HETATM   12  C9  UNL     1      -2.692  -3.024   0.814  1.00  0.00     0.117 C 
HETATM   13  O3  UNL     1      -3.697  -1.013   0.186  1.00  0.00    -0.274 OA
HETATM   14  C10 UNL     1      -1.428   0.108  -1.035  1.00  0.00     0.088 C 
HETATM   15  C11 UNL     1      -2.715   0.632  -1.594  1.00  0.00     0.033 C 
HETATM   16  C12 UNL     1      -0.826   1.130  -0.102  1.00  0.00     0.024 C 
ENDROOT
BRANCH   1  17
HETATM   17  C2  UNL     1       2.727  -0.110   0.032  1.00  0.00     0.225 C 
HETATM   18  N1  UNL     1       3.659  -0.962  -0.620  1.00  0.00    -0.365 N 
HETATM   19  C1  UNL     1       5.095  -0.796  -0.355  1.00  0.00     0.149 C 
ATOM     20  H1  UNL     1       3.334  -1.682  -1.266  1.00  0.00     0.161 HD
HETATM   21  O1  UNL     1       3.133   0.778   0.827  1.00  0.00    -0.273 OA
ENDBRANCH   1  17
BRANCH  16  22
HETATM   22  C13 UNL     1      -0.928   2.503  -0.747  1.00  0.00     0.033 C 
BRANCH  22  23
HETATM   23  C14 UNL     1      -0.586   3.611   0.213  1.00  0.00     0.164 C 
BRANCH  23  24
HETATM   24  O4  UNL     1      -1.455   3.607   1.325  1.00  0.00    -0.401 OA
ATOM     25  H4  UNL     1      -1.239   4.306   1.931  1.00  0.00     0.209 HD
ENDBRANCH  23  24
ENDBRANCH  22  23
ENDBRANCH  16  22
TORSDOF 4
