REMARK  5 active torsions:
REMARK  status: ('A' for Active; 'I' for Inactive)
REMARK    1  A    between atoms: N2_6  and  C4_7 
REMARK    2  A    between atoms: C4_7  and  C5_8 
REMARK    3  A    between atoms: C5_8  and  N3_10 
REMARK    4  A    between atoms: N3_10  and  S1_12 
REMARK    5  A    between atoms: S1_12  and  C7_15 
ROOT
HETATM    1  C7  UNL     1      -1.277  -0.463   0.345  1.00  0.00     0.086 A 
HETATM    2  C8  UNL     1      -2.621  -0.258   0.617  1.00  0.00     0.037 A 
HETATM    3  C9  UNL     1      -3.593  -0.095  -0.361  1.00  0.00    -0.003 A 
HETATM    4  C10 UNL     1      -3.221  -0.138  -1.683  1.00  0.00     0.043 A 
HETATM    5  C11 UNL     1      -1.887  -0.343  -1.967  1.00  0.00     0.038 A 
HETATM    6  C12 UNL     1      -0.916  -0.505  -0.979  1.00  0.00    -0.036 A 
HETATM    7  C13 UNL     1       0.486  -0.743  -1.401  1.00  0.00     0.050 C 
HETATM    8  N4  UNL     1      -4.171   0.023  -2.758  1.00  0.00    -0.333 N 
ATOM      9  H4  UNL     1      -3.865  -0.013  -3.730  1.00  0.00     0.168 HD
HETATM   10  C14 UNL     1      -5.526   0.231  -2.441  1.00  0.00     0.173 A 
HETATM   11  S2  UNL     1      -6.679   0.424  -3.606  1.00  0.00    -0.041 SA
HETATM   12  N5  UNL     1      -5.917   0.276  -1.081  1.00  0.00    -0.354 N 
ATOM     13  H5  UNL     1      -6.902   0.428  -0.862  1.00  0.00     0.163 HD
HETATM   14  C15 UNL     1      -4.994   0.118  -0.000  1.00  0.00     0.054 A 
HETATM   15  C16 UNL     1      -5.042   1.377   0.881  1.00  0.00     0.043 C 
HETATM   16  C17 UNL     1      -5.539  -0.995   0.882  1.00  0.00     0.043 C 
ENDROOT
BRANCH   1  17
HETATM   17  S1  UNL     1      -0.136  -0.627   1.672  1.00  0.00     0.259 S 
HETATM   18  O1  UNL     1      -0.959  -0.794   2.934  1.00  0.00    -0.201 OA
HETATM   19  O2  UNL     1       0.644  -1.936   1.565  1.00  0.00    -0.201 OA
BRANCH  17  20
HETATM   20  N3  UNL     1       0.990   0.625   1.803  1.00  0.00    -0.309 N 
ATOM     21  H3  UNL     1       0.701   1.579   2.019  1.00  0.00     0.172 HD
BRANCH  20  22
HETATM   22  C5  UNL     1       2.365   0.291   1.598  1.00  0.00     0.109 C 
HETATM   23  C6  UNL     1       3.088   0.276   2.967  1.00  0.00     0.034 C 
BRANCH  22  24
HETATM   24  C4  UNL     1       3.053   1.227   0.668  1.00  0.00     0.173 C 
BRANCH  24  25
HETATM   25  N2  UNL     1       4.449   0.839   0.434  1.00  0.00    -0.301 N 
HETATM   26  N1  UNL     1       5.531   1.199   1.103  1.00  0.00    -0.309 N 
HETATM   27  C3  UNL     1       6.629   0.627   0.576  1.00  0.00     0.115 A 
ATOM     28  H1  UNL     1       5.533   1.825   1.908  1.00  0.00     0.186 HD
HETATM   29  C2  UNL     1       6.228  -0.144  -0.493  1.00  0.00    -0.028 A 
HETATM   30  C1  UNL     1       7.098  -0.958  -1.376  1.00  0.00     0.051 C 
HETATM   31  C18 UNL     1       4.851   0.016  -0.549  1.00  0.00     0.118 A 
ENDBRANCH  24  25
ENDBRANCH  22  24
ENDBRANCH  20  22
ENDBRANCH  17  20
ENDBRANCH   1  17
TORSDOF 5
