REMARK  5 active torsions:
REMARK  status: ('A' for Active; 'I' for Inactive)
REMARK       I    between atoms: C1_2  and  N1_3 
REMARK    1  A    between atoms: C1_2  and  C10_17 
REMARK    2  A    between atoms: N1_3  and  C2_5 
REMARK    3  A    between atoms: C2_5  and  C3_6 
REMARK    4  A    between atoms: C3_6  and  C4_7 
REMARK    5  A    between atoms: C4_7  and  N2_8 
ROOT
HETATM    1  O1  UNL     1       0.863  -1.394  -0.994  1.00  0.00    -0.273 OA
HETATM    2  C1  UNL     1      -0.010  -0.649  -0.483  1.00  0.00     0.230 C 
HETATM    3  N1  UNL     1       0.424   0.442   0.300  1.00  0.00    -0.360 N 
ATOM      4  H1  UNL     1      -0.302   1.033   0.705  1.00  0.00     0.162 HD
ENDROOT
BRANCH   2   5
HETATM    5  C10 UNL     1      -1.437  -0.949  -0.725  1.00  0.00     0.169 C 
HETATM    6  C11 UNL     1      -2.243  -1.150   0.530  1.00  0.00     0.026 C 
HETATM    7  C12 UNL     1      -3.311  -0.108   0.738  1.00  0.00     0.032 C 
HETATM    8  C13 UNL     1      -4.173   0.146  -0.463  1.00  0.00     0.033 C 
HETATM    9  C14 UNL     1      -5.165  -0.939  -0.738  1.00  0.00     0.031 C 
HETATM   10  C18 UNL     1      -4.892   1.457  -0.269  1.00  0.00     0.031 C 
HETATM   11  N3  UNL     1      -3.365   0.296  -1.676  1.00  0.00    -0.351 N 
HETATM   12  C15 UNL     1      -6.224  -1.064   0.327  1.00  0.00     0.002 C 
HETATM   13  C16 UNL     1      -6.780   0.277   0.724  1.00  0.00     0.000 C 
HETATM   14  C17 UNL     1      -6.399   1.308  -0.337  1.00  0.00     0.002 C 
HETATM   15  C19 UNL     1      -1.992   0.066  -1.630  1.00  0.00     0.231 C 
ATOM     16  H3  UNL     1      -3.808   0.569  -2.554  1.00  0.00     0.163 HD
HETATM   17  O2  UNL     1      -1.225   0.725  -2.362  1.00  0.00    -0.273 OA
ENDBRANCH   2   5
BRANCH   3  18
HETATM   18  C2  UNL     1       1.786   0.804   0.585  1.00  0.00     0.124 C 
BRANCH  18  19
HETATM   19  C3  UNL     1       2.485  -0.282   1.329  1.00  0.00     0.050 C 
BRANCH  19  20
HETATM   20  C4  UNL     1       3.926   0.086   1.653  1.00  0.00     0.278 C 
BRANCH  20  21
HETATM   21  N2  UNL     1       4.685   0.348   0.446  1.00  0.00     0.122 N 
HETATM   22  C5  UNL     1       4.835  -0.876  -0.262  1.00  0.00     0.282 C 
HETATM   23  C6  UNL     1       5.961  -0.901  -1.250  1.00  0.00     0.109 C 
HETATM   24  C7  UNL     1       7.236  -0.310  -0.694  1.00  0.00     0.249 C 
HETATM   25  F1  UNL     1       8.208  -0.360  -1.672  1.00  0.00    -0.206 F 
HETATM   26  F2  UNL     1       7.602  -0.993   0.452  1.00  0.00    -0.206 F 
HETATM   27  C8  UNL     1       6.903   1.114  -0.297  1.00  0.00     0.148 C 
HETATM   28  C9  UNL     1       5.865   1.044   0.779  1.00  0.00     0.410 C 
HETATM   29  F3  UNL     1       5.512   2.368   1.068  1.00  0.00    -0.216 F 
ENDBRANCH  20  21
ENDBRANCH  19  20
ENDBRANCH  18  19
ENDBRANCH   3  18
TORSDOF 5
