REMARK  16 active torsions:
REMARK  status: ('A' for Active; 'I' for Inactive)
REMARK    1  A    between atoms: O1_2  and  C2_3 
REMARK    2  A    between atoms: C2_3  and  C3_5 
REMARK    3  A    between atoms: C3_5  and  O3_6 
REMARK    4  A    between atoms: O3_6  and  N1_7 
REMARK    5  A    between atoms: C6_11  and  N2_12 
REMARK    6  A    between atoms: N2_12  and  C7_14 
REMARK    7  A    between atoms: C7_14  and  O4_15 
REMARK    8  A    between atoms: C7_14  and  C8_17 
REMARK    9  A    between atoms: C8_17  and  O5_18 
REMARK   10  A    between atoms: C8_17  and  C9_20 
REMARK   11  A    between atoms: C9_20  and  O6_21 
REMARK   12  A    between atoms: C10_23  and  O7_24 
REMARK   13  A    between atoms: O7_24  and  C11_25 
REMARK   14  A    between atoms: C11_25  and  O8_26 
REMARK   15  A    between atoms: C14_33  and  N4_34 
REMARK   16  A    between atoms: C19_47  and  N7_48 
ROOT
HETATM    1  N1  UNL     1       2.677   0.844   0.527  1.00  0.00    -0.270 N 
ATOM      2  H1  UNL     1       2.557   1.716   1.043  1.00  0.00     0.194 HD
HETATM    3  C4  UNL     1       1.618   0.376  -0.098  1.00  0.00     0.078 C 
HETATM    4  C5  UNL     1       0.379   1.190   0.034  1.00  0.00     0.086 C 
HETATM    5  C6  UNL     1      -0.515   1.301  -1.129  1.00  0.00     0.116 C 
HETATM    6  C10 UNL     1      -1.675   0.394  -1.265  1.00  0.00     0.177 C 
HETATM    7  C12 UNL     1      -1.972  -0.733  -0.423  1.00  0.00     0.174 C 
HETATM    8  O9  UNL     1      -1.895  -0.697   0.953  1.00  0.00    -0.326 OA
HETATM    9  C13 UNL     1      -2.322  -1.978   1.356  1.00  0.00     0.170 A 
HETATM   10  N3  UNL     1      -2.955  -2.456   2.467  1.00  0.00    -0.170 N 
ATOM     11  H3  UNL     1      -3.201  -1.798   3.206  1.00  0.00     0.186 HD
HETATM   12  C14 UNL     1      -3.267  -3.741   2.632  1.00  0.00     0.680 A 
HETATM   13  N5  UNL     1      -2.941  -4.606   1.654  1.00  0.00    -0.156 N 
ATOM     14  H5  UNL     1      -3.178  -5.591   1.775  1.00  0.00     0.187 HD
HETATM   15  C15 UNL     1      -2.310  -4.226   0.513  1.00  0.00     0.270 A 
HETATM   16  O10 UNL     1      -2.009  -5.055  -0.399  1.00  0.00    -0.267 OA
HETATM   17  C16 UNL     1      -2.002  -2.890   0.375  1.00  0.00     0.073 A 
HETATM   18  C17 UNL     1      -1.315  -2.094  -0.709  1.00  0.00     0.117 C 
HETATM   19  C18 UNL     1       0.063  -1.949  -0.362  1.00  0.00     0.336 C 
HETATM   20  N6  UNL     1       0.731  -1.310  -1.508  1.00  0.00    -0.006 N 
ATOM     21  H61 UNL     1       0.201  -0.610  -2.026  1.00  0.00     0.283 HD
ATOM     22  H62 UNL     1       0.888  -1.884  -2.336  1.00  0.00     0.283 HD
HETATM   23  C19 UNL     1       1.882  -0.862  -0.797  1.00  0.00     0.347 C 
HETATM   24  C20 UNL     1       2.075  -2.093   0.113  1.00  0.00     0.246 C 
HETATM   25  O11 UNL     1       0.971  -2.954  -0.207  1.00  0.00    -0.354 OA
ENDROOT
BRANCH   5  26
HETATM   26  N2  UNL     1      -0.907   2.620  -1.406  1.00  0.00    -0.388 N 
ATOM     27  H2  UNL     1      -0.541   2.998  -2.280  1.00  0.00     0.156 HD
BRANCH  26  28
HETATM   28  C7  UNL     1      -1.695   3.480  -0.701  1.00  0.00     0.244 C 
BRANCH  28  29
HETATM   29  O4  UNL     1      -1.781   4.688  -1.512  1.00  0.00    -0.374 OA
ATOM     30  H4  UNL     1      -2.330   5.287  -1.021  1.00  0.00     0.212 HD
ENDBRANCH  28  29
BRANCH  28  31
HETATM   31  C8  UNL     1      -1.419   3.991   0.656  1.00  0.00     0.189 C 
BRANCH  31  32
HETATM   32  O5  UNL     1      -1.407   3.107   1.708  1.00  0.00    -0.389 OA
ATOM     33  H5  UNL     1      -1.229   3.436   2.581  1.00  0.00     0.210 HD
ENDBRANCH  31  32
BRANCH  31  34
HETATM   34  C9  UNL     1      -2.418   5.100   1.060  1.00  0.00     0.200 C 
BRANCH  34  35
HETATM   35  O6  UNL     1      -3.636   4.467   1.281  1.00  0.00    -0.398 OA
ATOM     36  H6  UNL     1      -4.250   5.148   1.529  1.00  0.00     0.209 HD
ENDBRANCH  34  35
ENDBRANCH  31  34
ENDBRANCH  28  31
ENDBRANCH  26  28
ENDBRANCH   5  26
BRANCH   6  37
HETATM   37  O7  UNL     1      -1.713  -0.079  -2.584  1.00  0.00    -0.357 OA
BRANCH  37  38
HETATM   38  C11 UNL     1      -2.794   0.291  -3.318  1.00  0.00     0.335 C 
BRANCH  38  39
HETATM   39  O8  UNL     1      -2.988   1.642  -3.502  1.00  0.00    -0.377 OA
ATOM     40  H8  UNL     1      -3.744   1.901  -4.015  1.00  0.00     0.212 HD
ENDBRANCH  38  39
ENDBRANCH  37  38
ENDBRANCH   6  37
BRANCH   1  41
HETATM   41  O3  UNL     1       3.895   0.292   0.554  1.00  0.00    -0.271 OA
BRANCH  41  42
HETATM   42  C3  UNL     1       4.483   0.028   1.815  1.00  0.00     0.312 C 
BRANCH  42  43
HETATM   43  C2  UNL     1       5.819  -0.578   1.674  1.00  0.00     0.284 C 
HETATM   44  O2  UNL     1       6.467  -0.870   2.703  1.00  0.00    -0.263 OA
BRANCH  43  45
HETATM   45  O1  UNL     1       6.371  -0.831   0.437  1.00  0.00    -0.325 OA
HETATM   46  C1  UNL     1       7.677  -1.422   0.345  1.00  0.00     0.213 C 
ENDBRANCH  43  45
ENDBRANCH  42  43
ENDBRANCH  41  42
ENDBRANCH   1  41
BRANCH  23  47
HETATM   47  N7  UNL     1       3.074  -0.820  -1.627  1.00  0.00    -0.037 N 
ATOM     48  H73 UNL     1       3.030  -0.039  -2.282  1.00  0.00     0.277 HD
ATOM     49  H72 UNL     1       3.885  -0.536  -1.078  1.00  0.00     0.277 HD
ATOM     50  H71 UNL     1       3.260  -1.693  -2.120  1.00  0.00     0.277 HD
ENDBRANCH  23  47
BRANCH  12  51
HETATM   51  N4  UNL     1      -3.871  -4.195   3.688  1.00  0.00    -0.234 N 
ATOM     52  H42 UNL     1      -4.118  -3.539   4.429  1.00  0.00     0.174 HD
ATOM     53  H41 UNL     1      -4.110  -5.179   3.814  1.00  0.00     0.174 HD
ENDBRANCH  12  51
TORSDOF 16
