REMARK  7 active torsions:
REMARK  status: ('A' for Active; 'I' for Inactive)
REMARK    1  A    between atoms: N1_1  and  C1_4 
REMARK    2  A    between atoms: C2_7  and  O1_8 
REMARK    3  A    between atoms: O1_8  and  C3_9 
REMARK    4  A    between atoms: C3_9  and  C4_10 
REMARK    5  A    between atoms: C4_10  and  C5_11 
REMARK    6  A    between atoms: C5_11  and  N3_12 
REMARK       I    between atoms: C6_14  and  N5_16 
REMARK    7  A    between atoms: N5_16  and  N6_18 
ROOT
HETATM    1  C4  UNL     1       0.325  -1.052  -0.011  1.00  0.00     0.071 C 
ENDROOT
BRANCH   1   2
HETATM    2  C3  UNL     1      -1.081  -0.602  -0.424  1.00  0.00     0.182 C 
BRANCH   2   3
HETATM    3  O1  UNL     1      -1.489   0.366   0.524  1.00  0.00    -0.335 OA
BRANCH   3   4
HETATM    4  C2  UNL     1      -2.758   0.946   0.374  1.00  0.00     0.162 A 
HETATM    5  N2  UNL     1      -3.195   1.871   1.247  1.00  0.00    -0.171 N 
HETATM    6  C1  UNL     1      -4.421   2.438   1.110  1.00  0.00     0.680 A 
ATOM      7  H2  UNL     1      -2.596   2.151   2.024  1.00  0.00     0.186 HD
HETATM    8  N11 UNL     1      -5.227   2.085   0.093  1.00  0.00    -0.156 N 
HETATM    9  C8  UNL     1      -4.852   1.167  -0.815  1.00  0.00     0.263 A 
ATOM     10  H11 UNL     1      -6.144   2.524   0.009  1.00  0.00     0.187 HD
HETATM   11  C7  UNL     1      -3.603   0.601  -0.660  1.00  0.00     0.131 A 
HETATM   12  O2  UNL     1      -5.622   0.853  -1.756  1.00  0.00    -0.268 OA
BRANCH   6  13
HETATM   13  N1  UNL     1      -4.849   3.333   1.951  1.00  0.00    -0.234 N 
ATOM     14  H12 UNL     1      -4.238   3.601   2.722  1.00  0.00     0.174 HD
ATOM     15  H11 UNL     1      -5.770   3.759   1.848  1.00  0.00     0.174 HD
ENDBRANCH   6  13
ENDBRANCH   3   4
ENDBRANCH   2   3
ENDBRANCH   1   2
BRANCH   1  16
HETATM   16  C5  UNL     1       0.782  -2.085  -1.008  1.00  0.00     0.065 C 
BRANCH  16  17
HETATM   17  N3  UNL     1       2.034  -2.614  -0.723  1.00  0.00    -0.343 N 
HETATM   18  C6  UNL     1       3.012  -2.253  -0.084  1.00  0.00     0.209 C 
HETATM   19  N4  UNL     1       4.154  -3.157  -0.049  1.00  0.00    -0.062 NA
HETATM   20  N5  UNL     1       3.138  -1.042   0.622  1.00  0.00    -0.237 N 
ATOM     21  H5  UNL     1       2.605  -0.890   1.479  1.00  0.00     0.193 HD
ATOM     22  H3  UNL     1       2.172  -3.529  -1.152  1.00  0.00     0.167 HD
BRANCH  20  23
HETATM   23  N6  UNL     1       4.001  -0.043   0.141  1.00  0.00    -0.099 N 
HETATM   24  N7  UNL     1       4.743  -0.110  -0.950  1.00  0.00     0.034 NA
HETATM   25  N8  UNL     1       5.427   1.016  -1.087  1.00  0.00     0.011 NA
HETATM   26  N9  UNL     1       5.093   1.783  -0.059  1.00  0.00    -0.211 N 
HETATM   27  N10 UNL     1       4.232   1.139   0.680  1.00  0.00    -0.195 N 
ATOM     28  H9  UNL     1       5.450   2.721   0.124  1.00  0.00     0.207 HD
ATOM     29  H10 UNL     1       3.806   1.492   1.537  1.00  0.00     0.213 HD
ENDBRANCH  20  23
ENDBRANCH  16  17
ENDBRANCH   1  16
TORSDOF 7
