REMARK  13 active torsions:
REMARK  status: ('A' for Active; 'I' for Inactive)
REMARK    1  A    between atoms: N1_1  and  C1_4 
REMARK    2  A    between atoms: N4_12  and  C5_13 
REMARK    3  A    between atoms: C5_13  and  C6_14 
REMARK       I    between atoms: C6_14  and  N5_16 
REMARK       I    between atoms: N5_16  and  C7_18 
REMARK    4  A    between atoms: C7_18  and  C8_20 
REMARK    5  A    between atoms: N6_24  and  C12_25 
REMARK    6  A    between atoms: C12_25  and  C13_26 
REMARK    7  A    between atoms: C13_26  and  C14_28 
REMARK    8  A    between atoms: C17_38  and  N10_39 
REMARK    9  A    between atoms: C19_41  and  O4_42 
REMARK   10  A    between atoms: C20_44  and  O5_45 
REMARK   11  A    between atoms: O5_45  and  S1_46 
REMARK   12  A    between atoms: S1_46  and  N11_47 
REMARK   13  A    between atoms: C21_52  and  O8_53 
ROOT
HETATM    1  C1  UNL     1      -2.599   0.972  -2.139  1.00  0.00     0.679 A 
HETATM    2  N2  UNL     1      -1.554   0.543  -1.423  1.00  0.00    -0.174 N 
ATOM      3  H2  UNL     1      -0.618   0.807  -1.731  1.00  0.00     0.186 HD
HETATM    4  C2  UNL     1      -1.669  -0.217  -0.321  1.00  0.00     0.155 A 
HETATM    5  C3  UNL     1      -2.974  -0.557   0.064  1.00  0.00     0.124 A 
HETATM    6  N3  UNL     1      -2.866  -1.315   1.167  1.00  0.00    -0.346 N 
ATOM      7  H3  UNL     1      -3.639  -1.721   1.694  1.00  0.00     0.167 HD
HETATM    8  C4  UNL     1      -1.563  -1.443   1.452  1.00  0.00     0.185 A 
HETATM    9  N4  UNL     1      -0.805  -0.774   0.546  1.00  0.00    -0.318 N 
HETATM   10  C17 UNL     1      -4.063  -0.125  -0.661  1.00  0.00     0.165 A 
HETATM   11  N13 UNL     1      -3.844   0.627  -1.742  1.00  0.00    -0.173 N 
ATOM     12  H13 UNL     1      -4.643   0.952  -2.287  1.00  0.00     0.186 HD
ENDROOT
BRANCH   9  13
HETATM   13  C5  UNL     1       0.654  -0.690   0.518  1.00  0.00     0.234 C 
BRANCH  13  14
HETATM   14  C6  UNL     1       1.217  -1.799  -0.282  1.00  0.00     0.242 C 
HETATM   15  O1  UNL     1       0.387  -2.587  -0.848  1.00  0.00    -0.271 OA
HETATM   16  N5  UNL     1       2.601  -2.047  -0.465  1.00  0.00    -0.294 N 
HETATM   17  C7  UNL     1       3.656  -1.303   0.104  1.00  0.00     0.258 C 
ATOM     18  H5  UNL     1       2.857  -2.834  -1.062  1.00  0.00     0.171 HD
HETATM   19  O2  UNL     1       3.367  -0.329   0.811  1.00  0.00    -0.271 OA
BRANCH  17  20
HETATM   20  C8  UNL     1       5.047  -1.719  -0.166  1.00  0.00     0.315 C 
HETATM   21  C9  UNL     1       5.277  -3.156   0.294  1.00  0.00     0.047 C 
HETATM   22  C10 UNL     1       6.664  -3.163   0.914  1.00  0.00     0.033 C 
HETATM   23  C11 UNL     1       7.230  -1.858   0.327  1.00  0.00     0.274 C 
HETATM   24  N6  UNL     1       6.052  -0.987   0.531  1.00  0.00     0.109 N 
BRANCH  24  25
HETATM   25  C12 UNL     1       6.307   0.317  -0.061  1.00  0.00     0.358 C 
BRANCH  25  26
HETATM   26  C13 UNL     1       7.306   1.059   0.704  1.00  0.00     0.205 C 
HETATM   27  O3  UNL     1       7.759   0.665   1.810  1.00  0.00    -0.289 OA
BRANCH  26  28
HETATM   28  C14 UNL     1       7.841   2.322   0.214  1.00  0.00     0.112 A 
HETATM   29  C15 UNL     1       7.477   2.934  -0.966  1.00  0.00     0.140 A 
HETATM   30  N7  UNL     1       8.155   4.084  -1.115  1.00  0.00    -0.200 N 
HETATM   31  C16 UNL     1       8.952   4.209  -0.030  1.00  0.00     0.676 A 
ATOM     32  H7  UNL     1       8.083   4.737  -1.896  1.00  0.00     0.183 HD
HETATM   33  N8  UNL     1       9.744   5.198   0.173  1.00  0.00    -0.234 N 
HETATM   34  N9  UNL     1       8.758   3.145   0.765  1.00  0.00    -0.187 N 
ATOM     35  H82 UNL     1       9.891   6.007  -0.431  1.00  0.00     0.174 HD
ATOM     36  H81 UNL     1      10.345   5.292   0.992  1.00  0.00     0.174 HD
ATOM     37  H9  UNL     1       9.233   2.983   1.653  1.00  0.00     0.184 HD
ENDBRANCH  26  28
ENDBRANCH  25  26
ENDBRANCH  24  25
ENDBRANCH  17  20
ENDBRANCH  13  14
ENDBRANCH   9  13
BRANCH   1  38
HETATM   38  N1  UNL     1      -2.468   1.704  -3.187  1.00  0.00    -0.234 N 
ATOM     39  H12 UNL     1      -1.528   1.964  -3.487  1.00  0.00     0.174 HD
ATOM     40  H11 UNL     1      -3.265   2.031  -3.733  1.00  0.00     0.174 HD
ENDBRANCH   1  38
BRANCH  10  41
HETATM   41  N10 UNL     1      -5.399  -0.482  -0.243  1.00  0.00    -0.273 N 
HETATM   42  C18 UNL     1      -5.732  -0.458   1.139  1.00  0.00     0.181 C 
HETATM   43  C19 UNL     1      -7.151  -0.057   1.435  1.00  0.00     0.172 C 
HETATM   44  C20 UNL     1      -8.023   0.006   0.217  1.00  0.00     0.220 C 
HETATM   45  C21 UNL     1      -7.589  -1.158  -0.679  1.00  0.00     0.264 C 
HETATM   46  N12 UNL     1      -6.294  -0.873  -1.227  1.00  0.00    -0.102 NA
BRANCH  43  47
HETATM   47  O4  UNL     1      -7.674  -0.962   2.373  1.00  0.00    -0.391 OA
ATOM     48  H4  UNL     1      -8.570  -0.709   2.560  1.00  0.00     0.210 HD
ENDBRANCH  43  47
BRANCH  44  49
HETATM   49  O5  UNL     1      -7.811   1.161  -0.506  1.00  0.00    -0.247 OA
BRANCH  49  50
HETATM   50  S1  UNL     1      -9.194   2.000  -0.902  1.00  0.00     0.356 S 
HETATM   51  O6  UNL     1      -8.758   3.276  -1.576  1.00  0.00    -0.176 OA
HETATM   52  O7  UNL     1      -9.921   1.198  -1.956  1.00  0.00    -0.176 OA
BRANCH  50  53
HETATM   53  N11 UNL     1     -10.206   2.360   0.410  1.00  0.00    -0.306 N 
ATOM     54 2H11 UNL     1      -9.972   2.078   1.362  1.00  0.00     0.171 HD
ATOM     55 1H11 UNL     1     -11.053   2.874   0.167  1.00  0.00     0.171 HD
ENDBRANCH  50  53
ENDBRANCH  49  50
ENDBRANCH  44  49
BRANCH  45  56
HETATM   56  O8  UNL     1      -8.549  -1.315  -1.669  1.00  0.00    -0.375 OA
ATOM     57  H8  UNL     1      -8.280  -2.037  -2.225  1.00  0.00     0.211 HD
ENDBRANCH  45  56
ENDBRANCH  10  41
TORSDOF 13
