REMARK  13 active torsions:
REMARK  status: ('A' for Active; 'I' for Inactive)
REMARK       I    between atoms: C1_2  and  N2_4 
REMARK    1  A    between atoms: N2_4  and  N3_6 
REMARK    2  A    between atoms: C2_8  and  C3_9 
REMARK    3  A    between atoms: C2_8  and  C5_19 
REMARK    4  A    between atoms: N4_11  and  N5_12 
REMARK    5  A    between atoms: C5_19  and  N8_20 
REMARK    6  A    between atoms: N8_20  and  N9_22 
REMARK    7  A    between atoms: N9_22  and  C6_24 
REMARK    8  A    between atoms: N11_32  and  C10_33 
REMARK    9  A    between atoms: C13_36  and  S1_37 
REMARK   10  A    between atoms: S1_37  and  N12_38 
REMARK   11  A    between atoms: C17_47  and  O7_48 
REMARK   12  A    between atoms: C17_47  and  C18_50 
REMARK   13  A    between atoms: C19_51  and  O8_52 
ROOT
HETATM    1  C5  UNL     1      -2.704  -0.554   0.395  1.00  0.00     0.113 C 
HETATM    2  C17 UNL     1      -2.857  -1.974   0.417  1.00  0.00     0.116 C 
ENDROOT
BRANCH   1   3
HETATM    3  C2  UNL     1      -3.833   0.253  -0.081  1.00  0.00     0.108 C 
HETATM    4  N3  UNL     1      -4.514  -0.201  -1.046  1.00  0.00    -0.292 N 
ATOM      5  H3  UNL     1      -4.230  -1.150  -1.291  1.00  0.00     0.187 HD
BRANCH   4   6
HETATM    6  N2  UNL     1      -5.511   0.234  -1.834  1.00  0.00    -0.254 N 
HETATM    7  C1  UNL     1      -5.327   0.595  -3.223  1.00  0.00     0.347 C 
HETATM    8  N1  UNL     1      -6.433   1.049  -3.981  1.00  0.00    -0.038 NA
HETATM    9  O1  UNL     1      -4.169   0.489  -3.713  1.00  0.00    -0.249 OA
ATOM     10  H2  UNL     1      -6.445   0.314  -1.433  1.00  0.00     0.191 HD
ENDBRANCH   4   6
BRANCH   3  11
HETATM   11  C3  UNL     1      -4.076   1.602   0.433  1.00  0.00     0.099 A 
HETATM   12  C4  UNL     1      -4.955   2.532   0.017  1.00  0.00     0.170 A 
HETATM   13  N4  UNL     1      -4.832   3.628   0.823  1.00  0.00    -0.198 N 
HETATM   14  N6  UNL     1      -3.884   3.320   1.693  1.00  0.00    -0.222 N 
HETATM   15  N7  UNL     1      -3.411   2.135   1.499  1.00  0.00    -0.281 N 
ATOM     16  H6  UNL     1      -3.564   3.947   2.432  1.00  0.00     0.210 HD
ATOM     17  H7  UNL     1      -2.676   1.681   2.042  1.00  0.00     0.188 HD
BRANCH  13  18
HETATM   18  N5  UNL     1      -5.570   4.807   0.720  1.00  0.00    -0.323 N 
ATOM     19  H52 UNL     1      -6.301   5.044   0.049  1.00  0.00     0.179 HD
ATOM     20  H51 UNL     1      -5.478   5.625   1.322  1.00  0.00     0.179 HD
ENDBRANCH  13  18
ENDBRANCH   3  11
ENDBRANCH   1   3
BRANCH   1  21
HETATM   21  N8  UNL     1      -1.687   0.122   1.084  1.00  0.00    -0.296 N 
ATOM     22  H8  UNL     1      -1.731   1.134   1.200  1.00  0.00     0.187 HD
BRANCH  21  23
HETATM   23  N9  UNL     1      -0.640  -0.581   1.598  1.00  0.00    -0.309 N 
ATOM     24  H9  UNL     1      -0.881  -1.495   1.982  1.00  0.00     0.186 HD
BRANCH  23  25
HETATM   25  C6  UNL     1       0.715  -0.243   1.680  1.00  0.00     0.142 C 
HETATM   26  C7  UNL     1       1.575  -0.277   0.671  1.00  0.00     0.121 A 
HETATM   27  N10 UNL     1       1.213  -0.668  -0.644  1.00  0.00    -0.313 N 
HETATM   28  C16 UNL     1       2.976   0.075   0.917  1.00  0.00     0.283 A 
HETATM   29  C8  UNL     1       2.184  -0.715  -1.680  1.00  0.00     0.315 A 
ATOM     30  H10 UNL     1       0.245  -0.918  -0.848  1.00  0.00     0.169 HD
HETATM   31  O2  UNL     1       1.846  -1.069  -2.860  1.00  0.00    -0.262 OA
HETATM   32  C9  UNL     1       3.555  -0.356  -1.381  1.00  0.00     0.323 A 
HETATM   33  O3  UNL     1       4.446  -0.387  -2.282  1.00  0.00    -0.261 OA
HETATM   34  N11 UNL     1       3.983   0.046  -0.083  1.00  0.00    -0.239 N 
HETATM   35  O6  UNL     1       3.322   0.432   2.097  1.00  0.00    -0.265 OA
BRANCH  34  36
HETATM   36  C10 UNL     1       5.359   0.384   0.164  1.00  0.00     0.046 A 
HETATM   37  C11 UNL     1       5.782   1.659   0.417  1.00  0.00     0.032 A 
HETATM   38  C12 UNL     1       7.122   1.892   0.643  1.00  0.00     0.027 A 
HETATM   39  C13 UNL     1       8.047   0.893   0.624  1.00  0.00     0.079 A 
HETATM   40  C14 UNL     1       7.622  -0.403   0.368  1.00  0.00     0.027 A 
HETATM   41  C15 UNL     1       6.299  -0.616   0.147  1.00  0.00     0.032 A 
BRANCH  39  42
HETATM   42  S1  UNL     1       9.750   1.136   0.895  1.00  0.00     0.256 S 
HETATM   43  O4  UNL     1      10.028   2.362   1.723  1.00  0.00    -0.201 OA
HETATM   44  O5  UNL     1      10.302  -0.102   1.533  1.00  0.00    -0.201 OA
BRANCH  42  45
HETATM   45  N12 UNL     1      10.501   1.290  -0.666  1.00  0.00    -0.324 N 
ATOM     46 2H12 UNL     1      10.020   1.244  -1.564  1.00  0.00     0.169 HD
ATOM     47 1H12 UNL     1      11.498   1.432  -0.507  1.00  0.00     0.169 HD
ENDBRANCH  42  45
ENDBRANCH  39  42
ENDBRANCH  34  36
ENDBRANCH  23  25
ENDBRANCH  21  23
ENDBRANCH   1  21
BRANCH   2  48
HETATM   48  O7  UNL     1      -1.773  -2.643   0.078  1.00  0.00    -0.357 OA
ATOM     49  H7  UNL     1      -1.875  -3.587   0.093  1.00  0.00     0.217 HD
ENDBRANCH   2  48
BRANCH   2  50
HETATM   50  C18 UNL     1      -3.946  -2.848   0.738  1.00  0.00     0.121 A 
HETATM   51  C19 UNL     1      -3.952  -4.251   0.645  1.00  0.00     0.173 A 
HETATM   52  N13 UNL     1      -5.098  -4.746   1.136  1.00  0.00    -0.276 N 
HETATM   53  N14 UNL     1      -5.828  -3.737   1.540  1.00  0.00    -0.264 N 
ATOM     54  H13 UNL     1      -5.355  -5.732   1.186  1.00  0.00     0.189 HD
HETATM   55  C20 UNL     1      -5.147  -2.562   1.310  1.00  0.00     0.277 A 
ATOM     56  H14 UNL     1      -6.755  -3.810   1.959  1.00  0.00     0.190 HD
HETATM   57  O9  UNL     1      -5.697  -1.475   1.645  1.00  0.00    -0.266 OA
BRANCH  51  58
HETATM   58  O8  UNL     1      -2.925  -5.047   0.120  1.00  0.00    -0.344 OA
ATOM     59  H8  UNL     1      -2.929  -5.995   0.057  1.00  0.00     0.219 HD
ENDBRANCH  51  58
ENDBRANCH   2  50
TORSDOF 13
