REMARK  6 active torsions:
REMARK  status: ('A' for Active; 'I' for Inactive)
REMARK    1  A    between atoms: C2_2  and  C3_4 
REMARK    2  A    between atoms: C4_7  and  N2_8 
REMARK    3  A    between atoms: N2_8  and  C5_10 
REMARK    4  A    between atoms: C9_15  and  S1_16 
REMARK    5  A    between atoms: S1_16  and  C10_19 
REMARK    6  A    between atoms: C14_25  and  C15_26 
ROOT
HETATM    1  C3  UNL     1       3.873  -0.483   0.088  1.00  0.00     0.124 A 
HETATM    2  N1  UNL     1       3.284  -1.543  -0.566  1.00  0.00    -0.186 N 
ATOM      3  H1  UNL     1       3.782  -2.240  -1.120  1.00  0.00     0.184 HD
HETATM    4  C4  UNL     1       1.970  -1.523  -0.368  1.00  0.00     0.683 A 
HETATM    5  N3  UNL     1       1.731  -0.455   0.406  1.00  0.00    -0.187 N 
ATOM      6  H3  UNL     1       0.803  -0.179   0.727  1.00  0.00     0.184 HD
HETATM    7  C14 UNL     1       2.857   0.208   0.709  1.00  0.00     0.110 A 
ENDROOT
BRANCH   4   8
HETATM    8  N2  UNL     1       1.116  -2.367  -0.835  1.00  0.00    -0.192 N 
ATOM      9  H2  UNL     1       1.454  -3.135  -1.415  1.00  0.00     0.184 HD
BRANCH   8  10
HETATM   10  C5  UNL     1      -0.279  -2.272  -0.575  1.00  0.00     0.050 A 
HETATM   11  C6  UNL     1      -0.852  -3.259   0.224  1.00  0.00     0.032 A 
HETATM   12  C7  UNL     1      -2.188  -3.195   0.490  1.00  0.00     0.028 A 
HETATM   13  C8  UNL     1      -2.957  -2.154  -0.035  1.00  0.00     0.055 A 
HETATM   14 CL1  UNL     1      -4.659  -2.252   0.335  1.00  0.00    -0.083 Cl
HETATM   15  C9  UNL     1      -2.444  -1.174  -0.813  1.00  0.00     0.083 A 
HETATM   16  C13 UNL     1      -1.067  -1.262  -1.073  1.00  0.00     0.055 A 
BRANCH  15  17
HETATM   17  S1  UNL     1      -3.304   0.178  -1.441  1.00  0.00     0.180 S 
HETATM   18  O2  UNL     1      -4.512  -0.324  -2.233  1.00  0.00    -0.222 OA
HETATM   19  O3  UNL     1      -2.434   0.839  -2.512  1.00  0.00    -0.222 OA
BRANCH  17  20
HETATM   20  C10 UNL     1      -3.766   1.427  -0.319  1.00  0.00     0.105 C 
HETATM   21  C11 UNL     1      -4.170   2.715  -1.136  1.00  0.00     0.026 C 
HETATM   22  C12 UNL     1      -5.014   1.100   0.435  1.00  0.00     0.026 C 
ENDBRANCH  17  20
ENDBRANCH  15  17
ENDBRANCH   8  10
ENDBRANCH   4   8
BRANCH   1  23
HETATM   23  C2  UNL     1       5.302  -0.249   0.050  1.00  0.00     0.174 C 
HETATM   24  C1  UNL     1       6.172  -1.211  -0.742  1.00  0.00     0.098 C 
HETATM   25  O1  UNL     1       5.931   0.666   0.599  1.00  0.00    -0.291 OA
ENDBRANCH   1  23
BRANCH   7  26
HETATM   26  C15 UNL     1       2.971   1.408   1.526  1.00  0.00     0.110 A 
HETATM   27  N4  UNL     1       4.091   2.112   1.858  1.00  0.00    -0.256 N 
HETATM   28  O4  UNL     1       3.816   3.127   2.602  1.00  0.00    -0.223 OA
ATOM     29  H4  UNL     1       5.033   1.865   1.554  1.00  0.00     0.195 HD
HETATM   30  C16 UNL     1       2.540   3.193   2.825  1.00  0.00     0.192 A 
HETATM   31 CL2  UNL     1       1.616   4.346   3.754  1.00  0.00    -0.052 Cl
HETATM   32  C17 UNL     1       1.958   2.102   2.149  1.00  0.00     0.112 A 
HETATM   33 CL3  UNL     1       0.255   1.737   2.134  1.00  0.00    -0.078 Cl
ENDBRANCH   7  26
TORSDOF 6
