REMARK  4 active torsions:
REMARK  status: ('A' for Active; 'I' for Inactive)
REMARK    1  A    between atoms: C6_8  and  S1_9 
REMARK    2  A    between atoms: S1_9  and  C7_10 
REMARK    3  A    between atoms: C7_10  and  C8_11 
REMARK    4  A    between atoms: C8_11  and  N2_12 
ROOT
HETATM    1  C1  UNL     1       6.632   0.325  -1.073  1.00  0.00     0.010 C 
HETATM    2  C2  UNL     1       5.480  -0.165  -0.217  1.00  0.00    -0.013 C 
HETATM    3  C3  UNL     1       4.440  -0.856  -1.040  1.00  0.00     0.010 C 
HETATM    4  C4  UNL     1       3.166  -0.060  -1.201  1.00  0.00     0.058 C 
HETATM    5  C5  UNL     1       2.613   0.248   0.176  1.00  0.00     0.023 A 
HETATM    6  N1  UNL     1       1.416   0.079   0.635  1.00  0.00    -0.348 N 
ATOM      7  H1  UNL     1       0.693  -0.314   0.032  1.00  0.00     0.167 HD
HETATM    8  C6  UNL     1       1.123   0.412   1.878  1.00  0.00     0.112 A 
HETATM    9  S2  UNL     1       2.616   1.004   2.456  1.00  0.00    -0.068 SA
HETATM   10  C14 UNL     1       3.553   0.781   1.025  1.00  0.00     0.008 A 
HETATM   11  C15 UNL     1       4.968   1.005   0.584  1.00  0.00     0.052 C 
ENDROOT
BRANCH   8  12
HETATM   12  S1  UNL     1      -0.397   0.286   2.817  1.00  0.00    -0.103 SA
BRANCH  12  13
HETATM   13  C7  UNL     1      -1.716  -0.448   1.852  1.00  0.00     0.111 C 
BRANCH  13  14
HETATM   14  C8  UNL     1      -2.164   0.442   0.722  1.00  0.00     0.283 C 
BRANCH  14  15
HETATM   15  N2  UNL     1      -3.205  -0.120  -0.062  1.00  0.00     0.089 N 
HETATM   16  C9  UNL     1      -3.668   0.773  -1.073  1.00  0.00     0.272 C 
HETATM   17  C10 UNL     1      -5.195   0.891  -1.048  1.00  0.00     0.030 C 
HETATM   18  C11 UNL     1      -5.699  -0.524  -1.359  1.00  0.00     0.003 C 
HETATM   19  C12 UNL     1      -5.199  -1.450  -0.306  1.00  0.00     0.030 C 
HETATM   20  C13 UNL     1      -4.210  -0.821   0.660  1.00  0.00     0.272 C 
ENDBRANCH  14  15
ENDBRANCH  13  14
ENDBRANCH  12  13
ENDBRANCH   8  12
TORSDOF 4
