REMARK  5 active torsions:
REMARK  status: ('A' for Active; 'I' for Inactive)
REMARK    1  A    between atoms: N1_1  and  S1_4 
REMARK    2  A    between atoms: S1_4  and  C1_7 
REMARK    3  A    between atoms: C5_11  and  N2_12 
REMARK    4  A    between atoms: N2_12  and  C6_14 
REMARK    5  A    between atoms: C7_17  and  C8_18 
ROOT
HETATM    1  C6  UNL     1      -0.518  -0.220  -0.342  1.00  0.00     0.683 A 
HETATM    2  N3  UNL     1       0.757   0.172  -0.190  1.00  0.00    -0.188 N 
ATOM      3  H3  UNL     1       1.011   1.124  -0.454  1.00  0.00     0.184 HD
HETATM    4  C7  UNL     1       1.712  -0.640   0.296  1.00  0.00     0.094 A 
HETATM    5  C15 UNL     1       1.358  -1.917   0.648  1.00  0.00     0.051 A 
HETATM    6  C16 UNL     1       0.039  -2.363   0.504  1.00  0.00     0.108 A 
HETATM    7  N6  UNL     1      -0.848  -1.476   0.008  1.00  0.00    -0.202 N 
ATOM      8  H6  UNL     1      -1.817  -1.773  -0.107  1.00  0.00     0.183 HD
ENDROOT
BRANCH   1   9
HETATM    9  N2  UNL     1      -1.395   0.600  -0.814  1.00  0.00    -0.192 N 
ATOM     10  H2  UNL     1      -1.093   1.541  -1.065  1.00  0.00     0.184 HD
BRANCH   9  11
HETATM   11  C5  UNL     1      -2.744   0.262  -1.000  1.00  0.00     0.050 A 
HETATM   12  C4  UNL     1      -3.206  -0.430  -2.114  1.00  0.00     0.030 A 
HETATM   13  C3  UNL     1      -4.542  -0.744  -2.259  1.00  0.00     0.004 A 
HETATM   14  C2  UNL     1      -5.469  -0.387  -1.312  1.00  0.00     0.025 A 
HETATM   15  C1  UNL     1      -5.015   0.301  -0.201  1.00  0.00     0.081 A 
HETATM   16  C17 UNL     1      -3.686   0.617  -0.051  1.00  0.00     0.055 A 
BRANCH  15  17
HETATM   17  S1  UNL     1      -6.203   0.762   1.018  1.00  0.00     0.256 S 
HETATM   18  O1  UNL     1      -5.458   0.858   2.327  1.00  0.00    -0.201 OA
HETATM   19  O2  UNL     1      -7.272  -0.299   1.077  1.00  0.00    -0.201 OA
BRANCH  17  20
HETATM   20  N1  UNL     1      -6.860   2.317   0.676  1.00  0.00    -0.324 N 
ATOM     21  H12 UNL     1      -6.756   3.145   1.263  1.00  0.00     0.169 HD
ATOM     22  H11 UNL     1      -7.364   2.252  -0.209  1.00  0.00     0.169 HD
ENDBRANCH  17  20
ENDBRANCH  15  17
ENDBRANCH   9  11
ENDBRANCH   1   9
BRANCH   4  23
HETATM   23  C8  UNL     1       3.096  -0.182   0.449  1.00  0.00     0.134 A 
HETATM   24  N4  UNL     1       3.582   1.025   0.150  1.00  0.00    -0.339 N 
HETATM   25  C9  UNL     1       4.906   1.071   0.430  1.00  0.00     0.060 A 
ATOM     26  H4  UNL     1       3.037   1.798  -0.233  1.00  0.00     0.167 HD
HETATM   27  C10 UNL     1       5.893   2.029   0.326  1.00  0.00     0.032 A 
HETATM   28  C14 UNL     1       5.252  -0.177   0.927  1.00  0.00     0.060 A 
HETATM   29  C11 UNL     1       7.187   1.715   0.720  1.00  0.00     0.002 A 
HETATM   30  C12 UNL     1       7.511   0.472   1.211  1.00  0.00     0.002 A 
HETATM   31  C13 UNL     1       6.530  -0.491   1.317  1.00  0.00     0.032 A 
HETATM   32  N5  UNL     1       4.125  -0.893   0.918  1.00  0.00    -0.339 N 
ATOM     33  H5  UNL     1       4.058  -1.862   1.230  1.00  0.00     0.167 HD
ENDBRANCH   4  23
TORSDOF 5
