REMARK  3 active torsions:
REMARK  status: ('A' for Active; 'I' for Inactive)
REMARK    1  A    between atoms: C6_6  and  N1_7 
REMARK    2  A    between atoms: N1_7  and  C7_9 
REMARK    3  A    between atoms: C14_21  and  C15_22 
ROOT
HETATM    1  C1  UNL     1       7.639   1.156  -0.364  1.00  0.00     0.018 C 
HETATM    2  C2  UNL     1       6.525   0.703  -0.205  1.00  0.00    -0.078 C 
HETATM    3  C3  UNL     1       5.202   0.153  -0.030  1.00  0.00     0.017 A 
HETATM    4  C4  UNL     1       4.779  -0.935  -0.779  1.00  0.00     0.023 A 
HETATM    5  C5  UNL     1       3.514  -1.468  -0.617  1.00  0.00     0.031 A 
HETATM    6  C6  UNL     1       2.624  -0.938   0.295  1.00  0.00     0.049 A 
HETATM    7  C18 UNL     1       3.025   0.136   1.044  1.00  0.00     0.031 A 
HETATM    8  C19 UNL     1       4.300   0.670   0.877  1.00  0.00     0.023 A 
ENDROOT
BRANCH   6   9
HETATM    9  N1  UNL     1       1.350  -1.550   0.392  1.00  0.00    -0.192 N 
ATOM     10  H1  UNL     1       1.298  -2.559   0.529  1.00  0.00     0.184 HD
BRANCH   9  11
HETATM   11  C7  UNL     1       0.248  -0.871   0.313  1.00  0.00     0.683 A 
HETATM   12  N2  UNL     1       0.329   0.458   0.132  1.00  0.00    -0.189 N 
HETATM   13  C8  UNL     1      -0.803   1.178   0.048  1.00  0.00     0.079 A 
ATOM     14  H2  UNL     1       1.238   0.915   0.059  1.00  0.00     0.184 HD
HETATM   15  C9  UNL     1      -0.678   2.537  -0.137  1.00  0.00     0.056 A 
HETATM   16  C13 UNL     1      -2.056   0.556   0.145  1.00  0.00     0.089 A 
HETATM   17  C10 UNL     1      -1.807   3.305  -0.228  1.00  0.00     0.062 A 
HETATM   18  C11 UNL     1      -1.738   4.721  -0.420  1.00  0.00     0.101 C 
HETATM   19  C12 UNL     1      -3.041   2.655  -0.127  1.00  0.00     0.111 A 
HETATM   20  N3  UNL     1      -1.697   5.864  -0.565  1.00  0.00    -0.191 NA
HETATM   21  N4  UNL     1      -3.123   1.331   0.053  1.00  0.00    -0.361 N 
ATOM     22  H4  UNL     1      -4.046   0.903   0.122  1.00  0.00     0.165 HD
HETATM   23  C14 UNL     1      -2.133  -0.805   0.330  1.00  0.00     0.106 A 
HETATM   24  N7  UNL     1      -0.955  -1.450   0.404  1.00  0.00    -0.187 N 
ATOM     25  H7  UNL     1      -0.981  -2.461   0.540  1.00  0.00     0.184 HD
BRANCH  23  26
HETATM   26  C15 UNL     1      -3.405  -1.516   0.440  1.00  0.00     0.081 A 
HETATM   27  C16 UNL     1      -3.454  -2.899   0.627  1.00  0.00     0.124 A 
HETATM   28  N5  UNL     1      -4.732  -3.293   0.694  1.00  0.00    -0.317 N 
HETATM   29  C17 UNL     1      -5.494  -2.204   0.556  1.00  0.00     0.324 A 
ATOM     30  H5  UNL     1      -5.063  -4.249   0.826  1.00  0.00     0.170 HD
HETATM   31  O1  UNL     1      -6.737  -2.144   0.561  1.00  0.00    -0.247 OA
HETATM   32  N6  UNL     1      -4.664  -1.124   0.401  1.00  0.00    -0.305 N 
ATOM     33  H6  UNL     1      -4.974  -0.160   0.274  1.00  0.00     0.171 HD
ENDBRANCH  23  26
ENDBRANCH   9  11
ENDBRANCH   6   9
TORSDOF 3
