REMARK  10 active torsions:
REMARK  status: ('A' for Active; 'I' for Inactive)
REMARK    1  A    between atoms: C2_2  and  N1_3 
REMARK    2  A    between atoms: N1_3  and  C3_4 
REMARK    3  A    between atoms: N1_3  and  C8_10 
REMARK    4  A    between atoms: C3_4  and  C4_5 
REMARK    5  A    between atoms: C5_6  and  C6_7 
REMARK    6  A    between atoms: C6_7  and  C7_8 
REMARK    7  A    between atoms: C8_10  and  C9_11 
REMARK    8  A    between atoms: C9_11  and  N2_12 
REMARK    9  A    between atoms: N2_12  and  C10_14 
REMARK   10  A    between atoms: C10_14  and  C11_15 
ROOT
HETATM    1  N1  UNL     1       0.255  -1.455  -0.511  1.00  0.00     0.092 N 
ENDROOT
BRANCH   1   2
HETATM    2  C2  UNL     1       0.293  -2.801  -1.048  1.00  0.00     0.268 C 
HETATM    3  C1  UNL     1       0.504  -3.874  -0.047  1.00  0.00     0.037 C 
ENDBRANCH   1   2
BRANCH   1   4
HETATM    4  C3  UNL     1       1.546  -1.040  -0.015  1.00  0.00     0.299 C 
BRANCH   4   5
HETATM    5  C4  UNL     1       2.545  -0.862  -1.080  1.00  0.00    -0.001 C 
HETATM    6  C5  UNL     1       3.133   0.279  -1.298  1.00  0.00    -0.028 C 
BRANCH   6   7
HETATM    7  C6  UNL     1       2.962   1.566  -0.597  1.00  0.00     0.038 C 
BRANCH   7   8
HETATM    8  C7  UNL     1       4.306   1.955  -0.003  1.00  0.00     0.090 C 
HETATM    9  S1  UNL     1       4.174   3.520   0.871  1.00  0.00    -0.097 SA
ENDBRANCH   7   8
ENDBRANCH   6   7
ENDBRANCH   4   5
ENDBRANCH   1   4
BRANCH   1  10
HETATM   10  C8  UNL     1      -0.803  -1.426   0.461  1.00  0.00     0.292 C 
BRANCH  10  11
HETATM   11  C9  UNL     1      -1.090  -0.084   1.070  1.00  0.00     0.149 C 
BRANCH  11  12
HETATM   12  N2  UNL     1      -1.490   0.904   0.117  1.00  0.00    -0.400 N 
ATOM     13  H2  UNL     1      -0.882   1.693  -0.102  1.00  0.00     0.158 HD
BRANCH  12  14
HETATM   14  C10 UNL     1      -2.738   0.765  -0.511  1.00  0.00     0.060 C 
BRANCH  14  15
HETATM   15  C11 UNL     1      -3.981   1.013   0.252  1.00  0.00     0.024 A 
HETATM   16  C12 UNL     1      -4.136   2.468   0.798  1.00  0.00     0.010 A 
HETATM   17  C13 UNL     1      -4.123   1.233   1.681  1.00  0.00     0.010 A 
ENDBRANCH  14  15
ENDBRANCH  12  14
ENDBRANCH  11  12
ENDBRANCH  10  11
ENDBRANCH   1  10
TORSDOF 10
