REMARK  9 active torsions:
REMARK  status: ('A' for Active; 'I' for Inactive)
REMARK    1  A    between atoms: C2_2  and  C3_3 
REMARK    2  A    between atoms: C2_2  and  N3_17 
REMARK    3  A    between atoms: C3_3  and  C4_4 
REMARK    4  A    between atoms: C4_4  and  C5_5 
REMARK    5  A    between atoms: C5_5  and  N1_6 
REMARK    6  A    between atoms: N1_6  and  C6_9 
REMARK    7  A    between atoms: C6_9  and  C7_10 
REMARK    8  A    between atoms: N3_17  and  C12_20 
REMARK    9  A    between atoms: C12_20  and  C13_21 
ROOT
HETATM    1  C5  UNL     1      -1.621   1.732  -0.995  1.00  0.00     0.232 C 
ENDROOT
BRANCH   1   2
HETATM    2  C4  UNL     1      -0.373   0.938  -1.051  1.00  0.00     0.029 C 
BRANCH   2   3
HETATM    3  C3  UNL     1       0.773   1.255  -0.156  1.00  0.00     0.034 C 
BRANCH   3   4
HETATM    4  C2  UNL     1       1.737   0.105  -0.317  1.00  0.00     0.182 C 
HETATM    5  C1  UNL     1       1.141  -1.165   0.312  1.00  0.00     0.040 C 
BRANCH   4   6
HETATM    6  N3  UNL     1       3.031   0.322   0.192  1.00  0.00    -0.071 N 
ATOM      7  H32 UNL     1       3.423   1.216  -0.105  1.00  0.00     0.277 HD
ATOM      8  H31 UNL     1       3.031   0.496   1.197  1.00  0.00     0.277 HD
BRANCH   6   9
HETATM    9  C12 UNL     1       3.892  -0.834  -0.188  1.00  0.00     0.237 C 
BRANCH   9  10
HETATM   10  C13 UNL     1       5.226  -0.647   0.470  1.00  0.00     0.011 A 
HETATM   11  C14 UNL     1       6.300  -1.660   0.296  1.00  0.00     0.007 A 
HETATM   12  C15 UNL     1       6.376  -0.379  -0.471  1.00  0.00     0.007 A 
ENDBRANCH   9  10
ENDBRANCH   6   9
ENDBRANCH   4   6
ENDBRANCH   3   4
ENDBRANCH   2   3
ENDBRANCH   1   2
BRANCH   1  13
HETATM   13  N1  UNL     1      -2.431   1.388   0.145  1.00  0.00    -0.070 N 
ATOM     14  H12 UNL     1      -2.455   0.377   0.279  1.00  0.00     0.277 HD
ATOM     15  H11 UNL     1      -1.969   1.663   1.012  1.00  0.00     0.277 HD
BRANCH  13  16
HETATM   16  C6  UNL     1      -3.781   1.933   0.084  1.00  0.00     0.289 C 
BRANCH  16  17
HETATM   17  C7  UNL     1      -4.702   0.757   0.257  1.00  0.00     0.034 A 
HETATM   18  C8  UNL     1      -4.139  -0.465   0.610  1.00  0.00     0.027 A 
HETATM   19  C9  UNL     1      -4.952  -1.560   0.574  1.00  0.00     0.003 A 
HETATM   20  C10 UNL     1      -6.283  -1.453   0.207  1.00  0.00     0.017 A 
HETATM   21  C11 UNL     1      -6.804  -0.205  -0.127  1.00  0.00     0.088 A 
HETATM   22  N2  UNL     1      -5.981   0.877  -0.090  1.00  0.00    -0.368 N 
ATOM     23  H2  UNL     1      -6.350   1.796  -0.332  1.00  0.00     0.165 HD
ENDBRANCH  16  17
ENDBRANCH  13  16
ENDBRANCH   1  13
TORSDOF 9
