REMARK  19 active torsions:
REMARK  status: ('A' for Active; 'I' for Inactive)
REMARK    1  A    between atoms: C2_2  and  C3_3 
REMARK    2  A    between atoms: C3_3  and  C4_4 
REMARK    3  A    between atoms: C4_4  and  N1_5 
REMARK       I    between atoms: N1_5  and  C5_7 
REMARK    4  A    between atoms: C5_7  and  C6_9 
REMARK    5  A    between atoms: C6_9  and  C7_10 
REMARK    6  A    between atoms: C7_10  and  N2_11 
REMARK    7  A    between atoms: N2_11  and  C8_13 
REMARK    8  A    between atoms: C8_13  and  C9_14 
REMARK    9  A    between atoms: C8_13  and  C12_24 
REMARK   10  A    between atoms: C9_14  and  O2_15 
REMARK   11  A    between atoms: O2_15  and  C10_16 
REMARK   12  A    between atoms: C10_16  and  C11_17 
REMARK   13  A    between atoms: C11_17  and  N3_18 
REMARK   14  A    between atoms: N3_18  and  N4_20 
REMARK   15  A    between atoms: N4_20  and  N5_21 
REMARK       I    between atoms: C12_24  and  N6_26 
REMARK   16  A    between atoms: N6_26  and  C13_28 
REMARK   17  A    between atoms: C17_32  and  O4_33 
REMARK   18  A    between atoms: C27_45  and  O6_46 
REMARK   19  A    between atoms: O6_46  and  C28_47 
ROOT
HETATM    1  C12 UNL     1       1.064   0.702  -0.008  1.00  0.00     0.242 C 
HETATM    2  O3  UNL     1       1.196  -0.500   0.365  1.00  0.00    -0.271 OA
HETATM    3  N6  UNL     1      -0.202   1.318   0.096  1.00  0.00    -0.354 N 
ATOM      4  H6  UNL     1      -0.320   2.290  -0.191  1.00  0.00     0.162 HD
ENDROOT
BRANCH   3   5
HETATM    5  C13 UNL     1      -1.365   0.554   0.623  1.00  0.00     0.088 C 
HETATM    6  C14 UNL     1      -1.966   1.210   1.791  1.00  0.00     0.026 C 
HETATM    7  C15 UNL     1      -2.093   0.472   3.079  1.00  0.00     0.013 C 
HETATM    8  C16 UNL     1      -2.892  -0.788   3.129  1.00  0.00     0.064 A 
HETATM    9  C17 UNL     1      -4.098  -0.411   2.467  1.00  0.00     0.103 A 
HETATM   10  C26 UNL     1      -4.007  -1.231   3.777  1.00  0.00     0.126 A 
HETATM   11  C18 UNL     1      -4.426  -1.370   1.406  1.00  0.00     0.035 C 
HETATM   12  C19 UNL     1      -3.261  -1.432   0.449  1.00  0.00     0.000 C 
HETATM   13  C24 UNL     1      -4.561  -2.745   1.944  1.00  0.00     0.025 C 
HETATM   14  C20 UNL     1      -3.323  -2.598  -0.514  1.00  0.00     0.012 C 
HETATM   15  C31 UNL     1      -3.523  -0.213  -0.404  1.00  0.00     0.025 C 
HETATM   16  C21 UNL     1      -4.672  -2.270  -1.104  1.00  0.00     0.015 C 
HETATM   17  C22 UNL     1      -5.810  -2.636  -0.290  1.00  0.00     0.007 C 
HETATM   18  C27 UNL     1      -4.374  -0.812  -1.435  1.00  0.00     0.130 C 
HETATM   19  C23 UNL     1      -5.559  -3.339   1.058  1.00  0.00     0.008 C 
HETATM   20  C32 UNL     1      -2.270   0.481  -0.621  1.00  0.00     0.011 C 
HETATM   21  C33 UNL     1      -1.414   0.074  -1.771  1.00  0.00     0.012 C 
HETATM   22  C25 UNL     1      -4.686  -2.559   3.372  1.00  0.00     0.165 A 
HETATM   23  O5  UNL     1      -5.188  -1.565   4.100  1.00  0.00    -0.365 OA
BRANCH   9  24
HETATM   24  O4  UNL     1      -4.797   0.743   2.701  1.00  0.00    -0.386 OA
ATOM     25  H4  UNL     1      -5.600   0.994   2.260  1.00  0.00     0.210 HD
ENDBRANCH   9  24
BRANCH  18  26
HETATM   26  O6  UNL     1      -5.609  -0.200  -1.620  1.00  0.00    -0.381 OA
BRANCH  26  27
HETATM   27  C28 UNL     1      -5.770   0.323  -2.901  1.00  0.00     0.114 C 
HETATM   28  C29 UNL     1      -6.106   1.801  -2.845  1.00  0.00     0.039 C 
HETATM   29  C30 UNL     1      -6.944  -0.378  -3.542  1.00  0.00     0.039 C 
ENDBRANCH  26  27
ENDBRANCH  18  26
ENDBRANCH   3   5
BRANCH   1  30
HETATM   30  C8  UNL     1       2.260   1.383  -0.540  1.00  0.00     0.193 C 
BRANCH  30  31
HETATM   31  N2  UNL     1       3.383   0.521  -0.620  1.00  0.00    -0.407 N 
ATOM     32  H2  UNL     1       3.719   0.175  -1.518  1.00  0.00     0.154 HD
BRANCH  31  33
HETATM   33  C7  UNL     1       4.028   0.154   0.603  1.00  0.00     0.124 C 
BRANCH  33  34
HETATM   34  C6  UNL     1       4.938  -1.030   0.440  1.00  0.00     0.122 C 
BRANCH  34  35
HETATM   35  C5  UNL     1       6.013  -0.902  -0.527  1.00  0.00     0.219 C 
HETATM   36  N1  UNL     1       6.759  -2.074  -0.936  1.00  0.00    -0.361 N 
ATOM     37  H1  UNL     1       6.502  -2.965  -0.512  1.00  0.00     0.162 HD
HETATM   38  O1  UNL     1       6.349   0.174  -1.053  1.00  0.00    -0.274 OA
BRANCH  36  39
HETATM   39  C4  UNL     1       7.814  -2.082  -1.875  1.00  0.00     0.122 C 
BRANCH  39  40
HETATM   40  C3  UNL     1       9.040  -1.310  -1.566  1.00  0.00     0.019 C 
BRANCH  40  41
HETATM   41  C2  UNL     1       9.821  -1.752  -0.371  1.00  0.00    -0.003 C 
HETATM   42  C1  UNL     1       9.079  -1.663   0.904  1.00  0.00     0.005 C 
ENDBRANCH  40  41
ENDBRANCH  39  40
ENDBRANCH  36  39
ENDBRANCH  34  35
ENDBRANCH  33  34
ENDBRANCH  31  33
ENDBRANCH  30  31
BRANCH  30  43
HETATM   43  C9  UNL     1       2.469   2.746   0.036  1.00  0.00     0.202 C 
BRANCH  43  44
HETATM   44  O2  UNL     1       3.388   3.430  -0.717  1.00  0.00    -0.387 OA
BRANCH  44  45
HETATM   45  C10 UNL     1       3.546   4.730  -0.295  1.00  0.00     0.189 C 
BRANCH  45  46
HETATM   46  C11 UNL     1       4.011   4.853   1.118  1.00  0.00     0.181 C 
BRANCH  46  47
HETATM   47  N3  UNL     1       4.158   6.281   1.481  1.00  0.00    -0.251 N 
ATOM     48  H3  UNL     1       5.089   6.683   1.588  1.00  0.00     0.197 HD
BRANCH  47  49
HETATM   49  N4  UNL     1       3.170   6.982   1.653  1.00  0.00    -0.248 NA
BRANCH  49  50
HETATM   50  N5  UNL     1       2.218   7.722   1.974  1.00  0.00    -0.261 N 
ATOM     51  H52 UNL     1       2.696   7.790   2.872  1.00  0.00     0.193 HD
ATOM     52  H51 UNL     1       1.394   8.306   2.117  1.00  0.00     0.193 HD
ENDBRANCH  49  50
ENDBRANCH  47  49
ENDBRANCH  46  47
ENDBRANCH  45  46
ENDBRANCH  44  45
ENDBRANCH  43  44
ENDBRANCH  30  43
ENDBRANCH   1  30
TORSDOF 19
