REMARK  11 active torsions:
REMARK  status: ('A' for Active; 'I' for Inactive)
REMARK    1  A    between atoms: O1_2  and  C2_3 
REMARK    2  A    between atoms: C2_3  and  C3_4 
REMARK       I    between atoms: C3_4  and  N1_6 
REMARK       I    between atoms: N1_6  and  C4_8 
REMARK    3  A    between atoms: C4_8  and  C5_10 
REMARK    4  A    between atoms: C5_10  and  C6_11 
REMARK    5  A    between atoms: C6_11  and  C7_12 
REMARK    6  A    between atoms: C7_12  and  O4_13 
REMARK    7  A    between atoms: O4_13  and  C8_14 
REMARK    8  A    between atoms: C8_14  and  C9_16 
REMARK    9  A    between atoms: C11_20  and  N3_21 
REMARK   10  A    between atoms: N3_21  and  N4_23 
REMARK   11  A    between atoms: C12_28  and  N6_29 
ROOT
HETATM    1  C9  UNL     1       2.734  -0.197  -0.964  1.00  0.00     0.153 A 
HETATM    2  N2  UNL     1       4.034  -0.327  -0.808  1.00  0.00    -0.340 N 
ATOM      3  H2  UNL     1       4.586  -0.817  -1.512  1.00  0.00     0.167 HD
HETATM    4  C10 UNL     1       4.615   0.170   0.246  1.00  0.00     0.114 A 
HETATM    5  C11 UNL     1       5.993   0.113   0.553  1.00  0.00     0.165 A 
HETATM    6  N5  UNL     1       6.436   0.674   1.680  1.00  0.00    -0.173 N 
ATOM      7  H5  UNL     1       7.435   0.617   1.877  1.00  0.00     0.186 HD
HETATM    8  C12 UNL     1       5.659   1.308   2.572  1.00  0.00     0.678 A 
HETATM    9  N7  UNL     1       4.340   1.376   2.301  1.00  0.00    -0.183 N 
ATOM     10  H7  UNL     1       3.714   1.849   2.953  1.00  0.00     0.185 HD
HETATM   11  C13 UNL     1       3.833   0.817   1.160  1.00  0.00     0.123 A 
HETATM   12  S1  UNL     1       2.284   0.670   0.440  1.00  0.00    -0.045 SA
ENDROOT
BRANCH   1  13
HETATM   13  C8  UNL     1       1.864  -0.667  -2.054  1.00  0.00     0.317 C 
HETATM   14  O5  UNL     1       2.381  -1.292  -3.008  1.00  0.00    -0.257 OA
BRANCH  13  15
HETATM   15  O4  UNL     1       0.515  -0.440  -2.053  1.00  0.00    -0.316 OA
BRANCH  15  16
HETATM   16  C7  UNL     1      -0.376  -0.850  -3.042  1.00  0.00     0.179 C 
BRANCH  16  17
HETATM   17  C6  UNL     1      -1.775  -0.378  -2.621  1.00  0.00     0.036 C 
BRANCH  17  18
HETATM   18  C5  UNL     1      -2.123  -1.006  -1.293  1.00  0.00     0.105 C 
BRANCH  18  19
HETATM   19  C4  UNL     1      -3.478  -0.550  -0.883  1.00  0.00     0.224 C 
HETATM   20  N1  UNL     1      -4.029  -1.011   0.345  1.00  0.00    -0.296 N 
HETATM   21  C3  UNL     1      -5.296  -0.665   0.858  1.00  0.00     0.247 C 
ATOM     22  H1  UNL     1      -3.458  -1.647   0.902  1.00  0.00     0.171 HD
HETATM   23  O2  UNL     1      -5.641  -1.176   1.950  1.00  0.00    -0.271 OA
HETATM   24  O3  UNL     1      -4.085   0.233  -1.650  1.00  0.00    -0.273 OA
BRANCH  21  25
HETATM   25  C2  UNL     1      -6.202   0.255   0.166  1.00  0.00     0.270 C 
BRANCH  25  26
HETATM   26  O1  UNL     1      -7.364   0.531   0.825  1.00  0.00    -0.387 OA
HETATM   27  C1  UNL     1      -7.263   1.225   2.005  1.00  0.00     0.202 C 
ENDBRANCH  25  26
ENDBRANCH  21  25
ENDBRANCH  18  19
ENDBRANCH  17  18
ENDBRANCH  16  17
ENDBRANCH  15  16
ENDBRANCH  13  15
ENDBRANCH   1  13
BRANCH   5  28
HETATM   28  N3  UNL     1       6.834  -0.466  -0.223  1.00  0.00    -0.290 N 
ATOM     29  H3  UNL     1       7.817  -0.478   0.050  1.00  0.00     0.188 HD
BRANCH  28  30
HETATM   30  N4  UNL     1       6.471  -1.082  -1.424  1.00  0.00    -0.344 N 
ATOM     31  H42 UNL     1       5.484  -1.061  -1.681  1.00  0.00     0.176 HD
ATOM     32  H41 UNL     1       7.140  -1.543  -2.041  1.00  0.00     0.176 HD
ENDBRANCH  28  30
ENDBRANCH   5  28
BRANCH   8  33
HETATM   33  N6  UNL     1       6.088   1.846   3.654  1.00  0.00    -0.234 N 
ATOM     34  H62 UNL     1       7.086   1.795   3.859  1.00  0.00     0.174 HD
ATOM     35  H61 UNL     1       5.497   2.328   4.332  1.00  0.00     0.174 HD
ENDBRANCH   8  33
TORSDOF 11
