REMARK  11 active torsions:
REMARK  status: ('A' for Active; 'I' for Inactive)
REMARK    1  A    between atoms: C2_5  and  C3_6 
REMARK    2  A    between atoms: C3_6  and  C4_7 
REMARK    3  A    between atoms: C4_7  and  N3_8 
REMARK    4  A    between atoms: N3_8  and  C5_10 
REMARK    5  A    between atoms: N4_13  and  C8_14 
REMARK    6  A    between atoms: C8_14  and  O1_15 
REMARK    7  A    between atoms: O1_15  and  C9_16 
REMARK    8  A    between atoms: C9_16  and  C10_17 
REMARK    9  A    between atoms: C10_17  and  O2_18 
REMARK   10  A    between atoms: N5_22  and  N6_23 
REMARK   11  A    between atoms: N6_23  and  N7_25 
ROOT
HETATM    1  C1  UNL     1      -6.302  -1.285  -2.204  1.00  0.00     0.179 C 
HETATM    2  N1  UNL     1      -5.496  -0.735  -1.121  1.00  0.00    -0.280 N 
HETATM    3  N2  UNL     1      -4.231  -1.022  -0.893  1.00  0.00    -0.300 N 
ATOM      4  H2  UNL     1      -3.676  -1.667  -1.455  1.00  0.00     0.187 HD
HETATM    5  C2  UNL     1      -3.768  -0.355   0.176  1.00  0.00     0.046 A 
HETATM    6  C12 UNL     1      -4.810   0.395   0.644  1.00  0.00     0.056 A 
HETATM    7  C13 UNL     1      -5.212   1.304   1.618  1.00  0.00     0.076 A 
HETATM    8  C14 UNL     1      -4.367   1.814   2.669  1.00  0.00     0.102 C 
HETATM    9  N8  UNL     1      -3.674   2.213   3.507  1.00  0.00    -0.191 NA
HETATM   10  C15 UNL     1      -6.538   1.590   1.361  1.00  0.00     0.113 A 
HETATM   11  N9  UNL     1      -6.920   0.887   0.282  1.00  0.00    -0.349 N 
ATOM     12  H9  UNL     1      -7.855   0.912  -0.126  1.00  0.00     0.167 HD
HETATM   13  C16 UNL     1      -5.905   0.149  -0.185  1.00  0.00     0.135 A 
ENDROOT
BRANCH   5  14
HETATM   14  C3  UNL     1      -2.382  -0.434   0.722  1.00  0.00     0.104 C 
BRANCH  14  15
HETATM   15  C4  UNL     1      -1.582  -1.462  -0.078  1.00  0.00     0.068 C 
BRANCH  15  16
HETATM   16  N3  UNL     1      -0.285  -1.616   0.334  1.00  0.00    -0.354 N 
ATOM     17  H3  UNL     1      -0.263  -2.355   1.037  1.00  0.00     0.166 HD
BRANCH  16  18
HETATM   18  C5  UNL     1       0.877  -1.199   0.179  1.00  0.00     0.134 A 
HETATM   19  C6  UNL     1       1.931  -1.770   0.936  1.00  0.00     0.068 A 
HETATM   20  C7  UNL     1       3.223  -1.342   0.817  1.00  0.00     0.102 A 
HETATM   21  N4  UNL     1       3.502  -0.353  -0.041  1.00  0.00    -0.286 N 
HETATM   22  C11 UNL     1       2.511   0.180  -0.750  1.00  0.00     0.352 A 
HETATM   23  O3  UNL     1       2.780   1.125  -1.571  1.00  0.00    -0.244 OA
HETATM   24  N5  UNL     1       1.203  -0.217  -0.664  1.00  0.00    -0.174 N 
BRANCH  21  25
HETATM   25  C8  UNL     1       4.883   0.106  -0.172  1.00  0.00     0.302 C 
BRANCH  25  26
HETATM   26  O1  UNL     1       5.175   1.122   0.697  1.00  0.00    -0.369 OA
BRANCH  26  27
HETATM   27  C9  UNL     1       6.463   1.546   0.545  1.00  0.00     0.196 C 
BRANCH  27  28
HETATM   28  C10 UNL     1       7.532   0.520   0.788  1.00  0.00     0.190 C 
BRANCH  28  29
HETATM   29  O2  UNL     1       8.774   1.170   0.582  1.00  0.00    -0.399 OA
ATOM     30  H2  UNL     1       9.450   0.521   0.736  1.00  0.00     0.209 HD
ENDBRANCH  28  29
ENDBRANCH  27  28
ENDBRANCH  26  27
ENDBRANCH  25  26
ENDBRANCH  21  25
BRANCH  24  31
HETATM   31  N6  UNL     1       0.285   0.444  -1.514  1.00  0.00    -0.237 N 
ATOM     32  H6  UNL     1      -0.368   1.121  -1.119  1.00  0.00     0.208 HD
BRANCH  31  33
HETATM   33  N7  UNL     1       0.260   0.184  -2.882  1.00  0.00    -0.330 N 
ATOM     34  H72 UNL     1       0.920  -0.496  -3.261  1.00  0.00     0.178 HD
ATOM     35  H71 UNL     1      -0.402   0.660  -3.495  1.00  0.00     0.178 HD
ENDBRANCH  31  33
ENDBRANCH  24  31
ENDBRANCH  16  18
ENDBRANCH  15  16
ENDBRANCH  14  15
ENDBRANCH   5  14
TORSDOF 11
