REMARK  12 active torsions:
REMARK  status: ('A' for Active; 'I' for Inactive)
REMARK    1  A    between atoms: O1_1  and  C1_3 
REMARK    2  A    between atoms: C1_3  and  C2_4 
REMARK    3  A    between atoms: C3_6  and  O3_7 
REMARK    4  A    between atoms: O3_7  and  C4_8 
REMARK    5  A    between atoms: C6_10  and  O4_11 
REMARK    6  A    between atoms: C7_13  and  O5_14 
REMARK    7  A    between atoms: O5_14  and  C8_15 
REMARK    8  A    between atoms: C14_21  and  O6_22 
REMARK    9  A    between atoms: C15_24  and  O7_25 
REMARK   10  A    between atoms: C16_27  and  N1_28 
REMARK   11  A    between atoms: C21_33  and  O8_34 
REMARK   12  A    between atoms: C22_36  and  O9_37 
ROOT
HETATM    1  C4  UNL     1      -0.163  -0.101  -0.196  1.00  0.00     0.158 C 
HETATM    2  C5  UNL     1       0.417   1.053  -0.962  1.00  0.00     0.069 C 
HETATM    3  C6  UNL     1       1.880   0.874  -1.300  1.00  0.00     0.152 C 
HETATM    4  C7  UNL     1       2.769   0.869  -0.066  1.00  0.00     0.182 C 
HETATM    5  C14 UNL     1       1.811   0.565   1.098  1.00  0.00     0.180 C 
HETATM    6  C15 UNL     1       0.948  -0.612   0.694  1.00  0.00     0.178 C 
ENDROOT
BRANCH   1   7
HETATM    7  O3  UNL     1      -1.256   0.342   0.508  1.00  0.00    -0.351 OA
BRANCH   7   8
HETATM    8  C3  UNL     1      -2.443  -0.321   0.287  1.00  0.00     0.297 C 
HETATM    9  O2  UNL     1      -2.615  -1.046   1.495  1.00  0.00    -0.349 OA
HETATM   10  C2  UNL     1      -3.834  -1.593   1.699  1.00  0.00     0.179 C 
HETATM   11  C22 UNL     1      -4.968  -0.593   1.769  1.00  0.00     0.180 C 
HETATM   12  C21 UNL     1      -4.316   0.743   1.376  1.00  0.00     0.187 C 
HETATM   13  C16 UNL     1      -3.656   0.442   0.027  1.00  0.00     0.308 C 
BRANCH  10  14
HETATM   14  C1  UNL     1      -4.160  -2.811   0.866  1.00  0.00     0.198 C 
BRANCH  14  15
HETATM   15  O1  UNL     1      -3.243  -3.850   1.124  1.00  0.00    -0.398 OA
ATOM     16  H1  UNL     1      -3.448  -4.616   0.600  1.00  0.00     0.209 HD
ENDBRANCH  14  15
ENDBRANCH  10  14
BRANCH  11  17
HETATM   17  O9  UNL     1      -5.456  -0.399   3.058  1.00  0.00    -0.390 OA
ATOM     18  H9  UNL     1      -6.168   0.229   3.102  1.00  0.00     0.210 HD
ENDBRANCH  11  17
BRANCH  12  19
HETATM   19  O8  UNL     1      -3.316   1.076   2.301  1.00  0.00    -0.391 OA
ATOM     20  H8  UNL     1      -3.725   1.263   3.138  1.00  0.00     0.210 HD
ENDBRANCH  12  19
BRANCH  13  21
HETATM   21  N1  UNL     1      -3.635   1.636  -0.737  1.00  0.00     0.100 N 
HETATM   22  C17 UNL     1      -3.226   1.537  -2.093  1.00  0.00     0.273 C 
HETATM   23  C18 UNL     1      -4.168   2.281  -2.986  1.00  0.00     0.032 C 
HETATM   24  C19 UNL     1      -5.365   2.512  -2.148  1.00  0.00     0.032 C 
HETATM   25  C20 UNL     1      -5.018   2.135  -0.748  1.00  0.00     0.273 C 
ENDBRANCH  13  21
ENDBRANCH   7   8
ENDBRANCH   1   7
BRANCH   6  26
HETATM   26  O7  UNL     1       0.522  -1.284   1.798  1.00  0.00    -0.390 OA
ATOM     27  H7  UNL     1       1.220  -1.605   2.357  1.00  0.00     0.210 HD
ENDBRANCH   6  26
BRANCH   3  28
HETATM   28  O4  UNL     1       2.086  -0.228  -2.100  1.00  0.00    -0.393 OA
ATOM     29  H4  UNL     1       3.005  -0.340  -2.312  1.00  0.00     0.210 HD
ENDBRANCH   3  28
BRANCH   5  30
HETATM   30  O6  UNL     1       2.498   0.213   2.243  1.00  0.00    -0.390 OA
ATOM     31  H6  UNL     1       1.906   0.025   2.962  1.00  0.00     0.210 HD
ENDBRANCH   5  30
BRANCH   4  32
HETATM   32  O5  UNL     1       3.643  -0.161  -0.138  1.00  0.00    -0.375 OA
BRANCH  32  33
HETATM   33  C8  UNL     1       4.968   0.113   0.031  1.00  0.00     0.122 C 
HETATM   34  C9  UNL     1       5.800  -0.137  -1.210  1.00  0.00     0.032 C 
HETATM   35  C10 UNL     1       6.548  -1.450  -1.127  1.00  0.00     0.002 C 
HETATM   36  C11 UNL     1       7.487  -1.463   0.045  1.00  0.00     0.000 C 
HETATM   37  C12 UNL     1       7.111  -0.424   1.061  1.00  0.00     0.002 C 
HETATM   38  C13 UNL     1       5.598  -0.498   1.247  1.00  0.00     0.032 C 
ENDBRANCH  32  33
ENDBRANCH   4  32
TORSDOF 12
