REMARK  8 active torsions:
REMARK  status: ('A' for Active; 'I' for Inactive)
REMARK    1  A    between atoms: C4_6  and  N2_7 
REMARK    2  A    between atoms: N2_7  and  C5_9 
REMARK    3  A    between atoms: N4_13  and  C7_14 
REMARK    4  A    between atoms: C7_14  and  C8_15 
REMARK    5  A    between atoms: C8_15  and  S1_16 
REMARK    6  A    between atoms: S1_16  and  C9_17 
REMARK    7  A    between atoms: C9_17  and  C10_18 
REMARK    8  A    between atoms: C13_24  and  C14_25 
ROOT
HETATM    1  C1  UNL     1      -6.196  -2.625  -1.039  1.00  0.00     0.019 C 
HETATM    2  C2  UNL     1      -6.382  -1.507  -0.594  1.00  0.00    -0.056 C 
HETATM    3  C3  UNL     1      -6.576  -0.186  -0.063  1.00  0.00     0.126 A 
HETATM    4  N1  UNL     1      -5.595   0.697  -0.211  1.00  0.00    -0.332 N 
ATOM      5  H1  UNL     1      -4.734   0.433  -0.689  1.00  0.00     0.168 HD
HETATM    6  C4  UNL     1      -5.745   1.941   0.274  1.00  0.00     0.122 A 
HETATM    7  C20 UNL     1      -6.898   2.291   0.915  1.00  0.00     0.137 A 
HETATM    8  N7  UNL     1      -7.884   1.373   1.053  1.00  0.00    -0.351 N 
ATOM      9  H7  UNL     1      -8.746   1.635   1.531  1.00  0.00     0.166 HD
HETATM   10  C21 UNL     1      -7.753   0.126   0.575  1.00  0.00     0.139 A 
HETATM   11 CL3  UNL     1      -9.044  -1.024   0.775  1.00  0.00    -0.061 Cl
ENDROOT
BRANCH   6  12
HETATM   12  N2  UNL     1      -4.765   2.774   0.109  1.00  0.00    -0.339 N 
ATOM     13  H2  UNL     1      -4.854   3.725   0.468  1.00  0.00     0.167 HD
BRANCH  12  14
HETATM   14  C5  UNL     1      -3.565   2.391  -0.563  1.00  0.00     0.068 A 
HETATM   15  C6  UNL     1      -3.311   2.549  -1.900  1.00  0.00     0.138 A 
HETATM   16  N3  UNL     1      -2.074   2.051  -2.103  1.00  0.00    -0.308 N 
HETATM   17  N4  UNL     1      -1.574   1.606  -0.972  1.00  0.00    -0.301 N 
ATOM     18  H3  UNL     1      -1.596   2.024  -3.004  1.00  0.00     0.186 HD
HETATM   19  C19 UNL     1      -2.447   1.791  -0.001  1.00  0.00     0.141 A 
BRANCH  17  20
HETATM   20  C7  UNL     1      -0.233   0.996  -0.861  1.00  0.00     0.158 C 
BRANCH  20  21
HETATM   21  C8  UNL     1      -0.441  -0.474  -1.088  1.00  0.00     0.095 C 
BRANCH  21  22
HETATM   22  S1  UNL     1       0.975  -1.524  -1.065  1.00  0.00    -0.167 SA
BRANCH  22  23
HETATM   23  C9  UNL     1       1.772  -1.802   0.495  1.00  0.00     0.080 C 
BRANCH  23  24
HETATM   24  C10 UNL     1       2.459  -0.619   1.022  1.00  0.00     0.032 C 
HETATM   25  C11 UNL     1       3.191  -0.843   2.347  1.00  0.00     0.238 C 
HETATM   26  N5  UNL     1       3.709   0.493   2.567  1.00  0.00    -0.074 N 
HETATM   27  C12 UNL     1       4.202   0.928   1.283  1.00  0.00     0.243 C 
ATOM     28  H52 UNL     1       3.033   1.132   2.986  1.00  0.00     0.277 HD
ATOM     29  H51 UNL     1       4.402   0.547   3.313  1.00  0.00     0.277 HD
HETATM   30  C13 UNL     1       3.491   0.057   0.223  1.00  0.00     0.069 C 
BRANCH  30  31
HETATM   31  C14 UNL     1       4.539  -0.760  -0.384  1.00  0.00     0.037 A 
HETATM   32  N6  UNL     1       4.759  -2.056  -0.167  1.00  0.00    -0.366 N 
HETATM   33  C15 UNL     1       5.729  -2.781  -0.723  1.00  0.00     0.112 A 
ATOM     34  H6  UNL     1       4.132  -2.534   0.480  1.00  0.00     0.165 HD
HETATM   35  C16 UNL     1       6.622  -2.204  -1.612  1.00  0.00     0.051 A 
HETATM   36 CL1  UNL     1       7.914  -3.118  -2.369  1.00  0.00    -0.083 Cl
HETATM   37  C17 UNL     1       6.440  -0.853  -1.877  1.00  0.00     0.051 A 
HETATM   38  C18 UNL     1       5.419  -0.145  -1.276  1.00  0.00     0.058 A 
HETATM   39 CL2  UNL     1       5.214   1.555  -1.629  1.00  0.00    -0.082 Cl
ENDBRANCH  30  31
ENDBRANCH  23  24
ENDBRANCH  22  23
ENDBRANCH  21  22
ENDBRANCH  20  21
ENDBRANCH  17  20
ENDBRANCH  12  14
ENDBRANCH   6  12
TORSDOF 8
