REMARK  5 active torsions:
REMARK  status: ('A' for Active; 'I' for Inactive)
REMARK    1  A    between atoms: C7_8  and  N2_9 
REMARK    2  A    between atoms: C9_11  and  C10_12 
REMARK    3  A    between atoms: C12_16  and  C13_17 
REMARK    4  A    between atoms: C18_29  and  N6_30 
REMARK    5  A    between atoms: N6_30  and  C19_32 
ROOT
HETATM    1  N1  UNL     1      -2.262  -1.224   3.567  1.00  0.00    -0.197 NA
HETATM    2  C1  UNL     1      -2.528  -1.635   2.515  1.00  0.00     0.066 C 
HETATM    3  C2  UNL     1      -2.856  -2.155   1.180  1.00  0.00     0.117 C 
HETATM    4  C3  UNL     1      -3.978  -3.154   1.332  1.00  0.00     0.021 C 
HETATM    5  C4  UNL     1      -4.432  -3.674   0.004  1.00  0.00     0.001 C 
HETATM    6  C5  UNL     1      -4.810  -2.592  -0.963  1.00  0.00     0.002 C 
HETATM    7  C6  UNL     1      -3.717  -1.568  -1.031  1.00  0.00     0.028 C 
HETATM    8  C7  UNL     1      -3.328  -1.028   0.322  1.00  0.00     0.125 C 
ENDROOT
BRANCH   8   9
HETATM    9  N2  UNL     1      -2.237  -0.074   0.088  1.00  0.00    -0.295 N 
HETATM   10  C8  UNL     1      -0.903  -0.366   0.067  1.00  0.00     0.128 A 
HETATM   11  C9  UNL     1      -0.184   0.783  -0.183  1.00  0.00     0.054 A 
HETATM   12  C18 UNL     1      -1.120   1.772  -0.311  1.00  0.00     0.130 A 
HETATM   13  N7  UNL     1      -2.347   1.218  -0.142  1.00  0.00    -0.283 N 
ATOM     14  H7  UNL     1      -3.229   1.729  -0.187  1.00  0.00     0.189 HD
BRANCH  11  15
HETATM   15  C10 UNL     1       1.259   0.919  -0.287  1.00  0.00     0.067 A 
HETATM   16  C11 UNL     1       2.042   2.020  -0.532  1.00  0.00     0.160 A 
HETATM   17  N3  UNL     1       3.341   1.632  -0.533  1.00  0.00    -0.176 N 
HETATM   18  F1  UNL     1       4.355   2.498  -0.747  1.00  0.00    -0.093 F 
HETATM   19  C12 UNL     1       3.402   0.311  -0.295  1.00  0.00     0.120 A 
HETATM   20  N5  UNL     1       2.146  -0.117  -0.148  1.00  0.00    -0.342 N 
ATOM     21  H5  UNL     1       1.882  -1.084   0.042  1.00  0.00     0.167 HD
BRANCH  19  22
HETATM   22  C13 UNL     1       4.645  -0.514  -0.214  1.00  0.00     0.087 C 
HETATM   23  C14 UNL     1       4.680  -1.170   1.169  1.00  0.00     0.245 C 
HETATM   24  N4  UNL     1       5.958  -1.812   1.389  1.00  0.00    -0.069 N 
HETATM   25  C15 UNL     1       6.674  -2.040   0.152  1.00  0.00     0.310 C 
ATOM     26  H42 UNL     1       6.526  -1.286   2.053  1.00  0.00     0.277 HD
ATOM     27  H41 UNL     1       5.850  -2.677   1.918  1.00  0.00     0.277 HD
HETATM   28  C16 UNL     1       5.771  -2.568  -0.942  1.00  0.00     0.268 C 
HETATM   29  F2  UNL     1       5.342  -3.824  -0.602  1.00  0.00    -0.204 F 
HETATM   30  F3  UNL     1       6.524  -2.671  -2.088  1.00  0.00    -0.204 F 
HETATM   31  C17 UNL     1       4.613  -1.633  -1.223  1.00  0.00     0.094 C 
ENDBRANCH  19  22
ENDBRANCH  11  15
BRANCH  12  32
HETATM   32  N6  UNL     1      -0.901   3.018  -0.551  1.00  0.00    -0.370 N 
ATOM     33  H6  UNL     1       0.058   3.346  -0.665  1.00  0.00     0.161 HD
BRANCH  32  34
HETATM   34  C19 UNL     1      -1.996   3.962  -0.662  1.00  0.00     0.083 C 
HETATM   35  C20 UNL     1      -1.520   5.388  -0.817  1.00  0.00     0.025 C 
HETATM   36  C21 UNL     1      -2.433   5.799   0.321  1.00  0.00     0.004 C 
HETATM   37  C22 UNL     1      -2.593   4.342   0.678  1.00  0.00     0.025 C 
ENDBRANCH  32  34
ENDBRANCH  12  32
ENDBRANCH   8   9
TORSDOF 5
