REMARK  16 active torsions:
REMARK  status: ('A' for Active; 'I' for Inactive)
REMARK    1  A    between atoms: C2_2  and  C3_4 
REMARK    2  A    between atoms: C3_4  and  C4_5 
REMARK    3  A    between atoms: C3_4  and  C21_45 
REMARK    4  A    between atoms: C4_5  and  O3_7 
REMARK    5  A    between atoms: O3_7  and  C5_8 
REMARK    6  A    between atoms: C5_8  and  C6_9 
REMARK    7  A    between atoms: C6_9  and  O4_10 
REMARK    8  A    between atoms: C9_16  and  O7_17 
REMARK    9  A    between atoms: O7_17  and  C10_18 
REMARK   10  A    between atoms: C11_20  and  C12_21 
REMARK       I    between atoms: C12_21  and  N1_23 
REMARK   11  A    between atoms: N1_23  and  O10_24 
REMARK   12  A    between atoms: N1_23  and  N2_26 
REMARK   13  A    between atoms: N2_26  and  N3_28 
REMARK       I    between atoms: N3_28  and  C13_30 
REMARK   14  A    between atoms: C13_30  and  C14_32 
REMARK   15  A    between atoms: C18_36  and  O12_37 
REMARK   16  A    between atoms: C18_36  and  C19_39 
ROOT
HETATM    1  C6  UNL     1      -3.295  -0.135   0.165  1.00  0.00     0.220 C 
HETATM    2  O5  UNL     1      -3.261  -0.837   1.347  1.00  0.00    -0.278 OA
HETATM    3  C7  UNL     1      -2.061  -1.439   1.648  1.00  0.00     0.273 C 
HETATM    4  O6  UNL     1      -1.836  -2.026   2.735  1.00  0.00    -0.264 OA
HETATM    5  C8  UNL     1      -1.163  -1.264   0.509  1.00  0.00     0.175 C 
HETATM    6  C9  UNL     1      -0.131  -0.133   0.706  1.00  0.00     0.282 C 
HETATM    7  O16 UNL     1      -1.095   0.798   0.313  1.00  0.00    -0.348 OA
HETATM    8  C20 UNL     1      -1.843  -0.191  -0.318  1.00  0.00     0.208 C 
ENDROOT
BRANCH   6   9
HETATM    9  O7  UNL     1       0.894  -0.203  -0.232  1.00  0.00    -0.307 OA
BRANCH   9  10
HETATM   10  C10 UNL     1       2.146  -0.316   0.391  1.00  0.00     0.419 C 
HETATM   11  O8  UNL     1       2.931   0.726   0.017  1.00  0.00    -0.324 OA
HETATM   12  C11 UNL     1       3.803   0.508  -0.968  1.00  0.00     0.228 C 
HETATM   13  C17 UNL     1       3.486  -0.563  -1.983  1.00  0.00     0.122 C 
HETATM   14  C18 UNL     1       2.782  -1.734  -1.334  1.00  0.00     0.260 C 
HETATM   15  O15 UNL     1       2.682  -1.524   0.041  1.00  0.00    -0.291 OA
BRANCH  12  16
HETATM   16  C12 UNL     1       5.184   0.375  -0.441  1.00  0.00     0.294 C 
HETATM   17  O9  UNL     1       6.131   0.076  -1.265  1.00  0.00    -0.266 OA
HETATM   18  N1  UNL     1       5.574   0.547   0.901  1.00  0.00    -0.109 N 
BRANCH  18  19
HETATM   19  O10 UNL     1       4.584   0.889   1.798  1.00  0.00    -0.264 OA
ATOM     20  H10 UNL     1       4.847   1.005   2.703  1.00  0.00     0.247 HD
ENDBRANCH  18  19
BRANCH  18  21
HETATM   21  N2  UNL     1       6.857   0.391   1.371  1.00  0.00    -0.210 N 
ATOM     22  H2  UNL     1       7.053  -0.177   2.195  1.00  0.00     0.211 HD
BRANCH  21  23
HETATM   23  N3  UNL     1       7.861   1.027   0.692  1.00  0.00    -0.253 N 
HETATM   24  C13 UNL     1       8.922   0.260   0.147  1.00  0.00     0.240 C 
HETATM   25  O11 UNL     1       8.940  -1.002   0.285  1.00  0.00    -0.271 OA
ATOM     26  H3  UNL     1       7.846   2.041   0.579  1.00  0.00     0.191 HD
BRANCH  24  27
HETATM   27  C14 UNL     1      10.053   0.893  -0.606  1.00  0.00     0.071 C 
HETATM   28  C15 UNL     1      10.774   1.843   0.327  1.00  0.00     0.019 C 
HETATM   29  C16 UNL     1       9.456   1.669  -1.774  1.00  0.00     0.019 C 
ENDBRANCH  24  27
ENDBRANCH  21  23
ENDBRANCH  18  21
ENDBRANCH  12  16
BRANCH  14  30
HETATM   30  O12 UNL     1       1.500  -1.879  -1.838  1.00  0.00    -0.357 OA
ATOM     31  H12 UNL     1       1.058  -2.614  -1.430  1.00  0.00     0.213 HD
ENDBRANCH  14  30
BRANCH  14  32
HETATM   32  C19 UNL     1       3.503  -3.006  -1.553  1.00  0.00     0.239 C 
HETATM   33  O13 UNL     1       3.003  -4.001  -2.092  1.00  0.00    -0.644 OA
HETATM   34  O14 UNL     1       4.841  -3.084  -1.123  1.00  0.00    -0.644 OA
ENDBRANCH  14  32
ENDBRANCH   9  10
ENDBRANCH   6   9
BRANCH   1  35
HETATM   35  C5  UNL     1      -4.130  -0.665  -0.949  1.00  0.00     0.250 C 
BRANCH  35  36
HETATM   36  O3  UNL     1      -5.482  -0.684  -0.665  1.00  0.00    -0.315 OA
BRANCH  36  37
HETATM   37  C4  UNL     1      -6.173  -1.434   0.252  1.00  0.00     0.276 C 
HETATM   38  O2  UNL     1      -5.537  -2.238   0.957  1.00  0.00    -0.264 OA
BRANCH  37  39
HETATM   39  C3  UNL     1      -7.673  -1.308   0.420  1.00  0.00     0.205 C 
BRANCH  39  40
HETATM   40  C2  UNL     1      -8.372  -1.627  -0.832  1.00  0.00     0.142 C 
HETATM   41  C1  UNL     1      -9.855  -1.598  -0.862  1.00  0.00     0.092 C 
HETATM   42  O1  UNL     1      -7.766  -1.918  -1.861  1.00  0.00    -0.297 OA
ENDBRANCH  39  40
BRANCH  39  43
HETATM   43  C21 UNL     1      -7.997   0.075   0.823  1.00  0.00     0.050 A 
HETATM   44  C22 UNL     1      -7.996   1.252   0.115  1.00  0.00     0.121 A 
HETATM   45  N4  UNL     1      -8.372   2.276   0.897  1.00  0.00    -0.312 N 
HETATM   46  C23 UNL     1      -8.491   3.667   0.457  1.00  0.00     0.160 C 
HETATM   47  C24 UNL     1      -8.619   1.761   2.119  1.00  0.00     0.326 A 
HETATM   48  O17 UNL     1      -8.994   2.455   3.094  1.00  0.00    -0.246 OA
HETATM   49  N5  UNL     1      -8.390   0.428   2.071  1.00  0.00    -0.310 N 
ATOM     50  H5  UNL     1      -8.497  -0.214   2.856  1.00  0.00     0.170 HD
ENDBRANCH  39  43
ENDBRANCH  37  39
ENDBRANCH  36  37
ENDBRANCH  35  36
ENDBRANCH   1  35
BRANCH   1  51
HETATM   51  O4  UNL     1      -3.633   1.194   0.480  1.00  0.00    -0.361 OA
ATOM     52  H4  UNL     1      -3.101   1.532   1.190  1.00  0.00     0.213 HD
ENDBRANCH   1  51
TORSDOF 16
