REMARK  8 active torsions:
REMARK  status: ('A' for Active; 'I' for Inactive)
REMARK    1  A    between atoms: S1_2  and  C2_3 
REMARK    2  A    between atoms: C3_5  and  O2_6 
REMARK    3  A    between atoms: O2_6  and  C4_7 
REMARK    4  A    between atoms: C5_11  and  O3_12 
REMARK    5  A    between atoms: C6_14  and  O4_15 
REMARK    6  A    between atoms: C7_18  and  O6_19 
REMARK    7  A    between atoms: C8_21  and  O7_22 
REMARK    8  A    between atoms: C9_24  and  O8_25 
ROOT
HETATM    1  C2  UNL     1      -2.111   0.691   0.358  1.00  0.00     0.217 C 
HETATM    2  O1  UNL     1      -1.168   0.688  -0.661  1.00  0.00    -0.340 OA
HETATM    3  C3  UNL     1      -0.123  -0.149  -0.245  1.00  0.00     0.297 C 
HETATM    4  C7  UNL     1      -0.605  -1.556  -0.539  1.00  0.00     0.204 C 
HETATM    5  C8  UNL     1      -1.948  -1.822   0.093  1.00  0.00     0.183 C 
HETATM    6  C9  UNL     1      -2.474  -0.653   0.871  1.00  0.00     0.188 C 
ENDROOT
BRANCH   3   7
HETATM    7  O2  UNL     1       1.003   0.186  -0.950  1.00  0.00    -0.305 OA
BRANCH   7   8
HETATM    8  C4  UNL     1       2.070   0.563  -0.160  1.00  0.00     0.477 C 
HETATM    9  N1  UNL     1       3.241  -0.277  -0.362  1.00  0.00     0.006 N 
HETATM   10  C5  UNL     1       4.262   0.502   0.317  1.00  0.00     0.380 C 
ATOM     11  H12 UNL     1       3.146  -1.243  -0.049  1.00  0.00     0.286 HD
ATOM     12  H11 UNL     1       3.446  -0.517  -1.332  1.00  0.00     0.286 HD
HETATM   13  C6  UNL     1       3.636   1.894   0.462  1.00  0.00     0.318 C 
HETATM   14  O5  UNL     1       2.596   1.814  -0.496  1.00  0.00    -0.304 OA
BRANCH  10  15
HETATM   15  O3  UNL     1       5.412   0.640  -0.456  1.00  0.00    -0.366 OA
ATOM     16  H3  UNL     1       6.080   1.149  -0.012  1.00  0.00     0.212 HD
ENDBRANCH  10  15
BRANCH  13  17
HETATM   17  O4  UNL     1       3.007   2.021   1.697  1.00  0.00    -0.367 OA
ATOM     18  H4  UNL     1       2.619   2.884   1.787  1.00  0.00     0.212 HD
ENDBRANCH  13  17
ENDBRANCH   7   8
ENDBRANCH   3   7
BRANCH   4  19
HETATM   19  O6  UNL     1      -0.679  -1.669  -1.927  1.00  0.00    -0.388 OA
ATOM     20  H6  UNL     1      -0.981  -2.551  -2.111  1.00  0.00     0.210 HD
ENDBRANCH   4  19
BRANCH   1  21
HETATM   21  S1  UNL     1      -3.592   1.650  -0.146  1.00  0.00    -0.139 SA
HETATM   22  C1  UNL     1      -4.415   0.764  -1.523  1.00  0.00     0.092 C 
ENDBRANCH   1  21
BRANCH   5  23
HETATM   23  O7  UNL     1      -1.874  -2.907   0.989  1.00  0.00    -0.390 OA
ATOM     24  H7  UNL     1      -2.720  -3.075   1.387  1.00  0.00     0.210 HD
ENDBRANCH   5  23
BRANCH   6  25
HETATM   25  O8  UNL     1      -2.132  -0.756   2.226  1.00  0.00    -0.389 OA
ATOM     26  H8  UNL     1      -2.364  -1.617   2.554  1.00  0.00     0.210 HD
ENDBRANCH   6  25
TORSDOF 8
