REMARK  8 active torsions:
REMARK  status: ('A' for Active; 'I' for Inactive)
REMARK    1  A    between atoms: O1_1  and  N1_3 
REMARK    2  A    between atoms: C1_5  and  C2_6 
REMARK    3  A    between atoms: C4_10  and  C5_11 
REMARK    4  A    between atoms: C6_12  and  O4_13 
REMARK    5  A    between atoms: C7_15  and  O5_16 
REMARK    6  A    between atoms: C8_18  and  O6_19 
REMARK    7  A    between atoms: C9_21  and  O7_22 
REMARK    8  A    between atoms: C10_24  and  O8_25 
ROOT
HETATM    1  C5  UNL     1      -0.259  -0.462   0.171  1.00  0.00     0.104 C 
HETATM    2  C6  UNL     1      -1.180  -0.705  -0.977  1.00  0.00     0.161 C 
HETATM    3  C7  UNL     1      -2.620  -0.771  -0.632  1.00  0.00     0.178 C 
HETATM    4  C8  UNL     1      -3.066   0.328   0.288  1.00  0.00     0.180 C 
HETATM    5  C9  UNL     1      -2.148   0.635   1.398  1.00  0.00     0.178 C 
HETATM    6  C10 UNL     1      -0.703   0.599   1.119  1.00  0.00     0.161 C 
ENDROOT
BRANCH   1   7
HETATM    7  C4  UNL     1       1.120  -0.213  -0.381  1.00  0.00     0.275 C 
HETATM    8  O3  UNL     1       1.549  -1.321  -1.107  1.00  0.00    -0.337 OA
HETATM    9  C3  UNL     1       2.449  -2.059  -0.305  1.00  0.00     0.344 C 
HETATM   10  O2  UNL     1       3.640  -1.339  -0.298  1.00  0.00    -0.332 OA
HETATM   11  C2  UNL     1       3.323  -0.037   0.089  1.00  0.00     0.307 C 
HETATM   12  O9  UNL     1       2.042   0.065   0.619  1.00  0.00    -0.326 OA
BRANCH  11  13
HETATM   13  C1  UNL     1       3.529   0.871  -1.053  1.00  0.00     0.147 C 
HETATM   14  N1  UNL     1       4.007   2.044  -0.867  1.00  0.00    -0.280 N 
ATOM     15  H1  UNL     1       4.150   2.674  -1.656  1.00  0.00     0.193 HD
BRANCH  14  16
HETATM   16  O1  UNL     1       4.324   2.443   0.407  1.00  0.00    -0.290 OA
ATOM     17  H1  UNL     1       4.679   3.313   0.545  1.00  0.00     0.244 HD
ENDBRANCH  14  16
ENDBRANCH  11  13
ENDBRANCH   1   7
BRANCH   2  18
HETATM   18  O4  UNL     1      -1.007   0.366  -1.882  1.00  0.00    -0.392 OA
ATOM     19  H4  UNL     1      -1.594   0.211  -2.613  1.00  0.00     0.210 HD
ENDBRANCH   2  18
BRANCH   6  20
HETATM   20  O8  UNL     1      -0.215   1.866   0.725  1.00  0.00    -0.392 OA
ATOM     21  H8  UNL     1      -0.498   2.542   1.329  1.00  0.00     0.210 HD
ENDBRANCH   6  20
BRANCH   3  22
HETATM   22  O5  UNL     1      -3.004  -2.024  -0.127  1.00  0.00    -0.390 OA
ATOM     23  H5  UNL     1      -3.927  -2.066   0.094  1.00  0.00     0.210 HD
ENDBRANCH   3  22
BRANCH   5  24
HETATM   24  O7  UNL     1      -2.458  -0.204   2.494  1.00  0.00    -0.390 OA
ATOM     25  H7  UNL     1      -1.866  -0.006   3.210  1.00  0.00     0.210 HD
ENDBRANCH   5  24
BRANCH   4  26
HETATM   26  O6  UNL     1      -3.410   1.462  -0.479  1.00  0.00    -0.390 OA
ATOM     27  H6  UNL     1      -3.692   2.158   0.103  1.00  0.00     0.210 HD
ENDBRANCH   4  26
TORSDOF 8
