REMARK  10 active torsions:
REMARK  status: ('A' for Active; 'I' for Inactive)
REMARK    1  A    between atoms: N1_1  and  C1_4 
REMARK    2  A    between atoms: C3_8  and  C4_9 
REMARK    3  A    between atoms: C4_9  and  C5_10 
REMARK    4  A    between atoms: C8_13  and  C9_14 
REMARK    5  A    between atoms: C9_14  and  N3_15 
REMARK       I    between atoms: N3_15  and  C10_17 
REMARK    6  A    between atoms: C10_17  and  C11_19 
REMARK    7  A    between atoms: N4_21  and  C13_22 
REMARK    8  A    between atoms: C14_25  and  C15_26 
REMARK    9  A    between atoms: C16_39  and  N12_40 
REMARK   10  A    between atoms: C21_49  and  N14_50 
ROOT
HETATM    1  C5  UNL     1      -2.408   0.070  -1.007  1.00  0.00    -0.009 A 
HETATM    2  C6  UNL     1      -1.070  -0.438  -1.059  1.00  0.00     0.013 A 
HETATM    3  C7  UNL     1      -0.056   0.196  -0.414  1.00  0.00     0.031 A 
HETATM    4  C8  UNL     1      -0.288   1.332   0.299  1.00  0.00     0.049 A 
HETATM    5  N11 UNL     1      -1.543   1.805   0.346  1.00  0.00    -0.341 N 
ATOM      6  H11 UNL     1      -1.727   2.655   0.879  1.00  0.00     0.167 HD
HETATM    7  C16 UNL     1      -2.601   1.181  -0.304  1.00  0.00     0.118 A 
ENDROOT
BRANCH   4   8
HETATM    8  C9  UNL     1       0.744   2.095   1.006  1.00  0.00     0.121 C 
BRANCH   8   9
HETATM    9  N3  UNL     1       2.052   1.813   0.589  1.00  0.00    -0.329 N 
HETATM   10  C10 UNL     1       2.838   0.743   1.039  1.00  0.00     0.275 C 
HETATM   11  O1  UNL     1       2.395  -0.058   1.888  1.00  0.00    -0.266 OA
ATOM     12  H3  UNL     1       2.467   2.440  -0.100  1.00  0.00     0.168 HD
BRANCH  10  13
HETATM   13  C11 UNL     1       4.183   0.572   0.502  1.00  0.00     0.135 A 
HETATM   14  C12 UNL     1       5.131  -0.405   0.735  1.00  0.00     0.173 A 
HETATM   15  N4  UNL     1       6.242  -0.161   0.030  1.00  0.00    -0.079 N 
HETATM   16  N9  UNL     1       6.013   0.969  -0.656  1.00  0.00    -0.221 N 
HETATM   17  N10 UNL     1       4.806   1.410  -0.387  1.00  0.00    -0.279 N 
ATOM     18  H9  UNL     1       6.675   1.417  -1.289  1.00  0.00     0.209 HD
ATOM     19  H10 UNL     1       4.391   2.254  -0.782  1.00  0.00     0.189 HD
BRANCH  15  20
HETATM   20  C13 UNL     1       7.474  -0.870  -0.057  1.00  0.00     0.720 A 
HETATM   21  N5  UNL     1       8.667  -0.393  -0.480  1.00  0.00    -0.167 N 
HETATM   22  C14 UNL     1       9.616  -1.358  -0.425  1.00  0.00     0.201 A 
ATOM     23  H5  UNL     1       8.830   0.563  -0.797  1.00  0.00     0.186 HD
HETATM   24  N7  UNL     1       8.976  -2.442   0.044  1.00  0.00    -0.266 N 
HETATM   25  N8  UNL     1       7.698  -2.154   0.264  1.00  0.00    -0.128 N 
ATOM     26  H7  UNL     1       9.408  -3.352   0.207  1.00  0.00     0.189 HD
ATOM     27  H8  UNL     1       6.998  -2.805   0.620  1.00  0.00     0.205 HD
BRANCH  22  28
HETATM   28  C15 UNL     1      11.042  -1.214  -0.805  1.00  0.00     0.300 C 
HETATM   29  N6  UNL     1      11.866  -2.336  -0.691  1.00  0.00    -0.054 NA
HETATM   30  O2  UNL     1      11.402  -0.065  -1.209  1.00  0.00    -0.268 OA
ENDBRANCH  22  28
ENDBRANCH  15  20
ENDBRANCH  10  13
ENDBRANCH   8   9
ENDBRANCH   4   8
BRANCH   7  31
HETATM   31  N12 UNL     1      -3.827   1.897  -0.135  1.00  0.00    -0.284 N 
HETATM   32  C17 UNL     1      -4.516   1.775   1.120  1.00  0.00     0.144 C 
HETATM   33  C18 UNL     1      -4.798   3.210   1.603  1.00  0.00     0.123 C 
HETATM   34  C19 UNL     1      -5.769   3.747   0.586  1.00  0.00     0.227 C 
HETATM   35  O3  UNL     1      -6.902   4.188   0.915  1.00  0.00    -0.273 OA
HETATM   36  N13 UNL     1      -5.341   3.728  -0.764  1.00  0.00    -0.279 N 
HETATM   37  C20 UNL     1      -4.324   2.757  -1.128  1.00  0.00     0.330 C 
ATOM     38  H13 UNL     1      -5.731   4.371  -1.453  1.00  0.00     0.173 HD
HETATM   39  O4  UNL     1      -3.913   2.713  -2.320  1.00  0.00    -0.246 OA
ENDBRANCH   7  31
BRANCH   1  40
HETATM   40  C4  UNL     1      -3.420  -0.701  -1.740  1.00  0.00     0.086 C 
BRANCH  40  41
HETATM   41  C3  UNL     1      -4.282  -1.600  -0.979  1.00  0.00     0.006 A 
HETATM   42  C2  UNL     1      -3.638  -2.722  -0.403  1.00  0.00     0.117 A 
HETATM   43  N2  UNL     1      -4.323  -3.544   0.393  1.00  0.00    -0.202 N 
HETATM   44  C1  UNL     1      -5.615  -3.301   0.643  1.00  0.00     0.677 A 
ATOM     45  H2  UNL     1      -3.864  -4.354   0.809  1.00  0.00     0.183 HD
HETATM   46  N15 UNL     1      -6.262  -2.257   0.121  1.00  0.00    -0.177 N 
HETATM   47  C21 UNL     1      -5.591  -1.402  -0.697  1.00  0.00     0.122 A 
ATOM     48  H15 UNL     1      -7.248  -2.102   0.333  1.00  0.00     0.185 HD
BRANCH  44  49
HETATM   49  N1  UNL     1      -6.263  -4.110   1.423  1.00  0.00    -0.234 N 
ATOM     50  H12 UNL     1      -5.768  -4.908   1.822  1.00  0.00     0.174 HD
ATOM     51  H11 UNL     1      -7.248  -3.925   1.614  1.00  0.00     0.174 HD
ENDBRANCH  44  49
BRANCH  47  52
HETATM   52  N14 UNL     1      -6.293  -0.447  -1.262  1.00  0.00    -0.385 N 
ATOM     53 2H14 UNL     1      -5.790   0.194  -1.875  1.00  0.00     0.157 HD
ATOM     54 1H14 UNL     1      -7.279  -0.298  -1.049  1.00  0.00     0.157 HD
ENDBRANCH  47  52
ENDBRANCH  40  41
ENDBRANCH   1  40
TORSDOF 10
