REMARK  12 active torsions:
REMARK  status: ('A' for Active; 'I' for Inactive)
REMARK    1  A    between atoms: O1_2  and  C2_3 
REMARK    2  A    between atoms: C9_10  and  O2_11 
REMARK    3  A    between atoms: C16_19  and  O3_20 
REMARK    4  A    between atoms: C18_23  and  C20_25 
REMARK    5  A    between atoms: C20_25  and  O4_26 
REMARK    6  A    between atoms: C20_25  and  C23_30 
REMARK    7  A    between atoms: O4_26  and  C21_27 
REMARK    8  A    between atoms: C23_30  and  C25_32 
REMARK    9  A    between atoms: C25_32  and  C26_33 
REMARK   10  A    between atoms: C26_33  and  C27_34 
REMARK   11  A    between atoms: C27_34  and  C28_35 
REMARK   12  A    between atoms: C34_41  and  O6_42 
ROOT
HETATM    1  C2  UNL     1      -2.886   0.786   1.777  1.00  0.00     0.094 C 
HETATM    2  C3  UNL     1      -4.191   0.899   1.770  1.00  0.00     0.017 C 
HETATM    3  C4  UNL     1      -5.181   1.486   0.851  1.00  0.00     0.017 C 
HETATM    4  C5  UNL     1      -6.305   2.090   1.637  1.00  0.00     0.015 C 
HETATM    5  C6  UNL     1      -5.627   0.562  -0.287  1.00  0.00    -0.015 C 
HETATM    6  C7  UNL     1      -5.192   1.131  -1.615  1.00  0.00     0.018 C 
HETATM    7  C8  UNL     1      -7.131   0.848  -0.381  1.00  0.00     0.018 C 
HETATM    8  C9  UNL     1      -5.506  -0.871  -0.055  1.00  0.00     0.134 C 
HETATM    9  C10 UNL     1      -5.044  -1.911  -0.990  1.00  0.00     0.033 C 
HETATM   10  C11 UNL     1      -5.681  -1.774  -2.406  1.00  0.00     0.017 C 
HETATM   11  C12 UNL     1      -3.581  -2.121  -1.162  1.00  0.00    -0.023 C 
HETATM   12  C13 UNL     1      -2.570  -2.628  -0.543  1.00  0.00    -0.023 C 
HETATM   13  C14 UNL     1      -1.101  -2.833  -0.737  1.00  0.00     0.032 C 
HETATM   14  C15 UNL     1      -1.043  -4.413  -0.591  1.00  0.00     0.017 C 
HETATM   15  C16 UNL     1      -0.271  -2.199   0.368  1.00  0.00     0.126 C 
HETATM   16  C17 UNL     1       0.817  -1.336   0.267  1.00  0.00     0.044 C 
HETATM   17  C18 UNL     1       1.068   0.079  -0.109  1.00  0.00    -0.014 C 
HETATM   18  C19 UNL     1       0.937   0.142  -1.639  1.00  0.00     0.018 C 
HETATM   19  C31 UNL     1       0.679   1.231   0.642  1.00  0.00     0.022 C 
HETATM   20  C32 UNL     1      -0.562   1.959   0.954  1.00  0.00     0.042 C 
HETATM   21  C33 UNL     1      -0.889   3.013  -0.155  1.00  0.00     0.017 C 
HETATM   22  C34 UNL     1      -1.802   1.169   0.929  1.00  0.00     0.080 C 
ENDROOT
BRANCH  17  23
HETATM   23  C20 UNL     1       2.635   0.108   0.029  1.00  0.00     0.143 C 
BRANCH  23  24
HETATM   24  O4  UNL     1       2.968  -0.269   1.382  1.00  0.00    -0.315 OA
BRANCH  24  25
HETATM   25  C21 UNL     1       3.757  -1.379   1.694  1.00  0.00     0.255 C 
HETATM   26  C22 UNL     1       4.083  -1.755   3.087  1.00  0.00     0.126 C 
HETATM   27  O5  UNL     1       4.220  -2.102   0.780  1.00  0.00    -0.266 OA
ENDBRANCH  24  25
ENDBRANCH  23  24
BRANCH  23  28
HETATM   28  C23 UNL     1       3.334   1.357  -0.200  1.00  0.00     0.012 C 
HETATM   29  C24 UNL     1       3.298   2.081  -1.499  1.00  0.00     0.012 C 
BRANCH  28  30
HETATM   30  C25 UNL     1       4.844   0.961  -0.044  1.00  0.00     0.007 C 
BRANCH  30  31
HETATM   31  C26 UNL     1       5.659   2.195  -0.294  1.00  0.00     0.001 C 
BRANCH  31  32
HETATM   32  C27 UNL     1       7.134   2.062  -0.081  1.00  0.00     0.004 C 
BRANCH  32  33
HETATM   33  C28 UNL     1       7.896   1.091  -0.883  1.00  0.00    -0.023 C 
HETATM   34  C29 UNL     1       7.564  -0.347  -0.772  1.00  0.00     0.009 C 
HETATM   35  C30 UNL     1       9.373   1.251  -0.477  1.00  0.00     0.009 C 
ENDBRANCH  32  33
ENDBRANCH  31  32
ENDBRANCH  30  31
ENDBRANCH  28  30
ENDBRANCH  23  28
ENDBRANCH  17  23
BRANCH  15  36
HETATM   36  O3  UNL     1       0.181  -3.337   1.126  1.00  0.00    -0.395 OA
ATOM     37  H3  UNL     1       0.700  -2.941   1.816  1.00  0.00     0.210 HD
ENDBRANCH  15  36
BRANCH  22  38
HETATM   38  O6  UNL     1      -1.783   0.732  -0.312  1.00  0.00    -0.362 OA
ATOM     39  H6  UNL     1      -1.062   0.987  -0.876  1.00  0.00     0.217 HD
ENDBRANCH  22  38
BRANCH   1  40
HETATM   40  O1  UNL     1      -2.461   0.101   2.933  1.00  0.00    -0.354 OA
HETATM   41  C1  UNL     1      -3.022  -1.076   3.353  1.00  0.00     0.210 C 
ENDBRANCH   1  40
BRANCH   8  42
HETATM   42  O2  UNL     1      -6.685  -1.381   0.580  1.00  0.00    -0.394 OA
ATOM     43  H2  UNL     1      -6.606  -2.316   0.731  1.00  0.00     0.210 HD
ENDBRANCH   8  42
TORSDOF 12
