REMARK  6 active torsions:
REMARK  status: ('A' for Active; 'I' for Inactive)
REMARK    1  A    between atoms: O1_2  and  C2_3 
REMARK    2  A    between atoms: C2_3  and  C3_5 
REMARK    3  A    between atoms: C7_9  and  O3_10 
REMARK    4  A    between atoms: O3_10  and  C8_11 
REMARK    5  A    between atoms: C23_28  and  O5_30 
REMARK    6  A    between atoms: C29_36  and  O6_37 
ROOT
HETATM    1  C3  UNL     1      -3.402  -0.565   1.428  1.00  0.00     0.074 C 
HETATM    2  C4  UNL     1      -2.171  -0.021   2.087  1.00  0.00    -0.002 C 
HETATM    3  C5  UNL     1      -1.237   0.185   1.137  1.00  0.00    -0.067 C 
HETATM    4  C6  UNL     1      -1.810  -0.207  -0.153  1.00  0.00     0.050 C 
HETATM    5  C7  UNL     1      -1.170   0.515  -1.258  1.00  0.00     0.141 C 
HETATM    6  C10 UNL     1       0.325   0.140  -1.179  1.00  0.00     0.044 C 
HETATM    7  C11 UNL     1       0.897   0.856  -0.008  1.00  0.00    -0.019 C 
HETATM    8  C12 UNL     1       0.685   2.349  -0.351  1.00  0.00     0.017 C 
HETATM    9  C13 UNL     1       0.135   0.681   1.280  1.00  0.00     0.047 C 
HETATM   10  C14 UNL     1       0.967  -0.286   2.054  1.00  0.00    -0.009 C 
HETATM   11  C15 UNL     1       2.145  -0.355   1.510  1.00  0.00    -0.051 C 
HETATM   12  C16 UNL     1       3.451  -1.020   1.646  1.00  0.00     0.014 C 
HETATM   13  C17 UNL     1       4.053  -0.994   0.433  1.00  0.00    -0.040 C 
HETATM   14  C18 UNL     1       3.159  -0.304  -0.523  1.00  0.00     0.036 C 
HETATM   15  C19 UNL     1       3.959   0.362  -1.574  1.00  0.00     0.005 C 
HETATM   16  C20 UNL     1       3.588  -0.182  -2.982  1.00  0.00     0.012 C 
HETATM   17  C21 UNL     1       5.454   0.182  -1.510  1.00  0.00     0.065 C 
HETATM   18 BR1  UNL     1       6.383   1.407  -0.389  1.00  0.00    -0.091 Br
HETATM   19  C22 UNL     1       5.825  -1.253  -1.252  1.00  0.00     0.058 C 
HETATM   20  C23 UNL     1       5.379  -1.597   0.112  1.00  0.00     0.079 C 
HETATM   21  C24 UNL     1       6.394  -1.190   1.165  1.00  0.00     0.051 C 
HETATM   22  C25 UNL     1       2.305   0.563   0.330  1.00  0.00    -0.001 C 
HETATM   23  C26 UNL     1       3.001   1.750   0.895  1.00  0.00     0.022 C 
HETATM   24  C27 UNL     1      -3.280   0.117   0.072  1.00  0.00     0.021 C 
HETATM   25  C28 UNL     1      -3.488   1.607   0.163  1.00  0.00     0.038 C 
HETATM   26  C29 UNL     1      -4.468   1.977   1.228  1.00  0.00     0.119 C 
HETATM   27  C30 UNL     1      -5.417   0.850   1.555  1.00  0.00     0.037 C 
HETATM   28  C31 UNL     1      -4.643  -0.255   2.177  1.00  0.00     0.006 C 
HETATM   29  C32 UNL     1      -4.386  -0.017   3.658  1.00  0.00     0.011 C 
ENDROOT
BRANCH   1  30
HETATM   30  C2  UNL     1      -3.251  -2.038   1.185  1.00  0.00     0.271 C 
HETATM   31  O2  UNL     1      -2.249  -2.649   1.609  1.00  0.00    -0.264 OA
BRANCH  30  32
HETATM   32  O1  UNL     1      -4.260  -2.672   0.483  1.00  0.00    -0.326 OA
HETATM   33  C1  UNL     1      -4.175  -4.059   0.224  1.00  0.00     0.213 C 
ENDBRANCH  30  32
ENDBRANCH   1  30
BRANCH   5  34
HETATM   34  O3  UNL     1      -1.686   0.249  -2.535  1.00  0.00    -0.316 OA
BRANCH  34  35
HETATM   35  C8  UNL     1      -2.158   1.170  -3.435  1.00  0.00     0.255 C 
HETATM   36  C9  UNL     1      -2.673   0.698  -4.741  1.00  0.00     0.126 C 
HETATM   37  O4  UNL     1      -2.118   2.364  -3.082  1.00  0.00    -0.266 OA
ENDBRANCH  34  35
ENDBRANCH   5  34
BRANCH  26  38
HETATM   38  O6  UNL     1      -5.225   3.095   0.913  1.00  0.00    -0.396 OA
ATOM     39  H6  UNL     1      -5.848   3.330   1.590  1.00  0.00     0.210 HD
ENDBRANCH  26  38
BRANCH  20  40
HETATM   40  O5  UNL     1       5.293  -3.010   0.157  1.00  0.00    -0.386 OA
ATOM     41  H5  UNL     1       6.138  -3.394  -0.047  1.00  0.00     0.211 HD
ENDBRANCH  20  40
TORSDOF 6
