REMARK  2 active torsions:
REMARK  status: ('A' for Active; 'I' for Inactive)
REMARK    1  A    between atoms: N1_1  and  S1_4 
REMARK    2  A    between atoms: S1_4  and  C1_5 
ROOT
HETATM    1  C1  UNL     1       0.932  -0.160  -0.069  1.00  0.00     0.069 C 
HETATM    2  C2  UNL     1       0.093   0.926  -0.708  1.00  0.00     0.021 C 
HETATM    3  C3  UNL     1      -1.303   0.938  -0.154  1.00  0.00    -0.013 C 
HETATM    4  C4  UNL     1      -1.277   0.359   1.257  1.00  0.00     0.009 C 
HETATM    5  C5  UNL     1      -1.279  -0.994   0.602  1.00  0.00    -0.013 C 
HETATM    6  C6  UNL     1      -2.054  -0.334  -0.536  1.00  0.00     0.009 C 
HETATM    7  C7  UNL     1       0.072  -1.385   0.054  1.00  0.00     0.021 C 
ENDROOT
BRANCH   1   8
HETATM    8  S1  UNL     1       2.414  -0.466  -1.089  1.00  0.00    -0.058 SA
BRANCH   8   9
HETATM    9  N1  UNL     1       3.757   0.537  -0.504  1.00  0.00    -0.374 N 
ATOM     10  H12 UNL     1       3.694   1.182   0.284  1.00  0.00     0.164 HD
ATOM     11  H11 UNL     1       4.585   0.366  -1.074  1.00  0.00     0.164 HD
ENDBRANCH   8   9
ENDBRANCH   1   8
TORSDOF 2
