REMARK  2 active torsions:
REMARK  status: ('A' for Active; 'I' for Inactive)
REMARK    1  A    between atoms: N1_1  and  C1_4 
REMARK    2  A    between atoms: N4_10  and  N5_12 
ROOT
HETATM    1  C1  UNL     1      -3.169  -0.276  -0.248  1.00  0.00     0.705 A 
HETATM    2  N2  UNL     1      -2.506  -0.859   0.767  1.00  0.00    -0.117 N 
ATOM      3  H2  UNL     1      -2.929  -1.368   1.543  1.00  0.00     0.206 HD
HETATM    4  N3  UNL     1      -1.210  -0.658   0.584  1.00  0.00    -0.116 N 
ATOM      5  H3  UNL     1      -0.474  -0.993   1.205  1.00  0.00     0.206 HD
HETATM    6  C2  UNL     1      -1.008   0.044  -0.527  1.00  0.00     0.727 A 
HETATM    7  N4  UNL     1       0.077   0.460  -1.081  1.00  0.00    -0.109 N 
ATOM      8  H4  UNL     1       0.000   0.991  -1.949  1.00  0.00     0.207 HD
HETATM    9  N9  UNL     1      -2.228   0.281  -1.044  1.00  0.00    -0.019 N 
ATOM     10  H9  UNL     1      -2.414   0.800  -1.902  1.00  0.00     0.203 HD
ENDROOT
BRANCH   7  11
HETATM   11  N5  UNL     1       1.347   0.228  -0.566  1.00  0.00    -0.153 N 
HETATM   12  N6  UNL     1       2.287  -0.613  -1.142  1.00  0.00    -0.095 NA
HETATM   13  C3  UNL     1       3.463  -0.560  -0.293  1.00  0.00     0.261 A 
HETATM   14  N7  UNL     1       3.115   0.350   0.782  1.00  0.00    -0.347 N 
HETATM   15  C4  UNL     1       1.894   0.793   0.606  1.00  0.00     0.224 A 
ATOM     16  H7  UNL     1       3.727   0.606   1.557  1.00  0.00     0.163 HD
HETATM   17  N8  UNL     1       1.199   1.698   1.444  1.00  0.00    -0.061 NA
ENDBRANCH   7  11
BRANCH   1  18
HETATM   18  N1  UNL     1      -4.467  -0.254  -0.426  1.00  0.00    -0.233 N 
ATOM     19  H12 UNL     1      -5.177  -0.674   0.174  1.00  0.00     0.174 HD
ATOM     20  H11 UNL     1      -4.970   0.188  -1.196  1.00  0.00     0.174 HD
ENDBRANCH   1  18
TORSDOF 2
