REMARK  6 active torsions:
REMARK  status: ('A' for Active; 'I' for Inactive)
REMARK    1  A    between atoms: N1_1  and  C1_4 
REMARK    2  A    between atoms: C2_5  and  C3_6 
REMARK    3  A    between atoms: N5_13  and  C4_14 
REMARK    4  A    between atoms: C4_14  and  C5_15 
REMARK    5  A    between atoms: C5_15  and  N6_16 
REMARK    6  A    between atoms: N6_16  and  C6_18 
ROOT
HETATM    1  C1  UNL     1       1.514  -0.006  -0.174  1.00  0.00     0.151 A 
HETATM    2  C2  UNL     1       1.699   1.325   0.048  1.00  0.00     0.159 A 
HETATM    3  N3  UNL     1       0.974   1.951  -0.933  1.00  0.00    -0.278 N 
ATOM      4  H3  UNL     1       0.893   2.960  -1.062  1.00  0.00     0.189 HD
HETATM    5  N4  UNL     1       0.399   1.030  -1.682  1.00  0.00    -0.238 N 
ATOM      6  H4  UNL     1      -0.199   1.230  -2.484  1.00  0.00     0.208 HD
HETATM    7  N5  UNL     1       0.695  -0.171  -1.264  1.00  0.00    -0.259 N 
ENDROOT
BRANCH   7   8
HETATM    8  C4  UNL     1       0.283  -1.455  -1.789  1.00  0.00     0.172 C 
BRANCH   8   9
HETATM    9  C5  UNL     1      -0.995  -1.962  -1.172  1.00  0.00     0.143 C 
BRANCH   9  10
HETATM   10  N6  UNL     1      -2.113  -1.083  -1.383  1.00  0.00    -0.368 N 
ATOM     11  H6  UNL     1      -2.553  -1.043  -2.303  1.00  0.00     0.161 HD
BRANCH  10  12
HETATM   12  C6  UNL     1      -2.576  -0.334  -0.415  1.00  0.00     0.161 A 
HETATM   13  N7  UNL     1      -2.135  -0.251   0.846  1.00  0.00    -0.279 N 
HETATM   14  N8  UNL     1      -2.728   0.547   1.647  1.00  0.00    -0.286 N 
ATOM     15  H7  UNL     1      -1.343  -0.812   1.160  1.00  0.00     0.189 HD
HETATM   16  C7  UNL     1      -3.751   1.271   1.233  1.00  0.00     0.139 A 
ATOM     17  H8  UNL     1      -2.409   0.626   2.613  1.00  0.00     0.188 HD
HETATM   18 BR1  UNL     1      -4.802   2.530   2.223  1.00  0.00    -0.021 Br
HETATM   19  S1  UNL     1      -3.870   0.778  -0.397  1.00  0.00    -0.026 SA
ENDBRANCH  10  12
ENDBRANCH   9  10
ENDBRANCH   8   9
ENDBRANCH   7   8
BRANCH   1  20
HETATM   20  N1  UNL     1       1.995  -0.970   0.487  1.00  0.00    -0.382 N 
ATOM     21  H12 UNL     1       2.603  -0.847   1.297  1.00  0.00     0.157 HD
ATOM     22  H11 UNL     1       1.856  -1.967   0.321  1.00  0.00     0.157 HD
ENDBRANCH   1  20
BRANCH   2  23
HETATM   23  C3  UNL     1       2.472   2.043   1.065  1.00  0.00     0.286 C 
HETATM   24  N2  UNL     1       3.226   1.436   2.083  1.00  0.00    -0.056 NA
HETATM   25  O1  UNL     1       2.443   3.327   1.002  1.00  0.00    -0.269 OA
ENDBRANCH   2  23
TORSDOF 6
