REMARK  13 active torsions:
REMARK  status: ('A' for Active; 'I' for Inactive)
REMARK    1  A    between atoms: C2_2  and  N1_3 
REMARK    2  A    between atoms: N1_3  and  C3_4 
REMARK    3  A    between atoms: N1_3  and  C5_6 
REMARK    4  A    between atoms: C5_6  and  C6_7 
REMARK    5  A    between atoms: C6_7  and  C7_8 
REMARK    6  A    between atoms: C7_8  and  C8_9 
REMARK    7  A    between atoms: C10_14  and  C11_15 
REMARK    8  A    between atoms: C11_15  and  C12_16 
REMARK    9  A    between atoms: C12_16  and  C13_17 
REMARK   10  A    between atoms: C13_17  and  N3_18 
REMARK       I    between atoms: N3_18  and  C14_20 
REMARK       I    between atoms: C14_20  and  N6_25 
REMARK   11  A    between atoms: N6_25  and  C16_27 
REMARK   12  A    between atoms: C16_27  and  C17_28 
REMARK   13  A    between atoms: C17_28  and  C18_29 
ROOT
HETATM    1  N3  UNL     1      -3.417  -1.449   1.311  1.00  0.00    -0.226 N 
ATOM      2  H3  UNL     1      -3.799  -0.809   2.007  1.00  0.00     0.177 HD
HETATM    3  C14 UNL     1      -4.014  -1.526   0.040  1.00  0.00     0.682 C 
HETATM    4  N4  UNL     1      -3.486  -2.222  -0.892  1.00  0.00    -0.126 N 
ATOM      5  H4  UNL     1      -2.620  -2.728  -0.707  1.00  0.00     0.197 HD
HETATM    6  C15 UNL     1      -4.067  -2.305  -2.153  1.00  0.00     0.196 C 
HETATM    7  N5  UNL     1      -4.563  -2.361  -3.185  1.00  0.00    -0.171 NA
HETATM    8  N6  UNL     1      -5.259  -0.864  -0.315  1.00  0.00    -0.225 N 
ATOM      9  H6  UNL     1      -6.134  -1.388  -0.324  1.00  0.00     0.177 HD
ENDROOT
BRANCH   1  10
HETATM   10  C13 UNL     1      -2.272  -2.261   1.645  1.00  0.00     0.138 C 
BRANCH  10  11
HETATM   11  C12 UNL     1      -1.009  -1.906   0.938  1.00  0.00     0.023 C 
BRANCH  11  12
HETATM   12  C11 UNL     1      -0.500  -0.520   1.223  1.00  0.00     0.036 C 
BRANCH  12  13
HETATM   13  C10 UNL     1       0.738  -0.276   0.400  1.00  0.00     0.176 C 
HETATM   14  C9  UNL     1       1.227   1.106   0.710  1.00  0.00     0.241 C 
HETATM   15  N2  UNL     1       2.625   1.332   0.601  1.00  0.00    -0.346 N 
HETATM   16  O1  UNL     1       0.439   2.045   1.057  1.00  0.00    -0.271 OA
HETATM   17  C8  UNL     1       3.443   0.400  -0.210  1.00  0.00     0.176 C 
ATOM     18  H2  UNL     1       3.060   2.124   1.074  1.00  0.00     0.163 HD
HETATM   19  C24 UNL     1       3.144  -0.936   0.346  1.00  0.00     0.241 C 
HETATM   20  N8  UNL     1       1.795  -1.163   0.829  1.00  0.00    -0.346 N 
HETATM   21  O2  UNL     1       3.954  -1.889   0.437  1.00  0.00    -0.271 OA
ATOM     22  H8  UNL     1       1.596  -1.937   1.462  1.00  0.00     0.163 HD
BRANCH  17  23
HETATM   23  C7  UNL     1       4.854   0.836  -0.018  1.00  0.00     0.036 C 
BRANCH  23  24
HETATM   24  C6  UNL     1       5.901   0.075  -0.753  1.00  0.00     0.033 C 
BRANCH  24  25
HETATM   25  C5  UNL     1       7.240   0.715  -0.352  1.00  0.00     0.272 C 
BRANCH  25  26
HETATM   26  N1  UNL     1       8.352   0.095  -0.988  1.00  0.00     0.087 N 
BRANCH  26  27
HETATM   27  C2  UNL     1       8.624  -1.253  -0.581  1.00  0.00     0.268 C 
HETATM   28  C1  UNL     1       8.853  -1.446   0.881  1.00  0.00     0.037 C 
ENDBRANCH  26  27
BRANCH  26  29
HETATM   29  C3  UNL     1       9.542   0.904  -0.806  1.00  0.00     0.268 C 
HETATM   30  C4  UNL     1       9.384   2.335  -1.185  1.00  0.00     0.037 C 
ENDBRANCH  26  29
ENDBRANCH  25  26
ENDBRANCH  24  25
ENDBRANCH  23  24
ENDBRANCH  17  23
ENDBRANCH  12  13
ENDBRANCH  11  12
ENDBRANCH  10  11
ENDBRANCH   1  10
BRANCH   8  31
HETATM   31  C16 UNL     1      -5.251   0.509  -0.648  1.00  0.00     0.144 C 
BRANCH  31  32
HETATM   32  C17 UNL     1      -6.407   1.112  -1.338  1.00  0.00     0.077 C 
BRANCH  32  33
HETATM   33  C18 UNL     1      -7.692   1.024  -0.636  1.00  0.00     0.017 A 
HETATM   34  N7  UNL     1      -8.153   1.994   0.215  1.00  0.00    -0.363 N 
HETATM   35  C19 UNL     1      -9.337   1.659   0.723  1.00  0.00     0.006 A 
ATOM     36  H7  UNL     1      -7.655   2.858   0.431  1.00  0.00     0.165 HD
HETATM   37  C20 UNL     1     -10.168   2.449   1.673  1.00  0.00     0.068 C 
HETATM   38  C21 UNL     1      -9.672   0.443   0.202  1.00  0.00     0.033 A 
HETATM   39  C22 UNL     1      -8.637   0.049  -0.652  1.00  0.00    -0.037 A 
HETATM   40  C23 UNL     1      -8.693  -1.206  -1.436  1.00  0.00     0.050 C 
ENDBRANCH  32  33
ENDBRANCH  31  32
ENDBRANCH   8  31
TORSDOF 13
