REMARK  2 active torsions:
REMARK  status: ('A' for Active; 'I' for Inactive)
REMARK    1  A    between atoms: C2_2  and  C3_3 
REMARK    2  A    between atoms: C4_4  and  C5_5 
ROOT
HETATM    1  C5  UNL     1      -0.108   0.181  -0.131  1.00  0.00     0.012 C 
HETATM    2  C6  UNL     1      -1.125   1.321   0.130  1.00  0.00     0.013 C 
HETATM    3  C7  UNL     1      -2.373   0.639  -0.285  1.00  0.00    -0.013 C 
HETATM    4  C8  UNL     1      -1.949  -0.073  -1.562  1.00  0.00     0.010 C 
HETATM    5  C9  UNL     1      -1.076  -0.880  -0.589  1.00  0.00    -0.006 C 
HETATM    6  C10 UNL     1      -2.212  -0.737   0.378  1.00  0.00     0.010 C 
ENDROOT
BRANCH   1   7
HETATM    7  C4  UNL     1       0.613  -0.170   1.080  1.00  0.00    -0.022 C 
HETATM    8  C3  UNL     1       1.897  -0.276   1.183  1.00  0.00    -0.004 C 
BRANCH   8   9
HETATM    9  C2  UNL     1       2.805  -0.057   0.085  1.00  0.00    -0.011 C 
HETATM   10  C1  UNL     1       4.119  -0.167   0.196  1.00  0.00     0.011 C 
ENDBRANCH   8   9
ENDBRANCH   1   7
TORSDOF 2
