REMARK  3 active torsions:
REMARK  status: ('A' for Active; 'I' for Inactive)
REMARK    1  A    between atoms: C2_2  and  N1_3 
REMARK    2  A    between atoms: N1_3  and  C3_5 
REMARK    3  A    between atoms: C3_5  and  C4_6 
ROOT
HETATM    1  C4  UNL     1      -0.139  -0.471  -0.015  1.00  0.00     0.003 C 
HETATM    2  C5  UNL     1      -0.730   0.645  -0.771  1.00  0.00     0.006 C 
HETATM    3  C6  UNL     1      -1.895   1.345  -0.201  1.00  0.00     0.000 C 
HETATM    4  C7  UNL     1      -2.513   0.715   1.005  1.00  0.00     0.000 C 
HETATM    5  C8  UNL     1      -2.483  -0.800   0.763  1.00  0.00     0.000 C 
HETATM    6  C9  UNL     1      -1.029  -1.179   0.940  1.00  0.00     0.006 C 
ENDROOT
BRANCH   1   7
HETATM    7  C3  UNL     1       1.141  -0.071   0.735  1.00  0.00     0.123 C 
BRANCH   7   8
HETATM    8  N1  UNL     1       2.150   0.398  -0.196  1.00  0.00    -0.399 N 
ATOM      9  H1  UNL     1       2.016   1.172  -0.846  1.00  0.00     0.158 HD
BRANCH   8  10
HETATM   10  C2  UNL     1       3.357  -0.363  -0.087  1.00  0.00     0.072 C 
HETATM   11  C1  UNL     1       4.537   0.128  -0.452  1.00  0.00     0.029 C 
ENDBRANCH   8  10
ENDBRANCH   7   8
ENDBRANCH   1   7
TORSDOF 3
