REMARK  3 active torsions:
REMARK  status: ('A' for Active; 'I' for Inactive)
REMARK    1  A    between atoms: O1_2  and  C2_3 
REMARK    2  A    between atoms: C5_6  and  C6_7 
REMARK    3  A    between atoms: C7_8  and  C8_9 
ROOT
HETATM    1  C6  UNL     1       0.254   0.016   0.376  1.00  0.00    -0.060 C 
HETATM    2  C7  UNL     1      -0.944   0.152   0.337  1.00  0.00    -0.060 C 
ENDROOT
BRANCH   1   3
HETATM    3  C5  UNL     1       1.686  -0.122   0.426  1.00  0.00     0.029 A 
HETATM    4  C4  UNL     1       2.290  -0.789   1.454  1.00  0.00     0.024 A 
HETATM    5  C3  UNL     1       3.655  -0.915   1.493  1.00  0.00     0.039 A 
HETATM    6  C2  UNL     1       4.446  -0.378   0.507  1.00  0.00     0.079 A 
HETATM    7  C22 UNL     1       3.830   0.303  -0.543  1.00  0.00     0.009 A 
HETATM    8  C17 UNL     1       2.457   0.432  -0.586  1.00  0.00    -0.004 A 
HETATM    9  C21 UNL     1       4.554   0.871  -1.571  1.00  0.00     0.015 A 
HETATM   10  C18 UNL     1       1.856   1.114  -1.639  1.00  0.00     0.014 A 
HETATM   11  C19 UNL     1       2.611   1.671  -2.653  1.00  0.00     0.001 A 
HETATM   12  C20 UNL     1       3.983   1.544  -2.614  1.00  0.00     0.001 A 
BRANCH   6  13
HETATM   13  O1  UNL     1       5.830  -0.483   0.508  1.00  0.00    -0.355 OA
HETATM   14  C1  UNL     1       6.440  -1.170   1.569  1.00  0.00     0.210 C 
ENDBRANCH   6  13
ENDBRANCH   1   3
BRANCH   2  15
HETATM   15  C8  UNL     1      -2.369   0.337   0.297  1.00  0.00     0.034 A 
HETATM   16  C9  UNL     1      -2.952   1.585   0.415  1.00  0.00     0.109 A 
HETATM   17  N1  UNL     1      -4.284   1.759   0.377  1.00  0.00    -0.364 N 
HETATM   18  C10 UNL     1      -5.129   0.716   0.221  1.00  0.00     0.042 A 
ATOM     19  H1  UNL     1      -4.666   2.700   0.468  1.00  0.00     0.165 HD
HETATM   20  C11 UNL     1      -6.498   0.884   0.181  1.00  0.00     0.030 A 
HETATM   21  C15 UNL     1      -4.609  -0.545   0.098  1.00  0.00    -0.008 A 
HETATM   22  C12 UNL     1      -7.323  -0.207   0.020  1.00  0.00     0.002 A 
HETATM   23  C13 UNL     1      -6.835  -1.495  -0.107  1.00  0.00     0.001 A 
HETATM   24  C14 UNL     1      -5.463  -1.632  -0.063  1.00  0.00     0.014 A 
HETATM   25  C16 UNL     1      -3.234  -0.726   0.137  1.00  0.00     0.035 A 
ENDBRANCH   2  15
TORSDOF 3
