REMARK  16 active torsions:
REMARK  status: ('A' for Active; 'I' for Inactive)
REMARK    1  A    between atoms: C2_2  and  C3_3 
REMARK    2  A    between atoms: C3_3  and  C4_4 
REMARK    3  A    between atoms: C3_3  and  N1_6 
REMARK    4  A    between atoms: N1_6  and  C5_8 
REMARK    5  A    between atoms: C5_8  and  O2_9 
REMARK    6  A    between atoms: C5_8  and  C6_11 
REMARK    7  A    between atoms: C6_11  and  N2_12 
REMARK    8  A    between atoms: C6_11  and  C29_46 
REMARK       I    between atoms: N2_12  and  C7_14 
REMARK    9  A    between atoms: C7_14  and  C8_16 
REMARK   10  A    between atoms: C8_16  and  N3_17 
REMARK   11  A    between atoms: C8_16  and  C26_43 
REMARK       I    between atoms: N3_17  and  C9_19 
REMARK   12  A    between atoms: C9_19  and  C10_21 
REMARK       I    between atoms: N4_26  and  C15_27 
REMARK   13  A    between atoms: C15_27  and  C16_29 
REMARK   14  A    between atoms: C16_29  and  N5_31 
REMARK       I    between atoms: N5_31  and  C18_33 
REMARK   15  A    between atoms: C18_33  and  C19_35 
REMARK   16  A    between atoms: N6_39  and  C23_40 
ROOT
HETATM    1  N3  UNL     1       1.109  -2.333  -1.211  1.00  0.00    -0.345 N 
ATOM      2  H3  UNL     1       1.042  -3.318  -1.468  1.00  0.00     0.163 HD
HETATM    3  C9  UNL     1       0.132  -1.901  -0.307  1.00  0.00     0.246 C 
HETATM    4  O4  UNL     1      -0.009  -0.737   0.151  1.00  0.00    -0.271 OA
ENDROOT
BRANCH   1   5
HETATM    5  C8  UNL     1       2.173  -1.637  -1.829  1.00  0.00     0.180 C 
BRANCH   5   6
HETATM    6  C7  UNL     1       3.023  -0.811  -0.907  1.00  0.00     0.241 C 
HETATM    7  N2  UNL     1       4.148  -0.100  -1.388  1.00  0.00    -0.347 N 
ATOM      8  H2  UNL     1       4.367  -0.158  -2.382  1.00  0.00     0.163 HD
HETATM    9  O3  UNL     1       2.781  -0.719   0.309  1.00  0.00    -0.271 OA
BRANCH   7  10
HETATM   10  C6  UNL     1       5.006   0.707  -0.540  1.00  0.00     0.166 C 
BRANCH  10  11
HETATM   11  C5  UNL     1       6.226  -0.033  -0.189  1.00  0.00     0.136 C 
BRANCH  11  12
HETATM   12  N1  UNL     1       7.533   0.433  -0.044  1.00  0.00    -0.362 N 
ATOM     13  H1  UNL     1       7.737   1.421  -0.193  1.00  0.00     0.162 HD
BRANCH  12  14
HETATM   14  C3  UNL     1       8.619  -0.487   0.322  1.00  0.00     0.144 C 
BRANCH  14  15
HETATM   15  C2  UNL     1       9.317  -0.059   1.585  1.00  0.00     0.028 C 
HETATM   16  C1  UNL     1       8.341  -0.007   2.751  1.00  0.00     0.007 C 
ENDBRANCH  14  15
BRANCH  14  17
HETATM   17  C4  UNL     1       9.594  -0.523  -0.785  1.00  0.00     0.256 C 
HETATM   18  O1  UNL     1       9.488   0.116  -1.820  1.00  0.00    -0.305 OA
ENDBRANCH  14  17
ENDBRANCH  12  14
ENDBRANCH  11  12
BRANCH  11  19
HETATM   19  O2  UNL     1       6.086  -1.311   0.018  1.00  0.00    -0.348 OA
ATOM     20  H2  UNL     1       5.196  -1.628  -0.081  1.00  0.00     0.219 HD
ENDBRANCH  11  19
ENDBRANCH  10  11
BRANCH  10  21
HETATM   21  C29 UNL     1       5.263   2.079  -0.998  1.00  0.00    -0.023 C 
HETATM   22  C30 UNL     1       3.964   2.800  -1.400  1.00  0.00     0.017 C 
HETATM   23  C31 UNL     1       5.773   2.919   0.187  1.00  0.00     0.017 C 
HETATM   24  C32 UNL     1       6.215   2.257  -2.126  1.00  0.00     0.017 C 
ENDBRANCH  10  21
ENDBRANCH   7  10
ENDBRANCH   5   6
BRANCH   5  25
HETATM   25  C26 UNL     1       1.801  -0.902  -3.072  1.00  0.00     0.009 C 
HETATM   26  C27 UNL     1       1.013   0.354  -2.836  1.00  0.00     0.012 C 
HETATM   27  C28 UNL     1       0.950  -1.826  -3.922  1.00  0.00     0.012 C 
ENDBRANCH   5  25
ENDBRANCH   1   5
BRANCH   3  28
HETATM   28  C10 UNL     1      -0.884  -2.886   0.211  1.00  0.00     0.112 C 
HETATM   29  C11 UNL     1      -1.558  -3.618  -0.923  1.00  0.00     0.049 C 
HETATM   30  C12 UNL     1      -0.102  -3.887   1.000  1.00  0.00     0.042 C 
HETATM   31  C13 UNL     1      -0.901  -4.116   2.235  1.00  0.00     0.023 C 
HETATM   32  C14 UNL     1      -1.510  -2.745   2.454  1.00  0.00     0.127 C 
HETATM   33  N4  UNL     1      -1.841  -2.297   1.090  1.00  0.00    -0.332 N 
HETATM   34  C15 UNL     1      -2.943  -1.448   0.824  1.00  0.00     0.243 C 
HETATM   35  O5  UNL     1      -3.182  -1.115  -0.361  1.00  0.00    -0.271 OA
BRANCH  34  36
HETATM   36  C16 UNL     1      -3.837  -0.931   1.887  1.00  0.00     0.172 C 
HETATM   37  C17 UNL     1      -3.097  -0.067   2.895  1.00  0.00     0.042 C 
BRANCH  36  38
HETATM   38  N5  UNL     1      -4.909  -0.150   1.331  1.00  0.00    -0.348 N 
HETATM   39  C18 UNL     1      -6.279  -0.511   1.531  1.00  0.00     0.224 C 
HETATM   40  O6  UNL     1      -6.518  -1.537   2.211  1.00  0.00    -0.273 OA
ATOM     41  H5  UNL     1      -4.688   0.680   0.781  1.00  0.00     0.163 HD
BRANCH  39  42
HETATM   42  C19 UNL     1      -7.396   0.272   0.975  1.00  0.00     0.095 C 
HETATM   43  C20 UNL     1      -7.302   0.302  -0.507  1.00  0.00     0.017 C 
HETATM   44  C21 UNL     1      -8.063   1.432  -1.154  1.00  0.00     0.020 C 
HETATM   45  C22 UNL     1      -7.631   2.724  -0.493  1.00  0.00     0.117 C 
HETATM   46  N6  UNL     1      -8.030   2.655   0.869  1.00  0.00    -0.412 N 
HETATM   47  C25 UNL     1      -7.521   1.593   1.651  1.00  0.00     0.131 C 
BRANCH  46  48
HETATM   48  C23 UNL     1      -9.399   2.949   1.150  1.00  0.00     0.112 C 
HETATM   49  C24 UNL     1      -9.755   4.393   0.921  1.00  0.00     0.026 C 
ENDBRANCH  46  48
ENDBRANCH  39  42
ENDBRANCH  36  38
ENDBRANCH  34  36
ENDBRANCH   3  28
TORSDOF 16
