REMARK  20 active torsions:
REMARK  status: ('A' for Active; 'I' for Inactive)
REMARK       I    between atoms: C2_4  and  N2_5 
REMARK       I    between atoms: C2_4  and  N4_9 
REMARK       I    between atoms: N4_9  and  C4_11 
REMARK       I    between atoms: N6_13  and  C5_15 
REMARK    1  A    between atoms: N8_17  and  C6_19 
REMARK    2  A    between atoms: C6_19  and  C7_20 
REMARK    3  A    between atoms: C7_20  and  C8_21 
REMARK    4  A    between atoms: C8_21  and  N9_22 
REMARK       I    between atoms: N9_22  and  C9_24 
REMARK    5  A    between atoms: C9_24  and  C10_26 
REMARK    6  A    between atoms: C10_26  and  C11_27 
REMARK    7  A    between atoms: C10_26  and  O2_46 
REMARK    8  A    between atoms: C11_27  and  C12_28 
REMARK    9  A    between atoms: N10_31  and  C15_32 
REMARK   10  A    between atoms: C15_32  and  C16_33 
REMARK   11  A    between atoms: C16_33  and  C17_34 
REMARK   12  A    between atoms: C17_34  and  C18_35 
REMARK   13  A    between atoms: C18_35  and  C19_36 
REMARK   14  A    between atoms: C19_36  and  C20_37 
REMARK   15  A    between atoms: C20_37  and  C21_38 
REMARK   16  A    between atoms: C21_38  and  C22_39 
REMARK   17  A    between atoms: C22_39  and  N11_40 
REMARK   18  A    between atoms: O2_46  and  C25_47 
REMARK   19  A    between atoms: C25_47  and  C26_48 
REMARK   20  A    between atoms: C26_48  and  N12_49 
REMARK       I    between atoms: N12_49  and  C27_51 
ROOT
HETATM    1  C1  UNL     1      13.051   0.019   0.854  1.00  0.00     0.165 C 
HETATM    2  N1  UNL     1      11.693   0.305   0.432  1.00  0.00    -0.230 N 
ATOM      3  H1  UNL     1      11.361  -0.070  -0.457  1.00  0.00     0.177 HD
HETATM    4  C2  UNL     1      10.889   1.024   1.153  1.00  0.00     0.689 C 
HETATM    5  N2  UNL     1      11.271   1.579   2.396  1.00  0.00    -0.126 N 
ATOM      6  H2  UNL     1      11.379   2.589   2.487  1.00  0.00     0.197 HD
HETATM    7  C3  UNL     1      11.502   0.755   3.500  1.00  0.00     0.196 C 
HETATM    8  N3  UNL     1      11.699   0.086   4.413  1.00  0.00    -0.171 NA
HETATM    9  N4  UNL     1       9.569   1.268   0.682  1.00  0.00    -0.163 N 
ATOM     10  H4  UNL     1       9.185   0.700  -0.073  1.00  0.00     0.187 HD
HETATM   11  C4  UNL     1       8.788   2.295   1.257  1.00  0.00     0.209 C 
HETATM   12  N5  UNL     1       9.175   3.640   1.119  1.00  0.00    -0.063 NA
HETATM   13  N6  UNL     1       7.728   1.999   1.905  1.00  0.00    -0.304 N 
ATOM     14  H6  UNL     1       7.174   2.751   2.315  1.00  0.00     0.171 HD
HETATM   15  C5  UNL     1       7.296   0.656   2.073  1.00  0.00     0.190 C 
HETATM   16  N7  UNL     1       7.511   0.027   3.328  1.00  0.00    -0.063 NA
HETATM   17  N8  UNL     1       6.716   0.020   1.094  1.00  0.00    -0.364 N 
ATOM     18  H8  UNL     1       6.582   0.508   0.208  1.00  0.00     0.162 HD
ENDROOT
BRANCH  17  19
HETATM   19  C6  UNL     1       6.260  -1.329   1.206  1.00  0.00     0.124 C 
BRANCH  19  20
HETATM   20  C7  UNL     1       4.745  -1.380   0.968  1.00  0.00     0.039 C 
BRANCH  20  21
HETATM   21  C8  UNL     1       4.490  -0.851  -0.414  1.00  0.00     0.124 C 
BRANCH  21  22
HETATM   22  N9  UNL     1       3.118  -0.828  -0.806  1.00  0.00    -0.359 N 
HETATM   23  C9  UNL     1       2.100  -0.106  -0.153  1.00  0.00     0.246 C 
HETATM   24  O1  UNL     1       2.348   0.609   0.878  1.00  0.00    -0.271 OA
ATOM     25  H9  UNL     1       2.854  -1.378  -1.624  1.00  0.00     0.162 HD
BRANCH  23  26
HETATM   26  C10 UNL     1       0.686  -0.121  -0.603  1.00  0.00     0.217 C 
BRANCH  26  27
HETATM   27  C11 UNL     1      -0.149  -0.609   0.564  1.00  0.00     0.080 C 
BRANCH  27  28
HETATM   28  C12 UNL     1      -1.607  -0.641   0.164  1.00  0.00    -0.053 A 
HETATM   29  C13 UNL     1      -2.180  -1.751  -0.376  1.00  0.00     0.024 A 
HETATM   30  C14 UNL     1      -3.507  -1.732  -0.726  1.00  0.00     0.091 A 
HETATM   31  N10 UNL     1      -4.281  -0.645  -0.557  1.00  0.00    -0.366 N 
HETATM   32  C23 UNL     1      -3.697   0.442  -0.023  1.00  0.00     0.091 A 
HETATM   33  C24 UNL     1      -2.374   0.486   0.349  1.00  0.00     0.024 A 
BRANCH  31  34
HETATM   34  C15 UNL     1      -5.694  -0.604  -0.917  1.00  0.00     0.128 C 
BRANCH  34  35
HETATM   35  C16 UNL     1      -6.488  -1.038   0.291  1.00  0.00     0.020 C 
BRANCH  35  36
HETATM   36  C17 UNL     1      -7.975  -1.037   0.054  1.00  0.00     0.002 C 
BRANCH  36  37
HETATM   37  C18 UNL     1      -8.471   0.357  -0.322  1.00  0.00     0.000 C 
BRANCH  37  38
HETATM   38  C19 UNL     1      -9.944   0.383  -0.556  1.00  0.00     0.000 C 
BRANCH  38  39
HETATM   39  C20 UNL     1     -10.788  -0.016   0.599  1.00  0.00     0.002 C 
BRANCH  39  40
HETATM   40  C21 UNL     1     -10.636   0.818   1.827  1.00  0.00     0.027 C 
BRANCH  40  41
HETATM   41  C22 UNL     1     -11.544   0.313   2.929  1.00  0.00     0.229 C 
BRANCH  41  42
HETATM   42  N11 UNL     1     -11.423   1.096   4.131  1.00  0.00    -0.079 N 
ATOM     43 3H11 UNL     1     -10.454   1.145   4.444  1.00  0.00     0.274 HD
ATOM     44 2H11 UNL     1     -11.583   2.086   3.945  1.00  0.00     0.274 HD
ATOM     45 1H11 UNL     1     -12.035   0.756   4.873  1.00  0.00     0.274 HD
ENDBRANCH  41  42
ENDBRANCH  40  41
ENDBRANCH  39  40
ENDBRANCH  38  39
ENDBRANCH  37  38
ENDBRANCH  36  37
ENDBRANCH  35  36
ENDBRANCH  34  35
ENDBRANCH  31  34
ENDBRANCH  27  28
ENDBRANCH  26  27
BRANCH  26  46
HETATM   46  O2  UNL     1       0.585  -0.930  -1.706  1.00  0.00    -0.374 OA
BRANCH  46  47
HETATM   47  C25 UNL     1       0.090  -0.283  -2.840  1.00  0.00     0.188 C 
BRANCH  47  48
HETATM   48  C26 UNL     1       0.044  -1.292  -3.942  1.00  0.00     0.150 C 
BRANCH  48  49
HETATM   49  N12 UNL     1      -0.448  -0.799  -5.197  1.00  0.00    -0.343 N 
HETATM   50  C27 UNL     1       0.204   0.244  -5.879  1.00  0.00     0.328 C 
HETATM   51  N13 UNL     1      -0.284   0.750  -7.137  1.00  0.00    -0.040 NA
HETATM   52  O3  UNL     1       1.241   0.802  -5.447  1.00  0.00    -0.251 OA
ATOM     53  H12 UNL     1      -1.287  -1.213  -5.602  1.00  0.00     0.163 HD
ENDBRANCH  48  49
ENDBRANCH  47  48
ENDBRANCH  46  47
ENDBRANCH  26  46
ENDBRANCH  23  26
ENDBRANCH  21  22
ENDBRANCH  20  21
ENDBRANCH  19  20
ENDBRANCH  17  19
TORSDOF 20
