REMARK  11 active torsions:
REMARK  status: ('A' for Active; 'I' for Inactive)
REMARK       I    between atoms: C2_2  and  N1_4 
REMARK    1  A    between atoms: N1_4  and  C3_6 
REMARK    2  A    between atoms: C5_10  and  C6_11 
REMARK    3  A    between atoms: C6_11  and  O2_12 
REMARK    4  A    between atoms: C6_11  and  N3_14 
REMARK    5  A    between atoms: N3_14  and  C7_16 
REMARK    6  A    between atoms: N4_19  and  C10_20 
REMARK    7  A    between atoms: C11_24  and  N6_25 
REMARK    8  A    between atoms: C13_31  and  N9_32 
REMARK    9  A    between atoms: N9_32  and  C14_34 
REMARK   10  A    between atoms: N12_37  and  N13_38 
REMARK   11  A    between atoms: C16_47  and  N16_48 
ROOT
HETATM    1  N6  UNL     1       0.929  -0.321  -1.151  1.00  0.00    -0.066 N 
HETATM    2  N7  UNL     1       1.865   0.597  -1.091  1.00  0.00    -0.261 N 
ATOM      3  H7  UNL     1       1.677   1.525  -1.471  1.00  0.00     0.189 HD
HETATM    4  C12 UNL     1       3.070   0.344  -0.539  1.00  0.00     0.181 A 
HETATM    5  N8  UNL     1       4.174   1.098  -0.360  1.00  0.00    -0.171 N 
ATOM      6  H8  UNL     1       4.301   2.072  -0.634  1.00  0.00     0.186 HD
HETATM    7  C13 UNL     1       5.076   0.306   0.253  1.00  0.00     0.684 A 
HETATM    8  N14 UNL     1       4.533  -0.906   0.443  1.00  0.00    -0.172 N 
ATOM      9  H14 UNL     1       5.002  -1.695   0.886  1.00  0.00     0.186 HD
HETATM   10  C15 UNL     1       3.268  -0.925  -0.042  1.00  0.00     0.182 A 
HETATM   11  N15 UNL     1       2.302  -1.854  -0.110  1.00  0.00    -0.171 N 
ATOM     12  H15 UNL     1       2.468  -2.789   0.263  1.00  0.00     0.186 HD
HETATM   13  C16 UNL     1       1.122  -1.557  -0.666  1.00  0.00     0.698 A 
ENDROOT
BRANCH   1  14
HETATM   14  C11 UNL     1      -0.341   0.010  -1.755  1.00  0.00     0.475 C 
HETATM   15  N5  UNL     1      -1.454  -0.772  -1.178  1.00  0.00     0.017 N 
HETATM   16  C10 UNL     1      -1.501   0.269  -0.157  1.00  0.00     0.446 C 
ATOM     17  H52 UNL     1      -1.355  -1.759  -0.940  1.00  0.00     0.287 HD
ATOM     18  H51 UNL     1      -2.275  -1.030  -1.726  1.00  0.00     0.287 HD
HETATM   19  O4  UNL     1      -0.999   1.122  -1.173  1.00  0.00    -0.291 OA
BRANCH  16  20
HETATM   20  N4  UNL     1      -2.776   0.608   0.374  1.00  0.00    -0.266 N 
HETATM   21  C3  UNL     1      -3.178   1.872   0.713  1.00  0.00     0.130 A 
HETATM   22  C4  UNL     1      -4.464   1.726   1.171  1.00  0.00     0.138 A 
HETATM   23  N2  UNL     1      -4.837   0.438   1.118  1.00  0.00    -0.348 N 
HETATM   24  C5  UNL     1      -3.791  -0.248   0.625  1.00  0.00     0.138 A 
ATOM     25  H2  UNL     1      -5.740   0.054   1.398  1.00  0.00     0.166 HD
BRANCH  21  26
HETATM   26  N1  UNL     1      -2.395   3.045   0.605  1.00  0.00    -0.312 N 
HETATM   27  C2  UNL     1      -2.828   4.324   0.946  1.00  0.00     0.219 C 
HETATM   28  C1  UNL     1      -1.960   5.539   0.827  1.00  0.00     0.117 C 
HETATM   29  O1  UNL     1      -3.980   4.527   1.377  1.00  0.00    -0.274 OA
ATOM     30  H1  UNL     1      -1.443   2.947   0.251  1.00  0.00     0.170 HD
ENDBRANCH  21  26
BRANCH  24  31
HETATM   31  C6  UNL     1      -3.861  -1.726   0.447  1.00  0.00     0.283 C 
BRANCH  31  32
HETATM   32  O2  UNL     1      -4.427  -2.295   1.605  1.00  0.00    -0.370 OA
ATOM     33  H2  UNL     1      -4.472  -3.237   1.492  1.00  0.00     0.212 HD
ENDBRANCH  31  32
BRANCH  31  34
HETATM   34  N3  UNL     1      -4.573  -2.168  -0.681  1.00  0.00    -0.387 N 
ATOM     35  H3  UNL     1      -4.102  -2.721  -1.397  1.00  0.00     0.156 HD
BRANCH  34  36
HETATM   36  C7  UNL     1      -5.941  -1.846  -0.822  1.00  0.00     0.071 C 
HETATM   37  C8  UNL     1      -6.745  -2.496   0.277  1.00  0.00     0.031 C 
HETATM   38  C9  UNL     1      -6.529  -2.377  -2.133  1.00  0.00     0.031 C 
ENDBRANCH  34  36
ENDBRANCH  31  34
ENDBRANCH  24  31
ENDBRANCH  16  20
ENDBRANCH   1  14
BRANCH  13  39
HETATM   39  N16 UNL     1       0.164  -2.454  -0.741  1.00  0.00    -0.233 N 
ATOM     40 2H16 UNL     1      -0.736  -2.228  -1.165  1.00  0.00     0.174 HD
ATOM     41 1H16 UNL     1       0.311  -3.394  -0.372  1.00  0.00     0.174 HD
ENDBRANCH  13  39
BRANCH   7  42
HETATM   42  N9  UNL     1       6.395   0.727   0.625  1.00  0.00    -0.182 N 
ATOM     43  H9  UNL     1       6.717   1.676   0.436  1.00  0.00     0.182 HD
BRANCH  42  44
HETATM   44  C14 UNL     1       7.251  -0.232   1.273  1.00  0.00     0.377 C 
HETATM   45  N10 UNL     1       7.404  -1.350   0.333  1.00  0.00    -0.073 NA
HETATM   46  N11 UNL     1       8.535  -0.931  -0.384  1.00  0.00    -0.005 NA
HETATM   47  N12 UNL     1       9.332  -0.295   0.563  1.00  0.00     0.006 NA
HETATM   48  O3  UNL     1       8.514   0.290   1.448  1.00  0.00    -0.223 OA
BRANCH  47  49
HETATM   49  N13 UNL     1      10.206   0.619  -0.044  1.00  0.00    -0.324 NA
ATOM     50 2H13 UNL     1      10.829   0.174  -0.718  1.00  0.00     0.174 HD
ATOM     51 1H13 UNL     1      10.790   1.085   0.650  1.00  0.00     0.174 HD
ENDBRANCH  47  49
ENDBRANCH  42  44
ENDBRANCH   7  42
TORSDOF 11
