REMARK  15 active torsions:
REMARK  status: ('A' for Active; 'I' for Inactive)
REMARK    1  A    between atoms: N1_1  and  C1_4 
REMARK    2  A    between atoms: C2_10  and  N4_11 
REMARK    3  A    between atoms: N4_11  and  C3_13 
REMARK    4  A    between atoms: C5_15  and  O2_16 
REMARK    5  A    between atoms: N5_18  and  C6_19 
REMARK    6  A    between atoms: C7_22  and  C8_23 
REMARK    7  A    between atoms: N7_25  and  C10_26 
REMARK    8  A    between atoms: C11_32  and  N10_33 
REMARK    9  A    between atoms: N14_42  and  C12_43 
REMARK   10  A    between atoms: C12_43  and  C13_44 
REMARK   11  A    between atoms: C13_44  and  O4_45 
REMARK   12  A    between atoms: C13_44  and  C14_47 
REMARK   13  A    between atoms: C14_47  and  O5_48 
REMARK   14  A    between atoms: C14_47  and  C15_50 
REMARK   15  A    between atoms: C15_50  and  O6_51 
ROOT
HETATM    1  C6  UNL     1      -0.178  -0.734   0.127  1.00  0.00     0.724 A 
HETATM    2  N6  UNL     1       0.896  -1.548  -0.097  1.00  0.00    -0.170 N 
ATOM      3  H6  UNL     1       0.850  -2.487  -0.492  1.00  0.00     0.186 HD
HETATM    4  C7  UNL     1       2.023  -0.921   0.283  1.00  0.00     0.166 A 
HETATM    5  N13 UNL     1       1.635   0.263   0.732  1.00  0.00    -0.266 N 
ATOM      6  H13 UNL     1       2.263   0.980   1.095  1.00  0.00     0.189 HD
HETATM    7  N14 UNL     1       0.303   0.388   0.643  1.00  0.00    -0.118 N 
ENDROOT
BRANCH   1   8
HETATM    8  N5  UNL     1      -1.542  -1.029  -0.136  1.00  0.00    -0.060 N 
HETATM    9  C5  UNL     1      -2.014  -1.431  -1.341  1.00  0.00     0.183 A 
HETATM   10  C4  UNL     1      -3.375  -1.635  -1.260  1.00  0.00     0.108 A 
HETATM   11  C3  UNL     1      -3.720  -1.342   0.041  1.00  0.00     0.126 A 
HETATM   12  N15 UNL     1      -2.585  -0.984   0.672  1.00  0.00    -0.262 N 
ATOM     13  H15 UNL     1      -2.537  -0.712   1.654  1.00  0.00     0.190 HD
BRANCH   9  14
HETATM   14  O2  UNL     1      -1.282  -1.622  -2.506  1.00  0.00    -0.344 OA
ATOM     15  H2  UNL     1      -0.344  -1.481  -2.562  1.00  0.00     0.219 HD
ENDBRANCH   9  14
BRANCH  11  16
HETATM   16  N4  UNL     1      -4.917  -1.416   0.503  1.00  0.00    -0.323 N 
ATOM     17  H4  UNL     1      -5.098  -1.183   1.479  1.00  0.00     0.169 HD
BRANCH  16  18
HETATM   18  C2  UNL     1      -5.984  -1.818  -0.331  1.00  0.00     0.175 A 
HETATM   19  C1  UNL     1      -6.384  -3.128  -0.497  1.00  0.00     0.167 A 
HETATM   20  N2  UNL     1      -7.415  -3.104  -1.356  1.00  0.00    -0.222 N 
HETATM   21  O1  UNL     1      -7.631  -1.873  -1.692  1.00  0.00    -0.153 OA
ATOM     22  H2  UNL     1      -7.938  -3.915  -1.687  1.00  0.00     0.198 HD
HETATM   23  N3  UNL     1      -6.799  -1.067  -1.103  1.00  0.00    -0.222 N 
ATOM     24  H3  UNL     1      -6.767  -0.053  -1.205  1.00  0.00     0.198 HD
BRANCH  19  25
HETATM   25  N1  UNL     1      -5.855  -4.159   0.073  1.00  0.00    -0.381 N 
ATOM     26  H12 UNL     1      -6.151  -5.127  -0.050  1.00  0.00     0.157 HD
ATOM     27  H11 UNL     1      -5.071  -4.177   0.726  1.00  0.00     0.157 HD
ENDBRANCH  19  25
ENDBRANCH  16  18
ENDBRANCH  11  16
ENDBRANCH   1   8
BRANCH   7  28
HETATM   28  C12 UNL     1      -0.397   1.564   1.053  1.00  0.00     0.202 C 
BRANCH  28  29
HETATM   29  C13 UNL     1      -0.521   2.575  -0.068  1.00  0.00     0.169 C 
BRANCH  29  30
HETATM   30  O4  UNL     1      -1.198   2.108  -1.172  1.00  0.00    -0.391 OA
ATOM     31  H4  UNL     1      -1.276   2.742  -1.875  1.00  0.00     0.210 HD
ENDBRANCH  29  30
BRANCH  29  32
HETATM   32  C14 UNL     1      -1.224   3.836   0.429  1.00  0.00     0.172 C 
BRANCH  32  33
HETATM   33  O5  UNL     1      -0.581   4.360   1.555  1.00  0.00    -0.391 OA
ATOM     34  H5  UNL     1      -1.018   5.145   1.864  1.00  0.00     0.210 HD
ENDBRANCH  32  33
BRANCH  32  35
HETATM   35  C15 UNL     1      -1.190   4.920  -0.628  1.00  0.00     0.198 C 
BRANCH  35  36
HETATM   36  O6  UNL     1      -1.843   4.375  -1.757  1.00  0.00    -0.398 OA
ATOM     37  H6  UNL     1      -1.822   5.055  -2.420  1.00  0.00     0.209 HD
ENDBRANCH  35  36
ENDBRANCH  32  35
ENDBRANCH  29  32
ENDBRANCH  28  29
ENDBRANCH   7  28
BRANCH   4  38
HETATM   38  C8  UNL     1       3.359  -1.491   0.187  1.00  0.00     0.113 A 
HETATM   39  C9  UNL     1       4.493  -0.817   0.587  1.00  0.00     0.154 A 
HETATM   40  N7  UNL     1       5.538  -1.636   0.358  1.00  0.00    -0.229 N 
HETATM   41  N11 UNL     1       5.098  -2.767  -0.158  1.00  0.00    -0.234 N 
HETATM   42  N12 UNL     1       3.762  -2.675  -0.261  1.00  0.00    -0.281 N 
ATOM     43  H11 UNL     1       5.669  -3.567  -0.430  1.00  0.00     0.209 HD
ATOM     44  H12 UNL     1       3.150  -3.404  -0.628  1.00  0.00     0.188 HD
BRANCH  40  45
HETATM   45  C10 UNL     1       6.891  -1.262   0.656  1.00  0.00     0.195 A 
HETATM   46  N8  UNL     1       7.519  -1.314   1.852  1.00  0.00    -0.220 N 
HETATM   47  O3  UNL     1       8.734  -0.889   1.704  1.00  0.00    -0.153 OA
ATOM     48  H8  UNL     1       7.105  -1.635   2.727  1.00  0.00     0.198 HD
HETATM   49  N9  UNL     1       8.974  -0.548   0.474  1.00  0.00    -0.222 N 
HETATM   50  C11 UNL     1       7.840  -0.768  -0.215  1.00  0.00     0.169 A 
ATOM     51  H9  UNL     1       9.852  -0.184   0.103  1.00  0.00     0.198 HD
BRANCH  50  52
HETATM   52  N10 UNL     1       7.658  -0.558  -1.473  1.00  0.00    -0.381 N 
ATOM     53 2H10 UNL     1       6.798  -0.725  -1.996  1.00  0.00     0.157 HD
ATOM     54 1H10 UNL     1       8.360  -0.193  -2.117  1.00  0.00     0.157 HD
ENDBRANCH  50  52
ENDBRANCH  40  45
ENDBRANCH   4  38
TORSDOF 15
