REMARK  3 active torsions:
REMARK  status: ('A' for Active; 'I' for Inactive)
REMARK    1  A    between atoms: C2_2  and  C4_4 
REMARK    2  A    between atoms: C4_4  and  C5_5 
REMARK    3  A    between atoms: C4_4  and  N2_9 
ROOT
HETATM    1  C4  UNL     1      -0.546   0.099  -0.844  1.00  0.00     0.124 C 
ENDROOT
BRANCH   1   2
HETATM    2  C2  UNL     1      -1.377  -0.506   0.231  1.00  0.00     0.005 C 
HETATM    3  C1  UNL     1      -0.834  -1.699   0.950  1.00  0.00     0.012 C 
HETATM    4  C3  UNL     1      -2.734  -0.990  -0.337  1.00  0.00     0.012 C 
ENDBRANCH   1   2
BRANCH   1   5
HETATM    5  C5  UNL     1      -1.275   1.287  -1.442  1.00  0.00     0.078 C 
HETATM    6  N1  UNL     1      -1.986   1.987  -0.668  1.00  0.00    -0.409 N 
ATOM      7  H12 UNL     1      -2.057   1.749   0.321  1.00  0.00     0.155 HD
ATOM      8  H11 UNL     1      -2.476   2.786  -1.070  1.00  0.00     0.155 HD
ENDBRANCH   1   5
BRANCH   1   9
HETATM    9  N2  UNL     1       0.797   0.331  -0.651  1.00  0.00    -0.380 N 
HETATM   10  C6  UNL     1       1.733  -0.689  -0.520  1.00  0.00     0.085 C 
HETATM   11  C7  UNL     1       2.788  -0.562   0.531  1.00  0.00     0.212 C 
HETATM   12  O1  UNL     1       2.567   0.312   1.538  1.00  0.00    -0.385 OA
HETATM   13  C8  UNL     1       1.603   1.256   1.366  1.00  0.00     0.187 C 
HETATM   14  C9  UNL     1       1.252   1.540  -0.073  1.00  0.00     0.149 C 
ENDBRANCH   1   9
TORSDOF 3
