REMARK  9 active torsions:
REMARK  status: ('A' for Active; 'I' for Inactive)
REMARK    1  A    between atoms: C2_2  and  C4_4 
REMARK    2  A    between atoms: C4_4  and  C5_5 
REMARK    3  A    between atoms: C4_4  and  N1_14 
REMARK    4  A    between atoms: C5_5  and  C6_6 
REMARK       I    between atoms: N1_14  and  C12_16 
REMARK       I    between atoms: C12_16  and  N2_18 
REMARK    5  A    between atoms: N2_18  and  C14_20 
REMARK    6  A    between atoms: C16_22  and  N3_23 
REMARK    7  A    between atoms: C19_29  and  N4_30 
REMARK    8  A    between atoms: N4_30  and  N5_32 
REMARK    9  A    between atoms: N5_32  and  N6_33 
ROOT
HETATM    1  N1  UNL     1       0.763   0.192  -0.704  1.00  0.00    -0.338 N 
ATOM      2  H1  UNL     1       0.636   0.731  -1.560  1.00  0.00     0.164 HD
HETATM    3  C12 UNL     1      -0.390  -0.221  -0.005  1.00  0.00     0.318 C 
HETATM    4  O1  UNL     1      -0.314  -0.896   1.072  1.00  0.00    -0.247 OA
HETATM    5  N2  UNL     1      -1.663   0.115  -0.502  1.00  0.00    -0.332 N 
HETATM    6  C13 UNL     1      -1.737   0.882  -1.722  1.00  0.00     0.155 C 
ENDROOT
BRANCH   5   7
HETATM    7  C14 UNL     1      -2.866  -0.303   0.203  1.00  0.00     0.115 C 
HETATM    8  C15 UNL     1      -3.609   0.898   0.687  1.00  0.00     0.060 C 
HETATM    9  C16 UNL     1      -5.087   0.655   0.882  1.00  0.00     0.185 C 
HETATM   10  C17 UNL     1      -5.768   0.143  -0.346  1.00  0.00     0.035 C 
HETATM   11  C18 UNL     1      -4.912  -0.695  -1.228  1.00  0.00     0.032 C 
HETATM   12  C19 UNL     1      -3.690  -1.263  -0.601  1.00  0.00     0.137 C 
BRANCH   9  13
HETATM   13  N3  UNL     1      -5.692   1.928   1.224  1.00  0.00    -0.075 N 
ATOM     14  H33 UNL     1      -5.252   2.376   2.028  1.00  0.00     0.274 HD
ATOM     15  H32 UNL     1      -5.495   2.660   0.541  1.00  0.00     0.274 HD
ATOM     16  H31 UNL     1      -6.690   1.764   1.356  1.00  0.00     0.274 HD
ENDBRANCH   9  13
BRANCH  12  17
HETATM   17  N4  UNL     1      -4.080  -2.446   0.153  1.00  0.00    -0.246 N 
ATOM     18  H4  UNL     1      -3.361  -2.956   0.665  1.00  0.00     0.197 HD
BRANCH  17  19
HETATM   19  N5  UNL     1      -5.227  -2.853   0.199  1.00  0.00    -0.248 NA
BRANCH  19  20
HETATM   20  N6  UNL     1      -6.314  -3.406   0.196  1.00  0.00    -0.261 N 
ATOM     21  H62 UNL     1      -5.803  -4.236  -0.106  1.00  0.00     0.193 HD
ATOM     22  H61 UNL     1      -7.275  -3.747   0.235  1.00  0.00     0.193 HD
ENDBRANCH  19  20
ENDBRANCH  17  19
ENDBRANCH  12  17
ENDBRANCH   5   7
BRANCH   1  23
HETATM   23  C4  UNL     1       2.128  -0.104  -0.278  1.00  0.00     0.093 C 
BRANCH  23  24
HETATM   24  C2  UNL     1       2.677  -1.100  -1.217  1.00  0.00     0.001 C 
HETATM   25  C1  UNL     1       3.949  -1.785  -0.825  1.00  0.00     0.011 C 
HETATM   26  C3  UNL     1       2.788  -0.561  -2.644  1.00  0.00     0.011 C 
ENDBRANCH  23  24
BRANCH  23  27
HETATM   27  C5  UNL     1       2.889   1.096   0.080  1.00  0.00     0.067 C 
BRANCH  27  28
HETATM   28  C6  UNL     1       4.184   0.950   0.757  1.00  0.00    -0.018 A 
HETATM   29  C7  UNL     1       5.402   1.137   0.141  1.00  0.00     0.011 A 
HETATM   30  C8  UNL     1       6.606   1.020   0.791  1.00  0.00     0.020 A 
HETATM   31  C9  UNL     1       6.656   0.702   2.120  1.00  0.00     0.013 A 
HETATM   32 BR1  UNL     1       8.325   0.532   3.052  1.00  0.00    -0.051 Br
HETATM   33  C10 UNL     1       5.463   0.505   2.785  1.00  0.00     0.061 A 
HETATM   34  C11 UNL     1       4.263   0.625   2.124  1.00  0.00     0.124 A 
HETATM   35  F1  UNL     1       3.097   0.433   2.769  1.00  0.00    -0.206 F 
ENDBRANCH  27  28
ENDBRANCH  23  27
ENDBRANCH   1  23
TORSDOF 9
