REMARK  7 active torsions:
REMARK  status: ('A' for Active; 'I' for Inactive)
REMARK    1  A    between atoms: C2_2  and  C3_3 
REMARK    2  A    between atoms: C6_10  and  O2_11 
REMARK    3  A    between atoms: C8_13  and  O3_14 
REMARK    4  A    between atoms: O3_14  and  C9_15 
REMARK    5  A    between atoms: C9_15  and  C10_16 
REMARK    6  A    between atoms: C10_16  and  N3_17 
REMARK    7  A    between atoms: N3_17  and  C11_19 
ROOT
HETATM    1  C3  UNL     1      -3.165   1.337  -0.318  1.00  0.00     0.056 A 
HETATM    2  C4  UNL     1      -3.825   0.732   0.701  1.00  0.00     0.132 A 
HETATM    3  N1  UNL     1      -5.031   1.346   1.201  1.00  0.00    -0.082 NA
HETATM    4  N2  UNL     1      -3.411  -0.431   1.294  1.00  0.00    -0.323 N 
ATOM      5  H2  UNL     1      -3.953  -0.838   2.056  1.00  0.00     0.169 HD
HETATM    6  C5  UNL     1      -2.284  -1.036   0.866  1.00  0.00     0.169 A 
HETATM    7  O1  UNL     1      -1.677  -2.138   1.260  1.00  0.00    -0.267 OA
HETATM    8  C6  UNL     1      -0.602  -2.346   0.563  1.00  0.00     0.222 A 
HETATM    9  C8  UNL     1      -0.479  -1.335  -0.348  1.00  0.00     0.146 A 
HETATM   10  C14 UNL     1      -1.565  -0.486  -0.158  1.00  0.00     0.105 A 
HETATM   11  C15 UNL     1      -1.983   0.668  -0.744  1.00  0.00     0.202 A 
HETATM   12  O4  UNL     1      -1.328   1.174  -1.698  1.00  0.00    -0.286 OA
ENDROOT
BRANCH   9  13
HETATM   13  O3  UNL     1       0.485  -1.067  -1.330  1.00  0.00    -0.340 OA
BRANCH  13  14
HETATM   14  C9  UNL     1       1.569  -0.175  -0.996  1.00  0.00     0.220 C 
BRANCH  14  15
HETATM   15  C10 UNL     1       2.369  -0.679   0.185  1.00  0.00     0.082 C 
BRANCH  15  16
HETATM   16  N3  UNL     1       3.383   0.230   0.534  1.00  0.00    -0.396 N 
ATOM     17  H3  UNL     1       3.348   0.739   1.418  1.00  0.00     0.159 HD
BRANCH  16  18
HETATM   18  C11 UNL     1       4.435   0.418  -0.357  1.00  0.00     0.081 A 
HETATM   19  C12 UNL     1       4.913   1.842  -0.660  1.00  0.00     0.027 A 
HETATM   20  C13 UNL     1       5.719   1.000   0.277  1.00  0.00     0.027 A 
ENDBRANCH  16  18
ENDBRANCH  15  16
ENDBRANCH  14  15
ENDBRANCH  13  14
ENDBRANCH   9  13
BRANCH   8  21
HETATM   21  O2  UNL     1       0.284  -3.426   0.716  1.00  0.00    -0.333 OA
HETATM   22  C7  UNL     1       0.052  -4.540  -0.142  1.00  0.00     0.212 C 
ENDBRANCH   8  21
BRANCH   1  23
HETATM   23  C2  UNL     1      -3.519   2.564  -0.973  1.00  0.00     0.009 C 
HETATM   24  C1  UNL     1      -4.582   3.262  -1.003  1.00  0.00     0.012 C 
ENDBRANCH   1  23
TORSDOF 7
