REMARK  2 active torsions:
REMARK  status: ('A' for Active; 'I' for Inactive)
REMARK    1  A    between atoms: O1_2  and  N1_3 
REMARK    2  A    between atoms: N1_3  and  C2_5 
ROOT
HETATM    1  C2  UNL     1       0.348   0.543  -0.260  1.00  0.00     0.110 C 
HETATM    2  C3  UNL     1      -0.199   0.404   1.161  1.00  0.00     0.032 C 
HETATM    3  C4  UNL     1      -1.607  -0.096   0.808  1.00  0.00    -0.012 C 
HETATM    4  C5  UNL     1      -2.275   0.820  -0.158  1.00  0.00     0.005 C 
HETATM    5  C6  UNL     1      -1.714   0.497  -1.546  1.00  0.00     0.007 C 
HETATM    6  C7  UNL     1      -0.481  -0.310  -1.144  1.00  0.00     0.010 C 
HETATM    7  C8  UNL     1      -1.163  -1.240  -0.124  1.00  0.00     0.011 C 
ENDROOT
BRANCH   1   8
HETATM    8  N1  UNL     1       1.752   0.320  -0.339  1.00  0.00    -0.298 N 
ATOM      9  H1  UNL     1       2.398   1.033  -0.677  1.00  0.00     0.188 HD
BRANCH   8  10
HETATM   10  O1  UNL     1       2.163  -0.878   0.057  1.00  0.00    -0.290 OA
HETATM   11  C1  UNL     1       3.384  -0.700   0.730  1.00  0.00     0.237 C 
ENDBRANCH   8  10
ENDBRANCH   1   8
TORSDOF 2
