REMARK  11 active torsions:
REMARK  status: ('A' for Active; 'I' for Inactive)
REMARK    1  A    between atoms: C2_2  and  C3_3 
REMARK    2  A    between atoms: C3_3  and  C4_4 
REMARK    3  A    between atoms: C3_3  and  N3_22 
REMARK    4  A    between atoms: C5_5  and  O1_6 
REMARK    5  A    between atoms: C5_5  and  N1_8 
REMARK    6  A    between atoms: C9_12  and  C10_13 
REMARK       I    between atoms: C10_13  and  N2_15 
REMARK    7  A    between atoms: N2_15  and  C11_17 
REMARK       I    between atoms: N3_22  and  C16_23 
REMARK       I    between atoms: N3_22  and  C25_33 
REMARK    8  A    between atoms: C16_23  and  C17_25 
REMARK    9  A    between atoms: C17_25  and  C18_26 
REMARK   10  A    between atoms: C25_33  and  C26_35 
REMARK   11  A    between atoms: C26_35  and  N4_36 
ROOT
HETATM    1  N3  UNL     1      -1.146  -0.103  -0.951  1.00  0.00    -0.255 N 
HETATM    2  C16 UNL     1      -1.541   0.840   0.017  1.00  0.00     0.231 C 
HETATM    3  O3  UNL     1      -0.666   1.658   0.472  1.00  0.00    -0.273 OA
HETATM    4  C25 UNL     1      -2.011  -1.003  -1.586  1.00  0.00     0.259 C 
HETATM    5  O4  UNL     1      -1.438  -1.841  -2.394  1.00  0.00    -0.271 OA
ENDROOT
BRANCH   1   6
HETATM    6  C3  UNL     1       0.303  -0.174  -1.322  1.00  0.00     0.026 C 
BRANCH   6   7
HETATM    7  C2  UNL     1       0.788   1.088  -1.866  1.00  0.00     0.053 C 
HETATM    8  C1  UNL     1       2.050   0.862  -2.716  1.00  0.00     0.011 C 
ENDBRANCH   6   7
BRANCH   6   9
HETATM    9  C4  UNL     1       1.117  -0.968  -0.367  1.00  0.00     0.081 C 
HETATM   10  C5  UNL     1       1.487  -0.502   0.937  1.00  0.00     0.139 C 
BRANCH  10  11
HETATM   11  O1  UNL     1       0.660  -0.790   1.900  1.00  0.00    -0.346 OA
ATOM     12  H1  UNL     1       0.905  -0.481   2.764  1.00  0.00     0.219 HD
ENDBRANCH  10  11
BRANCH  10  13
HETATM   13  N1  UNL     1       2.612   0.212   1.314  1.00  0.00    -0.361 N 
HETATM   14  C6  UNL     1       2.719   0.625   2.748  1.00  0.00     0.125 C 
HETATM   15  C7  UNL     1       3.481   1.942   2.750  1.00  0.00     0.021 C 
HETATM   16  C8  UNL     1       4.930   1.726   2.336  1.00  0.00     0.017 C 
HETATM   17  C9  UNL     1       4.987   0.512   1.437  1.00  0.00     0.096 C 
HETATM   18  C15 UNL     1       3.751   0.606   0.533  1.00  0.00     0.139 C 
BRANCH  17  19
HETATM   19  C10 UNL     1       6.244   0.462   0.674  1.00  0.00     0.224 C 
HETATM   20  O2  UNL     1       7.073   1.390   0.845  1.00  0.00    -0.273 OA
HETATM   21  N2  UNL     1       6.572  -0.568  -0.237  1.00  0.00    -0.353 N 
ATOM     22  H2  UNL     1       5.901  -1.323  -0.380  1.00  0.00     0.163 HD
BRANCH  21  23
HETATM   23  C11 UNL     1       7.799  -0.602  -0.967  1.00  0.00     0.022 C 
HETATM   24  C12 UNL     1       7.838  -1.838  -1.843  1.00  0.00     0.037 C 
HETATM   25  C13 UNL     1       8.953  -0.686  -0.009  1.00  0.00     0.037 C 
HETATM   26  C14 UNL     1       8.013   0.581  -1.883  1.00  0.00     0.037 C 
ENDBRANCH  21  23
ENDBRANCH  17  19
ENDBRANCH  10  13
ENDBRANCH   6   9
ENDBRANCH   1   6
BRANCH   2  27
HETATM   27  C17 UNL     1      -2.901   0.944   0.546  1.00  0.00     0.108 C 
BRANCH  27  28
HETATM   28  C18 UNL     1      -2.945   2.073   1.586  1.00  0.00    -0.002 C 
HETATM   29  C19 UNL     1      -2.584   3.357   0.945  1.00  0.00     0.005 C 
HETATM   30  C20 UNL     1      -3.568   4.484   1.160  1.00  0.00     0.000 C 
HETATM   31  C21 UNL     1      -4.195   4.540   2.502  1.00  0.00     0.000 C 
HETATM   32  C22 UNL     1      -4.117   3.286   3.313  1.00  0.00     0.004 C 
HETATM   33  C23 UNL     1      -4.241   2.117   2.329  1.00  0.00    -0.014 C 
HETATM   34  C24 UNL     1      -5.466   2.191   1.482  1.00  0.00     0.010 C 
ENDBRANCH  27  28
ENDBRANCH   2  27
BRANCH   4  35
HETATM   35  C26 UNL     1      -3.464  -1.160  -1.494  1.00  0.00     0.375 C 
BRANCH  35  36
HETATM   36  N4  UNL     1      -3.933  -2.298  -2.330  1.00  0.00     0.101 N 
HETATM   37  C27 UNL     1      -5.352  -2.331  -2.406  1.00  0.00     0.305 C 
HETATM   38  C28 UNL     1      -6.000  -2.910  -1.199  1.00  0.00     0.210 C 
HETATM   39  C29 UNL     1      -6.367  -1.842  -0.177  1.00  0.00     0.042 C 
HETATM   40  N5  UNL     1      -5.212  -3.948  -0.568  1.00  0.00    -0.064 N 
HETATM   41  C30 UNL     1      -4.363  -4.566  -1.564  1.00  0.00     0.210 C 
ATOM     42  H52 UNL     1      -4.683  -3.602   0.232  1.00  0.00     0.278 HD
ATOM     43  H51 UNL     1      -5.790  -4.628  -0.074  1.00  0.00     0.278 HD
HETATM   44  C31 UNL     1      -3.651  -5.780  -0.972  1.00  0.00     0.042 C 
HETATM   45  C32 UNL     1      -3.304  -3.506  -1.901  1.00  0.00     0.305 C 
ENDBRANCH  35  36
ENDBRANCH   4  35
TORSDOF 11
