REMARK  11 active torsions:
REMARK  status: ('A' for Active; 'I' for Inactive)
REMARK    1  A    between atoms: N1_1  and  C1_5 
REMARK    2  A    between atoms: C1_5  and  C2_6 
REMARK    3  A    between atoms: C2_6  and  C3_7 
REMARK       I    between atoms: C3_7  and  N2_9 
REMARK    4  A    between atoms: N2_9  and  C4_11 
REMARK    5  A    between atoms: C4_11  and  C5_12 
REMARK    6  A    between atoms: C5_12  and  C6_13 
REMARK    7  A    between atoms: C6_13  and  C7_14 
REMARK    8  A    between atoms: C7_14  and  C8_15 
REMARK    9  A    between atoms: C8_15  and  C9_16 
REMARK   10  A    between atoms: C9_16  and  N3_17 
REMARK   11  A    between atoms: C19_27  and  N4_28 
ROOT
HETATM    1  C9  UNL     1      -0.611  -0.977  -1.628  1.00  0.00     0.275 C 
ENDROOT
BRANCH   1   2
HETATM    2  C8  UNL     1       0.622  -1.535  -0.962  1.00  0.00     0.030 C 
BRANCH   2   3
HETATM    3  C7  UNL     1       1.426  -0.412  -0.339  1.00  0.00     0.002 C 
BRANCH   3   4
HETATM    4  C6  UNL     1       2.663  -0.923   0.345  1.00  0.00     0.002 C 
BRANCH   4   5
HETATM    5  C5  UNL     1       3.581  -1.637  -0.618  1.00  0.00     0.020 C 
BRANCH   5   6
HETATM    6  C4  UNL     1       4.785  -2.107   0.126  1.00  0.00     0.122 C 
BRANCH   6   7
HETATM    7  N2  UNL     1       5.502  -1.034   0.736  1.00  0.00    -0.361 N 
HETATM    8  C3  UNL     1       6.093  -0.004   0.007  1.00  0.00     0.219 C 
HETATM    9  O1  UNL     1       6.011   0.001  -1.250  1.00  0.00    -0.274 OA
ATOM     10  H2  UNL     1       5.586  -1.021   1.752  1.00  0.00     0.162 HD
BRANCH   8  11
HETATM   11  C2  UNL     1       6.827   1.102   0.720  1.00  0.00     0.130 C 
BRANCH  11  12
HETATM   12  C1  UNL     1       7.345   2.051  -0.307  1.00  0.00     0.238 C 
BRANCH  12  13
HETATM   13  N1  UNL     1       8.069   3.153   0.282  1.00  0.00    -0.079 N 
ATOM     14  H13 UNL     1       7.502   3.637   0.978  1.00  0.00     0.274 HD
ATOM     15  H12 UNL     1       8.819   2.820   0.887  1.00  0.00     0.274 HD
ATOM     16  H11 UNL     1       8.423   3.802  -0.420  1.00  0.00     0.274 HD
ENDBRANCH  12  13
ENDBRANCH  11  12
ENDBRANCH   8  11
ENDBRANCH   6   7
ENDBRANCH   5   6
ENDBRANCH   4   5
ENDBRANCH   3   4
ENDBRANCH   2   3
ENDBRANCH   1   2
BRANCH   1  17
HETATM   17  N3  UNL     1      -1.497  -0.281  -0.731  1.00  0.00     0.119 N 
HETATM   18  C10 UNL     1      -2.604   0.200  -1.499  1.00  0.00     0.276 C 
HETATM   19  C11 UNL     1      -3.957  -0.078  -0.941  1.00  0.00     0.040 C 
HETATM   20  C12 UNL     1      -4.023   0.263   0.515  1.00  0.00    -0.035 C 
HETATM   21  C13 UNL     1      -4.026   1.756   0.736  1.00  0.00     0.010 C 
HETATM   22  C17 UNL     1      -5.316  -0.339   1.073  1.00  0.00     0.010 C 
HETATM   23  C18 UNL     1      -2.883  -0.351   1.248  1.00  0.00     0.074 C 
HETATM   24  C14 UNL     1      -5.383   2.321   1.006  1.00  0.00     0.001 C 
HETATM   25  C15 UNL     1      -6.481   1.701   0.202  1.00  0.00     0.000 C 
HETATM   26  C16 UNL     1      -6.518   0.213   0.339  1.00  0.00     0.001 C 
HETATM   27  C19 UNL     1      -1.902  -1.082   0.397  1.00  0.00     0.417 C 
BRANCH  27  28
HETATM   28  N4  UNL     1      -2.413  -2.379   0.031  1.00  0.00    -0.048 N 
ATOM     29  H43 UNL     1      -3.176  -2.289  -0.640  1.00  0.00     0.276 HD
ATOM     30  H42 UNL     1      -1.738  -2.883  -0.545  1.00  0.00     0.276 HD
ATOM     31  H41 UNL     1      -2.700  -2.946   0.829  1.00  0.00     0.276 HD
ENDBRANCH  27  28
ENDBRANCH   1  17
TORSDOF 11
