REMARK  11 active torsions:
REMARK  status: ('A' for Active; 'I' for Inactive)
REMARK    1  A    between atoms: C2_2  and  C3_3 
REMARK    2  A    between atoms: C4_8  and  N3_9 
REMARK       I    between atoms: N3_9  and  C5_11 
REMARK    3  A    between atoms: C7_19  and  N8_20 
REMARK    4  A    between atoms: N8_20  and  C8_22 
REMARK    5  A    between atoms: C8_22  and  C9_23 
REMARK    6  A    between atoms: C9_23  and  C10_24 
REMARK    7  A    between atoms: C10_24  and  C11_25 
REMARK    8  A    between atoms: C11_25  and  C12_26 
REMARK    9  A    between atoms: C12_26  and  C13_27 
REMARK   10  A    between atoms: C13_27  and  C14_28 
REMARK   11  A    between atoms: C14_28  and  C15_29 
ROOT
HETATM    1  N3  UNL     1      -5.560   1.768   0.601  1.00  0.00    -0.161 N 
ATOM      2  H3  UNL     1      -5.048   2.559   0.991  1.00  0.00     0.187 HD
HETATM    3  C5  UNL     1      -6.956   1.854   0.531  1.00  0.00     0.215 C 
HETATM    4  N4  UNL     1      -7.788   1.191   1.469  1.00  0.00    -0.062 NA
HETATM    5  N5  UNL     1      -7.491   2.555  -0.411  1.00  0.00    -0.267 N 
ATOM      6  H5  UNL     1      -8.509   2.612  -0.454  1.00  0.00     0.180 HD
HETATM    7  C6  UNL     1      -6.752   3.237  -1.371  1.00  0.00     0.184 C 
HETATM    8  N6  UNL     1      -6.116   3.800  -2.179  1.00  0.00    -0.172 NA
ENDROOT
BRANCH   1   9
HETATM    9  C4  UNL     1      -4.881   0.738   0.197  1.00  0.00     0.701 A 
HETATM   10  N2  UNL     1      -5.456  -0.339  -0.324  1.00  0.00    -0.131 N 
HETATM   11  N1  UNL     1      -4.713  -1.348  -0.713  1.00  0.00    -0.283 N 
ATOM     12  H2  UNL     1      -6.470  -0.382  -0.421  1.00  0.00     0.205 HD
HETATM   13  C3  UNL     1      -3.353  -1.356  -0.611  1.00  0.00     0.092 A 
ATOM     14  H1  UNL     1      -5.175  -2.166  -1.111  1.00  0.00     0.187 HD
HETATM   15  C7  UNL     1      -2.717  -0.259  -0.077  1.00  0.00     0.149 A 
HETATM   16  N7  UNL     1      -3.572   0.778   0.316  1.00  0.00    -0.173 N 
ATOM     17  H7  UNL     1      -3.154   1.616   0.719  1.00  0.00     0.186 HD
BRANCH  13  18
HETATM   18  C2  UNL     1      -2.617  -2.535  -1.077  1.00  0.00     0.024 C 
HETATM   19  C1  UNL     1      -3.326  -3.544  -1.578  1.00  0.00     0.013 C 
ENDBRANCH  13  18
BRANCH  15  20
HETATM   20  N8  UNL     1      -1.522  -0.091   0.090  1.00  0.00    -0.354 N 
ATOM     21  H8  UNL     1      -1.445   0.837   0.507  1.00  0.00     0.166 HD
BRANCH  20  22
HETATM   22  C8  UNL     1      -0.261  -0.529  -0.006  1.00  0.00     0.062 C 
BRANCH  22  23
HETATM   23  C9  UNL     1       0.430  -0.367  -1.358  1.00  0.00     0.044 C 
BRANCH  23  24
HETATM   24  C10 UNL     1       1.822  -0.929  -1.270  1.00  0.00     0.005 C 
BRANCH  24  25
HETATM   25  C11 UNL     1       2.701  -0.274  -0.257  1.00  0.00     0.000 C 
BRANCH  25  26
HETATM   26  C12 UNL     1       4.064  -0.937  -0.297  1.00  0.00     0.000 C 
BRANCH  26  27
HETATM   27  C13 UNL     1       5.028  -0.351   0.691  1.00  0.00     0.000 C 
BRANCH  27  28
HETATM   28  C14 UNL     1       5.245   1.104   0.425  1.00  0.00    -0.000 C 
BRANCH  28  29
HETATM   29  C15 UNL     1       6.237   1.639   1.464  1.00  0.00    -0.005 C 
HETATM   30  C16 UNL     1       7.519   0.843   1.286  1.00  0.00     0.005 C 
ENDBRANCH  28  29
ENDBRANCH  27  28
ENDBRANCH  26  27
ENDBRANCH  25  26
ENDBRANCH  24  25
ENDBRANCH  23  24
ENDBRANCH  22  23
ENDBRANCH  20  22
ENDBRANCH  15  20
ENDBRANCH   1   9
TORSDOF 11
