REMARK  15 active torsions:
REMARK  status: ('A' for Active; 'I' for Inactive)
REMARK       I    between atoms: C2_2  and  N1_4 
REMARK    1  A    between atoms: N1_4  and  C3_6 
REMARK    2  A    between atoms: C3_6  and  C4_7 
REMARK    3  A    between atoms: C3_6  and  C14_42 
REMARK    4  A    between atoms: C5_10  and  O2_11 
REMARK    5  A    between atoms: C6_13  and  C7_14 
REMARK    6  A    between atoms: N3_15  and  C8_17 
REMARK    7  A    between atoms: C9_18  and  O3_19 
REMARK    8  A    between atoms: C11_23  and  N5_24 
REMARK    9  A    between atoms: N6_27  and  N7_28 
REMARK   10  A    between atoms: N7_28  and  C12_30 
REMARK   11  A    between atoms: C12_30  and  N8_31 
REMARK   12  A    between atoms: N8_31  and  N9_33 
REMARK   13  A    between atoms: N10_38  and  N11_39 
REMARK   14  A    between atoms: C14_42  and  O5_43 
REMARK   15  A    between atoms: C14_42  and  O6_45 
ROOT
HETATM    1  C4  UNL     1      -2.857  -0.704  -0.133  1.00  0.00     0.136 A 
HETATM    2  N2  UNL     1      -2.118   0.271   0.476  1.00  0.00    -0.322 N 
ATOM      3  H2  UNL     1      -2.593   1.059   0.916  1.00  0.00     0.169 HD
HETATM    4  C5  UNL     1      -0.799   0.210   0.504  1.00  0.00     0.158 A 
HETATM    5  C6  UNL     1      -0.146  -0.855  -0.090  1.00  0.00     0.100 A 
HETATM    6  C13 UNL     1      -0.914  -1.838  -0.705  1.00  0.00     0.283 A 
HETATM    7  O4  UNL     1      -0.361  -2.832  -1.262  1.00  0.00    -0.265 OA
HETATM    8  N10 UNL     1      -2.257  -1.759  -0.723  1.00  0.00    -0.211 N 
ENDROOT
BRANCH   5   9
HETATM    9  C7  UNL     1       1.310  -0.968  -0.086  1.00  0.00     0.111 C 
HETATM   10  N3  UNL     1       1.978  -0.038   0.493  1.00  0.00    -0.346 N 
ATOM     11  H3  UNL     1       1.503   0.750   0.933  1.00  0.00     0.167 HD
BRANCH  10  12
HETATM   12  C8  UNL     1       3.396  -0.133   0.506  1.00  0.00     0.198 A 
HETATM   13  C9  UNL     1       4.190  -1.034   1.206  1.00  0.00     0.204 A 
HETATM   14  N4  UNL     1       5.493  -0.810   0.964  1.00  0.00    -0.161 N 
HETATM   15  C10 UNL     1       6.633  -1.532   1.503  1.00  0.00     0.178 C 
HETATM   16  C11 UNL     1       5.523   0.241   0.105  1.00  0.00     0.703 A 
HETATM   17  N6  UNL     1       4.269   0.638  -0.163  1.00  0.00    -0.057 N 
BRANCH  13  18
HETATM   18  O3  UNL     1       3.673  -2.020   2.034  1.00  0.00    -0.343 OA
ATOM     19  H3  UNL     1       4.216  -2.636   2.512  1.00  0.00     0.219 HD
ENDBRANCH  13  18
BRANCH  16  20
HETATM   20  N5  UNL     1       6.630   0.728  -0.342  1.00  0.00    -0.232 N 
ATOM     21  H52 UNL     1       7.583   0.426  -0.138  1.00  0.00     0.174 HD
ATOM     22  H51 UNL     1       6.653   1.518  -0.987  1.00  0.00     0.174 HD
ENDBRANCH  16  20
BRANCH  17  23
HETATM   23  N7  UNL     1       3.906   1.688  -1.003  1.00  0.00    -0.226 N 
ATOM     24  H7  UNL     1       3.488   1.465  -1.906  1.00  0.00     0.199 HD
BRANCH  23  25
HETATM   25  C12 UNL     1       4.072   2.916  -0.696  1.00  0.00     0.084 C 
BRANCH  25  26
HETATM   26  N8  UNL     1       4.591   4.090  -0.572  1.00  0.00    -0.256 N 
ATOM     27  H8  UNL     1       4.513   4.759  -1.338  1.00  0.00     0.197 HD
BRANCH  26  28
HETATM   28  N9  UNL     1       5.253   4.452   0.589  1.00  0.00    -0.337 N 
ATOM     29  H92 UNL     1       5.322   3.771   1.345  1.00  0.00     0.177 HD
ATOM     30  H91 UNL     1       5.664   5.381   0.687  1.00  0.00     0.177 HD
ENDBRANCH  26  28
ENDBRANCH  25  26
ENDBRANCH  23  25
ENDBRANCH  17  23
ENDBRANCH  10  12
ENDBRANCH   5   9
BRANCH   4  31
HETATM   31  O2  UNL     1      -0.015   1.185   1.115  1.00  0.00    -0.345 OA
ATOM     32  H2  UNL     1       0.934   1.141   1.135  1.00  0.00     0.219 HD
ENDBRANCH   4  31
BRANCH   8  33
HETATM   33  N11 UNL     1      -3.042  -2.737  -1.336  1.00  0.00    -0.334 N 
ATOM     34 2H11 UNL     1      -4.060  -2.677  -1.350  1.00  0.00     0.177 HD
ATOM     35 1H11 UNL     1      -2.588  -3.534  -1.782  1.00  0.00     0.177 HD
ENDBRANCH   8  33
BRANCH   1  36
HETATM   36  C3  UNL     1      -4.333  -0.640  -0.166  1.00  0.00     0.209 C 
BRANCH  36  37
HETATM   37  N1  UNL     1      -4.741   0.727  -0.517  1.00  0.00    -0.345 N 
HETATM   38  C2  UNL     1      -5.471   1.019  -1.681  1.00  0.00     0.214 C 
HETATM   39  C1  UNL     1      -5.869   2.398  -2.010  1.00  0.00     0.117 C 
HETATM   40  O1  UNL     1      -5.793   0.095  -2.456  1.00  0.00    -0.274 OA
ATOM     41  H1  UNL     1      -4.485   1.492   0.107  1.00  0.00     0.163 HD
ENDBRANCH  36  37
BRANCH  36  42
HETATM   42  C14 UNL     1      -4.965  -0.958   1.169  1.00  0.00     0.284 C 
BRANCH  42  43
HETATM   43  O5  UNL     1      -4.657  -2.226   1.617  1.00  0.00    -0.369 OA
ATOM     44  H5  UNL     1      -5.054  -2.426   2.456  1.00  0.00     0.212 HD
ENDBRANCH  42  43
BRANCH  42  45
HETATM   45  O6  UNL     1      -6.346  -0.880   1.013  1.00  0.00    -0.369 OA
ATOM     46  H6  UNL     1      -6.743  -1.080   1.852  1.00  0.00     0.212 HD
ENDBRANCH  42  45
ENDBRANCH  36  42
ENDBRANCH   1  36
TORSDOF 15
