REMARK  19 active torsions:
REMARK  status: ('A' for Active; 'I' for Inactive)
REMARK    1  A    between atoms: N1_1  and  O1_4 
REMARK    2  A    between atoms: O1_4  and  C1_5 
REMARK    3  A    between atoms: C1_5  and  O2_6 
REMARK    4  A    between atoms: C1_5  and  N2_8 
REMARK    5  A    between atoms: N2_8  and  C2_10 
REMARK    6  A    between atoms: C3_11  and  C4_12 
REMARK    7  A    between atoms: C6_14  and  C7_15 
REMARK    8  A    between atoms: C7_15  and  O3_16 
REMARK    9  A    between atoms: C7_15  and  O4_18 
REMARK   10  A    between atoms: C8_21  and  N3_22 
REMARK   11  A    between atoms: N3_22  and  C9_24 
REMARK   12  A    between atoms: C10_25  and  O6_26 
REMARK   13  A    between atoms: C11_28  and  O7_29 
REMARK   14  A    between atoms: C12_31  and  O8_32 
REMARK   15  A    between atoms: C13_34  and  O9_35 
REMARK   16  A    between atoms: C14_37  and  O10_38 
REMARK   17  A    between atoms: C15_41  and  C16_42 
REMARK   18  A    between atoms: C16_42  and  N4_43 
REMARK   19  A    between atoms: C16_42  and  O12_47 
ROOT
HETATM    1  C4  UNL     1      -0.980  -0.851   0.200  1.00  0.00     0.054 A 
HETATM    2  C5  UNL     1      -1.121  -1.500   1.454  1.00  0.00     0.056 A 
HETATM    3  C6  UNL     1       0.105  -1.498   2.034  1.00  0.00     0.111 A 
HETATM    4  O5  UNL     1       0.918  -0.916   1.234  1.00  0.00    -0.292 OA
HETATM    5  C8  UNL     1       0.323  -0.507   0.110  1.00  0.00     0.157 A 
ENDROOT
BRANCH   1   6
HETATM    6  C3  UNL     1      -2.127  -0.759  -0.685  1.00  0.00     0.124 A 
HETATM    7  C2  UNL     1      -2.523   0.296  -1.440  1.00  0.00     0.136 A 
HETATM    8  C17 UNL     1      -3.670   0.199  -2.230  1.00  0.00     0.276 A 
HETATM    9  N5  UNL     1      -4.368  -0.927  -2.234  1.00  0.00    -0.302 N 
HETATM   10  O13 UNL     1      -4.036   1.163  -2.928  1.00  0.00    -0.266 OA
HETATM   11  C15 UNL     1      -3.969  -1.959  -1.482  1.00  0.00     0.183 A 
ATOM     12  H5  UNL     1      -5.207  -1.007  -2.809  1.00  0.00     0.171 HD
HETATM   13  O11 UNL     1      -2.914  -1.855  -0.764  1.00  0.00    -0.289 OA
BRANCH   7  14
HETATM   14  N2  UNL     1      -1.873   1.580  -1.413  1.00  0.00    -0.334 N 
ATOM     15  H2  UNL     1      -1.144   1.795  -2.094  1.00  0.00     0.164 HD
BRANCH  14  16
HETATM   16  C1  UNL     1      -2.250   2.571  -0.421  1.00  0.00     0.394 C 
BRANCH  16  17
HETATM   17  O1  UNL     1      -1.468   3.701  -0.603  1.00  0.00    -0.234 OA
BRANCH  17  18
HETATM   18  N1  UNL     1      -2.194   4.808  -0.892  1.00  0.00    -0.306 N 
ATOM     19  H12 UNL     1      -3.211   4.795  -0.965  1.00  0.00     0.184 HD
ATOM     20  H11 UNL     1      -1.619   5.639  -1.026  1.00  0.00     0.184 HD
ENDBRANCH  17  18
ENDBRANCH  16  17
BRANCH  16  21
HETATM   21  O2  UNL     1      -2.076   2.105   0.858  1.00  0.00    -0.353 OA
ATOM     22  H2  UNL     1      -2.612   1.331   0.983  1.00  0.00     0.214 HD
ENDBRANCH  16  21
ENDBRANCH  14  16
ENDBRANCH   7  14
BRANCH  11  23
HETATM   23  C16 UNL     1      -4.792  -3.221  -1.513  1.00  0.00     0.392 C 
BRANCH  23  24
HETATM   24  N4  UNL     1      -6.199  -2.898  -1.415  1.00  0.00    -0.045 N 
ATOM     25  H43 UNL     1      -6.404  -2.328  -0.594  1.00  0.00     0.277 HD
ATOM     26  H42 UNL     1      -6.490  -2.235  -2.133  1.00  0.00     0.277 HD
ATOM     27  H41 UNL     1      -6.756  -3.752  -1.436  1.00  0.00     0.277 HD
ENDBRANCH  23  24
BRANCH  23  28
HETATM   28  O12 UNL     1      -4.402  -4.045  -0.437  1.00  0.00    -0.364 OA
ATOM     29  H12 UNL     1      -4.921  -4.841  -0.457  1.00  0.00     0.212 HD
ENDBRANCH  23  28
ENDBRANCH  11  23
ENDBRANCH   1   6
BRANCH   5  30
HETATM   30  N3  UNL     1       1.014   0.146  -0.949  1.00  0.00    -0.360 N 
ATOM     31  H3  UNL     1       0.519   0.313  -1.825  1.00  0.00     0.162 HD
BRANCH  30  32
HETATM   32  C9  UNL     1       2.382   0.581  -0.836  1.00  0.00     0.146 C 
HETATM   33  C10 UNL     1       2.550   1.700   0.111  1.00  0.00     0.174 C 
HETATM   34  C11 UNL     1       3.755   1.676   0.995  1.00  0.00     0.180 C 
HETATM   35  C12 UNL     1       4.989   1.114   0.368  1.00  0.00     0.180 C 
HETATM   36  C13 UNL     1       4.718   0.036  -0.647  1.00  0.00     0.180 C 
HETATM   37  C14 UNL     1       3.310  -0.551  -0.438  1.00  0.00     0.174 C 
BRANCH  33  38
HETATM   38  O6  UNL     1       1.399   1.835   0.883  1.00  0.00    -0.391 OA
ATOM     39  H6  UNL     1       1.507   2.555   1.493  1.00  0.00     0.210 HD
ENDBRANCH  33  38
BRANCH  34  40
HETATM   40  O7  UNL     1       3.492   1.056   2.213  1.00  0.00    -0.390 OA
ATOM     41  H7  UNL     1       4.258   1.041   2.775  1.00  0.00     0.210 HD
ENDBRANCH  34  40
BRANCH  35  42
HETATM   42  O8  UNL     1       5.757   2.115  -0.226  1.00  0.00    -0.390 OA
ATOM     43  H8  UNL     1       6.542   1.758  -0.625  1.00  0.00     0.210 HD
ENDBRANCH  35  42
BRANCH  36  44
HETATM   44  O9  UNL     1       4.794   0.570  -1.932  1.00  0.00    -0.390 OA
ATOM     45  H9  UNL     1       4.623  -0.110  -2.573  1.00  0.00     0.210 HD
ENDBRANCH  36  44
BRANCH  37  46
HETATM   46  O10 UNL     1       3.214  -1.635  -1.300  1.00  0.00    -0.391 OA
ATOM     47  H10 UNL     1       3.795  -2.344  -1.051  1.00  0.00     0.210 HD
ENDBRANCH  37  46
ENDBRANCH  30  32
ENDBRANCH   5  30
BRANCH   3  48
HETATM   48  C7  UNL     1       0.494  -2.059   3.367  1.00  0.00     0.312 C 
BRANCH  48  49
HETATM   49  O3  UNL     1      -0.459  -1.682   4.313  1.00  0.00    -0.365 OA
ATOM     50  H3  UNL     1      -0.212  -2.038   5.159  1.00  0.00     0.213 HD
ENDBRANCH  48  49
BRANCH  48  51
HETATM   51  O4  UNL     1       0.406  -3.451   3.242  1.00  0.00    -0.365 OA
ATOM     52  H4  UNL     1       0.653  -3.807   4.088  1.00  0.00     0.213 HD
ENDBRANCH  48  51
ENDBRANCH   3  48
TORSDOF 19
