REMARK  11 active torsions:
REMARK  status: ('A' for Active; 'I' for Inactive)
REMARK    1  A    between atoms: N2_8  and  C5_9 
REMARK    2  A    between atoms: C5_9  and  C6_10 
REMARK    3  A    between atoms: C6_10  and  O2_11 
REMARK    4  A    between atoms: N3_13  and  C7_15 
REMARK    5  A    between atoms: C8_18  and  C9_19 
REMARK    6  A    between atoms: C9_19  and  C10_20 
REMARK    7  A    between atoms: C14_24  and  N5_25 
REMARK       I    between atoms: N5_25  and  C15_27 
REMARK    8  A    between atoms: C15_27  and  C16_29 
REMARK    9  A    between atoms: C21_36  and  O4_37 
REMARK   10  A    between atoms: C23_43  and  C24_44 
REMARK   11  A    between atoms: C24_44  and  C25_45 
ROOT
HETATM    1  C7  UNL     1      -2.191   0.333   0.997  1.00  0.00     0.135 A 
HETATM    2  N4  UNL     1      -1.431   0.334  -0.108  1.00  0.00    -0.336 N 
ATOM      3  H4  UNL     1      -1.792  -0.093  -0.961  1.00  0.00     0.168 HD
HETATM    4  C8  UNL     1      -0.192   0.890  -0.117  1.00  0.00     0.103 A 
HETATM    5  C22 UNL     1       0.308   1.469   1.023  1.00  0.00     0.272 A 
HETATM    6  O5  UNL     1       1.466   2.008   1.077  1.00  0.00    -0.266 OA
HETATM    7  N7  UNL     1      -0.451   1.470   2.136  1.00  0.00    -0.318 N 
ATOM      8  H7  UNL     1      -0.080   1.899   2.984  1.00  0.00     0.169 HD
HETATM    9  C23 UNL     1      -1.669   0.931   2.169  1.00  0.00     0.082 A 
ENDROOT
BRANCH   4  10
HETATM   10  C9  UNL     1       0.519   0.862  -1.232  1.00  0.00     0.049 C 
BRANCH  10  11
HETATM   11  C10 UNL     1       1.841   1.399  -1.422  1.00  0.00     0.002 A 
HETATM   12  C11 UNL     1       1.965   2.687  -1.870  1.00  0.00     0.014 A 
HETATM   13  C12 UNL     1       3.210   3.228  -2.072  1.00  0.00     0.003 A 
HETATM   14  C13 UNL     1       4.341   2.441  -1.814  1.00  0.00     0.032 A 
HETATM   15  C14 UNL     1       4.260   1.149  -1.367  1.00  0.00     0.069 A 
HETATM   16  C21 UNL     1       2.992   0.643  -1.175  1.00  0.00     0.102 A 
BRANCH  15  17
HETATM   17  N5  UNL     1       5.398   0.360  -1.105  1.00  0.00    -0.320 N 
HETATM   18  C15 UNL     1       6.754   0.717  -1.249  1.00  0.00     0.257 C 
HETATM   19  O3  UNL     1       7.194   1.820  -1.647  1.00  0.00    -0.267 OA
ATOM     20  H5  UNL     1       5.218  -0.586  -0.770  1.00  0.00     0.169 HD
BRANCH  18  21
HETATM   21  C16 UNL     1       7.830  -0.262  -0.916  1.00  0.00     0.047 A 
HETATM   22  C17 UNL     1       9.088  -0.111  -1.460  1.00  0.00     0.020 A 
HETATM   23  C18 UNL     1      10.098  -0.996  -1.163  1.00  0.00     0.018 A 
HETATM   24  C19 UNL     1       9.855  -2.053  -0.308  1.00  0.00     0.087 A 
HETATM   25  N6  UNL     1       8.616  -2.159   0.198  1.00  0.00    -0.374 N 
HETATM   26  C20 UNL     1       7.605  -1.314  -0.069  1.00  0.00     0.104 A 
ATOM     27  H6  UNL     1       8.428  -2.937   0.831  1.00  0.00     0.164 HD
ENDBRANCH  18  21
ENDBRANCH  15  17
BRANCH  16  28
HETATM   28  O4  UNL     1       2.794  -0.625  -0.734  1.00  0.00    -0.357 OA
ATOM     29  H4  UNL     1       3.576  -1.138  -0.566  1.00  0.00     0.217 HD
ENDBRANCH  16  28
ENDBRANCH  10  11
ENDBRANCH   4  10
BRANCH   1  30
HETATM   30  N3  UNL     1      -3.325  -0.148   1.093  1.00  0.00    -0.323 N 
HETATM   31  C6  UNL     1      -4.196  -0.792   0.275  1.00  0.00     0.137 C 
ATOM     32  H3  UNL     1      -3.706  -0.031   2.032  1.00  0.00     0.169 HD
BRANCH  31  33
HETATM   33  C5  UNL     1      -4.078  -1.250  -1.119  1.00  0.00     0.232 C 
BRANCH  33  34
HETATM   34  N2  UNL     1      -5.307  -1.924  -1.565  1.00  0.00    -0.292 N 
HETATM   35  N1  UNL     1      -5.460  -3.235  -1.408  1.00  0.00    -0.264 N 
HETATM   36  C4  UNL     1      -6.564  -3.894  -1.799  1.00  0.00     0.260 A 
ATOM     37  H1  UNL     1      -4.706  -3.765  -0.971  1.00  0.00     0.190 HD
HETATM   38  C3  UNL     1      -7.579  -3.171  -2.389  1.00  0.00     0.084 A 
HETATM   39  O1  UNL     1      -6.726  -5.133  -1.658  1.00  0.00    -0.267 OA
HETATM   40  C2  UNL     1      -7.440  -1.793  -2.563  1.00  0.00    -0.040 A 
HETATM   41  C1  UNL     1      -8.542  -1.021  -3.200  1.00  0.00     0.050 C 
HETATM   42  C29 UNL     1      -6.278  -1.208  -2.133  1.00  0.00     0.117 A 
ENDBRANCH  33  34
ENDBRANCH  31  33
BRANCH  31  43
HETATM   43  O2  UNL     1      -5.368  -1.070   0.802  1.00  0.00    -0.348 OA
ATOM     44  H2  UNL     1      -5.444  -0.774   1.702  1.00  0.00     0.219 HD
ENDBRANCH  31  43
ENDBRANCH   1  30
BRANCH   9  45
HETATM   45  C24 UNL     1      -2.421   0.922   3.249  1.00  0.00     0.063 C 
BRANCH  45  46
HETATM   46  C25 UNL     1      -2.025   1.491   4.510  1.00  0.00     0.034 A 
HETATM   47  C26 UNL     1      -2.470   2.679   5.029  1.00  0.00     0.031 A 
HETATM   48  C27 UNL     1      -1.853   2.877   6.267  1.00  0.00     0.019 A 
HETATM   49  C28 UNL     1      -1.046   1.785   6.452  1.00  0.00     0.088 A 
HETATM   50  N8  UNL     1      -1.164   0.970   5.391  1.00  0.00    -0.366 N 
ATOM     51  H8  UNL     1      -0.670   0.085   5.274  1.00  0.00     0.165 HD
ENDBRANCH  45  46
ENDBRANCH   9  45
TORSDOF 11
