REMARK  2 active torsions:
REMARK  status: ('A' for Active; 'I' for Inactive)
REMARK       I    between atoms: C1_4  and  N3_6 
REMARK       I    between atoms: C2_8  and  N5_10 
REMARK    1  A    between atoms: C6_15  and  C7_16 
REMARK       I    between atoms: C7_16  and  N6_18 
REMARK    2  A    between atoms: N6_18  and  N7_20 
REMARK       I    between atoms: N7_20  and  C8_22 
ROOT
HETATM    1  N1  UNL     1      -3.518   2.299  -1.451  1.00  0.00    -0.373 N 
ATOM      2  H11 UNL     1      -3.008   1.956  -2.265  1.00  0.00     0.158 HD
ATOM      3  H12 UNL     1      -4.014   3.188  -1.511  1.00  0.00     0.158 HD
HETATM    4  C1  UNL     1      -3.497   1.572  -0.387  1.00  0.00     0.188 C 
HETATM    5  N2  UNL     1      -4.209   2.051   0.749  1.00  0.00    -0.064 NA
HETATM    6  N3  UNL     1      -2.809   0.340  -0.304  1.00  0.00    -0.305 N 
ATOM      7  H3  UNL     1      -3.362  -0.516  -0.282  1.00  0.00     0.171 HD
HETATM    8  C2  UNL     1      -1.504   0.230  -0.254  1.00  0.00     0.193 C 
HETATM    9  N4  UNL     1      -0.816   1.472  -0.291  1.00  0.00    -0.063 NA
HETATM   10  N5  UNL     1      -0.889  -1.032  -0.168  1.00  0.00    -0.338 N 
HETATM   11  C3  UNL     1      -1.678  -2.204  -0.571  1.00  0.00     0.152 C 
HETATM   12  C4  UNL     1      -1.377  -3.224   0.541  1.00  0.00     0.187 C 
HETATM   13  O1  UNL     1      -0.942  -2.605   1.705  1.00  0.00    -0.387 OA
HETATM   14  C5  UNL     1       0.352  -2.121   1.596  1.00  0.00     0.202 C 
HETATM   15  C6  UNL     1       0.433  -1.329   0.283  1.00  0.00     0.204 C 
ENDROOT
BRANCH  15  16
HETATM   16  C7  UNL     1       1.368  -0.216   0.380  1.00  0.00     0.261 C 
HETATM   17  O2  UNL     1       1.416   0.472   1.426  1.00  0.00    -0.269 OA
HETATM   18  N6  UNL     1       2.235   0.115  -0.686  1.00  0.00    -0.265 N 
ATOM     19  H6  UNL     1       2.194  -0.446  -1.537  1.00  0.00     0.190 HD
BRANCH  18  20
HETATM   20  N7  UNL     1       3.143   1.171  -0.630  1.00  0.00    -0.251 N 
HETATM   21  C8  UNL     1       4.409   1.060   0.018  1.00  0.00     0.347 C 
HETATM   22  N8  UNL     1       5.282   2.180   0.032  1.00  0.00    -0.038 NA
HETATM   23  O3  UNL     1       4.782   0.002   0.578  1.00  0.00    -0.249 OA
ATOM     24  H7  UNL     1       2.893   2.057  -1.069  1.00  0.00     0.191 HD
ENDBRANCH  18  20
ENDBRANCH  15  16
TORSDOF 2
