REMARK  17 active torsions:
REMARK  status: ('A' for Active; 'I' for Inactive)
REMARK    1  A    between atoms: C2_2  and  C3_3 
REMARK    2  A    between atoms: C3_3  and  C4_4 
REMARK    3  A    between atoms: C4_4  and  C5_5 
REMARK    4  A    between atoms: C5_5  and  C6_6 
REMARK    5  A    between atoms: C6_6  and  C7_7 
REMARK    6  A    between atoms: C7_7  and  C8_8 
REMARK    7  A    between atoms: C8_8  and  C9_9 
REMARK    8  A    between atoms: C13_13  and  C14_14 
REMARK    9  A    between atoms: C14_14  and  O1_15 
REMARK   10  A    between atoms: C14_14  and  N1_17 
REMARK   11  A    between atoms: C17_20  and  O2_21 
REMARK   12  A    between atoms: C23_28  and  C24_29 
REMARK       I    between atoms: C24_29  and  N2_31 
REMARK   13  A    between atoms: N2_31  and  C25_33 
REMARK   14  A    between atoms: C25_33  and  C26_34 
REMARK   15  A    between atoms: C26_34  and  C27_35 
REMARK   16  A    between atoms: C30_38  and  O4_39 
REMARK   17  A    between atoms: C31_41  and  O5_42 
ROOT
HETATM    1  C8  UNL     1       1.251   0.899  -0.620  1.00  0.00     0.015 C 
HETATM    2  C11 UNL     1       0.003   0.029  -0.750  1.00  0.00    -0.039 A 
HETATM    3  C12 UNL     1       0.157  -1.320  -0.561  1.00  0.00     0.024 A 
HETATM    4  C13 UNL     1      -0.927  -2.242  -0.641  1.00  0.00     0.015 A 
HETATM    5  C20 UNL     1      -2.151  -1.751  -0.918  1.00  0.00     0.016 A 
HETATM    6  C21 UNL     1      -2.293  -0.370  -1.109  1.00  0.00     0.009 A 
HETATM    7  C22 UNL     1      -1.230   0.503  -1.026  1.00  0.00    -0.035 A 
HETATM    8  C23 UNL     1      -1.550   1.931  -1.283  1.00  0.00     0.142 C 
HETATM    9  C30 UNL     1      -0.310   2.571  -1.765  1.00  0.00     0.165 C 
HETATM   10  C31 UNL     1       0.912   2.354  -0.983  1.00  0.00     0.161 C 
ENDROOT
BRANCH   4  11
HETATM   11  C14 UNL     1      -0.627  -3.635  -0.476  1.00  0.00     0.148 C 
BRANCH  11  12
HETATM   12  O1  UNL     1       0.659  -3.978  -0.492  1.00  0.00    -0.346 OA
ATOM     13  H1  UNL     1       0.858  -4.901  -0.383  1.00  0.00     0.219 HD
ENDBRANCH  11  12
BRANCH  11  14
HETATM   14  N1  UNL     1      -1.488  -4.711  -0.293  1.00  0.00    -0.361 N 
HETATM   15  C15 UNL     1      -2.907  -4.673  -0.187  1.00  0.00     0.127 C 
HETATM   16  C16 UNL     1      -3.381  -5.986   0.477  1.00  0.00     0.051 C 
HETATM   17  C17 UNL     1      -3.094  -7.131  -0.450  1.00  0.00     0.121 C 
HETATM   18  C18 UNL     1      -1.725  -6.960  -1.104  1.00  0.00     0.051 C 
HETATM   19  C19 UNL     1      -0.893  -6.083  -0.205  1.00  0.00     0.127 C 
BRANCH  17  20
HETATM   20  O2  UNL     1      -4.052  -7.113  -1.455  1.00  0.00    -0.395 OA
ATOM     21  H2  UNL     1      -3.870  -7.838  -2.042  1.00  0.00     0.210 HD
ENDBRANCH  17  20
ENDBRANCH  11  14
ENDBRANCH   4  11
BRANCH   1  22
HETATM   22  C7  UNL     1       2.197   0.337  -1.591  1.00  0.00     0.017 C 
BRANCH  22  23
HETATM   23  C6  UNL     1       3.542   0.887  -1.799  1.00  0.00     0.001 C 
BRANCH  23  24
HETATM   24  C5  UNL     1       4.585   0.805  -0.767  1.00  0.00     0.000 C 
BRANCH  24  25
HETATM   25  C4  UNL     1       4.930  -0.681  -0.568  1.00  0.00     0.000 C 
BRANCH  25  26
HETATM   26  C3  UNL     1       5.951  -0.911   0.487  1.00  0.00    -0.000 C 
BRANCH  26  27
HETATM   27  C2  UNL     1       7.261  -0.240   0.219  1.00  0.00    -0.005 C 
HETATM   28  C1  UNL     1       8.232  -0.545   1.364  1.00  0.00     0.005 C 
ENDBRANCH  26  27
ENDBRANCH  25  26
ENDBRANCH  24  25
ENDBRANCH  23  24
ENDBRANCH  22  23
ENDBRANCH   1  22
BRANCH   1  29
HETATM   29  C9  UNL     1       1.529   0.955   0.829  1.00  0.00     0.012 C 
HETATM   30  C10 UNL     1       1.752  -0.247   1.639  1.00  0.00     0.006 C 
ENDBRANCH   1  29
BRANCH  10  31
HETATM   31  O5  UNL     1       0.963   3.213   0.102  1.00  0.00    -0.392 OA
ATOM     32  H5  UNL     1       0.754   4.112  -0.122  1.00  0.00     0.210 HD
ENDBRANCH  10  31
BRANCH   8  33
HETATM   33  C24 UNL     1      -2.217   2.503  -0.120  1.00  0.00     0.228 C 
HETATM   34  O3  UNL     1      -2.371   1.789   0.937  1.00  0.00    -0.273 OA
HETATM   35  N2  UNL     1      -2.729   3.823  -0.054  1.00  0.00    -0.360 N 
ATOM     36  H2  UNL     1      -2.646   4.451  -0.853  1.00  0.00     0.162 HD
BRANCH  35  37
HETATM   37  C25 UNL     1      -3.370   4.265   1.163  1.00  0.00     0.123 C 
BRANCH  37  38
HETATM   38  C26 UNL     1      -3.841   5.698   1.013  1.00  0.00     0.024 C 
BRANCH  38  39
HETATM   39  C27 UNL     1      -4.523   6.236   2.227  1.00  0.00    -0.013 A 
HETATM   40  C28 UNL     1      -5.734   5.641   2.787  1.00  0.00     0.005 A 
HETATM   41  C29 UNL     1      -5.859   6.920   1.979  1.00  0.00     0.005 A 
ENDBRANCH  38  39
ENDBRANCH  37  38
ENDBRANCH  35  37
ENDBRANCH   8  33
BRANCH   9  42
HETATM   42  O4  UNL     1      -0.518   3.958  -1.854  1.00  0.00    -0.392 OA
ATOM     43  H4  UNL     1       0.280   4.370  -2.164  1.00  0.00     0.210 HD
ENDBRANCH   9  42
TORSDOF 17
