REMARK  10 active torsions:
REMARK  status: ('A' for Active; 'I' for Inactive)
REMARK       I    between atoms: N1_2  and  C2_4 
REMARK    1  A    between atoms: C2_4  and  C3_6 
REMARK    2  A    between atoms: C3_6  and  N2_7 
REMARK       I    between atoms: N2_7  and  C4_9 
REMARK    3  A    between atoms: C4_9  and  C5_11 
REMARK    4  A    between atoms: C5_11  and  N3_13 
REMARK       I    between atoms: N3_13  and  C7_15 
REMARK    5  A    between atoms: C7_15  and  C8_17 
REMARK    6  A    between atoms: C8_17  and  C9_18 
REMARK    7  A    between atoms: C9_18  and  N4_19 
REMARK    8  A    between atoms: C9_18  and  C12_24 
REMARK       I    between atoms: N4_19  and  C10_21 
REMARK    9  A    between atoms: C12_24  and  C13_25 
REMARK   10  A    between atoms: C12_24  and  N8_37 
REMARK       I    between atoms: C13_25  and  N5_27 
ROOT
HETATM    1  C9  UNL     1      -1.539   0.827   0.035  1.00  0.00     0.030 C 
ENDROOT
BRANCH   1   2
HETATM    2  C8  UNL     1      -0.187   1.087  -0.506  1.00  0.00     0.158 C 
BRANCH   2   3
HETATM    3  C7  UNL     1       0.862   0.584   0.394  1.00  0.00     0.223 C 
HETATM    4  N3  UNL     1       2.149   0.203  -0.160  1.00  0.00    -0.348 N 
ATOM      5  H3  UNL     1       2.323   0.242  -1.164  1.00  0.00     0.163 HD
HETATM    6  O3  UNL     1       0.698   0.464   1.625  1.00  0.00    -0.273 OA
BRANCH   4   7
HETATM    7  C5  UNL     1       3.182  -0.237   0.766  1.00  0.00     0.172 C 
HETATM    8  C6  UNL     1       2.779  -1.792   0.868  1.00  0.00     0.042 C 
BRANCH   7   9
HETATM    9  C4  UNL     1       4.469  -0.236   0.076  1.00  0.00     0.240 C 
HETATM   10  N2  UNL     1       5.140   0.969  -0.230  1.00  0.00    -0.351 N 
ATOM     11  H2  UNL     1       4.727   1.864   0.031  1.00  0.00     0.163 HD
HETATM   12  O2  UNL     1       4.989  -1.350  -0.271  1.00  0.00    -0.271 OA
BRANCH  10  13
HETATM   13  C3  UNL     1       6.433   0.930  -0.925  1.00  0.00     0.225 C 
BRANCH  13  14
HETATM   14  C2  UNL     1       7.452   0.389   0.030  1.00  0.00     0.234 C 
HETATM   15  N1  UNL     1       8.775   0.199  -0.397  1.00  0.00    -0.364 N 
HETATM   16  C1  UNL     1       9.737  -0.317   0.594  1.00  0.00     0.149 C 
ATOM     17  H1  UNL     1       9.060   0.409  -1.354  1.00  0.00     0.161 HD
HETATM   18  O1  UNL     1       7.113   0.111   1.201  1.00  0.00    -0.272 OA
ENDBRANCH  13  14
ENDBRANCH  10  13
ENDBRANCH   7   9
ENDBRANCH   4   7
ENDBRANCH   2   3
ENDBRANCH   1   2
BRANCH   1  19
HETATM   19  N4  UNL     1      -1.935  -0.497   0.320  1.00  0.00    -0.332 N 
HETATM   20  C10 UNL     1      -1.401  -1.729  -0.062  1.00  0.00     0.217 C 
HETATM   21  C11 UNL     1      -2.070  -2.999   0.445  1.00  0.00     0.117 C 
HETATM   22  O4  UNL     1      -0.407  -1.952  -0.787  1.00  0.00    -0.274 OA
ATOM     23  H4  UNL     1      -2.762  -0.567   0.913  1.00  0.00     0.168 HD
ENDBRANCH   1  19
BRANCH   1  24
HETATM   24  C12 UNL     1      -2.611   1.771  -0.433  1.00  0.00     0.225 C 
BRANCH  24  25
HETATM   25  C13 UNL     1      -4.017   1.181   0.001  1.00  0.00     0.252 C 
HETATM   26  O5  UNL     1      -4.590   1.748   0.926  1.00  0.00    -0.270 OA
HETATM   27  N5  UNL     1      -4.433   0.124  -0.706  1.00  0.00    -0.310 N 
HETATM   28  C14 UNL     1      -5.144  -0.853  -0.850  1.00  0.00     0.124 A 
ATOM     29  H5  UNL     1      -3.867   0.151  -1.554  1.00  0.00     0.170 HD
HETATM   30  C15 UNL     1      -6.125  -1.393  -0.022  1.00  0.00     0.076 A 
HETATM   31  N7  UNL     1      -5.051  -1.742  -1.911  1.00  0.00    -0.285 N 
HETATM   32  C16 UNL     1      -6.588  -2.564  -0.588  1.00  0.00     0.025 A 
HETATM   33  C17 UNL     1      -7.588  -3.473  -0.034  1.00  0.00     0.070 C 
HETATM   34  N6  UNL     1      -5.884  -2.726  -1.756  1.00  0.00    -0.304 N 
ATOM     35  H6  UNL     1      -5.999  -3.504  -2.406  1.00  0.00     0.186 HD
ATOM     36  H7  UNL     1      -4.417  -1.637  -2.703  1.00  0.00     0.188 HD
ENDBRANCH  24  25
BRANCH  24  37
HETATM   37  N8  UNL     1      -2.615   3.044   0.238  1.00  0.00    -0.333 N 
HETATM   38  C18 UNL     1      -2.427   3.586   1.584  1.00  0.00     0.136 C 
HETATM   39  C19 UNL     1      -1.698   4.693   0.832  1.00  0.00     0.123 C 
HETATM   40  C20 UNL     1      -2.769   4.428  -0.173  1.00  0.00     0.222 C 
HETATM   41  O6  UNL     1      -3.507   4.958  -1.005  1.00  0.00    -0.273 OA
ENDBRANCH  24  37
ENDBRANCH   1  24
TORSDOF 10
