REMARK  11 active torsions:
REMARK  status: ('A' for Active; 'I' for Inactive)
REMARK    1  A    between atoms: C2_2  and  O1_3 
REMARK    2  A    between atoms: O1_3  and  C3_4 
REMARK    3  A    between atoms: C6_11  and  O3_12 
REMARK    4  A    between atoms: O3_12  and  C7_13 
REMARK    5  A    between atoms: C9_15  and  O4_16 
REMARK    6  A    between atoms: O4_16  and  C10_17 
REMARK    7  A    between atoms: C11_18  and  O5_19 
REMARK    8  A    between atoms: C15_24  and  N2_25 
REMARK    9  A    between atoms: C16_29  and  N3_30 
REMARK   10  A    between atoms: C18_35  and  N4_36 
REMARK   11  A    between atoms: C19_40  and  N5_41 
REMARK       I    between atoms: N5_41  and  C20_43 
ROOT
HETATM    1  C7  UNL     1      -0.134  -1.040   0.733  1.00  0.00     0.157 C 
HETATM    2  C8  UNL     1       0.888  -0.260  -0.075  1.00  0.00     0.068 C 
HETATM    3  C9  UNL     1       2.274  -0.880  -0.034  1.00  0.00     0.155 C 
HETATM    4  C16 UNL     1       2.084  -2.284   0.484  1.00  0.00     0.214 C 
HETATM    5  C17 UNL     1       1.634  -2.305   1.908  1.00  0.00     0.070 C 
HETATM    6  C18 UNL     1       0.483  -1.334   2.085  1.00  0.00     0.214 C 
ENDROOT
BRANCH   1   7
HETATM    7  O3  UNL     1      -1.211  -0.139   0.920  1.00  0.00    -0.350 OA
BRANCH   7   8
HETATM    8  C6  UNL     1      -2.385  -0.652   0.407  1.00  0.00     0.352 C 
HETATM    9  N1  UNL     1      -3.392  -0.864   1.431  1.00  0.00    -0.021 N 
HETATM   10  C4  UNL     1      -3.951   0.382   1.911  1.00  0.00     0.322 C 
ATOM     11  H12 UNL     1      -3.025  -1.425   2.200  1.00  0.00     0.283 HD
ATOM     12  H11 UNL     1      -4.123  -1.496   1.105  1.00  0.00     0.283 HD
HETATM   13  O2  UNL     1      -3.496   1.478   1.217  1.00  0.00    -0.327 OA
HETATM   14  C5  UNL     1      -3.462   0.546   3.354  1.00  0.00     0.071 C 
HETATM   15  C3  UNL     1      -3.716   1.387  -0.162  1.00  0.00     0.289 C 
HETATM   16  C19 UNL     1      -2.949   0.207  -0.710  1.00  0.00     0.196 C 
BRANCH  15  17
HETATM   17  O1  UNL     1      -5.046   1.253  -0.474  1.00  0.00    -0.359 OA
BRANCH  17  18
HETATM   18  C2  UNL     1      -5.588   2.276  -1.207  1.00  0.00     0.166 C 
HETATM   19  C1  UNL     1      -4.962   2.523  -2.541  1.00  0.00     0.033 C 
ENDBRANCH  17  18
ENDBRANCH  15  17
BRANCH  16  20
HETATM   20  N5  UNL     1      -3.763  -0.678  -1.519  1.00  0.00    -0.348 N 
HETATM   21  C20 UNL     1      -3.423  -1.038  -2.847  1.00  0.00     0.214 C 
HETATM   22  C21 UNL     1      -4.262  -1.938  -3.651  1.00  0.00     0.117 C 
HETATM   23  O6  UNL     1      -2.358  -0.564  -3.349  1.00  0.00    -0.274 OA
ATOM     24  H5  UNL     1      -4.619  -1.059  -1.115  1.00  0.00     0.163 HD
ENDBRANCH  16  20
ENDBRANCH   7   8
ENDBRANCH   1   7
BRANCH   6  25
HETATM   25  N4  UNL     1       0.911  -0.083   2.666  1.00  0.00    -0.072 N 
ATOM     26  H43 UNL     1       1.536   0.442   2.054  1.00  0.00     0.274 HD
ATOM     27  H42 UNL     1       0.159   0.605   2.718  1.00  0.00     0.274 HD
ATOM     28  H41 UNL     1       1.326  -0.281   3.576  1.00  0.00     0.274 HD
ENDBRANCH   6  25
BRANCH   3  29
HETATM   29  O4  UNL     1       3.163  -0.100   0.658  1.00  0.00    -0.373 OA
BRANCH  29  30
HETATM   30  C10 UNL     1       4.289   0.299   0.009  1.00  0.00     0.185 C 
HETATM   31  C11 UNL     1       5.596   0.012   0.717  1.00  0.00     0.171 C 
HETATM   32  C12 UNL     1       6.619   0.034  -0.354  1.00  0.00     0.003 C 
HETATM   33  C13 UNL     1       6.534   0.960  -1.288  1.00  0.00    -0.026 C 
HETATM   34  C14 UNL     1       5.462   1.988  -1.320  1.00  0.00     0.062 C 
HETATM   35  C15 UNL     1       4.363   1.784  -0.315  1.00  0.00     0.218 C 
BRANCH  31  36
HETATM   36  O5  UNL     1       5.619  -1.117   1.484  1.00  0.00    -0.389 OA
ATOM     37  H5  UNL     1       6.439  -1.297   1.928  1.00  0.00     0.210 HD
ENDBRANCH  31  36
BRANCH  35  38
HETATM   38  N2  UNL     1       3.128   2.373  -0.703  1.00  0.00    -0.072 N 
ATOM     39  H23 UNL     1       2.723   1.860  -1.486  1.00  0.00     0.274 HD
ATOM     40  H22 UNL     1       2.416   2.202   0.007  1.00  0.00     0.274 HD
ATOM     41  H21 UNL     1       3.178   3.368  -0.920  1.00  0.00     0.274 HD
ENDBRANCH  35  38
ENDBRANCH  29  30
ENDBRANCH   3  29
BRANCH   4  42
HETATM   42  N3  UNL     1       3.170  -3.182   0.220  1.00  0.00    -0.072 N 
ATOM     43  H33 UNL     1       3.376  -3.201  -0.779  1.00  0.00     0.274 HD
ATOM     44  H32 UNL     1       4.043  -2.792   0.575  1.00  0.00     0.274 HD
ATOM     45  H31 UNL     1       3.042  -4.131   0.570  1.00  0.00     0.274 HD
ENDBRANCH   4  42
TORSDOF 11
