REMARK  3 active torsions:
REMARK  status: ('A' for Active; 'I' for Inactive)
REMARK    1  A    between atoms: C2_2  and  N1_3 
REMARK    2  A    between atoms: C2_2  and  C10_19 
REMARK       I    between atoms: N2_5  and  C3_7 
REMARK       I    between atoms: C3_7  and  N4_11 
REMARK    3  A    between atoms: N4_11  and  C4_13 
ROOT
HETATM    1  N1  UNL     1      -2.775   0.087   0.901  1.00  0.00    -0.312 N 
ATOM      2  H1  UNL     1      -2.831   0.983   1.384  1.00  0.00     0.181 HD
HETATM    3  N2  UNL     1      -1.639  -0.314   0.500  1.00  0.00    -0.137 N 
ATOM      4  H2  UNL     1      -1.595  -1.211   0.017  1.00  0.00     0.205 HD
HETATM    5  C3  UNL     1      -0.444   0.391   0.675  1.00  0.00     0.686 C 
HETATM    6  N3  UNL     1       0.097   0.643   1.819  1.00  0.00    -0.234 N 
ATOM      7  H31 UNL     1       0.969   1.157   1.947  1.00  0.00     0.174 HD
ATOM      8  H32 UNL     1      -0.391   0.298   2.646  1.00  0.00     0.174 HD
HETATM    9  N4  UNL     1       0.235   0.871  -0.475  1.00  0.00    -0.221 N 
ATOM     10  H4  UNL     1      -0.266   1.432  -1.164  1.00  0.00     0.178 HD
ENDROOT
BRANCH   9  11
HETATM   11  C4  UNL     1       1.611   0.573  -0.669  1.00  0.00     0.099 C 
HETATM   12  C5  UNL     1       2.497   1.101   0.454  1.00  0.00     0.026 C 
HETATM   13  C6  UNL     1       3.887   1.186  -0.184  1.00  0.00     0.002 C 
HETATM   14  C7  UNL     1       4.319  -0.225  -0.463  1.00  0.00     0.000 C 
HETATM   15  C8  UNL     1       3.349  -1.043  -1.220  1.00  0.00     0.002 C 
HETATM   16  C9  UNL     1       1.919  -0.899  -0.775  1.00  0.00     0.026 C 
ENDBRANCH   9  11
BRANCH   1  17
HETATM   17  C2  UNL     1      -3.989  -0.663   0.706  1.00  0.00     0.167 C 
HETATM   18  C1  UNL     1      -4.281  -0.966  -0.735  1.00  0.00     0.040 C 
BRANCH  17  19
HETATM   19  C10 UNL     1      -5.127   0.160   1.270  1.00  0.00     0.276 C 
HETATM   20  F1  UNL     1      -4.881   0.454   2.603  1.00  0.00    -0.205 F 
HETATM   21 CL1  UNL     1      -6.651  -0.743   1.196  1.00  0.00    -0.064 Cl
HETATM   22 CL2  UNL     1      -5.355   1.660   0.325  1.00  0.00    -0.064 Cl
ENDBRANCH  17  19
ENDBRANCH   1  17
TORSDOF 3
