REMARK  11 active torsions:
REMARK  status: ('A' for Active; 'I' for Inactive)
REMARK       I    between atoms: N1_2  and  C2_4 
REMARK    1  A    between atoms: C2_4  and  C3_6 
REMARK    2  A    between atoms: C3_6  and  N2_7 
REMARK    3  A    between atoms: C3_6  and  C17_25 
REMARK    4  A    between atoms: N2_7  and  C4_9 
REMARK    5  A    between atoms: C4_9  and  C5_10 
REMARK    6  A    between atoms: C4_9  and  N3_22 
REMARK    7  A    between atoms: C5_10  and  C6_11 
REMARK    8  A    between atoms: C6_11  and  C7_12 
REMARK    9  A    between atoms: C7_12  and  C8_13 
REMARK   10  A    between atoms: C8_13  and  C9_14 
REMARK   11  A    between atoms: C9_14  and  C10_15 
ROOT
HETATM    1  C4  UNL     1      -1.256  -0.912   0.600  1.00  0.00     0.178 C 
ENDROOT
BRANCH   1   2
HETATM    2  N2  UNL     1      -2.658  -0.529   0.682  1.00  0.00    -0.385 N 
ATOM      3  H2  UNL     1      -3.153  -0.645   1.566  1.00  0.00     0.156 HD
BRANCH   2   4
HETATM    4  C3  UNL     1      -3.337  -0.013  -0.405  1.00  0.00     0.207 C 
BRANCH   4   5
HETATM    5  C2  UNL     1      -3.053   1.362  -0.870  1.00  0.00     0.244 C 
HETATM    6  N1  UNL     1      -3.174   1.708  -2.264  1.00  0.00    -0.363 N 
HETATM    7  C1  UNL     1      -2.912   3.009  -2.794  1.00  0.00     0.149 C 
ATOM      8  H1  UNL     1      -3.465   0.978  -2.914  1.00  0.00     0.161 HD
HETATM    9  O1  UNL     1      -2.694   2.314  -0.126  1.00  0.00    -0.271 OA
ENDBRANCH   4   5
BRANCH   4  10
HETATM   10  C17 UNL     1      -4.819  -0.033  -0.115  1.00  0.00     0.007 A 
HETATM   11  C18 UNL     1      -5.507   0.926   0.583  1.00  0.00     0.098 A 
HETATM   12  N4  UNL     1      -6.809   0.600   0.661  1.00  0.00    -0.373 N 
HETATM   13  C19 UNL     1      -6.971  -0.566   0.017  1.00  0.00     0.107 A 
ATOM     14  H4  UNL     1      -7.540   1.140   1.125  1.00  0.00     0.164 HD
HETATM   15  C20 UNL     1      -5.743  -0.992  -0.482  1.00  0.00     0.036 A 
HETATM   16 BR2  UNL     1      -5.333  -2.546  -1.472  1.00  0.00    -0.049 Br
ENDBRANCH   4  10
ENDBRANCH   2   4
ENDBRANCH   1   2
BRANCH   1  17
HETATM   17  C5  UNL     1      -0.375   0.224   0.260  1.00  0.00     0.046 C 
BRANCH  17  18
HETATM   18  C6  UNL     1       1.119  -0.099   0.104  1.00  0.00     0.004 C 
BRANCH  18  19
HETATM   19  C7  UNL     1       1.359  -1.040  -1.005  1.00  0.00     0.000 C 
BRANCH  19  20
HETATM   20  C8  UNL     1       2.738  -1.478  -1.224  1.00  0.00     0.000 C 
BRANCH  20  21
HETATM   21  C9  UNL     1       3.836  -0.565  -1.551  1.00  0.00     0.005 C 
BRANCH  21  22
HETATM   22  C10 UNL     1       4.250   0.405  -0.515  1.00  0.00    -0.010 C 
HETATM   23  C11 UNL     1       4.724  -0.318   0.757  1.00  0.00     0.009 C 
HETATM   24  C12 UNL     1       5.427   0.830   1.459  1.00  0.00     0.056 C 
HETATM   25  C13 UNL     1       6.122   1.581   0.314  1.00  0.00     0.160 C 
HETATM   26  F1  UNL     1       5.838   2.926   0.343  1.00  0.00    -0.231 F 
HETATM   27 BR1  UNL     1       8.055   1.381   0.474  1.00  0.00    -0.049 Br
HETATM   28  C14 UNL     1       5.656   0.948  -0.957  1.00  0.00     0.060 C 
ENDBRANCH  21  22
ENDBRANCH  20  21
ENDBRANCH  19  20
ENDBRANCH  18  19
ENDBRANCH  17  18
ENDBRANCH   1  17
BRANCH   1  29
HETATM   29  N3  UNL     1      -0.961  -1.460   1.873  1.00  0.00    -0.383 N 
HETATM   30  C15 UNL     1       0.186  -2.107   2.249  1.00  0.00     0.116 C 
HETATM   31  C16 UNL     1      -2.100  -1.626   2.756  1.00  0.00     0.150 C 
ENDBRANCH   1  29
TORSDOF 11
