REMARK  6 active torsions:
REMARK  status: ('A' for Active; 'I' for Inactive)
REMARK    1  A    between atoms: N1_2  and  C2_3 
REMARK    2  A    between atoms: N1_2  and  C12_21 
REMARK    3  A    between atoms: C2_3  and  C3_4 
REMARK    4  A    between atoms: C3_4  and  C4_5 
REMARK    5  A    between atoms: C4_5  and  N2_6 
REMARK       I    between atoms: N2_6  and  C5_8 
REMARK    6  A    between atoms: C5_8  and  C6_10 
ROOT
HETATM    1  N2  UNL     1       1.173  -1.031  -0.423  1.00  0.00    -0.358 N 
ATOM      2  H2  UNL     1       1.510  -0.076  -0.543  1.00  0.00     0.162 HD
HETATM    3  C5  UNL     1       2.105  -2.104  -0.372  1.00  0.00     0.257 C 
HETATM    4  O1  UNL     1       1.662  -3.271  -0.219  1.00  0.00    -0.270 OA
ENDROOT
BRANCH   1   5
HETATM    5  C4  UNL     1      -0.245  -1.277  -0.307  1.00  0.00     0.124 C 
BRANCH   5   6
HETATM    6  C3  UNL     1      -1.022   0.018  -0.385  1.00  0.00     0.050 C 
BRANCH   6   7
HETATM    7  C2  UNL     1      -2.508  -0.263  -0.272  1.00  0.00     0.274 C 
BRANCH   7   8
HETATM    8  N1  UNL     1      -3.286   0.931  -0.329  1.00  0.00     0.089 N 
HETATM    9  C1  UNL     1      -3.302   1.615  -1.575  1.00  0.00     0.310 C 
BRANCH   8  10
HETATM   10  C12 UNL     1      -4.585   0.782   0.279  1.00  0.00     0.226 C 
HETATM   11  C13 UNL     1      -5.534  -0.031  -0.542  1.00  0.00     0.062 C 
HETATM   12  C14 UNL     1      -6.711  -0.397   0.336  1.00  0.00     0.169 C 
HETATM   13  O2  UNL     1      -6.846   0.461   1.413  1.00  0.00    -0.391 OA
HETATM   14  C15 UNL     1      -6.660   1.797   1.058  1.00  0.00     0.169 C 
HETATM   15  C16 UNL     1      -5.229   2.073   0.637  1.00  0.00     0.062 C 
ENDBRANCH   8  10
ENDBRANCH   7   8
ENDBRANCH   6   7
ENDBRANCH   5   6
ENDBRANCH   1   5
BRANCH   3  16
HETATM   16  C6  UNL     1       3.556  -1.810  -0.499  1.00  0.00     0.278 C 
HETATM   17  N3  UNL     1       3.930  -0.881   0.533  1.00  0.00    -0.368 N 
HETATM   18  C7  UNL     1       5.112  -0.361   0.578  1.00  0.00     0.008 C 
ATOM     19  H3  UNL     1       3.246  -0.627   1.246  1.00  0.00     0.161 HD
HETATM   20  C8  UNL     1       5.514   0.602   1.640  1.00  0.00     0.127 C 
HETATM   21  C11 UNL     1       6.048  -0.792  -0.511  1.00  0.00     0.111 C 
HETATM   22  S1  UNL     1       6.522   1.935   0.937  1.00  0.00    -0.163 SA
HETATM   23  C9  UNL     1       7.421   1.222  -0.473  1.00  0.00     0.076 C 
HETATM   24  C10 UNL     1       7.446  -0.279  -0.257  1.00  0.00     0.032 C 
HETATM   25  S2  UNL     1       6.012  -2.608  -0.535  1.00  0.00    -0.052 SA
HETATM   26  N4  UNL     1       4.289  -3.064  -0.408  1.00  0.00    -0.143 NA
ENDBRANCH   3  16
TORSDOF 6
