REMARK  8 active torsions:
REMARK  status: ('A' for Active; 'I' for Inactive)
REMARK    1  A    between atoms: C2_2  and  C3_3 
REMARK    2  A    between atoms: N1_6  and  C6_7 
REMARK       I    between atoms: N2_14  and  C12_15 
REMARK    3  A    between atoms: C12_15  and  C13_17 
REMARK    4  A    between atoms: C13_17  and  C14_19 
REMARK    5  A    between atoms: C14_19  and  C15_20 
REMARK    6  A    between atoms: C14_19  and  C17_23 
REMARK    7  A    between atoms: C17_23  and  O5_24 
REMARK    8  A    between atoms: N3_26  and  O6_28 
ROOT
HETATM    1  C3  UNL     1       0.067  -1.669  -0.607  1.00  0.00     0.121 C 
HETATM    2  C4  UNL     1      -1.321  -1.929  -1.146  1.00  0.00     0.050 C 
HETATM    3  C5  UNL     1      -2.317  -1.208  -0.243  1.00  0.00     0.130 C 
HETATM    4  N1  UNL     1      -2.084   0.215  -0.392  1.00  0.00    -0.329 N 
HETATM    5  C11 UNL     1      -0.792   0.638  -0.775  1.00  0.00     0.328 C 
HETATM    6  O1  UNL     1      -0.600   1.800  -1.193  1.00  0.00    -0.246 OA
HETATM    7  N2  UNL     1       0.346  -0.254  -0.698  1.00  0.00    -0.255 N 
HETATM    8  C12 UNL     1       1.639   0.321  -0.700  1.00  0.00     0.299 C 
HETATM    9  O2  UNL     1       1.732   1.594  -0.804  1.00  0.00    -0.264 OA
ENDROOT
BRANCH   8  10
HETATM   10  C13 UNL     1       2.871  -0.395  -0.595  1.00  0.00     0.236 C 
HETATM   11  O3  UNL     1       2.884  -1.636  -0.475  1.00  0.00    -0.286 OA
BRANCH  10  12
HETATM   12  C14 UNL     1       4.213   0.291  -0.621  1.00  0.00     0.210 C 
BRANCH  12  13
HETATM   13  C15 UNL     1       5.313  -0.709  -0.493  1.00  0.00     0.142 C 
HETATM   14  C16 UNL     1       5.430  -1.592   0.695  1.00  0.00     0.092 C 
HETATM   15  O4  UNL     1       6.151  -0.826  -1.368  1.00  0.00    -0.297 OA
ENDBRANCH  12  13
BRANCH  12  16
HETATM   16  C17 UNL     1       4.291   1.326   0.427  1.00  0.00     0.154 C 
HETATM   17  N3  UNL     1       4.498   2.543   0.106  1.00  0.00    -0.250 N 
ATOM     18  H3  UNL     1       4.607   2.782  -0.879  1.00  0.00     0.196 HD
BRANCH  16  19
HETATM   19  O5  UNL     1       4.142   0.981   1.746  1.00  0.00    -0.347 OA
ATOM     20  H5  UNL     1       4.192   1.648   2.421  1.00  0.00     0.219 HD
ENDBRANCH  16  19
BRANCH  17  21
HETATM   21  O6  UNL     1       4.578   3.539   1.044  1.00  0.00    -0.288 OA
ATOM     22  H6  UNL     1       4.732   4.445   0.805  1.00  0.00     0.244 HD
ENDBRANCH  17  21
ENDBRANCH  12  16
ENDBRANCH  10  12
ENDBRANCH   8  10
BRANCH   1  23
HETATM   23  C2  UNL     1       0.112  -2.078   0.830  1.00  0.00    -0.011 C 
HETATM   24  C1  UNL     1       0.089  -3.355   1.184  1.00  0.00     0.009 C 
ENDBRANCH   1  23
BRANCH   4  25
HETATM   25  C6  UNL     1      -3.123   1.147  -0.154  1.00  0.00     0.089 C 
HETATM   26  C7  UNL     1      -3.760   1.053   1.220  1.00  0.00     0.025 C 
HETATM   27  C8  UNL     1      -4.896   2.045   1.077  1.00  0.00     0.002 C 
HETATM   28  C9  UNL     1      -5.448   1.721  -0.283  1.00  0.00     0.002 C 
HETATM   29  C10 UNL     1      -4.367   0.921  -1.022  1.00  0.00     0.025 C 
ENDBRANCH   4  25
TORSDOF 8
