REMARK  6 active torsions:
REMARK  status: ('A' for Active; 'I' for Inactive)
REMARK    1  A    between atoms: O1_2  and  C2_3 
REMARK    2  A    between atoms: C8_10  and  N1_12 
REMARK    3  A    between atoms: N1_12  and  C11_14 
REMARK    4  A    between atoms: C11_14  and  O3_16 
REMARK    5  A    between atoms: C17_23  and  C18_24 
REMARK    6  A    between atoms: C18_24  and  O5_25 
ROOT
HETATM    1  C2  UNL     1      -2.178  -0.979   1.045  1.00  0.00     0.190 C 
HETATM    2  C3  UNL     1      -1.698  -0.056   2.133  1.00  0.00     0.072 C 
HETATM    3  C4  UNL     1      -0.827   1.012   1.474  1.00  0.00     0.018 C 
HETATM    4  C5  UNL     1      -0.282   0.257   0.268  1.00  0.00     0.001 C 
HETATM    5  C6  UNL     1       0.682  -0.744   0.802  1.00  0.00     0.093 C 
HETATM    6  C7  UNL     1       1.861   0.117   1.233  1.00  0.00     0.155 C 
HETATM    7  O2  UNL     1       2.144   0.343   2.372  1.00  0.00    -0.295 OA
HETATM    8  C8  UNL     1       2.675   0.688   0.130  1.00  0.00     0.091 C 
HETATM    9  C9  UNL     1       3.611   1.780   0.599  1.00  0.00     0.047 C 
HETATM   10  C13 UNL     1       1.768   1.251  -0.922  1.00  0.00     0.044 C 
HETATM   11  C14 UNL     1       0.304   1.087  -0.780  1.00  0.00    -0.004 C 
HETATM   12  C15 UNL     1      -0.198   0.666  -2.178  1.00  0.00     0.011 C 
HETATM   13  C16 UNL     1      -1.631  -0.313  -0.179  1.00  0.00     0.193 C 
HETATM   14  O4  UNL     1      -2.366   0.829  -0.519  1.00  0.00    -0.370 OA
HETATM   15  C17 UNL     1      -3.678   0.835  -0.218  1.00  0.00     0.169 C 
HETATM   16  C19 UNL     1      -4.178  -0.560  -0.027  1.00  0.00     0.205 C 
HETATM   17  O6  UNL     1      -3.563  -1.040   1.123  1.00  0.00    -0.350 OA
ENDROOT
BRANCH   1  18
HETATM   18  O1  UNL     1      -1.731  -2.276   1.203  1.00  0.00    -0.358 OA
HETATM   19  C1  UNL     1      -2.162  -3.191   0.295  1.00  0.00     0.205 C 
ENDBRANCH   1  18
BRANCH   8  20
HETATM   20  N1  UNL     1       3.520  -0.397  -0.375  1.00  0.00    -0.354 N 
HETATM   21  C10 UNL     1       3.367  -0.814  -1.789  1.00  0.00     0.152 C 
BRANCH  20  22
HETATM   22  C11 UNL     1       4.488  -1.102   0.360  1.00  0.00     0.110 C 
HETATM   23  C12 UNL     1       4.898  -0.945   1.763  1.00  0.00     0.097 C 
BRANCH  22  24
HETATM   24  O3  UNL     1       5.113  -2.034  -0.313  1.00  0.00    -0.350 OA
ATOM     25  H3  UNL     1       5.767  -2.511   0.184  1.00  0.00     0.219 HD
ENDBRANCH  22  24
ENDBRANCH  20  22
ENDBRANCH   8  20
BRANCH  15  26
HETATM   26  C18 UNL     1      -4.418   1.544  -1.363  1.00  0.00     0.198 C 
BRANCH  26  27
HETATM   27  O5  UNL     1      -5.776   1.584  -1.116  1.00  0.00    -0.398 OA
ATOM     28  H5  UNL     1      -6.233   2.022  -1.824  1.00  0.00     0.209 HD
ENDBRANCH  26  27
ENDBRANCH  15  26
TORSDOF 6
