REMARK  3 active torsions:
REMARK  status: ('A' for Active; 'I' for Inactive)
REMARK       I    between atoms: C1_2  and  N1_4 
REMARK    1  A    between atoms: N1_4  and  C2_5 
REMARK       I    between atoms: N1_4  and  C7_11 
REMARK    2  A    between atoms: C2_5  and  C3_6 
REMARK    3  A    between atoms: C7_11  and  C8_13 
ROOT
HETATM    1  C8  UNL     1      -0.705  -0.365   0.560  1.00  0.00     0.183 C 
HETATM    2  C9  UNL     1      -0.737   0.000  -0.907  1.00  0.00     0.204 C 
HETATM    3  O5  UNL     1      -0.012  -0.319  -1.805  1.00  0.00    -0.291 OA
HETATM    4  C10 UNL     1      -1.961   0.895  -0.927  1.00  0.00     0.234 C 
HETATM    5  O6  UNL     1      -1.656   2.020  -0.207  1.00  0.00    -0.346 OA
HETATM    6  C11 UNL     1      -1.254   2.956  -1.178  1.00  0.00     0.198 C 
HETATM    7  C12 UNL     1      -2.288   2.656  -2.265  1.00  0.00     0.198 C 
HETATM    8  O7  UNL     1      -2.301   1.257  -2.208  1.00  0.00    -0.346 OA
HETATM    9  C13 UNL     1      -2.961   0.002  -0.259  1.00  0.00     0.086 C 
HETATM   10  C14 UNL     1      -3.492  -0.954  -1.299  1.00  0.00     0.015 C 
HETATM   11  C15 UNL     1      -4.285  -1.990  -0.490  1.00  0.00     0.027 C 
HETATM   12  C16 UNL     1      -3.283  -2.693   0.365  1.00  0.00     0.168 C 
HETATM   13  O8  UNL     1      -2.461  -1.948   1.115  1.00  0.00    -0.384 OA
HETATM   14  C17 UNL     1      -2.168  -0.671   0.823  1.00  0.00     0.151 C 
ENDROOT
BRANCH   1  15
HETATM   15  C7  UNL     1       0.234  -1.413   0.898  1.00  0.00     0.242 C 
HETATM   16  N1  UNL     1       1.566  -1.256   1.289  1.00  0.00    -0.259 N 
HETATM   17  C1  UNL     1       2.340  -2.441   1.570  1.00  0.00     0.292 C 
HETATM   18  O1  UNL     1       3.541  -2.350   1.940  1.00  0.00    -0.629 OA
HETATM   19  O2  UNL     1       1.750  -3.667   1.426  1.00  0.00    -0.629 OA
HETATM   20  O4  UNL     1      -0.218  -2.623   0.822  1.00  0.00    -0.272 OA
BRANCH  16  21
HETATM   21  C2  UNL     1       2.179   0.040   1.436  1.00  0.00     0.170 C 
BRANCH  21  22
HETATM   22  C3  UNL     1       2.876   0.575   0.237  1.00  0.00     0.140 C 
HETATM   23  C4  UNL     1       3.687   1.809   0.685  1.00  0.00     0.036 C 
HETATM   24  C5  UNL     1       4.910   1.772  -0.205  1.00  0.00     0.029 C 
HETATM   25  C6  UNL     1       4.557   0.603  -1.129  1.00  0.00     0.168 C 
HETATM   26  O3  UNL     1       3.909  -0.245  -0.212  1.00  0.00    -0.384 OA
ENDBRANCH  21  22
ENDBRANCH  16  21
ENDBRANCH   1  15
TORSDOF 3
