REMARK  6 active torsions:
REMARK  status: ('A' for Active; 'I' for Inactive)
REMARK    1  A    between atoms: C2_2  and  O2_4 
REMARK    2  A    between atoms: O2_4  and  C3_5 
REMARK    3  A    between atoms: C8_12  and  C9_13 
REMARK    4  A    between atoms: C8_12  and  C11_16 
REMARK    5  A    between atoms: C13_18  and  O4_19 
REMARK    6  A    between atoms: C13_18  and  O5_21 
ROOT
HETATM    1  C9  UNL     1       1.716  -0.774  -1.957  1.00  0.00     0.147 C 
HETATM    2  C10 UNL     1       2.052   0.295  -2.800  1.00  0.00     0.060 C 
HETATM    3  N2  UNL     1       2.360   1.180  -3.513  1.00  0.00    -0.197 NA
ENDROOT
BRANCH   1   4
HETATM    4  C8  UNL     1       1.018  -0.506  -0.625  1.00  0.00     0.092 C 
HETATM    5  C3  UNL     1       1.804   0.347   0.212  1.00  0.00     0.101 C 
HETATM    6  C4  UNL     1       1.130   1.251   1.218  1.00  0.00     0.050 C 
HETATM    7  C5  UNL     1       2.744  -0.478   1.046  1.00  0.00     0.165 C 
HETATM    8  N1  UNL     1       2.064  -1.750   1.163  1.00  0.00    -0.353 N 
HETATM    9  C6  UNL     1       2.190  -2.613   2.322  1.00  0.00     0.152 C 
HETATM   10  C7  UNL     1       1.340  -1.899  -0.019  1.00  0.00     0.232 C 
HETATM   11  O3  UNL     1       1.012  -2.992  -0.499  1.00  0.00    -0.272 OA
BRANCH   5  12
HETATM   12  O2  UNL     1       2.758   1.157  -0.550  1.00  0.00    -0.308 OA
BRANCH  12  13
HETATM   13  C2  UNL     1       3.789   1.834  -0.007  1.00  0.00     0.255 C 
HETATM   14  C1  UNL     1       4.740   2.647  -0.832  1.00  0.00     0.126 C 
HETATM   15  O1  UNL     1       3.982   1.803   1.209  1.00  0.00    -0.266 OA
ENDBRANCH  12  13
ENDBRANCH   5  12
BRANCH   4  16
HETATM   16  C11 UNL     1      -0.476  -0.578  -0.670  1.00  0.00     0.046 C 
HETATM   17  C12 UNL     1      -1.032  -1.125   0.661  1.00  0.00     0.080 C 
HETATM   18  C13 UNL     1      -2.491  -0.978   0.867  1.00  0.00     0.191 C 
HETATM   19  C14 UNL     1      -3.033   0.340   0.510  1.00  0.00     0.110 C 
HETATM   20  C15 UNL     1      -2.911   1.240   1.765  1.00  0.00     0.051 C 
HETATM   21  C16 UNL     1      -4.557   0.256   0.332  1.00  0.00     0.051 C 
HETATM   22  O6  UNL     1      -2.366   0.935  -0.435  1.00  0.00    -0.365 OA
HETATM   23  C17 UNL     1      -1.407   0.356  -1.246  1.00  0.00     0.060 C 
HETATM   24  C18 UNL     1      -0.980   1.581  -2.010  1.00  0.00     0.046 C 
HETATM   25  C19 UNL     1      -2.263  -0.367  -2.341  1.00  0.00     0.046 C 
BRANCH  18  26
HETATM   26  O4  UNL     1      -3.243  -2.073   0.375  1.00  0.00    -0.363 OA
ATOM     27  H4  UNL     1      -4.179  -1.979   0.507  1.00  0.00     0.213 HD
ENDBRANCH  18  26
BRANCH  18  28
HETATM   28  O5  UNL     1      -2.704  -1.140   2.267  1.00  0.00    -0.363 OA
ATOM     29  H5  UNL     1      -3.640  -1.046   2.399  1.00  0.00     0.213 HD
ENDBRANCH  18  28
ENDBRANCH   4  16
ENDBRANCH   1   4
TORSDOF 6
