REMARK  3 active torsions:
REMARK  status: ('A' for Active; 'I' for Inactive)
REMARK    1  A    between atoms: C4_4  and  C5_5 
REMARK    2  A    between atoms: C11_15  and  C12_16 
REMARK       I    between atoms: C12_16  and  N1_18 
REMARK    3  A    between atoms: N1_18  and  C13_20 
ROOT
HETATM    1  C5  UNL     1       3.284   0.122  -0.278  1.00  0.00     0.210 C 
HETATM    2  O1  UNL     1       2.180   0.861  -0.689  1.00  0.00    -0.334 OA
HETATM    3  C6  UNL     1       1.164   0.666   0.223  1.00  0.00     0.255 C 
HETATM    4  O2  UNL     1       1.887   0.509   1.430  1.00  0.00    -0.309 OA
HETATM    5  C7  UNL     1       2.842  -0.456   1.037  1.00  0.00     0.193 C 
HETATM    6  C8  UNL     1       3.964  -0.547   2.043  1.00  0.00     0.082 C 
HETATM    7  O3  UNL     1       2.229  -1.675   0.938  1.00  0.00    -0.350 OA
HETATM    8  C9  UNL     1       0.847  -1.572   1.097  1.00  0.00     0.209 C 
HETATM    9  C10 UNL     1       0.392  -0.583   0.011  1.00  0.00     0.217 C 
HETATM   10  O4  UNL     1      -0.949  -0.492  -0.084  1.00  0.00    -0.332 OA
HETATM   11  C11 UNL     1      -1.544   0.686   0.228  1.00  0.00     0.333 C 
HETATM   12  C17 UNL     1      -1.421   1.615  -0.965  1.00  0.00     0.250 C 
HETATM   13  O6  UNL     1      -0.212   2.291  -0.783  1.00  0.00    -0.345 OA
HETATM   14  C18 UNL     1       0.315   1.902   0.426  1.00  0.00     0.286 C 
HETATM   15  C19 UNL     1       1.065   3.001   1.106  1.00  0.00     0.085 C 
HETATM   16  N2  UNL     1      -0.829   1.453   1.240  1.00  0.00     0.006 N 
ATOM     17  H21 UNL     1      -0.602   0.959   2.103  1.00  0.00     0.285 HD
ATOM     18  H22 UNL     1      -1.362   2.184   1.711  1.00  0.00     0.285 HD
ENDROOT
BRANCH  11  19
HETATM   19  C12 UNL     1      -2.946   0.443   0.617  1.00  0.00     0.284 C 
HETATM   20  O5  UNL     1      -3.338   0.905   1.721  1.00  0.00    -0.268 OA
HETATM   21  N1  UNL     1      -3.868  -0.275  -0.176  1.00  0.00    -0.349 N 
ATOM     22  H1  UNL     1      -3.544  -0.647  -1.069  1.00  0.00     0.163 HD
BRANCH  21  23
HETATM   23  C13 UNL     1      -5.236  -0.514   0.198  1.00  0.00     0.022 C 
HETATM   24  C14 UNL     1      -5.916  -1.312  -0.892  1.00  0.00     0.037 C 
HETATM   25  C15 UNL     1      -6.021   0.777   0.345  1.00  0.00     0.037 C 
HETATM   26  C16 UNL     1      -5.333  -1.230   1.528  1.00  0.00     0.037 C 
ENDBRANCH  21  23
ENDBRANCH  11  19
BRANCH   1  27
HETATM   27  C4  UNL     1       3.696  -0.907  -1.263  1.00  0.00     0.012 C 
HETATM   28  C2  UNL     1       4.864  -0.868  -1.846  1.00  0.00    -0.089 C 
HETATM   29  C1  UNL     1       5.807   0.225  -1.523  1.00  0.00     0.042 C 
HETATM   30  C3  UNL     1       5.260  -1.909  -2.832  1.00  0.00     0.042 C 
ENDBRANCH   1  27
TORSDOF 3
