REMARK  7 active torsions:
REMARK  status: ('A' for Active; 'I' for Inactive)
REMARK    1  A    between atoms: N1_1  and  C1_5 
REMARK    2  A    between atoms: C1_5  and  C2_6 
REMARK    3  A    between atoms: C2_6  and  O1_7 
REMARK    4  A    between atoms: C4_13  and  C5_14 
REMARK       I    between atoms: C5_14  and  N4_16 
REMARK    5  A    between atoms: C13_25  and  O5_26 
REMARK    6  A    between atoms: C13_25  and  C14_28 
REMARK    7  A    between atoms: C14_28  and  C15_29 
ROOT
HETATM    1  C2  UNL     1       0.961   3.881   0.630  1.00  0.00     0.148 C 
HETATM    2  N2  UNL     1       0.262   2.848   0.080  1.00  0.00    -0.272 N 
HETATM    3  C3  UNL     1      -1.115   2.347   0.148  1.00  0.00     0.330 C 
HETATM    4  O2  UNL     1      -2.086   2.939   0.665  1.00  0.00    -0.246 OA
HETATM    5  N3  UNL     1      -1.079   1.079  -0.498  1.00  0.00    -0.286 N 
HETATM    6  C4  UNL     1      -1.867   0.521  -1.528  1.00  0.00     0.184 C 
HETATM    7  C10 UNL     1      -0.887   0.933  -2.690  1.00  0.00     0.037 C 
HETATM    8  C11 UNL     1       0.191   1.826  -2.210  1.00  0.00     0.033 C 
HETATM    9  C12 UNL     1       0.816   1.803  -0.892  1.00  0.00     0.152 C 
HETATM   10  C13 UNL     1       0.243   0.611  -0.060  1.00  0.00     0.159 C 
ENDROOT
BRANCH  10  11
HETATM   11  O5  UNL     1       0.390   0.865   1.282  1.00  0.00    -0.368 OA
ATOM     12  H5  UNL     1       1.245   0.562   1.565  1.00  0.00     0.212 HD
ENDBRANCH  10  11
BRANCH  10  13
HETATM   13  C14 UNL     1       0.715  -0.691  -0.402  1.00  0.00     0.068 C 
BRANCH  13  14
HETATM   14  C15 UNL     1       2.080  -1.019   0.156  1.00  0.00    -0.010 C 
HETATM   15  C16 UNL     1       3.221  -0.194  -0.240  1.00  0.00     0.005 C 
HETATM   16  C17 UNL     1       4.489  -1.041  -0.009  1.00  0.00     0.000 C 
HETATM   17  C18 UNL     1       4.295  -1.982   1.144  1.00  0.00     0.000 C 
HETATM   18  C19 UNL     1       3.376  -3.098   0.659  1.00  0.00     0.000 C 
HETATM   19  C20 UNL     1       2.386  -2.458  -0.309  1.00  0.00     0.005 C 
ENDBRANCH  13  14
ENDBRANCH  10  13
BRANCH   6  20
HETATM   20  C5  UNL     1      -2.324  -0.810  -1.561  1.00  0.00     0.243 C 
HETATM   21  O3  UNL     1      -2.317  -1.429  -2.701  1.00  0.00    -0.271 OA
HETATM   22  N4  UNL     1      -2.800  -1.547  -0.466  1.00  0.00    -0.346 N 
HETATM   23  C6  UNL     1      -3.202  -2.924  -0.639  1.00  0.00     0.152 C 
HETATM   24  C9  UNL     1      -2.926  -0.957   0.836  1.00  0.00     0.152 C 
HETATM   25  C7  UNL     1      -4.527  -3.110   0.066  1.00  0.00     0.187 C 
HETATM   26  O4  UNL     1      -4.254  -2.904   1.425  1.00  0.00    -0.388 OA
HETATM   27  C8  UNL     1      -3.996  -1.576   1.700  1.00  0.00     0.187 C 
ENDBRANCH   6  20
BRANCH   1  28
HETATM   28  C1  UNL     1       0.547   4.909   1.567  1.00  0.00     0.313 C 
BRANCH  28  29
HETATM   29  N1  UNL     1      -0.778   4.926   2.056  1.00  0.00    -0.072 N 
ATOM     30  H13 UNL     1      -1.416   4.939   1.260  1.00  0.00     0.274 HD
ATOM     31  H12 UNL     1      -0.982   4.015   2.466  1.00  0.00     0.274 HD
ATOM     32  H11 UNL     1      -1.069   5.649   2.715  1.00  0.00     0.274 HD
ENDBRANCH  28  29
ENDBRANCH   1  28
BRANCH   1  33
HETATM   33  O1  UNL     1       2.213   3.977   0.266  1.00  0.00    -0.348 OA
ATOM     34  H1  UNL     1       2.484   3.304  -0.347  1.00  0.00     0.219 HD
ENDBRANCH   1  33
TORSDOF 7
