REMARK  6 active torsions:
REMARK  status: ('A' for Active; 'I' for Inactive)
REMARK    1  A    between atoms: C2_2  and  C3_3 
REMARK    2  A    between atoms: C3_3  and  N1_4 
REMARK    3  A    between atoms: C3_3  and  C4_8 
REMARK       I    between atoms: C4_8  and  N2_10 
REMARK    4  A    between atoms: N2_10  and  N3_11 
REMARK       I    between atoms: N3_11  and  C5_13 
REMARK    5  A    between atoms: C5_13  and  C6_15 
REMARK    6  A    between atoms: C8_23  and  C9_24 
ROOT
HETATM    1  C6  UNL     1      -2.027  -0.898   0.395  1.00  0.00     0.143 A 
HETATM    2  N4  UNL     1      -2.199  -2.228   0.365  1.00  0.00    -0.253 N 
ATOM      3  H4  UNL     1      -1.476  -2.931   0.214  1.00  0.00     0.195 HD
HETATM    4  O3  UNL     1      -3.456  -2.447   0.564  1.00  0.00    -0.219 OA
HETATM    5  C7  UNL     1      -4.151  -1.356   0.726  1.00  0.00     0.180 A 
HETATM    6  N5  UNL     1      -5.418  -1.210   0.943  1.00  0.00    -0.377 N 
ATOM      7  H51 UNL     1      -5.962  -0.356   1.070  1.00  0.00     0.158 HD
ATOM      8  H52 UNL     1      -6.074  -1.988   1.016  1.00  0.00     0.158 HD
HETATM    9  C8  UNL     1      -3.265  -0.305   0.627  1.00  0.00     0.098 A 
ENDROOT
BRANCH   1  10
HETATM   10  C5  UNL     1      -0.774  -0.179   0.286  1.00  0.00     0.299 C 
HETATM   11  N3  UNL     1       0.452  -0.903   0.368  1.00  0.00    -0.194 N 
ATOM     12  H3  UNL     1       0.422  -1.915   0.494  1.00  0.00     0.205 HD
HETATM   13  O2  UNL     1      -0.723   1.067   0.131  1.00  0.00    -0.263 OA
BRANCH  11  14
HETATM   14  N2  UNL     1       1.640  -0.294   0.285  1.00  0.00    -0.282 NA
HETATM   15  C4  UNL     1       2.830   0.319   0.207  1.00  0.00     0.342 C 
HETATM   16  O1  UNL     1       3.236   1.205   1.048  1.00  0.00    -0.253 OA
BRANCH  15  17
HETATM   17  C3  UNL     1       3.850   0.042  -0.890  1.00  0.00     0.291 C 
BRANCH  17  18
HETATM   18  C2  UNL     1       5.103  -0.437  -0.248  1.00  0.00     0.039 C 
HETATM   19  C1  UNL     1       5.855   0.501   0.615  1.00  0.00     0.007 C 
ENDBRANCH  17  18
BRANCH  17  20
HETATM   20  N1  UNL     1       3.346  -1.066  -1.712  1.00  0.00    -0.065 N 
ATOM     21  H13 UNL     1       4.032  -1.416  -2.380  1.00  0.00     0.275 HD
ATOM     22  H12 UNL     1       3.224  -1.933  -1.188  1.00  0.00     0.275 HD
ATOM     23  H11 UNL     1       2.487  -0.737  -2.152  1.00  0.00     0.275 HD
ENDBRANCH  17  20
ENDBRANCH  15  17
ENDBRANCH  11  14
ENDBRANCH   1  10
BRANCH   9  24
HETATM   24  C9  UNL     1      -3.517   1.134   0.704  1.00  0.00     0.156 A 
HETATM   25  N6  UNL     1      -3.104   1.977   1.698  1.00  0.00    -0.268 N 
HETATM   26  N7  UNL     1      -3.551   3.178   1.442  1.00  0.00    -0.226 N 
ATOM     27  H6  UNL     1      -2.540   1.712   2.506  1.00  0.00     0.190 HD
HETATM   28  N8  UNL     1      -4.229   3.126   0.322  1.00  0.00    -0.225 N 
ATOM     29  H7  UNL     1      -3.399   4.009   2.013  1.00  0.00     0.210 HD
HETATM   30  N9  UNL     1      -4.224   1.873  -0.158  1.00  0.00    -0.263 N 
ATOM     31  H8  UNL     1      -4.692   3.920  -0.120  1.00  0.00     0.210 HD
HETATM   32  C10 UNL     1      -4.894   1.452  -1.374  1.00  0.00     0.181 C 
ENDBRANCH   9  24
TORSDOF 6
