REMARK  10 active torsions:
REMARK  status: ('A' for Active; 'I' for Inactive)
REMARK    1  A    between atoms: C2_2  and  C4_4 
REMARK    2  A    between atoms: C4_4  and  O1_5 
REMARK    3  A    between atoms: C4_4  and  C6_13 
REMARK    4  A    between atoms: O1_5  and  C5_6 
REMARK    5  A    between atoms: C5_6  and  N1_7 
REMARK    6  A    between atoms: C5_6  and  O2_11 
REMARK    7  A    between atoms: C6_13  and  N2_14 
REMARK    8  A    between atoms: C6_13  and  C7_18 
REMARK       I    between atoms: C7_18  and  N3_20 
REMARK    9  A    between atoms: N3_20  and  C8_22 
REMARK   10  A    between atoms: C11_31  and  N7_32 
ROOT
HETATM    1  C8  UNL     1       2.893   0.978   0.141  1.00  0.00     0.120 A 
HETATM    2  C9  UNL     1       3.495   0.923  -1.099  1.00  0.00     0.167 A 
HETATM    3  C10 UNL     1       2.752   0.867  -2.322  1.00  0.00     0.122 C 
HETATM    4  N4  UNL     1       2.177   0.822  -3.320  1.00  0.00    -0.190 NA
HETATM    5  N5  UNL     1       4.859   0.922  -1.132  1.00  0.00    -0.229 N 
ATOM      6  H5  UNL     1       5.326   0.882  -2.038  1.00  0.00     0.197 HD
HETATM    7  O4  UNL     1       5.587   0.970  -0.061  1.00  0.00    -0.154 OA
HETATM    8  N6  UNL     1       5.025   1.023   1.116  1.00  0.00    -0.224 N 
ATOM      9  H6  UNL     1       5.625   1.061   1.940  1.00  0.00     0.198 HD
HETATM   10  C11 UNL     1       3.704   1.030   1.291  1.00  0.00     0.151 A 
ENDROOT
BRANCH   1  11
HETATM   11  N3  UNL     1       1.667   0.986   0.330  1.00  0.00    -0.320 N 
HETATM   12  C7  UNL     1       0.505   0.952  -0.403  1.00  0.00     0.255 C 
HETATM   13  O3  UNL     1      -0.002   2.020  -0.874  1.00  0.00    -0.271 OA
ATOM     14  H3  UNL     1       1.459   1.031   1.328  1.00  0.00     0.169 HD
BRANCH  12  15
HETATM   15  C6  UNL     1      -0.190  -0.331  -0.661  1.00  0.00     0.304 C 
BRANCH  15  16
HETATM   16  C4  UNL     1      -1.642  -0.303  -0.273  1.00  0.00     0.169 C 
BRANCH  16  17
HETATM   17  C2  UNL     1      -2.334  -1.505  -0.848  1.00  0.00     0.009 C 
HETATM   18  C1  UNL     1      -1.907  -2.797  -0.244  1.00  0.00     0.012 C 
HETATM   19  C3  UNL     1      -2.164  -1.467  -2.349  1.00  0.00     0.012 C 
ENDBRANCH  16  17
BRANCH  16  20
HETATM   20  O1  UNL     1      -1.848  -0.147   1.078  1.00  0.00    -0.331 OA
BRANCH  20  21
HETATM   21  C5  UNL     1      -2.512   1.010   1.415  1.00  0.00     0.464 C 
BRANCH  21  22
HETATM   22  N1  UNL     1      -1.652   1.771   2.304  1.00  0.00    -0.029 N 
ATOM     23  H13 UNL     1      -1.351   1.236   3.118  1.00  0.00     0.280 HD
ATOM     24  H12 UNL     1      -0.728   1.945   1.908  1.00  0.00     0.280 HD
ATOM     25  H11 UNL     1      -2.144   2.629   2.554  1.00  0.00     0.280 HD
ENDBRANCH  21  22
BRANCH  21  26
HETATM   26  O2  UNL     1      -3.703   0.776   2.110  1.00  0.00    -0.350 OA
ATOM     27  H2  UNL     1      -4.161   1.575   2.343  1.00  0.00     0.214 HD
ENDBRANCH  21  26
ENDBRANCH  20  21
ENDBRANCH  16  20
ENDBRANCH  15  16
BRANCH  15  28
HETATM   28  N2  UNL     1       0.540  -1.390  -0.048  1.00  0.00    -0.064 N 
ATOM     29  H23 UNL     1       0.437  -1.360   0.966  1.00  0.00     0.275 HD
ATOM     30  H22 UNL     1       0.098  -2.290  -0.236  1.00  0.00     0.275 HD
ATOM     31  H21 UNL     1       1.525  -1.409  -0.311  1.00  0.00     0.275 HD
ENDBRANCH  15  28
ENDBRANCH  12  15
ENDBRANCH   1  11
BRANCH  10  32
HETATM   32  N7  UNL     1       3.229   1.083   2.482  1.00  0.00    -0.382 N 
ATOM     33  H72 UNL     1       2.218   1.088   2.616  1.00  0.00     0.157 HD
ATOM     34  H71 UNL     1       3.816   1.121   3.315  1.00  0.00     0.157 HD
ENDBRANCH  10  32
TORSDOF 10
