REMARK  10 active torsions:
REMARK  status: ('A' for Active; 'I' for Inactive)
REMARK    1  A    between atoms: C2_2  and  N1_3 
REMARK    2  A    between atoms: C4_8  and  C5_9 
REMARK    3  A    between atoms: C5_9  and  N2_10 
REMARK    4  A    between atoms: N2_10  and  C6_13 
REMARK    5  A    between atoms: C6_13  and  C7_14 
REMARK    6  A    between atoms: C13_20  and  C14_21 
REMARK    7  A    between atoms: C13_20  and  N3_24 
REMARK    8  A    between atoms: C14_21  and  O1_22 
REMARK    9  A    between atoms: C17_27  and  N4_28 
REMARK   10  A    between atoms: C18_33  and  N6_34 
ROOT
HETATM    1  C1  UNL     1      -1.763   3.113  -1.068  1.00  0.00     0.049 C 
HETATM    2  C2  UNL     1      -1.249   1.893  -0.311  1.00  0.00     0.149 C 
HETATM    3  C3  UNL     1       0.051   1.482  -1.033  1.00  0.00     0.050 C 
HETATM    4  C4  UNL     1      -0.377   0.044  -0.815  1.00  0.00     0.048 C 
HETATM    5  C13 UNL     1      -1.800   0.604  -0.671  1.00  0.00     0.113 C 
ENDROOT
BRANCH   5   6
HETATM    6  C14 UNL     1      -2.383   0.640  -2.107  1.00  0.00     0.199 C 
BRANCH   6   7
HETATM    7  O1  UNL     1      -2.909  -0.610  -2.431  1.00  0.00    -0.398 OA
ATOM      8  H1  UNL     1      -3.266  -0.588  -3.311  1.00  0.00     0.209 HD
ENDBRANCH   6   7
ENDBRANCH   5   6
BRANCH   5   9
HETATM    9  N3  UNL     1      -2.582  -0.245   0.129  1.00  0.00    -0.179 N 
HETATM   10  C15 UNL     1      -2.399  -1.580  -0.012  1.00  0.00     0.114 A 
HETATM   11  C16 UNL     1      -3.128  -2.506   0.729  1.00  0.00     0.066 A 
HETATM   12  C17 UNL     1      -4.067  -2.063   1.636  1.00  0.00     0.116 A 
HETATM   13  N5  UNL     1      -4.224  -0.752   1.751  1.00  0.00    -0.177 N 
HETATM   14  C18 UNL     1      -3.507   0.130   1.023  1.00  0.00     0.680 A 
ATOM     15  H5  UNL     1      -4.912  -0.396   2.414  1.00  0.00     0.185 HD
BRANCH  12  16
HETATM   16  N4  UNL     1      -4.783  -2.883   2.362  1.00  0.00    -0.385 N 
ATOM     17  H42 UNL     1      -4.662  -3.892   2.273  1.00  0.00     0.157 HD
ATOM     18  H41 UNL     1      -5.478  -2.555   3.033  1.00  0.00     0.157 HD
ENDBRANCH  12  16
BRANCH  14  19
HETATM   19  N6  UNL     1      -3.758   1.353   1.197  1.00  0.00    -0.234 N 
ATOM     20  H62 UNL     1      -3.216   2.019   0.647  1.00  0.00     0.174 HD
ATOM     21  H61 UNL     1      -4.462   1.638   1.878  1.00  0.00     0.174 HD
ENDBRANCH  14  19
ENDBRANCH   5   9
BRANCH   2  22
HETATM   22  N1  UNL     1      -0.898   2.271   1.013  1.00  0.00    -0.068 N 
ATOM     23  H13 UNL     1      -0.233   3.044   1.030  1.00  0.00     0.275 HD
ATOM     24  H12 UNL     1      -1.668   2.731   1.500  1.00  0.00     0.275 HD
ATOM     25  H11 UNL     1      -0.554   1.455   1.519  1.00  0.00     0.275 HD
ENDBRANCH   2  22
BRANCH   4  26
HETATM   26  C5  UNL     1       0.293  -0.475   0.402  1.00  0.00     0.239 C 
BRANCH  26  27
HETATM   27  N2  UNL     1       1.752  -0.358   0.147  1.00  0.00    -0.071 N 
ATOM     28  H22 UNL     1       2.032  -0.825  -0.716  1.00  0.00     0.277 HD
ATOM     29  H21 UNL     1       2.025   0.592  -0.107  1.00  0.00     0.277 HD
BRANCH  27  30
HETATM   30  C6  UNL     1       2.487  -0.852   1.305  1.00  0.00     0.270 C 
BRANCH  30  31
HETATM   31  C7  UNL     1       3.925  -0.710   0.990  1.00  0.00    -0.033 A 
HETATM   32  C8  UNL     1       4.632   0.427   1.292  1.00  0.00     0.009 A 
HETATM   33  C9  UNL     1       5.988   0.540   0.985  1.00  0.00     0.001 A 
HETATM   34  C10 UNL     1       6.631  -0.517   0.365  1.00  0.00     0.000 A 
HETATM   35  C11 UNL     1       5.935  -1.655   0.060  1.00  0.00     0.001 A 
HETATM   36  C12 UNL     1       4.582  -1.747   0.374  1.00  0.00     0.009 A 
ENDBRANCH  30  31
ENDBRANCH  27  30
ENDBRANCH  26  27
ENDBRANCH   4  26
TORSDOF 10
