REMARK  7 active torsions:
REMARK  status: ('A' for Active; 'I' for Inactive)
REMARK    1  A    between atoms: N1_1  and  C1_4 
REMARK    2  A    between atoms: C3_8  and  C4_9 
REMARK    3  A    between atoms: C4_9  and  C5_10 
REMARK    4  A    between atoms: C5_10  and  C6_11 
REMARK    5  A    between atoms: C6_11  and  N3_12 
REMARK    6  A    between atoms: N3_12  and  C7_15 
REMARK    7  A    between atoms: C7_15  and  C8_16 
ROOT
HETATM    1  C7  UNL     1      -0.497  -1.088  -0.390  1.00  0.00     0.265 C 
ENDROOT
BRANCH   1   2
HETATM    2  N3  UNL     1       0.927  -0.883  -0.464  1.00  0.00    -0.073 N 
ATOM      3  H32 UNL     1       1.135   0.096  -0.663  1.00  0.00     0.277 HD
ATOM      4  H31 UNL     1       1.305  -1.318  -1.306  1.00  0.00     0.277 HD
BRANCH   2   5
HETATM    5  C6  UNL     1       1.654  -1.322   0.694  1.00  0.00     0.232 C 
BRANCH   5   6
HETATM    6  C5  UNL     1       3.135  -1.106   0.383  1.00  0.00     0.032 C 
BRANCH   6   7
HETATM    7  C4  UNL     1       3.437   0.333   0.138  1.00  0.00     0.043 C 
BRANCH   7   8
HETATM    8  C3  UNL     1       4.874   0.456  -0.183  1.00  0.00    -0.026 A 
HETATM    9  C2  UNL     1       5.309   0.420  -1.495  1.00  0.00     0.114 A 
HETATM   10  N2  UNL     1       6.621   0.531  -1.760  1.00  0.00    -0.202 N 
HETATM   11  C1  UNL     1       7.498   0.676  -0.747  1.00  0.00     0.675 A 
ATOM     12  H2  UNL     1       6.952   0.506  -2.724  1.00  0.00     0.183 HD
HETATM   13  N7  UNL     1       7.124   0.717   0.550  1.00  0.00    -0.202 N 
HETATM   14  C17 UNL     1       5.787   0.604   0.821  1.00  0.00     0.114 A 
ATOM     15  H7  UNL     1       7.810   0.828   1.297  1.00  0.00     0.183 HD
BRANCH  11  16
HETATM   16  N1  UNL     1       8.746   0.781  -1.048  1.00  0.00    -0.234 N 
ATOM     17  H12 UNL     1       9.028   0.750  -2.028  1.00  0.00     0.174 HD
ATOM     18  H11 UNL     1       9.410   0.891  -0.281  1.00  0.00     0.174 HD
ENDBRANCH  11  16
ENDBRANCH   7   8
ENDBRANCH   6   7
ENDBRANCH   5   6
ENDBRANCH   2   5
ENDBRANCH   1   2
BRANCH   1  19
HETATM   19  C8  UNL     1      -1.084  -0.170   0.616  1.00  0.00     0.174 C 
HETATM   20  C9  UNL     1      -0.673   1.252   0.278  1.00  0.00     0.265 C 
HETATM   21  N4  UNL     1      -1.827   2.029  -0.024  1.00  0.00    -0.070 N 
HETATM   22  C10 UNL     1      -2.626   1.302  -0.996  1.00  0.00     0.276 C 
ATOM     23  H42 UNL     1      -2.358   2.283   0.809  1.00  0.00     0.277 HD
ATOM     24  H41 UNL     1      -1.595   2.973  -0.334  1.00  0.00     0.277 HD
HETATM   25  C11 UNL     1      -3.260   0.148  -0.206  1.00  0.00     0.130 C 
HETATM   26  C12 UNL     1      -3.582  -0.991  -1.103  1.00  0.00     0.047 C 
HETATM   27  C16 UNL     1      -4.492   0.766   0.407  1.00  0.00     0.086 A 
HETATM   28  O1  UNL     1      -2.446  -0.297   0.796  1.00  0.00    -0.363 OA
HETATM   29  C13 UNL     1      -5.005  -1.435  -1.147  1.00  0.00     0.010 C 
HETATM   30  C14 UNL     1      -5.697  -1.350   0.200  1.00  0.00     0.061 C 
HETATM   31  C15 UNL     1      -5.660   0.062   0.611  1.00  0.00     0.053 A 
HETATM   32  N5  UNL     1      -6.250   1.138   1.141  1.00  0.00    -0.302 N 
HETATM   33  N6  UNL     1      -5.149   1.825   0.955  1.00  0.00    -0.300 N 
ATOM     34  H5  UNL     1      -7.172   1.340   1.528  1.00  0.00     0.186 HD
ATOM     35  H6  UNL     1      -4.884   2.791   1.148  1.00  0.00     0.186 HD
ENDBRANCH   1  19
TORSDOF 7
