REMARK  9 active torsions:
REMARK  status: ('A' for Active; 'I' for Inactive)
REMARK    1  A    between atoms: C2_2  and  S1_3 
REMARK    2  A    between atoms: C2_2  and  C9_20 
REMARK    3  A    between atoms: S1_3  and  S2_4 
REMARK    4  A    between atoms: S2_4  and  C3_5 
REMARK    5  A    between atoms: C4_7  and  C5_8 
REMARK    6  A    between atoms: C5_8  and  O2_9 
REMARK    7  A    between atoms: C6_11  and  O3_12 
REMARK    8  A    between atoms: C7_14  and  O4_15 
REMARK    9  A    between atoms: C8_17  and  O5_18 
ROOT
HETATM    1  C3  UNL     1       1.381  -0.222   0.315  1.00  0.00     0.225 C 
HETATM    2  O1  UNL     1       2.169   0.417   1.289  1.00  0.00    -0.362 OA
HETATM    3  C4  UNL     1       3.221   1.118   0.685  1.00  0.00     0.178 C 
HETATM    4  C6  UNL     1       4.134   0.101   0.066  1.00  0.00     0.180 C 
HETATM    5  C7  UNL     1       3.624  -1.304   0.149  1.00  0.00     0.181 C 
HETATM    6  C8  UNL     1       2.146  -1.419  -0.171  1.00  0.00     0.189 C 
ENDROOT
BRANCH   1   7
HETATM    7  S2  UNL     1      -0.175  -0.655   1.118  1.00  0.00    -0.062 SA
BRANCH   7   8
HETATM    8  S1  UNL     1      -1.534  -1.630  -0.144  1.00  0.00    -0.090 SA
BRANCH   8   9
HETATM    9  C2  UNL     1      -2.629  -0.509  -1.032  1.00  0.00     0.062 C 
HETATM   10  C1  UNL     1      -3.545  -1.348  -1.896  1.00  0.00     0.023 C 
BRANCH   9  11
HETATM   11  C9  UNL     1      -3.423   0.381  -0.114  1.00  0.00    -0.038 C 
HETATM   12  C10 UNL     1      -4.297   1.307  -0.932  1.00  0.00     0.015 C 
HETATM   13  C11 UNL     1      -2.577   1.186   0.809  1.00  0.00     0.015 C 
HETATM   14  C12 UNL     1      -4.372  -0.488   0.716  1.00  0.00     0.015 C 
ENDBRANCH   9  11
ENDBRANCH   8   9
ENDBRANCH   7   8
ENDBRANCH   1   7
BRANCH   6  15
HETATM   15  O5  UNL     1       2.018  -1.547  -1.550  1.00  0.00    -0.389 OA
ATOM     16  H5  UNL     1       2.502  -2.304  -1.858  1.00  0.00     0.210 HD
ENDBRANCH   6  15
BRANCH   3  17
HETATM   17  C5  UNL     1       3.916   1.877   1.817  1.00  0.00     0.198 C 
BRANCH  17  18
HETATM   18  O2  UNL     1       3.027   2.753   2.438  1.00  0.00    -0.398 OA
ATOM     19  H2  UNL     1       3.459   3.224   3.141  1.00  0.00     0.209 HD
ENDBRANCH  17  18
ENDBRANCH   3  17
BRANCH   5  20
HETATM   20  O4  UNL     1       4.303  -2.049  -0.838  1.00  0.00    -0.390 OA
ATOM     21  H4  UNL     1       3.979  -2.941  -0.785  1.00  0.00     0.210 HD
ENDBRANCH   5  20
BRANCH   4  22
HETATM   22  O3  UNL     1       4.434   0.498  -1.232  1.00  0.00    -0.390 OA
ATOM     23  H3  UNL     1       5.012  -0.146  -1.624  1.00  0.00     0.210 HD
ENDBRANCH   4  22
TORSDOF 9
