REMARK  13 active torsions:
REMARK  status: ('A' for Active; 'I' for Inactive)
REMARK    1  A    between atoms: C2_2  and  N1_3 
REMARK    2  A    between atoms: C7_11  and  N3_12 
REMARK       I    between atoms: N3_12  and  C8_14 
REMARK       I    between atoms: C8_14  and  N5_16 
REMARK    3  A    between atoms: N5_16  and  C9_17 
REMARK    4  A    between atoms: C9_17  and  C10_18 
REMARK    5  A    between atoms: C10_18  and  O1_19 
REMARK    6  A    between atoms: O1_19  and  C11_20 
REMARK    7  A    between atoms: C14_23  and  N6_24 
REMARK    8  A    between atoms: N6_24  and  C15_26 
REMARK    9  A    between atoms: C16_29  and  S1_30 
REMARK   10  A    between atoms: S1_30  and  C17_31 
REMARK   11  A    between atoms: C20_34  and  N8_35 
REMARK       I    between atoms: N8_35  and  C22_37 
REMARK   12  A    between atoms: C26_42  and  N9_43 
REMARK   13  A    between atoms: C27_46  and  N10_47 
ROOT
HETATM    1  N6  UNL     1       2.723   0.928   2.291  1.00  0.00    -0.192 N 
ATOM      2  H6  UNL     1       2.829   1.461   3.154  1.00  0.00     0.184 HD
ENDROOT
BRANCH   1   3
HETATM    3  C14 UNL     1       1.417   0.879   1.817  1.00  0.00     0.049 A 
HETATM    4  C13 UNL     1       0.504   1.872   2.046  1.00  0.00     0.033 A 
HETATM    5  C12 UNL     1      -0.843   1.684   1.791  1.00  0.00     0.039 A 
HETATM    6  C11 UNL     1      -1.334   0.499   1.298  1.00  0.00     0.069 A 
HETATM    7  C29 UNL     1      -0.397  -0.520   1.051  1.00  0.00     0.039 A 
HETATM    8  C28 UNL     1       0.932  -0.342   1.303  1.00  0.00     0.033 A 
BRANCH   6   9
HETATM    9  O1  UNL     1      -2.598   0.250   1.063  1.00  0.00    -0.349 OA
BRANCH   9  10
HETATM   10  C10 UNL     1      -3.859   0.584   1.048  1.00  0.00     0.209 C 
BRANCH  10  11
HETATM   11  C9  UNL     1      -4.445   1.680   0.150  1.00  0.00     0.248 C 
BRANCH  11  12
HETATM   12  N5  UNL     1      -5.775   1.769   0.437  1.00  0.00    -0.416 NA
HETATM   13  C8  UNL     1      -6.861   1.509   0.535  1.00  0.00     0.263 C 
HETATM   14  N3  UNL     1      -8.208   1.253   0.684  1.00  0.00    -0.305 N 
HETATM   15  N4  UNL     1      -7.128   3.203   1.147  1.00  0.00    -0.049 NA
ATOM     16  H3  UNL     1      -8.728   1.683   1.449  1.00  0.00     0.171 HD
BRANCH  14  17
HETATM   17  C7  UNL     1      -8.817   0.460  -0.154  1.00  0.00     0.126 A 
HETATM   18  C6  UNL     1      -8.122  -0.122  -1.186  1.00  0.00     0.074 A 
HETATM   19  C4  UNL     1      -8.801  -0.949  -2.068  1.00  0.00     0.026 A 
HETATM   20  N2  UNL     1     -10.109  -1.163  -1.887  1.00  0.00    -0.196 N 
HETATM   21  C5  UNL     1      -8.035  -1.563  -3.180  1.00  0.00     0.069 C 
HETATM   22  C3  UNL     1     -10.826  -0.591  -0.859  1.00  0.00     0.679 A 
ATOM     23  H2  UNL     1     -10.597  -1.777  -2.539  1.00  0.00     0.184 HD
HETATM   24  N1  UNL     1     -12.068  -0.869  -0.785  1.00  0.00    -0.226 N 
HETATM   25  N12 UNL     1     -10.128   0.189  -0.055  1.00  0.00    -0.177 N 
ATOM     26  H1  UNL     1     -12.462  -1.495  -1.488  1.00  0.00     0.177 HD
ATOM     27  H12 UNL     1     -10.633   0.628   0.715  1.00  0.00     0.186 HD
BRANCH  24  28
HETATM   28  C2  UNL     1     -12.937  -0.358   0.220  1.00  0.00     0.133 C 
HETATM   29  C1  UNL     1     -12.834  -1.266   1.446  1.00  0.00     0.027 C 
ENDBRANCH  24  28
ENDBRANCH  14  17
ENDBRANCH  11  12
ENDBRANCH  10  11
ENDBRANCH   9  10
ENDBRANCH   6   9
ENDBRANCH   1   3
BRANCH   1  30
HETATM   30  C15 UNL     1       3.801   0.439   1.858  1.00  0.00     0.685 A 
HETATM   31  N7  UNL     1       3.991  -0.274   0.758  1.00  0.00    -0.182 N 
HETATM   32  C16 UNL     1       5.071  -1.082   0.579  1.00  0.00     0.128 A 
ATOM     33  H7  UNL     1       3.297  -0.215   0.013  1.00  0.00     0.185 HD
HETATM   34  C26 UNL     1       6.025  -1.204   1.542  1.00  0.00     0.181 A 
HETATM   35  C27 UNL     1       5.848  -0.427   2.728  1.00  0.00     0.151 A 
HETATM   36  N11 UNL     1       4.785   0.342   2.848  1.00  0.00    -0.174 N 
ATOM     37  H11 UNL     1       4.674   0.891   3.700  1.00  0.00     0.186 HD
BRANCH  32  38
HETATM   38  S1  UNL     1       5.296  -1.927  -1.021  1.00  0.00    -0.070 SA
BRANCH  38  39
HETATM   39  C17 UNL     1       6.838  -1.234  -1.669  1.00  0.00     0.007 A 
HETATM   40  C18 UNL     1       7.008   0.131  -1.816  1.00  0.00     0.021 A 
HETATM   41  C19 UNL     1       8.293   0.622  -2.091  1.00  0.00     0.031 A 
HETATM   42  C20 UNL     1       9.354  -0.272  -2.205  1.00  0.00     0.036 A 
HETATM   43  C24 UNL     1       9.188  -1.633  -2.072  1.00  0.00     0.031 A 
HETATM   44  C25 UNL     1       7.886  -2.079  -1.800  1.00  0.00     0.021 A 
BRANCH  42  45
HETATM   45  N8  UNL     1      10.649   0.317  -2.241  1.00  0.00    -0.323 N 
HETATM   46  C21 UNL     1      11.077   1.207  -3.240  1.00  0.00     0.159 C 
HETATM   47  C22 UNL     1      11.497  -0.074  -1.147  1.00  0.00     0.220 C 
HETATM   48  C23 UNL     1      12.004   0.877  -0.121  1.00  0.00     0.117 C 
HETATM   49  O2  UNL     1      11.808  -1.288  -1.054  1.00  0.00    -0.274 OA
ENDBRANCH  42  45
ENDBRANCH  38  39
ENDBRANCH  32  38
BRANCH  34  50
HETATM   50  N9  UNL     1       7.064  -2.156   1.547  1.00  0.00    -0.109 N 
HETATM   51  O3  UNL     1       8.248  -1.836   1.440  1.00  0.00    -0.532 OA
HETATM   52  O4  UNL     1       6.775  -3.507   1.828  1.00  0.00    -0.532 OA
ENDBRANCH  34  50
BRANCH  35  53
HETATM   53  N10 UNL     1       6.765  -0.557   3.592  1.00  0.00    -0.383 N 
ATOM     54 2H10 UNL     1       7.588  -1.152   3.499  1.00  0.00     0.157 HD
ATOM     55 1H10 UNL     1       6.639  -0.002   4.439  1.00  0.00     0.157 HD
ENDBRANCH  35  53
ENDBRANCH   1  30
TORSDOF 13
