REMARK  11 active torsions:
REMARK  status: ('A' for Active; 'I' for Inactive)
REMARK    1  A    between atoms: N1_1  and  C1_4 
REMARK    2  A    between atoms: C3_8  and  C4_9 
REMARK       I    between atoms: C4_9  and  N3_11 
REMARK    3  A    between atoms: N3_11  and  C5_13 
REMARK    4  A    between atoms: C5_13  and  C6_14 
REMARK    5  A    between atoms: C6_14  and  C7_15 
REMARK    6  A    between atoms: C12_22  and  C13_23 
REMARK    7  A    between atoms: N5_25  and  C15_26 
REMARK    8  A    between atoms: C15_26  and  C16_27 
REMARK    9  A    between atoms: C19_30  and  C20_31 
REMARK   10  A    between atoms: C23_34  and  S1_35 
REMARK   11  A    between atoms: S1_35  and  N6_36 
ROOT
HETATM    1  C7  UNL     1       4.502   1.213  -1.059  1.00  0.00     0.026 A 
HETATM    2  C8  UNL     1       4.388   2.348  -1.821  1.00  0.00     0.113 A 
HETATM    3  N4  UNL     1       3.290   3.119  -1.725  1.00  0.00    -0.362 N 
ATOM      4  H4  UNL     1       3.209   3.963  -2.292  1.00  0.00     0.165 HD
HETATM    5  C9  UNL     1       2.283   2.774  -0.869  1.00  0.00     0.059 A 
HETATM    6  C10 UNL     1       1.149   3.556  -0.759  1.00  0.00     0.033 A 
HETATM    7  C11 UNL     1       0.122   3.208   0.113  1.00  0.00     0.015 A 
HETATM    8  C12 UNL     1       0.221   2.070   0.885  1.00  0.00    -0.017 A 
HETATM    9  C29 UNL     1       1.358   1.302   0.764  1.00  0.00     0.044 A 
HETATM   10  C30 UNL     1       2.388   1.632  -0.096  1.00  0.00     0.060 A 
HETATM   11  N8  UNL     1       3.504   0.893  -0.226  1.00  0.00    -0.357 N 
ATOM     12  H8  UNL     1       3.594   0.048   0.337  1.00  0.00     0.166 HD
ENDROOT
BRANCH   8  13
HETATM   13  C13 UNL     1      -0.850   1.702   1.799  1.00  0.00     0.061 A 
HETATM   14  C14 UNL     1      -1.404   0.441   1.973  1.00  0.00     0.128 A 
HETATM   15  N5  UNL     1      -2.366   0.495   2.901  1.00  0.00    -0.295 N 
HETATM   16  N7  UNL     1      -2.446   1.734   3.321  1.00  0.00    -0.264 N 
HETATM   17  C28 UNL     1      -1.540   2.516   2.680  1.00  0.00     0.272 A 
ATOM     18  H7  UNL     1      -3.099   2.065   4.031  1.00  0.00     0.190 HD
HETATM   19  O4  UNL     1      -1.350   3.754   2.843  1.00  0.00    -0.266 OA
BRANCH  15  20
HETATM   20  C15 UNL     1      -3.161  -0.612   3.346  1.00  0.00     0.186 C 
BRANCH  20  21
HETATM   21  C16 UNL     1      -4.371  -0.697   2.492  1.00  0.00    -0.038 A 
HETATM   22  C17 UNL     1      -5.543  -0.038   2.791  1.00  0.00     0.010 A 
HETATM   23  C18 UNL     1      -6.650  -0.140   1.973  1.00  0.00     0.013 A 
HETATM   24  C19 UNL     1      -6.635  -0.908   0.816  1.00  0.00    -0.026 A 
HETATM   25  C26 UNL     1      -5.451  -1.559   0.536  1.00  0.00     0.013 A 
HETATM   26  C27 UNL     1      -4.340  -1.463   1.347  1.00  0.00     0.010 A 
BRANCH  24  27
HETATM   27  C20 UNL     1      -7.812  -1.008  -0.040  1.00  0.00    -0.026 A 
HETATM   28  C21 UNL     1      -8.111  -2.129  -0.782  1.00  0.00     0.014 A 
HETATM   29  C22 UNL     1      -9.239  -2.201  -1.590  1.00  0.00     0.026 A 
HETATM   30  C23 UNL     1     -10.110  -1.135  -1.678  1.00  0.00     0.079 A 
HETATM   31  C24 UNL     1      -9.808  -0.014  -0.934  1.00  0.00     0.026 A 
HETATM   32  C25 UNL     1      -8.688   0.060  -0.130  1.00  0.00     0.014 A 
BRANCH  30  33
HETATM   33  S1  UNL     1     -11.540  -1.213  -2.696  1.00  0.00     0.256 S 
HETATM   34  O2  UNL     1     -11.358  -2.101  -3.868  1.00  0.00    -0.201 OA
HETATM   35  O3  UNL     1     -11.918   0.191  -3.065  1.00  0.00    -0.201 OA
BRANCH  33  36
HETATM   36  N6  UNL     1     -12.842  -1.844  -1.731  1.00  0.00    -0.324 N 
ATOM     37  H62 UNL     1     -12.772  -2.116  -0.750  1.00  0.00     0.169 HD
ATOM     38  H61 UNL     1     -13.672  -1.889  -2.322  1.00  0.00     0.169 HD
ENDBRANCH  33  36
ENDBRANCH  30  33
ENDBRANCH  24  27
ENDBRANCH  20  21
ENDBRANCH  15  20
ENDBRANCH   8  13
BRANCH   1  39
HETATM   39  C6  UNL     1       5.707   0.332  -1.138  1.00  0.00     0.078 C 
BRANCH  39  40
HETATM   40  C5  UNL     1       6.675   0.835  -0.125  1.00  0.00     0.129 C 
BRANCH  40  41
HETATM   41  N3  UNL     1       7.917   0.105  -0.039  1.00  0.00    -0.356 N 
HETATM   42  C4  UNL     1       8.805   0.007  -1.112  1.00  0.00     0.258 C 
HETATM   43  O1  UNL     1       8.449   0.615  -2.186  1.00  0.00    -0.267 OA
ATOM     44  H3  UNL     1       8.155  -0.357   0.839  1.00  0.00     0.162 HD
BRANCH  42  45
HETATM   45  C3  UNL     1      10.080  -0.693  -1.172  1.00  0.00     0.116 A 
HETATM   46  C2  UNL     1      10.808  -0.684  -2.373  1.00  0.00     0.129 A 
HETATM   47  N2  UNL     1      11.971  -1.311  -2.464  1.00  0.00    -0.201 N 
HETATM   48  C1  UNL     1      12.524  -1.985  -1.442  1.00  0.00     0.678 A 
ATOM     49  H2  UNL     1      12.471  -1.281  -3.353  1.00  0.00     0.183 HD
HETATM   50  N9  UNL     1      11.860  -2.018  -0.278  1.00  0.00    -0.155 N 
HETATM   51  C31 UNL     1      10.656  -1.383  -0.140  1.00  0.00     0.276 A 
ATOM     52  H9  UNL     1      12.257  -2.523   0.514  1.00  0.00     0.187 HD
HETATM   53  O5  UNL     1      10.080  -1.446   0.970  1.00  0.00    -0.267 OA
BRANCH  48  54
HETATM   54  N1  UNL     1      13.654  -2.598  -1.524  1.00  0.00    -0.234 N 
ATOM     55  H12 UNL     1      14.159  -2.573  -2.410  1.00  0.00     0.174 HD
ATOM     56  H11 UNL     1      14.074  -3.110  -0.748  1.00  0.00     0.174 HD
ENDBRANCH  48  54
ENDBRANCH  42  45
ENDBRANCH  40  41
ENDBRANCH  39  40
ENDBRANCH   1  39
TORSDOF 11
