REMARK  6 active torsions:
REMARK  status: ('A' for Active; 'I' for Inactive)
REMARK    1  A    between atoms: C2_2  and  N1_5 
REMARK    2  A    between atoms: N1_5  and  C4_7 
REMARK    3  A    between atoms: C5_10  and  N3_11 
REMARK    4  A    between atoms: C6_16  and  O1_17 
REMARK    5  A    between atoms: O1_17  and  C7_18 
REMARK    6  A    between atoms: C7_18  and  C8_19 
ROOT
HETATM    1  C4  UNL     1       1.019  -0.181  -0.097  1.00  0.00     0.144 A 
HETATM    2  N2  UNL     1       1.204  -1.509  -0.084  1.00  0.00    -0.175 N 
ATOM      3  H2  UNL     1       2.124  -1.889  -0.307  1.00  0.00     0.186 HD
HETATM    4  C5  UNL     1       0.183  -2.362   0.223  1.00  0.00     0.679 A 
HETATM    5  N4  UNL     1      -1.052  -1.894   0.525  1.00  0.00    -0.169 N 
ATOM      6  H4  UNL     1      -1.803  -2.547   0.751  1.00  0.00     0.186 HD
HETATM    7  C6  UNL     1      -1.291  -0.565   0.527  1.00  0.00     0.183 A 
HETATM    8  C10 UNL     1      -0.250   0.270   0.215  1.00  0.00     0.129 A 
HETATM    9 CL2  UNL     1      -0.535   1.992   0.211  1.00  0.00    -0.076 Cl
ENDROOT
BRANCH   1  10
HETATM   10  N1  UNL     1       1.932   0.630  -0.375  1.00  0.00    -0.352 N 
ATOM     11  H1  UNL     1       1.617   1.599  -0.337  1.00  0.00     0.163 HD
BRANCH  10  12
HETATM   12  C2  UNL     1       3.279   0.520  -0.725  1.00  0.00     0.101 C 
HETATM   13  C1  UNL     1       3.785   1.884  -1.212  1.00  0.00     0.056 C 
HETATM   14  C3  UNL     1       4.225   0.049   0.351  1.00  0.00     0.056 C 
HETATM   15 CL1  UNL     1       3.486  -0.574  -2.120  1.00  0.00    -0.096 Cl
ENDBRANCH  10  12
ENDBRANCH   1  10
BRANCH   4  16
HETATM   16  N3  UNL     1       0.343  -3.639   0.240  1.00  0.00    -0.234 N 
ATOM     17  H32 UNL     1       1.273  -3.991   0.013  1.00  0.00     0.174 HD
ATOM     18  H31 UNL     1      -0.420  -4.276   0.469  1.00  0.00     0.174 HD
ENDBRANCH   4  16
BRANCH   7  19
HETATM   19  O1  UNL     1      -2.571  -0.082   0.841  1.00  0.00    -0.333 OA
BRANCH  19  20
HETATM   20  C7  UNL     1      -3.490  -0.041  -0.234  1.00  0.00     0.193 C 
BRANCH  20  21
HETATM   21  C8  UNL     1      -4.836   0.493   0.209  1.00  0.00     0.081 A 
HETATM   22  C9  UNL     1      -4.867   1.918   0.794  1.00  0.00     0.091 A 
HETATM   23  S1  UNL     1      -5.012   0.585   2.022  1.00  0.00    -0.160 SA
ENDBRANCH  20  21
ENDBRANCH  19  20
ENDBRANCH   7  19
TORSDOF 6
