REMARK  8 active torsions:
REMARK  status: ('A' for Active; 'I' for Inactive)
REMARK    1  A    between atoms: C2_2  and  O1_3 
REMARK    2  A    between atoms: C2_2  and  C3_5 
REMARK    3  A    between atoms: C3_5  and  N2_17 
REMARK    4  A    between atoms: C4_6  and  C5_7 
REMARK    5  A    between atoms: C5_7  and  N1_8 
REMARK    6  A    between atoms: C5_7  and  C6_12 
REMARK    7  A    between atoms: C6_12  and  O2_13 
REMARK    8  A    between atoms: C6_12  and  O3_15 
ROOT
HETATM    1  N2  UNL     1      -1.595   1.622  -0.147  1.00  0.00    -0.344 N 
ATOM      2  H2  UNL     1      -1.605   2.586  -0.481  1.00  0.00     0.167 HD
HETATM    3  C7  UNL     1      -0.441   1.107   0.005  1.00  0.00     0.079 C 
HETATM    4  C8  UNL     1      -0.202  -0.262   0.473  1.00  0.00     0.103 C 
HETATM    5  C9  UNL     1       0.963  -0.952  -0.227  1.00  0.00     0.239 C 
HETATM    6  N3  UNL     1       1.672  -1.782   0.700  1.00  0.00    -0.075 N 
ATOM      7  H31 UNL     1       1.020  -2.277   1.308  1.00  0.00     0.277 HD
ATOM      8  H32 UNL     1       2.155  -1.211   1.394  1.00  0.00     0.277 HD
HETATM    9  C10 UNL     1       2.580  -2.700   0.085  1.00  0.00     0.234 C 
HETATM   10  C11 UNL     1       3.747  -2.080  -0.606  1.00  0.00     0.046 C 
HETATM   11  C12 UNL     1       4.970  -1.968   0.260  1.00  0.00     0.115 C 
HETATM   12  N4  UNL     1       5.096  -0.732   0.953  1.00  0.00    -0.420 N 
ATOM     13  H4  UNL     1       4.616  -0.556   1.836  1.00  0.00     0.153 HD
HETATM   14  C13 UNL     1       5.928   0.241   0.345  1.00  0.00     0.141 C 
HETATM   15  C14 UNL     1       5.182   1.322  -0.402  1.00  0.00     0.251 C 
HETATM   16  N5  UNL     1       4.253   2.041   0.415  1.00  0.00    -0.072 N 
ATOM     17  H51 UNL     1       4.713   2.829   0.872  1.00  0.00     0.277 HD
ATOM     18  H52 UNL     1       3.998   1.491   1.235  1.00  0.00     0.277 HD
HETATM   19  C15 UNL     1       3.076   2.480  -0.285  1.00  0.00     0.251 C 
HETATM   20  C16 UNL     1       1.850   2.095   0.513  1.00  0.00     0.148 C 
HETATM   21  N6  UNL     1       0.678   1.984  -0.319  1.00  0.00    -0.378 N 
ATOM     22  H6  UNL     1       0.629   2.543  -1.171  1.00  0.00     0.160 HD
ENDROOT
BRANCH   1  23
HETATM   23  C3  UNL     1      -2.898   1.030   0.089  1.00  0.00     0.060 C 
HETATM   24  C4  UNL     1      -3.356   0.055  -0.858  1.00  0.00     0.042 C 
BRANCH  23  25
HETATM   25  C2  UNL     1      -3.694   1.969   0.881  1.00  0.00     0.066 C 
HETATM   26  C1  UNL     1      -5.135   2.098   0.855  1.00  0.00     0.078 C 
BRANCH  25  27
HETATM   27  O1  UNL     1      -3.182   2.132   2.176  1.00  0.00    -0.363 OA
ATOM     28  H1  UNL     1      -2.236   2.047   2.193  1.00  0.00     0.217 HD
ENDBRANCH  25  27
ENDBRANCH  23  25
BRANCH  24  29
HETATM   29  C5  UNL     1      -4.085  -1.188  -0.636  1.00  0.00     0.263 C 
BRANCH  29  30
HETATM   30  N1  UNL     1      -4.383  -1.758  -2.028  1.00  0.00    -0.067 N 
ATOM     31  H13 UNL     1      -4.871  -1.104  -2.640  1.00  0.00     0.275 HD
ATOM     32  H12 UNL     1      -3.551  -1.872  -2.608  1.00  0.00     0.275 HD
ATOM     33  H11 UNL     1      -4.893  -2.628  -1.873  1.00  0.00     0.275 HD
ENDBRANCH  29  30
BRANCH  29  34
HETATM   34  C6  UNL     1      -5.326  -1.375   0.102  1.00  0.00     0.287 C 
BRANCH  34  35
HETATM   35  O2  UNL     1      -5.226  -1.093   1.460  1.00  0.00    -0.369 OA
ATOM     36  H2  UNL     1      -6.036  -1.215   1.942  1.00  0.00     0.212 HD
ENDBRANCH  34  35
BRANCH  34  37
HETATM   37  O3  UNL     1      -5.887  -2.657  -0.083  1.00  0.00    -0.369 OA
ATOM     38  H3  UNL     1      -6.697  -2.779   0.399  1.00  0.00     0.212 HD
ENDBRANCH  34  37
ENDBRANCH  29  34
ENDBRANCH  24  29
ENDBRANCH   1  23
TORSDOF 8
