REMARK  9 active torsions:
REMARK  status: ('A' for Active; 'I' for Inactive)
REMARK       I    between atoms: C1_4  and  N2_5 
REMARK       I    between atoms: C1_4  and  N8_31 
REMARK    1  A    between atoms: N2_5  and  N3_7 
REMARK    2  A    between atoms: N3_7  and  C2_9 
REMARK    3  A    between atoms: C2_9  and  N4_11 
REMARK    4  A    between atoms: N4_11  and  C3_13 
REMARK    5  A    between atoms: C4_15  and  C5_16 
REMARK    6  A    between atoms: C5_16  and  O2_17 
REMARK    7  A    between atoms: C6_19  and  N5_20 
REMARK       I    between atoms: N5_20  and  C7_22 
REMARK    8  A    between atoms: C9_26  and  N7_27 
REMARK    9  A    between atoms: N8_31  and  N9_33 
ROOT
HETATM    1  C3  UNL     1       0.117  -0.483   0.109  1.00  0.00     0.254 C 
HETATM    2  O1  UNL     1      -0.624  -0.519  -1.062  1.00  0.00    -0.355 OA
HETATM    3  C4  UNL     1      -1.915  -0.969  -0.884  1.00  0.00     0.170 C 
HETATM    4  C6  UNL     1      -2.621  -0.399   0.284  1.00  0.00     0.119 C 
HETATM    5  C8  UNL     1      -1.890   0.731   0.969  1.00  0.00     0.065 C 
HETATM    6  C9  UNL     1      -0.420   0.518   1.098  1.00  0.00     0.234 C 
ENDROOT
BRANCH   1   7
HETATM    7  N4  UNL     1       1.459  -0.068  -0.247  1.00  0.00    -0.338 N 
ATOM      8  H4  UNL     1       1.836   0.777   0.183  1.00  0.00     0.164 HD
BRANCH   7   9
HETATM    9  C2  UNL     1       2.269  -0.774  -1.158  1.00  0.00     0.189 C 
HETATM   10  S1  UNL     1       1.667  -2.119  -1.843  1.00  0.00    -0.039 SA
BRANCH   9  11
HETATM   11  N3  UNL     1       3.560  -0.332  -1.470  1.00  0.00    -0.262 N 
ATOM     12  H3  UNL     1       4.129  -0.859  -2.133  1.00  0.00     0.190 HD
BRANCH  11  13
HETATM   13  N2  UNL     1       4.073   0.818  -0.884  1.00  0.00    -0.129 N 
HETATM   14  C1  UNL     1       4.755   0.864   0.337  1.00  0.00     0.709 C 
HETATM   15  N1  UNL     1       4.701   1.928   1.053  1.00  0.00    -0.232 N 
HETATM   16  N8  UNL     1       5.528  -0.225   0.850  1.00  0.00    -0.071 N 
ATOM     17  H12 UNL     1       4.150   2.704   0.687  1.00  0.00     0.174 HD
ATOM     18  H11 UNL     1       5.198   1.962   1.943  1.00  0.00     0.174 HD
ATOM     19  H8  UNL     1       5.038  -1.057   1.177  1.00  0.00     0.212 HD
ATOM     20  H2  UNL     1       3.942   1.698  -1.383  1.00  0.00     0.205 HD
BRANCH  16  21
HETATM   21  N9  UNL     1       6.907  -0.202   0.923  1.00  0.00    -0.024 N 
HETATM   22  O4  UNL     1       7.581   0.103  -0.070  1.00  0.00    -0.516 OA
HETATM   23  O5  UNL     1       7.545  -0.515   2.088  1.00  0.00    -0.516 OA
ENDBRANCH  16  21
ENDBRANCH  11  13
ENDBRANCH   9  11
ENDBRANCH   7   9
ENDBRANCH   1   7
BRANCH   6  24
HETATM   24  N7  UNL     1      -0.022   0.105   2.428  1.00  0.00    -0.071 N 
ATOM     25  H73 UNL     1      -0.306  -0.851   2.643  1.00  0.00     0.274 HD
ATOM     26  H72 UNL     1       0.986  -0.028   2.512  1.00  0.00     0.274 HD
ATOM     27  H71 UNL     1      -0.386   0.783   3.098  1.00  0.00     0.274 HD
ENDBRANCH   6  24
BRANCH   3  28
HETATM   28  C5  UNL     1      -2.644  -0.712  -2.211  1.00  0.00     0.198 C 
BRANCH  28  29
HETATM   29  O2  UNL     1      -3.955  -1.120  -2.179  1.00  0.00    -0.398 OA
ATOM     30  H2  UNL     1      -4.406  -0.961  -3.000  1.00  0.00     0.209 HD
ENDBRANCH  28  29
ENDBRANCH   3  28
BRANCH   4  31
HETATM   31  N5  UNL     1      -3.947   0.079  -0.005  1.00  0.00    -0.338 N 
HETATM   32  C7  UNL     1      -5.112  -0.451   0.633  1.00  0.00     0.329 C 
HETATM   33  N6  UNL     1      -6.409   0.007   0.360  1.00  0.00    -0.040 NA
HETATM   34  O3  UNL     1      -4.950  -1.361   1.469  1.00  0.00    -0.251 OA
ATOM     35  H5  UNL     1      -4.060   0.825  -0.692  1.00  0.00     0.164 HD
ENDBRANCH   4  31
TORSDOF 9
