REMARK  8 active torsions:
REMARK  status: ('A' for Active; 'I' for Inactive)
REMARK    1  A    between atoms: C3_3  and  O1_4 
REMARK    2  A    between atoms: C5_7  and  O2_8 
REMARK    3  A    between atoms: C7_11  and  O3_12 
REMARK    4  A    between atoms: C9_15  and  O4_16 
REMARK    5  A    between atoms: C10_18  and  C11_19 
REMARK    6  A    between atoms: C12_20  and  C13_21 
REMARK    7  A    between atoms: C15_26  and  N2_27 
REMARK    8  A    between atoms: C17_33  and  O5_34 
ROOT
HETATM    1  C1  UNL     1      -4.435   0.288  -0.914  1.00  0.00     0.052 C 
HETATM    2  C2  UNL     1      -3.674   0.132   0.342  1.00  0.00    -0.015 A 
HETATM    3  C3  UNL     1      -4.306   0.079   1.582  1.00  0.00     0.075 A 
HETATM    4  C4  UNL     1      -3.540  -0.070   2.750  1.00  0.00     0.074 A 
HETATM    5  C5  UNL     1      -2.184  -0.166   2.707  1.00  0.00     0.082 A 
HETATM    6  C6  UNL     1      -1.524  -0.117   1.496  1.00  0.00     0.045 A 
HETATM    7  C7  UNL     1      -0.131  -0.217   1.467  1.00  0.00     0.093 A 
HETATM    8  C8  UNL     1       0.516  -0.165   0.225  1.00  0.00     0.047 A 
HETATM    9  C9  UNL     1       1.922  -0.267   0.217  1.00  0.00     0.090 A 
HETATM   10  C10 UNL     1       2.552  -0.213  -1.039  1.00  0.00     0.000 A 
HETATM   11  C14 UNL     1       1.786  -0.064  -2.200  1.00  0.00     0.046 A 
HETATM   12  C15 UNL     1       0.436   0.032  -2.166  1.00  0.00     0.062 A 
HETATM   13  C16 UNL     1      -0.198  -0.019  -0.941  1.00  0.00     0.042 A 
HETATM   14  C17 UNL     1      -1.592   0.076  -0.862  1.00  0.00     0.091 A 
HETATM   15  C18 UNL     1      -2.276   0.028   0.364  1.00  0.00     0.022 A 
ENDROOT
BRANCH  10  16
HETATM   16  C11 UNL     1       3.985  -0.309  -1.146  1.00  0.00     0.015 C 
HETATM   17  C12 UNL     1       4.928  -0.448  -0.276  1.00  0.00     0.017 C 
BRANCH  17  18
HETATM   18  C13 UNL     1       6.352  -0.518  -0.699  1.00  0.00     0.080 C 
HETATM   19  N1  UNL     1       7.304  -0.655   0.134  1.00  0.00    -0.408 N 
ATOM     20  H12 UNL     1       7.065  -0.717   1.124  1.00  0.00     0.155 HD
ATOM     21  H11 UNL     1       8.281  -0.703  -0.156  1.00  0.00     0.155 HD
ENDBRANCH  17  18
ENDBRANCH  10  16
BRANCH   9  22
HETATM   22  O4  UNL     1       2.692  -0.409   1.291  1.00  0.00    -0.359 OA
ATOM     23  H4  UNL     1       3.639  -0.478   1.286  1.00  0.00     0.217 HD
ENDBRANCH   9  22
BRANCH  12  24
HETATM   24  N2  UNL     1      -0.292   0.182  -3.372  1.00  0.00    -0.306 N 
HETATM   25  N3  UNL     1       0.133   0.740  -4.409  1.00  0.00    -0.345 N 
ATOM     26  H32 UNL     1       1.082   1.111  -4.365  1.00  0.00     0.176 HD
ATOM     27  H31 UNL     1      -0.391   0.848  -5.277  1.00  0.00     0.176 HD
ATOM     28  H2  UNL     1      -1.239  -0.195  -3.398  1.00  0.00     0.186 HD
ENDBRANCH  12  24
BRANCH   7  29
HETATM   29  O3  UNL     1       0.574  -0.357   2.569  1.00  0.00    -0.359 OA
ATOM     30  H3  UNL     1       1.521  -0.425   2.549  1.00  0.00     0.217 HD
ENDBRANCH   7  29
BRANCH  14  31
HETATM   31  O5  UNL     1      -2.311   0.216  -1.945  1.00  0.00    -0.359 OA
ATOM     32  H5  UNL     1      -3.257   0.280  -1.891  1.00  0.00     0.217 HD
ENDBRANCH  14  31
BRANCH   5  33
HETATM   33  O2  UNL     1      -1.519  -0.311   3.911  1.00  0.00    -0.360 OA
ATOM     34  H2  UNL     1      -0.572  -0.378   3.881  1.00  0.00     0.217 HD
ENDBRANCH   5  33
BRANCH   3  35
HETATM   35  O1  UNL     1      -5.654   0.169   1.693  1.00  0.00    -0.360 OA
ATOM     36  H1  UNL     1      -6.085   0.133   2.539  1.00  0.00     0.217 HD
ENDBRANCH   3  35
TORSDOF 8
