REMARK  6 active torsions:
REMARK  status: ('A' for Active; 'I' for Inactive)
REMARK    1  A    between atoms: C3_3  and  O1_4 
REMARK    2  A    between atoms: C5_7  and  O2_8 
REMARK    3  A    between atoms: C6_10  and  O3_11 
REMARK    4  A    between atoms: C8_15  and  O4_16 
REMARK    5  A    between atoms: C12_22  and  C13_23 
REMARK    6  A    between atoms: C14_24  and  C15_25 
ROOT
HETATM    1  C1  UNL     1      -0.633  -4.064   0.544  1.00  0.00     0.054 C 
HETATM    2  C2  UNL     1      -1.077  -2.653   0.422  1.00  0.00     0.007 A 
HETATM    3  C3  UNL     1      -2.423  -2.361   0.503  1.00  0.00     0.088 A 
HETATM    4  C4  UNL     1      -2.891  -1.069   0.397  1.00  0.00     0.048 A 
HETATM    5  C5  UNL     1      -4.257  -0.837   0.486  1.00  0.00     0.115 A 
HETATM    6  C6  UNL     1      -4.713   0.483   0.375  1.00  0.00     0.127 A 
HETATM    7  C7  UNL     1      -3.846   1.504   0.187  1.00  0.00     0.116 A 
HETATM    8  N1  UNL     1      -4.340   2.828   0.079  1.00  0.00    -0.096 NA
HETATM    9  C8  UNL     1      -2.462   1.285   0.094  1.00  0.00     0.105 A 
HETATM   10  C9  UNL     1      -2.019   0.008   0.201  1.00  0.00     0.030 A 
HETATM   11  C10 UNL     1      -0.665  -0.271   0.118  1.00  0.00     0.040 A 
HETATM   12  C11 UNL     1       0.430   0.526  -0.065  1.00  0.00     0.094 A 
HETATM   13  N2  UNL     1       0.653   1.897  -0.239  1.00  0.00    -0.098 NA
HETATM   14  C12 UNL     1       1.527  -0.369  -0.057  1.00  0.00     0.101 A 
HETATM   15  O5  UNL     1       1.060  -1.581   0.120  1.00  0.00    -0.307 OA
HETATM   16  C18 UNL     1      -0.221  -1.597   0.230  1.00  0.00     0.098 A 
ENDROOT
BRANCH  14  17
HETATM   17  C13 UNL     1       2.928  -0.026  -0.214  1.00  0.00     0.035 C 
HETATM   18  C14 UNL     1       3.501   1.119  -0.392  1.00  0.00    -0.020 C 
BRANCH  18  19
HETATM   19  C15 UNL     1       4.999   1.227  -0.531  1.00  0.00    -0.000 C 
HETATM   20  C16 UNL     1       5.343   1.943  -1.817  1.00  0.00     0.013 C 
HETATM   21  C17 UNL     1       5.656  -0.119  -0.434  1.00  0.00     0.013 C 
ENDBRANCH  18  19
ENDBRANCH  14  17
BRANCH   9  22
HETATM   22  O4  UNL     1      -1.717   2.392  -0.094  1.00  0.00    -0.358 OA
ATOM     23  H4  UNL     1      -0.781   2.244  -0.157  1.00  0.00     0.217 HD
ENDBRANCH   9  22
BRANCH   3  24
HETATM   24  O1  UNL     1      -3.314  -3.393   0.695  1.00  0.00    -0.359 OA
ATOM     25  H1  UNL     1      -4.241  -3.192   0.751  1.00  0.00     0.217 HD
ENDBRANCH   3  24
BRANCH   5  26
HETATM   26  O2  UNL     1      -5.201  -1.763   0.671  1.00  0.00    -0.357 OA
ATOM     27  H2  UNL     1      -6.136  -1.604   0.732  1.00  0.00     0.217 HD
ENDBRANCH   5  26
BRANCH   6  28
HETATM   28  O3  UNL     1      -6.088   0.673   0.470  1.00  0.00    -0.356 OA
ATOM     29  H3  UNL     1      -6.397   1.568   0.395  1.00  0.00     0.218 HD
ENDBRANCH   6  28
TORSDOF 6
