REMARK  0 active torsions:
REMARK  status: ('A' for Active; 'I' for Inactive)
REMARK       I    between atoms: N1_2  and  C2_4 
REMARK       I    between atoms: C2_4  and  N4_9 
ROOT
HETATM    1  C1  UNL     1       3.254  -1.077   0.784  1.00  0.00     0.149 C 
HETATM    2  N1  UNL     1       2.578  -0.327  -0.221  1.00  0.00    -0.360 N 
ATOM      3  H1  UNL     1       2.848  -0.508  -1.188  1.00  0.00     0.162 HD
HETATM    4  C2  UNL     1       1.570   0.643  -0.012  1.00  0.00     0.290 C 
HETATM    5  N2  UNL     1       1.828   1.611   0.789  1.00  0.00    -0.259 N 
ATOM      6  H2  UNL     1       1.091   2.302   0.930  1.00  0.00     0.181 HD
HETATM    7  C3  UNL     1       3.004   1.806   1.476  1.00  0.00     0.184 C 
HETATM    8  N3  UNL     1       3.991   1.988   2.053  1.00  0.00    -0.172 NA
HETATM    9  N4  UNL     1       0.300   0.590  -0.645  1.00  0.00     0.009 N 
HETATM   10  C4  UNL     1       0.588   0.779  -2.076  1.00  0.00     0.285 C 
HETATM   11  C5  UNL     1      -0.622   1.568  -0.140  1.00  0.00     0.276 C 
HETATM   12 BR1  UNL     1      -0.948   3.022  -1.351  1.00  0.00    -0.059 Br
HETATM   13  C6  UNL     1      -1.920   0.808   0.171  1.00  0.00     0.038 C 
HETATM   14  C7  UNL     1      -2.450   0.328  -1.145  1.00  0.00     0.010 C 
HETATM   15  C8  UNL     1      -1.443  -0.752  -1.554  1.00  0.00     0.035 C 
HETATM   16  C9  UNL     1      -0.367  -0.680  -0.465  1.00  0.00     0.209 C 
HETATM   17  C10 UNL     1      -1.315  -0.480   0.731  1.00  0.00    -0.012 C 
HETATM   18  C11 UNL     1      -2.292  -1.599   0.814  1.00  0.00     0.017 C 
HETATM   19  C12 UNL     1      -0.621  -0.305   2.022  1.00  0.00     0.017 C 
ENDROOT
TORSDOF 0
