REMARK  3 active torsions:
REMARK  status: ('A' for Active; 'I' for Inactive)
REMARK    1  A    between atoms: C8_8  and  O1_9 
REMARK    2  A    between atoms: C8_8  and  C9_11 
REMARK    3  A    between atoms: C10_12  and  C11_13 
ROOT
HETATM    1  C1  UNL     1       0.912   1.902   1.363  1.00  0.00     0.018 C 
HETATM    2  C2  UNL     1       0.038   1.502   0.263  1.00  0.00     0.051 C 
HETATM    3  C3  UNL     1      -1.351   1.523   0.384  1.00  0.00    -0.022 C 
HETATM    4  C4  UNL     1      -2.296   1.188   0.420  1.00  0.00    -0.030 C 
HETATM    5  C5  UNL     1      -3.353   0.284   0.387  1.00  0.00     0.027 C 
HETATM    6  C6  UNL     1      -2.362  -1.046   0.205  1.00  0.00     0.008 C 
HETATM    7  C7  UNL     1      -1.107  -0.597  -0.487  1.00  0.00     0.052 C 
HETATM    8  C8  UNL     1       0.124  -0.169   0.206  1.00  0.00     0.128 C 
ENDROOT
BRANCH   8   9
HETATM    9  O1  UNL     1       0.312  -0.564   1.491  1.00  0.00    -0.377 OA
ATOM     10  H1  UNL     1       0.361  -1.512   1.459  1.00  0.00     0.211 HD
ENDBRANCH   8   9
BRANCH   8  11
HETATM   11  C9  UNL     1       1.296  -0.468  -0.591  1.00  0.00    -0.062 C 
HETATM   12  C10 UNL     1       2.282  -0.699  -1.255  1.00  0.00    -0.059 C 
BRANCH  12  13
HETATM   13  C11 UNL     1       3.460  -0.952  -2.051  1.00  0.00     0.146 C 
HETATM   14  N1  UNL     1       4.400  -1.744  -1.671  1.00  0.00    -0.401 N 
ATOM     15  H12 UNL     1       4.293  -2.204  -0.767  1.00  0.00     0.156 HD
ATOM     16  H11 UNL     1       5.232  -1.923  -2.233  1.00  0.00     0.156 HD
ENDBRANCH  12  13
ENDBRANCH   8  11
TORSDOF 3
