REMARK  1 active torsions:
REMARK  status: ('A' for Active; 'I' for Inactive)
REMARK    1  A    between atoms: C2_2  and  N1_3 
REMARK       I    between atoms: N1_3  and  C3_5 
REMARK       I    between atoms: C3_5  and  N5_15 
REMARK       I    between atoms: N2_6  and  C4_8 
REMARK       I    between atoms: C4_8  and  N4_12 
ROOT
HETATM    1  N1  UNL     1      -2.108   1.071  -0.851  1.00  0.00    -0.225 N 
ATOM      2  H1  UNL     1      -2.308   1.366  -1.807  1.00  0.00     0.177 HD
HETATM    3  C3  UNL     1      -1.165   0.038  -0.632  1.00  0.00     0.705 C 
HETATM    4  N2  UNL     1      -1.573  -1.183  -0.539  1.00  0.00    -0.021 N 
ATOM      5  H2  UNL     1      -0.873  -1.908  -0.381  1.00  0.00     0.203 HD
HETATM    6  C4  UNL     1      -2.924  -1.581  -0.641  1.00  0.00     0.702 C 
HETATM    7  N3  UNL     1      -3.519  -2.050   0.387  1.00  0.00    -0.229 N 
ATOM      8  H3  UNL     1      -4.495  -2.336   0.307  1.00  0.00     0.177 HD
HETATM    9  C5  UNL     1      -2.848  -2.188   1.666  1.00  0.00     0.165 C 
HETATM   10  N4  UNL     1      -3.599  -1.458  -1.871  1.00  0.00    -0.131 N 
ATOM     11  H4  UNL     1      -3.209  -1.872  -2.718  1.00  0.00     0.199 HD
HETATM   12 CL1  UNL     1      -5.101  -0.594  -1.928  1.00  0.00     0.026 Cl
HETATM   13  N5  UNL     1       0.232   0.258  -0.505  1.00  0.00    -0.140 N 
HETATM   14  C6  UNL     1       1.138   0.195  -1.637  1.00  0.00     0.190 C 
HETATM   15  C7  UNL     1       2.542   0.430  -1.185  1.00  0.00     0.260 C 
HETATM   16  N6  UNL     1       2.912  -0.265   0.008  1.00  0.00    -0.056 N 
HETATM   17  C8  UNL     1       3.299  -1.623  -0.382  1.00  0.00     0.274 C 
HETATM   18  C9  UNL     1       4.145   0.366   0.504  1.00  0.00     0.274 C 
HETATM   19  C10 UNL     1       1.912  -0.284   1.029  1.00  0.00     0.279 C 
HETATM   20  C11 UNL     1       1.362  -1.697   1.262  1.00  0.00     0.059 C 
HETATM   21  N7  UNL     1       0.763   0.544   0.737  1.00  0.00    -0.188 NA
HETATM   22  C12 UNL     1       1.030   1.949   0.885  1.00  0.00     0.139 C 
ENDROOT
BRANCH   1  23
HETATM   23  C2  UNL     1      -2.794   1.717   0.242  1.00  0.00     0.134 C 
HETATM   24  C1  UNL     1      -3.741   2.779  -0.269  1.00  0.00     0.027 C 
ENDBRANCH   1  23
TORSDOF 1
