REMARK  3 active torsions:
REMARK  status: ('A' for Active; 'I' for Inactive)
REMARK    1  A    between atoms: O1_1  and  C1_3 
REMARK    2  A    between atoms: C1_3  and  C2_4 
REMARK    3  A    between atoms: C5_8  and  O2_9 
ROOT
HETATM    1  C2  UNL     1       1.348  -0.588  -0.166  1.00  0.00     0.044 C 
HETATM    2  C3  UNL     1       0.504  -0.995  -1.322  1.00  0.00     0.279 C 
HETATM    3  N1  UNL     1      -0.897  -1.068  -1.059  1.00  0.00     0.091 N 
HETATM    4  C4  UNL     1      -1.239  -1.589   0.229  1.00  0.00     0.304 C 
HETATM    5  C5  UNL     1      -0.516  -0.844   1.322  1.00  0.00     0.151 C 
HETATM    6  C6  UNL     1       0.459   0.160   0.826  1.00  0.00     0.028 C 
HETATM    7  C7  UNL     1      -0.044   1.414   0.264  1.00  0.00    -0.001 A 
HETATM    8  C8  UNL     1      -1.377   1.988   0.465  1.00  0.00     0.012 A 
HETATM    9  C9  UNL     1      -0.912   1.392  -0.894  1.00  0.00     0.019 A 
HETATM   10  C10 UNL     1      -1.606   0.148  -1.270  1.00  0.00     0.277 C 
ENDROOT
BRANCH   1  11
HETATM   11  C1  UNL     1       2.542   0.231  -0.573  1.00  0.00     0.170 C 
BRANCH  11  12
HETATM   12  O1  UNL     1       3.282   0.575   0.552  1.00  0.00    -0.400 OA
ATOM     13  H1  UNL     1       4.036   1.092   0.295  1.00  0.00     0.209 HD
ENDBRANCH  11  12
ENDBRANCH   1  11
BRANCH   5  14
HETATM   14  O2  UNL     1      -1.369  -0.378   2.317  1.00  0.00    -0.393 OA
ATOM     15  H2  UNL     1      -0.913   0.092   3.006  1.00  0.00     0.210 HD
ENDBRANCH   5  14
TORSDOF 3
