REMARK  12 active torsions:
REMARK  status: ('A' for Active; 'I' for Inactive)
REMARK    1  A    between atoms: C2_2  and  C3_3 
REMARK    2  A    between atoms: C3_3  and  C4_4 
REMARK    3  A    between atoms: C4_4  and  N1_5 
REMARK    4  A    between atoms: C4_4  and  C12_17 
REMARK       I    between atoms: N1_5  and  C5_7 
REMARK       I    between atoms: C5_7  and  N2_9 
REMARK    5  A    between atoms: N2_9  and  C6_11 
REMARK       I    between atoms: C12_17  and  N3_19 
REMARK    6  A    between atoms: N3_19  and  C13_21 
REMARK    7  A    between atoms: C13_21  and  C14_22 
REMARK       I    between atoms: C14_22  and  N4_24 
REMARK    8  A    between atoms: C17_27  and  C18_28 
REMARK    9  A    between atoms: C18_28  and  C19_29 
REMARK   10  A    between atoms: C19_29  and  N5_31 
REMARK   11  A    between atoms: N5_31  and  C20_33 
REMARK   12  A    between atoms: C29_45  and  C30_46 
ROOT
HETATM    1  C14 UNL     1      -0.585  -1.019  -0.112  1.00  0.00     0.249 C 
HETATM    2  O3  UNL     1      -1.626  -0.460   0.394  1.00  0.00    -0.270 OA
HETATM    3  N4  UNL     1       0.664  -0.616   0.397  1.00  0.00    -0.336 N 
HETATM    4  C15 UNL     1       1.952  -1.048   0.008  1.00  0.00     0.134 C 
HETATM    5  C16 UNL     1       2.838  -0.726   1.230  1.00  0.00     0.042 C 
HETATM    6  C17 UNL     1       4.198  -0.420   0.683  1.00  0.00     0.097 C 
HETATM    7  N6  UNL     1       4.187   0.995   0.465  1.00  0.00    -0.355 N 
ATOM      8  H6  UNL     1       4.992   1.545   0.165  1.00  0.00     0.162 HD
HETATM    9  C27 UNL     1       2.891   1.524   0.727  1.00  0.00     0.225 C 
HETATM   10  O4  UNL     1       2.356   2.579   0.274  1.00  0.00    -0.273 OA
HETATM   11  C28 UNL     1       2.228   0.609   1.656  1.00  0.00     0.117 C 
HETATM   12  C29 UNL     1       0.780   0.384   1.470  1.00  0.00     0.190 C 
ENDROOT
BRANCH   1  13
HETATM   13  C13 UNL     1      -0.830  -2.007  -1.161  1.00  0.00     0.114 C 
HETATM   14  C31 UNL     1      -0.356  -3.430  -0.882  1.00  0.00     0.041 C 
HETATM   15  C32 UNL     1       0.168  -3.530  -2.291  1.00  0.00     0.006 C 
HETATM   16  C33 UNL     1       0.039  -2.014  -2.367  1.00  0.00     0.041 C 
BRANCH  13  17
HETATM   17  N3  UNL     1      -2.274  -2.087  -1.469  1.00  0.00    -0.341 N 
HETATM   18  C12 UNL     1      -2.908  -0.982  -2.028  1.00  0.00     0.241 C 
HETATM   19  O2  UNL     1      -2.244   0.057  -2.301  1.00  0.00    -0.271 OA
ATOM     20  H3  UNL     1      -2.798  -2.940  -1.274  1.00  0.00     0.163 HD
BRANCH  18  21
HETATM   21  C4  UNL     1      -4.351  -0.952  -2.312  1.00  0.00     0.178 C 
BRANCH  21  22
HETATM   22  C3  UNL     1      -4.678  -1.155  -3.744  1.00  0.00     0.034 C 
BRANCH  22  23
HETATM   23  C2  UNL     1      -4.438  -2.427  -4.416  1.00  0.00    -0.002 C 
HETATM   24  C1  UNL     1      -3.076  -2.979  -4.558  1.00  0.00     0.005 C 
ENDBRANCH  22  23
ENDBRANCH  21  22
BRANCH  21  25
HETATM   25  N1  UNL     1      -4.770   0.435  -1.928  1.00  0.00    -0.330 N 
HETATM   26  C5  UNL     1      -5.859   0.681  -1.083  1.00  0.00     0.317 C 
HETATM   27  O1  UNL     1      -6.540  -0.327  -0.654  1.00  0.00    -0.247 OA
HETATM   28  N2  UNL     1      -6.275   1.957  -0.657  1.00  0.00    -0.339 N 
ATOM     29  H2  UNL     1      -5.756   2.783  -0.956  1.00  0.00     0.164 HD
ATOM     30  H1  UNL     1      -4.243   1.228  -2.295  1.00  0.00     0.165 HD
BRANCH  28  31
HETATM   31  C6  UNL     1      -7.418   2.108   0.191  1.00  0.00     0.086 C 
HETATM   32  C7  UNL     1      -8.275   3.290  -0.096  1.00  0.00     0.025 C 
HETATM   33  C8  UNL     1      -9.218   3.452   1.091  1.00  0.00     0.002 C 
HETATM   34  C9  UNL     1      -9.375   2.136   1.833  1.00  0.00     0.000 C 
HETATM   35  C10 UNL     1      -8.088   1.671   2.476  1.00  0.00     0.002 C 
HETATM   36  C11 UNL     1      -6.949   2.221   1.656  1.00  0.00     0.025 C 
ENDBRANCH  28  31
ENDBRANCH  21  25
ENDBRANCH  18  21
ENDBRANCH  13  17
ENDBRANCH   1  13
BRANCH  12  37
HETATM   37  C30 UNL     1       0.136  -0.151   2.717  1.00  0.00     0.255 C 
HETATM   38  N7  UNL     1      -0.090   0.612   3.862  1.00  0.00    -0.060 NA
HETATM   39  O5  UNL     1      -0.215  -1.355   2.710  1.00  0.00    -0.275 OA
ENDBRANCH  12  37
BRANCH   6  40
HETATM   40  C18 UNL     1       5.267  -0.920   1.615  1.00  0.00     0.095 C 
BRANCH  40  41
HETATM   41  C19 UNL     1       6.639  -0.714   1.186  1.00  0.00     0.076 C 
HETATM   42  S1  UNL     1       7.478  -2.037   0.655  1.00  0.00    -0.066 SA
BRANCH  41  43
HETATM   43  N5  UNL     1       7.314   0.508   1.187  1.00  0.00    -0.374 N 
ATOM     44  H5  UNL     1       6.817   1.333   1.523  1.00  0.00     0.161 HD
BRANCH  43  45
HETATM   45  C20 UNL     1       8.676   0.670   0.739  1.00  0.00     0.041 C 
HETATM   46  C21 UNL     1       8.791   0.234  -0.700  1.00  0.00     0.039 C 
HETATM   47  C22 UNL     1       9.749   0.078   1.583  1.00  0.00     0.037 C 
HETATM   48  C23 UNL     1       9.593   0.793   2.876  1.00  0.00    -0.023 C 
HETATM   49  C26 UNL     1      10.663   1.093   0.866  1.00  0.00     0.022 C 
HETATM   50  C24 UNL     1       9.343   2.065   2.473  1.00  0.00    -0.023 C 
HETATM   51  C25 UNL     1       9.380   1.950   1.003  1.00  0.00     0.037 C 
ENDBRANCH  43  45
ENDBRANCH  41  43
ENDBRANCH  40  41
ENDBRANCH   6  40
TORSDOF 12
