REMARK  1 active torsions:
REMARK  status: ('A' for Active; 'I' for Inactive)
REMARK    1  A    between atoms: N1_2  and  C2_5 
ROOT
HETATM    1  C2  UNL     1       1.957   0.196  -0.146  1.00  0.00     0.190 C 
HETATM    2  C3  UNL     1       2.561  -1.122  -0.481  1.00  0.00     0.033 C 
HETATM    3  C4  UNL     1       1.567  -2.068  -1.093  1.00  0.00     0.002 C 
HETATM    4  C5  UNL     1       0.247  -2.098  -0.370  1.00  0.00     0.007 C 
HETATM    5  C6  UNL     1      -0.299  -0.687  -0.350  1.00  0.00     0.022 C 
HETATM    6  C7  UNL     1       0.610   0.099   0.566  1.00  0.00     0.024 C 
HETATM    7  C8  UNL     1       0.157   1.518   0.785  1.00  0.00     0.028 C 
HETATM    8  C9  UNL     1      -1.311   1.732   0.537  1.00  0.00     0.118 C 
HETATM    9  C10 UNL     1      -1.739   2.916   1.261  1.00  0.00     0.066 C 
HETATM   10  N2  UNL     1      -2.066   3.878   1.840  1.00  0.00    -0.197 NA
HETATM   11  C11 UNL     1      -2.151   0.518   0.864  1.00  0.00     0.132 C 
HETATM   12  N3  UNL     1      -3.494   0.822   0.382  1.00  0.00    -0.335 N 
ATOM     13  H3  UNL     1      -4.308   1.082   0.938  1.00  0.00     0.164 HD
HETATM   14  C12 UNL     1      -3.422   0.677  -1.035  1.00  0.00     0.317 C 
HETATM   15  O1  UNL     1      -4.088   1.327  -1.914  1.00  0.00    -0.247 OA
HETATM   16  N4  UNL     1      -2.462  -0.336  -1.310  1.00  0.00    -0.332 N 
ATOM     17  H4  UNL     1      -2.302  -0.791  -2.209  1.00  0.00     0.165 HD
HETATM   18  C13 UNL     1      -1.741  -0.604  -0.049  1.00  0.00     0.056 C 
HETATM   19  C14 UNL     1      -2.352  -1.878   0.519  1.00  0.00     0.041 C 
ENDROOT
BRANCH   1  20
HETATM   20  N1  UNL     1       2.819   1.029   0.648  1.00  0.00    -0.074 N 
HETATM   21  C1  UNL     1       4.039   1.414  -0.056  1.00  0.00     0.267 C 
ATOM     22  H12 UNL     1       3.037   0.584   1.540  1.00  0.00     0.277 HD
ATOM     23  H11 UNL     1       2.320   1.850   0.990  1.00  0.00     0.277 HD
ENDBRANCH   1  20
TORSDOF 1
