REMARK  4 active torsions:
REMARK  status: ('A' for Active; 'I' for Inactive)
REMARK    1  A    between atoms: N1_1  and  C1_4 
REMARK    2  A    between atoms: C5_10  and  C6_11 
REMARK    3  A    between atoms: C10_16  and  N3_17 
REMARK    4  A    between atoms: C11_21  and  N4_22 
ROOT
HETATM    1  C6  UNL     1       1.201   0.769   0.986  1.00  0.00     0.165 C 
HETATM    2  O1  UNL     1       0.269  -0.078   1.674  1.00  0.00    -0.373 OA
HETATM    3  C7  UNL     1      -0.508  -0.316   0.585  1.00  0.00     0.154 C 
HETATM    4  C8  UNL     1       0.175   0.768  -0.141  1.00  0.00     0.052 C 
HETATM    5  C9  UNL     1      -0.691   2.013  -0.006  1.00  0.00     0.045 C 
HETATM    6  C10 UNL     1      -2.046   1.348  -0.279  1.00  0.00     0.209 C 
HETATM    7  C11 UNL     1      -1.967   0.116   0.558  1.00  0.00     0.150 C 
ENDROOT
BRANCH   1   8
HETATM    8  C5  UNL     1       2.385   0.054   0.452  1.00  0.00     0.013 A 
HETATM    9  C1  UNL     1       3.456   0.859   0.111  1.00  0.00     0.037 A 
HETATM   10  C2  UNL     1       4.602   0.260  -0.380  1.00  0.00     0.046 A 
HETATM   11  C3  UNL     1       4.690  -1.098  -0.530  1.00  0.00     0.090 A 
HETATM   12  N2  UNL     1       3.648  -1.840  -0.193  1.00  0.00    -0.374 N 
HETATM   13  C4  UNL     1       2.494  -1.298   0.295  1.00  0.00     0.099 A 
ATOM     14  H2  UNL     1       3.709  -2.852  -0.302  1.00  0.00     0.164 HD
BRANCH   9  15
HETATM   15  N1  UNL     1       3.437   2.141   0.210  1.00  0.00    -0.399 N 
ATOM     16  H12 UNL     1       4.227   2.735  -0.042  1.00  0.00     0.156 HD
ATOM     17  H11 UNL     1       2.592   2.583   0.572  1.00  0.00     0.156 HD
ENDBRANCH   9  15
ENDBRANCH   1   8
BRANCH   7  18
HETATM   18  N4  UNL     1      -2.667  -0.964  -0.119  1.00  0.00    -0.342 N 
HETATM   19  C12 UNL     1      -3.310  -1.981   0.473  1.00  0.00     0.109 A 
HETATM   20  C13 UNL     1      -3.826  -2.822  -0.488  1.00  0.00     0.106 A 
HETATM   21  N5  UNL     1      -3.464  -2.265  -1.648  1.00  0.00    -0.361 N 
HETATM   22  C14 UNL     1      -2.752  -1.118  -1.450  1.00  0.00     0.183 A 
ATOM     23  H5  UNL     1      -3.691  -2.649  -2.565  1.00  0.00     0.166 HD
ENDBRANCH   7  18
BRANCH   6  24
HETATM   24  N3  UNL     1      -3.100   2.253   0.014  1.00  0.00    -0.073 N 
ATOM     25  H33 UNL     1      -3.038   2.617   0.965  1.00  0.00     0.274 HD
ATOM     26  H32 UNL     1      -2.998   3.134  -0.490  1.00  0.00     0.274 HD
ATOM     27  H31 UNL     1      -4.001   1.811  -0.168  1.00  0.00     0.274 HD
ENDBRANCH   6  24
TORSDOF 4
