REMARK  3 active torsions:
REMARK  status: ('A' for Active; 'I' for Inactive)
REMARK    1  A    between atoms: N2_7  and  C6_8 
REMARK    2  A    between atoms: C6_8  and  C7_9 
REMARK    3  A    between atoms: C9_15  and  N5_16 
ROOT
HETATM    1  N1  UNL     1       4.672   2.695   2.342  1.00  0.00    -0.191 NA
HETATM    2  C1  UNL     1       4.231   1.885   1.645  1.00  0.00     0.101 C 
HETATM    3  C2  UNL     1       3.679   0.862   0.774  1.00  0.00     0.060 A 
HETATM    4  C3  UNL     1       4.266  -0.376   0.813  1.00  0.00     0.025 A 
HETATM    5  C4  UNL     1       3.742  -1.349  -0.014  1.00  0.00     0.019 A 
HETATM    6  C5  UNL     1       2.681  -1.065  -0.830  1.00  0.00     0.091 A 
HETATM    7  N2  UNL     1       2.108   0.149  -0.866  1.00  0.00    -0.358 N 
HETATM    8  C12 UNL     1       2.624   1.104  -0.052  1.00  0.00     0.113 A 
ENDROOT
BRANCH   7   9
HETATM    9  C6  UNL     1       1.000   0.507  -1.694  1.00  0.00     0.204 C 
BRANCH   9  10
HETATM   10  C7  UNL     1      -0.309   0.286  -1.066  1.00  0.00     0.102 A 
HETATM   11  N3  UNL     1      -0.990   1.166  -0.327  1.00  0.00    -0.328 N 
HETATM   12  C8  UNL     1      -2.142   0.613   0.077  1.00  0.00     0.155 A 
ATOM     13  H3  UNL     1      -0.681   2.112  -0.105  1.00  0.00     0.169 HD
HETATM   14  N4  UNL     1      -3.170   1.092   0.841  1.00  0.00    -0.174 N 
HETATM   15  C11 UNL     1      -2.149  -0.656  -0.445  1.00  0.00     0.148 A 
HETATM   16  C9  UNL     1      -4.234   0.313   1.102  1.00  0.00     0.680 A 
ATOM     17  H4  UNL     1      -3.129   2.041   1.213  1.00  0.00     0.186 HD
HETATM   18  N6  UNL     1      -4.228  -0.927   0.585  1.00  0.00    -0.154 N 
HETATM   19  C10 UNL     1      -3.256  -1.438  -0.161  1.00  0.00     0.290 A 
ATOM     20  H6  UNL     1      -5.033  -1.522   0.781  1.00  0.00     0.187 HD
HETATM   21  O1  UNL     1      -3.269  -2.602  -0.637  1.00  0.00    -0.265 OA
HETATM   22  N7  UNL     1      -1.021  -0.837  -1.140  1.00  0.00    -0.337 N 
ATOM     23  H7  UNL     1      -0.753  -1.685  -1.639  1.00  0.00     0.167 HD
BRANCH  16  24
HETATM   24  N5  UNL     1      -5.217   0.755   1.826  1.00  0.00    -0.234 N 
ATOM     25  H52 UNL     1      -5.222   1.696   2.219  1.00  0.00     0.174 HD
ATOM     26  H51 UNL     1      -6.024   0.164   2.024  1.00  0.00     0.174 HD
ENDBRANCH  16  24
ENDBRANCH   9  10
ENDBRANCH   7   9
TORSDOF 3
