REMARK  5 active torsions:
REMARK  status: ('A' for Active; 'I' for Inactive)
REMARK    1  A    between atoms: C1_1  and  C2_2 
REMARK    2  A    between atoms: C1_1  and  C8_12 
REMARK    3  A    between atoms: C2_2  and  C3_3 
REMARK    4  A    between atoms: C3_3  and  N1_4 
REMARK    5  A    between atoms: C8_12  and  C9_13 
ROOT
HETATM    1  C2  UNL     1      -0.276   0.663   1.142  1.00  0.00     0.030 C 
ENDROOT
BRANCH   1   2
HETATM    2  C1  UNL     1       0.719  -0.135   0.324  1.00  0.00     0.002 C 
BRANCH   2   3
HETATM    3  C8  UNL     1       1.948   0.762   0.153  1.00  0.00     0.006 C 
BRANCH   3   4
HETATM    4  C9  UNL     1       3.019   0.079  -0.648  1.00  0.00     0.013 C 
HETATM    5  C10 UNL     1       3.516  -1.192  -0.039  1.00  0.00     0.034 C 
HETATM    6  C11 UNL     1       4.981  -0.945   0.252  1.00  0.00     0.232 C 
HETATM    7  N3  UNL     1       5.020   0.497   0.482  1.00  0.00    -0.075 N 
HETATM    8  C12 UNL     1       4.232   0.969  -0.660  1.00  0.00     0.237 C 
ATOM      9  H32 UNL     1       4.699   0.807   1.399  1.00  0.00     0.277 HD
ATOM     10  H31 UNL     1       5.950   0.905   0.576  1.00  0.00     0.277 HD
ENDBRANCH   3   4
ENDBRANCH   2   3
ENDBRANCH   1   2
BRANCH   1  11
HETATM   11  C3  UNL     1      -1.548  -0.108   1.389  1.00  0.00     0.272 C 
BRANCH  11  12
HETATM   12  N1  UNL     1      -2.236  -0.485   0.199  1.00  0.00     0.091 N 
HETATM   13  C4  UNL     1      -3.433  -1.215   0.590  1.00  0.00     0.300 C 
HETATM   14  C5  UNL     1      -4.597  -0.273   0.803  1.00  0.00     0.262 C 
HETATM   15  N2  UNL     1      -4.973   0.270  -0.463  1.00  0.00    -0.072 N 
HETATM   16  C6  UNL     1      -3.876   0.512  -1.334  1.00  0.00     0.262 C 
ATOM     17  H22 UNL     1      -5.667  -0.324  -0.917  1.00  0.00     0.277 HD
ATOM     18  H21 UNL     1      -5.527   1.118  -0.340  1.00  0.00     0.277 HD
HETATM   19  C7  UNL     1      -2.546   0.643  -0.648  1.00  0.00     0.300 C 
ENDBRANCH  11  12
ENDBRANCH   1  11
TORSDOF 5
