REMARK  5 active torsions:
REMARK  status: ('A' for Active; 'I' for Inactive)
REMARK    1  A    between atoms: N1_1  and  C1_5 
REMARK    2  A    between atoms: C1_5  and  C2_6 
REMARK    3  A    between atoms: C2_6  and  N2_7 
REMARK    4  A    between atoms: N2_7  and  C3_10 
REMARK    5  A    between atoms: C5_15  and  N4_16 
ROOT
HETATM    1  C3  UNL     1       0.295   0.663   0.254  1.00  0.00     0.215 C 
HETATM    2  C4  UNL     1       0.892  -0.548   0.982  1.00  0.00     0.267 C 
HETATM    3  N3  UNL     1       2.329  -0.421   0.861  1.00  0.00    -0.044 N 
ATOM      4  H31 UNL     1       2.784  -1.295   0.595  1.00  0.00     0.279 HD
ATOM      5  H32 UNL     1       2.793  -0.296   1.761  1.00  0.00     0.279 HD
HETATM    6  C5  UNL     1       2.598   0.659  -0.067  1.00  0.00     0.382 C 
HETATM    7  C6  UNL     1       1.307   0.773  -0.890  1.00  0.00     0.097 C 
ENDROOT
BRANCH   1   8
HETATM    8  N2  UNL     1      -1.032   0.394  -0.207  1.00  0.00    -0.068 N 
ATOM      9  H22 UNL     1      -1.068  -0.361  -0.892  1.00  0.00     0.277 HD
ATOM     10  H21 UNL     1      -1.402   1.135  -0.803  1.00  0.00     0.277 HD
BRANCH   8  11
HETATM   11  C2  UNL     1      -1.864   0.139   0.957  1.00  0.00     0.260 C 
BRANCH  11  12
HETATM   12  C1  UNL     1      -3.283  -0.152   0.466  1.00  0.00     0.257 C 
BRANCH  12  13
HETATM   13  N1  UNL     1      -3.297  -1.309  -0.407  1.00  0.00    -0.078 N 
ATOM     14  H13 UNL     1      -2.643  -1.205  -1.183  1.00  0.00     0.274 HD
ATOM     15  H12 UNL     1      -2.877  -2.124   0.040  1.00  0.00     0.274 HD
ATOM     16  H11 UNL     1      -4.243  -1.503  -0.734  1.00  0.00     0.274 HD
ENDBRANCH  12  13
ENDBRANCH  11  12
ENDBRANCH   8  11
ENDBRANCH   1   8
BRANCH   6  17
HETATM   17  N4  UNL     1       3.726   0.425  -0.920  1.00  0.00    -0.050 N 
ATOM     18  H43 UNL     1       4.556   0.213  -0.367  1.00  0.00     0.276 HD
ATOM     19  H42 UNL     1       3.621  -0.459  -1.419  1.00  0.00     0.276 HD
ATOM     20  H41 UNL     1       3.915   1.185  -1.573  1.00  0.00     0.276 HD
ENDBRANCH   6  17
TORSDOF 5
