REMARK  3 active torsions:
REMARK  status: ('A' for Active; 'I' for Inactive)
REMARK    1  A    between atoms: C3_5  and  C4_6 
REMARK    2  A    between atoms: C4_6  and  C5_7 
REMARK    3  A    between atoms: C5_7  and  N2_8 
ROOT
HETATM    1  C4  UNL     1      -0.222   0.571  -0.507  1.00  0.00     0.078 C 
ENDROOT
BRANCH   1   2
HETATM    2  C3  UNL     1      -1.693   0.370  -0.401  1.00  0.00     0.010 A 
HETATM    3  N1  UNL     1      -2.646   1.254  -0.782  1.00  0.00    -0.369 N 
HETATM    4  C2  UNL     1      -3.868   0.747  -0.544  1.00  0.00     0.088 A 
ATOM      5  H1  UNL     1      -2.463   2.171  -1.190  1.00  0.00     0.165 HD
HETATM    6  C1  UNL     1      -3.738  -0.517   0.014  1.00  0.00     0.019 A 
HETATM    7  C8  UNL     1      -2.375  -0.726   0.091  1.00  0.00     0.026 A 
ENDBRANCH   1   2
BRANCH   1   8
HETATM    8  C5  UNL     1       0.463  -0.665   0.032  1.00  0.00     0.151 C 
BRANCH   8   9
HETATM    9  N2  UNL     1       1.908  -0.493  -0.061  1.00  0.00    -0.285 N 
HETATM   10  C6  UNL     1       2.694   0.046   0.899  1.00  0.00     0.126 A 
HETATM   11  C7  UNL     1       4.007   0.049   0.467  1.00  0.00     0.123 A 
HETATM   12  N3  UNL     1       3.974  -0.495  -0.758  1.00  0.00    -0.294 N 
HETATM   13  N4  UNL     1       2.724  -0.809  -1.051  1.00  0.00    -0.021 NA
ATOM     14  H3  UNL     1       4.781  -0.642  -1.364  1.00  0.00     0.183 HD
ENDBRANCH   8   9
ENDBRANCH   1   8
TORSDOF 3
