REMARK  4 active torsions:
REMARK  status: ('A' for Active; 'I' for Inactive)
REMARK    1  A    between atoms: C4_4  and  N1_5 
REMARK    2  A    between atoms: N1_5  and  S1_7 
REMARK    3  A    between atoms: C6_11  and  N2_12 
REMARK    4  A    between atoms: C11_20  and  N5_21 
REMARK       I    between atoms: N5_21  and  C12_23 
REMARK       I    between atoms: C12_23  and  N6_25 
ROOT
HETATM    1  N2  UNL     1      -0.509  -1.102  -0.436  1.00  0.00    -0.281 N 
HETATM    2  C7  UNL     1      -0.653  -2.422  -0.203  1.00  0.00     0.147 A 
HETATM    3  N3  UNL     1      -1.911  -3.125  -0.062  1.00  0.00    -0.080 NA
HETATM    4  C8  UNL     1       0.591  -2.979  -0.124  1.00  0.00     0.107 A 
HETATM    5  C9  UNL     1       0.967  -4.322   0.105  1.00  0.00     0.104 C 
HETATM    6  N4  UNL     1       1.260  -5.417   0.288  1.00  0.00    -0.191 NA
HETATM    7  C10 UNL     1       1.490  -1.926  -0.322  1.00  0.00     0.077 A 
HETATM    8  S2  UNL     1       3.121  -1.422  -0.434  1.00  0.00    -0.048 SA
HETATM    9  C11 UNL     1       2.850   0.235  -0.719  1.00  0.00     0.154 A 
HETATM   10  N7  UNL     1       1.523   0.333  -0.717  1.00  0.00    -0.321 N 
ATOM     11  H7  UNL     1       1.066   1.232  -0.868  1.00  0.00     0.169 HD
HETATM   12  C15 UNL     1       0.815  -0.758  -0.516  1.00  0.00     0.135 A 
ENDROOT
BRANCH   1  13
HETATM   13  C6  UNL     1      -1.624  -0.236  -0.571  1.00  0.00     0.070 A 
HETATM   14  C4  UNL     1      -2.149   0.366   0.549  1.00  0.00     0.070 A 
HETATM   15  C3  UNL     1      -3.230   1.218   0.492  1.00  0.00     0.039 A 
HETATM   16  C2  UNL     1      -3.832   1.496  -0.737  1.00  0.00    -0.054 A 
HETATM   17  C1  UNL     1      -5.010   2.424  -0.797  1.00  0.00     0.049 C 
HETATM   18  C17 UNL     1      -3.314   0.900  -1.852  1.00  0.00    -0.054 A 
HETATM   19  C16 UNL     1      -2.227   0.047  -1.775  1.00  0.00     0.039 A 
HETATM   20  C18 UNL     1      -3.919   1.165  -3.171  1.00  0.00     0.049 C 
BRANCH  14  21
HETATM   21  N1  UNL     1      -1.522   0.092   1.778  1.00  0.00    -0.283 N 
ATOM     22  H1  UNL     1      -0.504   0.055   1.825  1.00  0.00     0.178 HD
BRANCH  21  23
HETATM   23  S1  UNL     1      -2.443  -0.181   3.196  1.00  0.00     0.227 S 
HETATM   24  C5  UNL     1      -2.243  -1.873   3.751  1.00  0.00     0.186 C 
HETATM   25  O1  UNL     1      -1.935   0.759   4.279  1.00  0.00    -0.206 OA
HETATM   26  O2  UNL     1      -3.907   0.047   3.030  1.00  0.00    -0.206 OA
ENDBRANCH  21  23
ENDBRANCH  14  21
ENDBRANCH   1  13
BRANCH   9  27
HETATM   27  N5  UNL     1       3.723   1.205  -0.901  1.00  0.00    -0.289 N 
HETATM   28  C12 UNL     1       5.113   0.868  -0.863  1.00  0.00     0.323 C 
HETATM   29  O3  UNL     1       5.655   0.204  -1.796  1.00  0.00    -0.247 OA
HETATM   30  N6  UNL     1       5.923   1.266   0.221  1.00  0.00    -0.343 N 
HETATM   31  C13 UNL     1       5.336   2.022   1.299  1.00  0.00     0.154 C 
HETATM   32  C14 UNL     1       7.323   0.935   0.276  1.00  0.00     0.154 C 
ATOM     33  H5  UNL     1       3.418   2.165  -1.064  1.00  0.00     0.172 HD
ENDBRANCH   9  27
TORSDOF 4
