REMARK  14 active torsions:
REMARK  status: ('A' for Active; 'I' for Inactive)
REMARK    1  A    between atoms: C2_2  and  C3_3 
REMARK       I    between atoms: C3_3  and  N1_5 
REMARK    2  A    between atoms: N1_5  and  C4_7 
REMARK    3  A    between atoms: C4_7  and  C5_8 
REMARK    4  A    between atoms: C4_7  and  C8_13 
REMARK    5  A    between atoms: C5_8  and  C6_9 
REMARK    6  A    between atoms: C6_9  and  C7_10 
REMARK    7  A    between atoms: C8_13  and  C9_14 
REMARK    8  A    between atoms: C8_13  and  N4_17 
REMARK    9  A    between atoms: C13_21  and  C14_22 
REMARK       I    between atoms: C14_22  and  N5_24 
REMARK   10  A    between atoms: N5_24  and  C15_26 
REMARK   11  A    between atoms: C15_26  and  C16_27 
REMARK   12  A    between atoms: C15_26  and  C17_29 
REMARK       I    between atoms: C17_29  and  N6_31 
REMARK   13  A    between atoms: C18_33  and  C19_34 
REMARK   14  A    between atoms: C19_34  and  C21_36 
ROOT
HETATM    1  N4  UNL     1      -1.995  -0.577   1.487  1.00  0.00     0.117 N 
HETATM    2  C10 UNL     1      -2.850  -0.663   2.621  1.00  0.00     0.275 C 
HETATM    3  C11 UNL     1      -2.482   0.651   3.338  1.00  0.00     0.033 C 
HETATM    4  C12 UNL     1      -0.964   0.613   3.157  1.00  0.00     0.047 C 
HETATM    5  C13 UNL     1      -0.711  -0.428   2.048  1.00  0.00     0.315 C 
ENDROOT
BRANCH   1   6
HETATM    6  C8  UNL     1      -2.194  -1.495   0.431  1.00  0.00     0.334 C 
BRANCH   6   7
HETATM    7  C4  UNL     1      -3.574  -1.226  -0.178  1.00  0.00     0.127 C 
BRANCH   7   8
HETATM    8  N1  UNL     1      -3.561   0.226  -0.424  1.00  0.00    -0.350 N 
HETATM    9  C3  UNL     1      -4.519   1.147   0.002  1.00  0.00     0.240 C 
HETATM   10  O1  UNL     1      -5.515   0.750   0.664  1.00  0.00    -0.269 OA
ATOM     11  H1  UNL     1      -2.774   0.595  -0.958  1.00  0.00     0.163 HD
BRANCH   9  12
HETATM   12  C2  UNL     1      -4.473   2.577  -0.257  1.00  0.00     0.064 C 
HETATM   13  C1  UNL     1      -3.482   3.106  -0.935  1.00  0.00     0.017 C 
ENDBRANCH   9  12
ENDBRANCH   7   8
BRANCH   7  14
HETATM   14  C5  UNL     1      -3.674  -1.832  -1.562  1.00  0.00     0.036 C 
BRANCH  14  15
HETATM   15  C6  UNL     1      -4.915  -1.406  -2.298  1.00  0.00     0.101 C 
BRANCH  15  16
HETATM   16  C7  UNL     1      -6.179  -1.820  -1.699  1.00  0.00     0.231 C 
HETATM   17  N2  UNL     1      -7.420  -1.371  -2.205  1.00  0.00    -0.062 NA
HETATM   18  O2  UNL     1      -6.205  -2.593  -0.711  1.00  0.00    -0.277 OA
ENDBRANCH  15  16
ENDBRANCH  14  15
ENDBRANCH   7  14
ENDBRANCH   6   7
BRANCH   6  19
HETATM   19  C9  UNL     1      -1.946  -2.891   0.781  1.00  0.00     0.267 C 
HETATM   20  N3  UNL     1      -1.860  -3.954  -0.150  1.00  0.00    -0.060 NA
HETATM   21  O3  UNL     1      -1.780  -3.263   2.001  1.00  0.00    -0.274 OA
ENDBRANCH   6  19
ENDBRANCH   1   6
BRANCH   5  22
HETATM   22  C14 UNL     1       0.347   0.097   1.179  1.00  0.00     0.252 C 
HETATM   23  O4  UNL     1       0.183   0.435  -0.007  1.00  0.00    -0.271 OA
HETATM   24  N5  UNL     1       1.687   0.250   1.687  1.00  0.00    -0.340 N 
ATOM     25  H5  UNL     1       1.867  -0.012   2.656  1.00  0.00     0.163 HD
BRANCH  24  26
HETATM   26  C15 UNL     1       2.782   0.750   0.905  1.00  0.00     0.238 C 
BRANCH  26  27
HETATM   27  C16 UNL     1       3.189   2.101   1.431  1.00  0.00     0.266 C 
HETATM   28  O5  UNL     1       2.649   2.638   2.376  1.00  0.00    -0.304 OA
ENDBRANCH  26  27
BRANCH  26  29
HETATM   29  C17 UNL     1       3.932  -0.178   0.880  1.00  0.00     0.251 C 
HETATM   30  O6  UNL     1       3.866  -1.269   1.515  1.00  0.00    -0.270 OA
HETATM   31  N6  UNL     1       5.128   0.090   0.171  1.00  0.00    -0.338 N 
HETATM   32  C18 UNL     1       5.165   0.470  -1.046  1.00  0.00     0.068 C 
ATOM     33  H6  UNL     1       6.014  -0.028   0.663  1.00  0.00     0.167 HD
BRANCH  32  34
HETATM   34  C19 UNL     1       6.368   0.760  -1.821  1.00  0.00     0.019 C 
HETATM   35  C20 UNL     1       7.310  -0.421  -1.926  1.00  0.00     0.015 C 
BRANCH  34  36
HETATM   36  C21 UNL     1       7.176   1.914  -1.268  1.00  0.00     0.005 C 
HETATM   37  C22 UNL     1       8.381   2.092  -2.179  1.00  0.00     0.006 C 
ENDBRANCH  34  36
ENDBRANCH  32  34
ENDBRANCH  26  29
ENDBRANCH  24  26
ENDBRANCH   5  22
TORSDOF 14
