REMARK  8 active torsions:
REMARK  status: ('A' for Active; 'I' for Inactive)
REMARK    1  A    between atoms: N1_1  and  C1_5 
REMARK    2  A    between atoms: C1_5  and  C2_6 
REMARK    3  A    between atoms: C1_5  and  C3_9 
REMARK    4  A    between atoms: C1_5  and  C4_12 
REMARK    5  A    between atoms: C2_6  and  O1_7 
REMARK    6  A    between atoms: C3_9  and  O2_10 
REMARK    7  A    between atoms: C4_12  and  C5_13 
REMARK    8  A    between atoms: C5_13  and  C6_14 
ROOT
HETATM    1  C1  UNL     1       3.185  -0.325   0.195  1.00  0.00     0.165 C 
ENDROOT
BRANCH   1   2
HETATM    2  N1  UNL     1       3.524  -0.287  -1.216  1.00  0.00    -0.066 N 
ATOM      3  H13 UNL     1       3.200   0.563  -1.677  1.00  0.00     0.275 HD
ATOM      4  H12 UNL     1       4.523  -0.158  -1.378  1.00  0.00     0.275 HD
ATOM      5  H11 UNL     1       3.160  -1.134  -1.651  1.00  0.00     0.275 HD
ENDBRANCH   1   2
BRANCH   1   6
HETATM    6  C2  UNL     1       3.725   0.931   0.840  1.00  0.00     0.205 C 
BRANCH   6   7
HETATM    7  O1  UNL     1       5.123   0.923   0.658  1.00  0.00    -0.398 OA
ATOM      8  H1  UNL     1       5.462   1.712   1.063  1.00  0.00     0.209 HD
ENDBRANCH   6   7
ENDBRANCH   1   6
BRANCH   1   9
HETATM    9  C3  UNL     1       3.873  -1.558   0.765  1.00  0.00     0.205 C 
BRANCH   9  10
HETATM   10  O2  UNL     1       3.406  -2.692   0.103  1.00  0.00    -0.398 OA
ATOM     11  H2  UNL     1       3.835  -3.461   0.459  1.00  0.00     0.209 HD
ENDBRANCH   9  10
ENDBRANCH   1   9
BRANCH   1  12
HETATM   12  C4  UNL     1       1.715  -0.411   0.401  1.00  0.00     0.043 C 
BRANCH  12  13
HETATM   13  C5  UNL     1       1.001   0.756  -0.192  1.00  0.00     0.007 C 
BRANCH  13  14
HETATM   14  C6  UNL     1      -0.523   0.644   0.023  1.00  0.00    -0.014 C 
HETATM   15  C7  UNL     1      -1.141   1.839  -0.595  1.00  0.00     0.004 C 
HETATM   16  C8  UNL     1      -2.421   2.307  -0.061  1.00  0.00     0.000 C 
HETATM   17  C9  UNL     1      -3.278   1.269   0.622  1.00  0.00     0.000 C 
HETATM   18  C10 UNL     1      -4.107   0.467  -0.319  1.00  0.00     0.000 C 
HETATM   19  C11 UNL     1      -3.916  -0.986  -0.326  1.00  0.00     0.000 C 
HETATM   20  C12 UNL     1      -2.981  -1.586   0.652  1.00  0.00     0.000 C 
HETATM   21  C13 UNL     1      -1.544  -1.637   0.253  1.00  0.00     0.000 C 
HETATM   22  C14 UNL     1      -1.067  -0.588  -0.668  1.00  0.00     0.004 C 
ENDBRANCH  13  14
ENDBRANCH  12  13
ENDBRANCH   1  12
TORSDOF 8
