REMARK  15 active torsions:
REMARK  status: ('A' for Active; 'I' for Inactive)
REMARK    1  A    between atoms: C6_8  and  C7_9 
REMARK       I    between atoms: C7_9  and  N2_11 
REMARK    2  A    between atoms: N2_11  and  C8_13 
REMARK    3  A    between atoms: C8_13  and  C9_14 
REMARK    4  A    between atoms: C9_14  and  C10_15 
REMARK    5  A    between atoms: C10_15  and  N3_16 
REMARK    6  A    between atoms: C10_15  and  C11_20 
REMARK       I    between atoms: C11_20  and  N4_22 
REMARK    7  A    between atoms: N4_22  and  C12_24 
REMARK    8  A    between atoms: C12_24  and  C13_25 
REMARK    9  A    between atoms: C13_25  and  C14_26 
REMARK   10  A    between atoms: C14_26  and  C15_27 
REMARK   11  A    between atoms: C15_27  and  C16_28 
REMARK   12  A    between atoms: C16_28  and  C17_29 
REMARK   13  A    between atoms: C16_28  and  C18_36 
REMARK   14  A    between atoms: C17_29  and  O3_30 
REMARK   15  A    between atoms: N5_32  and  O4_34 
ROOT
HETATM    1  C11 UNL     1       0.300   2.538   0.762  1.00  0.00     0.248 C 
HETATM    2  O2  UNL     1       0.595   1.706  -0.145  1.00  0.00    -0.271 OA
HETATM    3  N4  UNL     1      -0.805   3.405   0.670  1.00  0.00    -0.359 N 
ATOM      4  H4  UNL     1      -0.990   4.052   1.436  1.00  0.00     0.162 HD
ENDROOT
BRANCH   3   5
HETATM    5  C12 UNL     1      -1.667   3.406  -0.453  1.00  0.00     0.122 C 
BRANCH   5   6
HETATM    6  C13 UNL     1      -2.390   2.080  -0.704  1.00  0.00     0.020 C 
BRANCH   6   7
HETATM    7  C14 UNL     1      -3.208   1.762   0.480  1.00  0.00     0.003 C 
BRANCH   7   8
HETATM    8  C15 UNL     1      -3.976   0.499   0.512  1.00  0.00     0.018 C 
BRANCH   8   9
HETATM    9  C16 UNL     1      -5.036   0.275  -0.516  1.00  0.00     0.101 C 
BRANCH   9  10
HETATM   10  C17 UNL     1      -4.562   0.230  -1.914  1.00  0.00     0.144 C 
HETATM   11  N5  UNL     1      -3.628  -0.545  -2.297  1.00  0.00    -0.251 N 
ATOM     12  H5  UNL     1      -3.395  -0.480  -3.288  1.00  0.00     0.196 HD
BRANCH  10  13
HETATM   13  O3  UNL     1      -5.143   1.050  -2.863  1.00  0.00    -0.348 OA
ATOM     14  H3  UNL     1      -4.838   1.021  -3.762  1.00  0.00     0.219 HD
ENDBRANCH  10  13
BRANCH  11  15
HETATM   15  O4  UNL     1      -2.902  -1.433  -1.605  1.00  0.00    -0.288 OA
ATOM     16  H4  UNL     1      -2.205  -2.012  -1.891  1.00  0.00     0.244 HD
ENDBRANCH  11  15
ENDBRANCH   9  10
BRANCH   9  17
HETATM   17  C18 UNL     1      -5.952  -0.866  -0.219  1.00  0.00     0.037 A 
HETATM   18  C19 UNL     1      -7.147  -0.899  -0.939  1.00  0.00     0.168 A 
HETATM   19  F1  UNL     1      -7.527   0.033  -1.837  1.00  0.00    -0.202 F 
HETATM   20  C20 UNL     1      -8.061  -1.929  -0.751  1.00  0.00     0.197 A 
HETATM   21  F2  UNL     1      -9.239  -1.981  -1.447  1.00  0.00    -0.199 F 
HETATM   22  C21 UNL     1      -7.826  -2.948   0.145  1.00  0.00     0.199 A 
HETATM   23  F3  UNL     1      -8.733  -3.954   0.321  1.00  0.00    -0.199 F 
HETATM   24  C22 UNL     1      -6.653  -2.911   0.850  1.00  0.00     0.197 A 
HETATM   25  F4  UNL     1      -6.401  -3.901   1.737  1.00  0.00    -0.199 F 
HETATM   26  C23 UNL     1      -5.729  -1.873   0.661  1.00  0.00     0.168 A 
HETATM   27  F5  UNL     1      -4.622  -1.962   1.404  1.00  0.00    -0.202 F 
ENDBRANCH   9  17
ENDBRANCH   8   9
ENDBRANCH   7   8
ENDBRANCH   6   7
ENDBRANCH   5   6
ENDBRANCH   3   5
BRANCH   1  28
HETATM   28  C10 UNL     1       1.183   2.558   1.940  1.00  0.00     0.276 C 
BRANCH  28  29
HETATM   29  C9  UNL     1       1.152   1.340   2.793  1.00  0.00     0.062 C 
BRANCH  29  30
HETATM   30  C8  UNL     1       1.570   0.073   2.101  1.00  0.00     0.125 C 
BRANCH  30  31
HETATM   31  N2  UNL     1       2.918   0.168   1.573  1.00  0.00    -0.354 N 
HETATM   32  C7  UNL     1       3.467  -0.946   0.892  1.00  0.00     0.285 C 
HETATM   33  O1  UNL     1       2.790  -1.977   0.764  1.00  0.00    -0.264 OA
ATOM     34  H2  UNL     1       3.462   1.023   1.690  1.00  0.00     0.162 HD
BRANCH  32  35
HETATM   35  C6  UNL     1       4.822  -0.909   0.331  1.00  0.00     0.178 A 
HETATM   36  N1  UNL     1       5.623   0.165   0.412  1.00  0.00    -0.330 N 
HETATM   37  C5  UNL     1       6.785  -0.196  -0.228  1.00  0.00     0.103 A 
ATOM     38  H1  UNL     1       5.414   1.060   0.855  1.00  0.00     0.168 HD
HETATM   39  C4  UNL     1       6.703  -1.474  -0.698  1.00  0.00     0.071 A 
HETATM   40  S1  UNL     1       8.348   0.291  -0.707  1.00  0.00    -0.075 SA
HETATM   41  C3  UNL     1       7.779  -1.962  -1.352  1.00  0.00     0.046 A 
HETATM   42  N6  UNL     1       5.446  -1.899  -0.327  1.00  0.00    -0.331 N 
HETATM   43  C2  UNL     1       8.858  -1.134  -1.489  1.00  0.00    -0.017 A 
HETATM   44  C1  UNL     1      10.170  -1.440  -2.174  1.00  0.00     0.056 C 
HETATM   45  C24 UNL     1       4.821  -3.181  -0.563  1.00  0.00     0.158 C 
ENDBRANCH  32  35
ENDBRANCH  30  31
ENDBRANCH  29  30
ENDBRANCH  28  29
BRANCH  28  46
HETATM   46  N3  UNL     1       0.745   3.669   2.802  1.00  0.00    -0.066 N 
ATOM     47  H33 UNL     1      -0.158   3.507   3.247  1.00  0.00     0.275 HD
ATOM     48  H32 UNL     1       1.291   3.759   3.659  1.00  0.00     0.275 HD
ATOM     49  H31 UNL     1       0.766   4.504   2.217  1.00  0.00     0.275 HD
ENDBRANCH  28  46
ENDBRANCH   1  28
TORSDOF 15
