REMARK  7 active torsions:
REMARK  status: ('A' for Active; 'I' for Inactive)
REMARK    1  A    between atoms: N1_2  and  C2_3 
REMARK       I    between atoms: N1_2  and  C11_26 
REMARK    2  A    between atoms: C2_3  and  C3_4 
REMARK    3  A    between atoms: C3_4  and  N2_5 
REMARK    4  A    between atoms: N2_5  and  C4_8 
REMARK    5  A    between atoms: C4_8  and  C5_9 
REMARK    6  A    between atoms: C6_10  and  N3_11 
REMARK    7  A    between atoms: C10_21  and  N5_22 
REMARK       I    between atoms: C11_26  and  N6_27 
REMARK       I    between atoms: C11_26  and  N7_31 
ROOT
HETATM    1  C5  UNL     1      -1.901   0.123   0.341  1.00  0.00     0.073 C 
HETATM    2  C6  UNL     1      -2.311   0.583  -1.016  1.00  0.00     0.192 C 
HETATM    3  C7  UNL     1      -3.722   0.147  -1.369  1.00  0.00     0.060 C 
HETATM    4  C8  UNL     1      -4.719   0.618  -0.335  1.00  0.00     0.234 C 
HETATM    5  N4  UNL     1      -4.968  -0.304   0.722  1.00  0.00    -0.073 N 
ATOM      6  H41 UNL     1      -5.244  -1.210   0.344  1.00  0.00     0.277 HD
ATOM      7  H42 UNL     1      -5.823  -0.052   1.218  1.00  0.00     0.277 HD
HETATM    8  C9  UNL     1      -3.887  -0.459   1.643  1.00  0.00     0.265 C 
HETATM    9  C10 UNL     1      -2.693  -1.042   0.875  1.00  0.00     0.216 C 
ENDROOT
BRANCH   1  10
HETATM   10  C4  UNL     1      -0.413  -0.106   0.414  1.00  0.00     0.241 C 
BRANCH  10  11
HETATM   11  N2  UNL     1       0.326   1.130   0.144  1.00  0.00    -0.073 N 
ATOM     12  H22 UNL     1      -0.053   1.920   0.665  1.00  0.00     0.277 HD
ATOM     13  H21 UNL     1       0.156   1.475  -0.801  1.00  0.00     0.277 HD
BRANCH  11  14
HETATM   14  C3  UNL     1       1.714   0.946   0.398  1.00  0.00     0.262 C 
BRANCH  14  15
HETATM   15  C2  UNL     1       2.470   0.069  -0.567  1.00  0.00     0.304 C 
BRANCH  15  16
HETATM   16  N1  UNL     1       3.814  -0.023  -0.009  1.00  0.00     0.143 N 
HETATM   17  C1  UNL     1       3.791  -0.827   1.202  1.00  0.00     0.315 C 
HETATM   18  C11 UNL     1       4.824  -0.413  -0.925  1.00  0.00     0.611 C 
HETATM   19  N6  UNL     1       4.900   0.579  -1.987  1.00  0.00    -0.024 N 
HETATM   20  N7  UNL     1       6.112  -0.519  -0.303  1.00  0.00    -0.024 N 
ATOM     21  H63 UNL     1       4.000   0.734  -2.441  1.00  0.00     0.279 HD
ATOM     22  H62 UNL     1       5.042   1.524  -1.629  1.00  0.00     0.279 HD
ATOM     23  H61 UNL     1       5.626   0.299  -2.646  1.00  0.00     0.279 HD
ATOM     24  H73 UNL     1       6.363   0.347   0.175  1.00  0.00     0.279 HD
ATOM     25  H72 UNL     1       6.082  -1.146   0.501  1.00  0.00     0.279 HD
ATOM     26  H71 UNL     1       6.838  -0.799  -0.962  1.00  0.00     0.279 HD
ENDBRANCH  15  16
ENDBRANCH  14  15
ENDBRANCH  11  14
ENDBRANCH  10  11
ENDBRANCH   1  10
BRANCH   2  27
HETATM   27  N3  UNL     1      -2.224   2.004  -1.223  1.00  0.00    -0.074 N 
ATOM     28  H33 UNL     1      -2.756   2.499  -0.507  1.00  0.00     0.274 HD
ATOM     29  H32 UNL     1      -1.284   2.336  -1.006  1.00  0.00     0.274 HD
ATOM     30  H31 UNL     1      -2.505   2.319  -2.152  1.00  0.00     0.274 HD
ENDBRANCH   2  27
BRANCH   9  31
HETATM   31  N5  UNL     1      -1.911  -1.795   1.851  1.00  0.00    -0.073 N 
ATOM     32  H53 UNL     1      -1.014  -2.092   1.468  1.00  0.00     0.274 HD
ATOM     33  H52 UNL     1      -1.567  -1.197   2.602  1.00  0.00     0.274 HD
ATOM     34  H51 UNL     1      -2.447  -2.584   2.213  1.00  0.00     0.274 HD
ENDBRANCH   9  31
TORSDOF 7
