REMARK  8 active torsions:
REMARK  status: ('A' for Active; 'I' for Inactive)
REMARK    1  A    between atoms: N1_2  and  C2_5 
REMARK    2  A    between atoms: C2_5  and  C3_6 
REMARK    3  A    between atoms: C3_6  and  C4_7 
REMARK    4  A    between atoms: C4_7  and  N2_8 
REMARK    5  A    between atoms: N2_8  and  C5_11 
REMARK    6  A    between atoms: C5_11  and  C6_12 
REMARK    7  A    between atoms: C8_18  and  N5_19 
REMARK    8  A    between atoms: N5_19  and  N6_21 
ROOT
HETATM    1  C6  UNL     1       0.634  -0.167  -0.238  1.00  0.00     0.109 A 
HETATM    2  N3  UNL     1       1.441  -0.451   0.798  1.00  0.00    -0.328 N 
ATOM      3  H3  UNL     1       1.121  -0.729   1.726  1.00  0.00     0.168 HD
HETATM    4  C7  UNL     1       2.737  -0.317   0.438  1.00  0.00     0.155 A 
HETATM    5  N4  UNL     1       3.918  -0.473   1.064  1.00  0.00    -0.173 N 
ATOM      6  H4  UNL     1       3.917  -0.759   2.043  1.00  0.00     0.186 HD
HETATM    7  C8  UNL     1       5.105  -0.267   0.452  1.00  0.00     0.701 A 
HETATM    8  N7  UNL     1       5.111   0.109  -0.832  1.00  0.00    -0.153 N 
ATOM      9  H7  UNL     1       5.997   0.270  -1.311  1.00  0.00     0.187 HD
HETATM   10  C9  UNL     1       3.943   0.277  -1.498  1.00  0.00     0.290 A 
HETATM   11  O1  UNL     1       3.998   0.631  -2.702  1.00  0.00    -0.265 OA
HETATM   12  C10 UNL     1       2.723   0.074  -0.898  1.00  0.00     0.148 A 
HETATM   13  N8  UNL     1       1.441   0.152  -1.264  1.00  0.00    -0.337 N 
ATOM     14  H8  UNL     1       1.119   0.417  -2.195  1.00  0.00     0.167 HD
ENDROOT
BRANCH   1  15
HETATM   15  C5  UNL     1      -0.875  -0.183  -0.287  1.00  0.00     0.308 C 
BRANCH  15  16
HETATM   16  N2  UNL     1      -1.411   1.120  -0.082  1.00  0.00    -0.069 N 
ATOM     17  H22 UNL     1      -1.001   1.780  -0.742  1.00  0.00     0.277 HD
ATOM     18  H21 UNL     1      -1.066   1.511   0.795  1.00  0.00     0.277 HD
BRANCH  16  19
HETATM   19  C4  UNL     1      -2.843   1.190  -0.131  1.00  0.00     0.234 C 
BRANCH  19  20
HETATM   20  C3  UNL     1      -3.432   0.500   1.055  1.00  0.00     0.055 C 
BRANCH  20  21
HETATM   21  C2  UNL     1      -4.948   0.556   1.080  1.00  0.00     0.233 C 
BRANCH  21  22
HETATM   22  N1  UNL     1      -5.496  -0.082  -0.085  1.00  0.00    -0.079 N 
HETATM   23  C1  UNL     1      -5.281  -1.508  -0.106  1.00  0.00     0.266 C 
ATOM     24  H12 UNL     1      -5.140   0.351  -0.937  1.00  0.00     0.276 HD
ATOM     25  H11 UNL     1      -6.487   0.137  -0.186  1.00  0.00     0.276 HD
ENDBRANCH  21  22
ENDBRANCH  20  21
ENDBRANCH  19  20
ENDBRANCH  16  19
ENDBRANCH  15  16
ENDBRANCH   1  15
BRANCH   7  26
HETATM   26  N5  UNL     1       6.147  -0.454   1.172  1.00  0.00    -0.138 N 
ATOM     27  H5  UNL     1       5.995  -0.741   2.139  1.00  0.00     0.205 HD
BRANCH  26  28
HETATM   28  N6  UNL     1       7.447  -0.305   0.767  1.00  0.00    -0.331 N 
ATOM     29  H62 UNL     1       7.580  -0.017  -0.203  1.00  0.00     0.177 HD
ATOM     30  H61 UNL     1       8.277  -0.454   1.341  1.00  0.00     0.177 HD
ENDBRANCH  26  28
ENDBRANCH   7  26
TORSDOF 8
