REMARK  14 active torsions:
REMARK  status: ('A' for Active; 'I' for Inactive)
REMARK    1  A    between atoms: C2_2  and  C3_3 
REMARK    2  A    between atoms: C2_2  and  N4_11 
REMARK    3  A    between atoms: C3_3  and  N2_7 
REMARK    4  A    between atoms: C5_14  and  N6_15 
REMARK    5  A    between atoms: N6_15  and  C6_17 
REMARK    6  A    between atoms: C8_19  and  N7_20 
REMARK    7  A    between atoms: C10_22  and  C11_23 
REMARK    8  A    between atoms: C11_23  and  O1_24 
REMARK    9  A    between atoms: C11_23  and  O2_26 
REMARK   10  A    between atoms: C12_33  and  O4_34 
REMARK   11  A    between atoms: C12_33  and  C13_36 
REMARK   12  A    between atoms: C13_36  and  O5_37 
REMARK   13  A    between atoms: C13_36  and  O6_39 
REMARK   14  A    between atoms: C15_42  and  O7_43 
ROOT
HETATM    1  N2  UNL     1      -7.089  -0.600  -1.143  1.00  0.00    -0.281 N 
ATOM      2  H2  UNL     1      -7.835  -0.419  -0.472  1.00  0.00     0.179 HD
HETATM    3  C4  UNL     1      -7.387  -1.024  -2.451  1.00  0.00     0.183 C 
HETATM    4  N3  UNL     1      -7.649  -1.376  -3.529  1.00  0.00    -0.172 NA
ENDROOT
BRANCH   1   5
HETATM    5  C3  UNL     1      -5.723  -0.429  -0.776  1.00  0.00     0.108 C 
HETATM    6  N1  UNL     1      -5.112  -1.404  -0.230  1.00  0.00    -0.387 N 
ATOM      7  H12 UNL     1      -4.134  -1.282   0.033  1.00  0.00     0.157 HD
ATOM      8  H11 UNL     1      -5.564  -2.300  -0.048  1.00  0.00     0.157 HD
BRANCH   5   9
HETATM    9  C2  UNL     1      -5.065   0.874  -1.041  1.00  0.00     0.174 C 
HETATM   10  C1  UNL     1      -5.823   1.959  -0.283  1.00  0.00     0.043 C 
BRANCH   9  11
HETATM   11  N4  UNL     1      -3.711   0.794  -0.498  1.00  0.00    -0.258 N 
HETATM   12  N5  UNL     1      -2.576   0.749  -1.155  1.00  0.00    -0.281 N 
HETATM   13  C5  UNL     1      -1.520   0.677  -0.288  1.00  0.00     0.120 A 
ATOM     14  H5  UNL     1      -2.493   0.765  -2.171  1.00  0.00     0.189 HD
HETATM   15  C14 UNL     1      -2.117   0.684   0.954  1.00  0.00     0.106 A 
HETATM   16  C15 UNL     1      -3.487   0.757   0.828  1.00  0.00     0.161 A 
BRANCH  13  17
HETATM   17  N6  UNL     1      -0.143   0.633  -0.625  1.00  0.00    -0.365 N 
ATOM     18  H6  UNL     1       0.127   0.695  -1.607  1.00  0.00     0.161 HD
BRANCH  17  19
HETATM   19  C6  UNL     1       0.871   0.506   0.358  1.00  0.00     0.155 C 
HETATM   20  C7  UNL     1       2.256   0.884  -0.232  1.00  0.00     0.086 C 
HETATM   21  C8  UNL     1       3.112   0.327   0.879  1.00  0.00     0.250 C 
HETATM   22  O3  UNL     1       2.584  -0.919   1.091  1.00  0.00    -0.322 OA
HETATM   23  C12 UNL     1       1.212  -0.888   0.800  1.00  0.00     0.235 C 
BRANCH  21  24
HETATM   24  N7  UNL     1       4.511   0.306   0.547  1.00  0.00    -0.257 N 
HETATM   25  C9  UNL     1       5.116   0.171  -0.622  1.00  0.00     0.146 A 
HETATM   26  C10 UNL     1       6.472   0.215  -0.419  1.00  0.00     0.098 A 
HETATM   27  N8  UNL     1       6.651   0.380   0.902  1.00  0.00    -0.284 N 
HETATM   28  N9  UNL     1       5.474   0.431   1.456  1.00  0.00    -0.238 N 
ATOM     29  H8  UNL     1       7.547   0.452   1.384  1.00  0.00     0.188 HD
ATOM     30  H9  UNL     1       5.312   0.551   2.456  1.00  0.00     0.208 HD
BRANCH  26  31
HETATM   31  C11 UNL     1       7.592   0.112  -1.388  1.00  0.00     0.308 C 
BRANCH  31  32
HETATM   32  O1  UNL     1       8.517   1.128  -1.059  1.00  0.00    -0.366 OA
ATOM     33  H1  UNL     1       9.234   1.062  -1.679  1.00  0.00     0.213 HD
ENDBRANCH  31  32
BRANCH  31  34
HETATM   34  O2  UNL     1       8.255  -1.108  -1.210  1.00  0.00    -0.366 OA
ATOM     35  H2  UNL     1       8.972  -1.174  -1.830  1.00  0.00     0.213 HD
ENDBRANCH  31  34
ENDBRANCH  26  31
ENDBRANCH  21  24
BRANCH  23  36
HETATM   36  O4  UNL     1       0.502  -1.189   1.960  1.00  0.00    -0.360 OA
ATOM     37  H4  UNL     1       0.718  -2.071   2.240  1.00  0.00     0.213 HD
ENDBRANCH  23  36
BRANCH  23  38
HETATM   38  C13 UNL     1       0.957  -1.972  -0.187  1.00  0.00     0.319 C 
BRANCH  38  39
HETATM   39  O5  UNL     1      -0.353  -2.105  -0.591  1.00  0.00    -0.366 OA
ATOM     40  H5  UNL     1      -0.516  -2.797  -1.221  1.00  0.00     0.212 HD
ENDBRANCH  38  39
BRANCH  38  41
HETATM   41  O6  UNL     1       1.842  -1.964  -1.265  1.00  0.00    -0.366 OA
ATOM     42  H6  UNL     1       1.679  -2.656  -1.895  1.00  0.00     0.212 HD
ENDBRANCH  38  41
ENDBRANCH  23  38
ENDBRANCH  17  19
ENDBRANCH  13  17
BRANCH  16  43
HETATM   43  O7  UNL     1      -4.406   0.783   1.861  1.00  0.00    -0.345 OA
ATOM     44  H7  UNL     1      -4.248   0.757   2.797  1.00  0.00     0.219 HD
ENDBRANCH  16  43
ENDBRANCH   9  11
ENDBRANCH   5   9
ENDBRANCH   1   5
TORSDOF 14
