REMARK  11 active torsions:
REMARK  status: ('A' for Active; 'I' for Inactive)
REMARK    1  A    between atoms: C2_2  and  C3_3 
REMARK    2  A    between atoms: C3_3  and  C5_5 
REMARK    3  A    between atoms: C5_5  and  N1_6 
REMARK    4  A    between atoms: C5_5  and  C9_16 
REMARK    5  A    between atoms: N1_6  and  C6_8 
REMARK    6  A    between atoms: C6_8  and  C7_10 
REMARK    7  A    between atoms: C7_10  and  N2_11 
REMARK       I    between atoms: N2_11  and  C8_13 
REMARK       I    between atoms: C9_16  and  N4_18 
REMARK    8  A    between atoms: C12_21  and  C13_22 
REMARK    9  A    between atoms: C16_26  and  C17_27 
REMARK   10  A    between atoms: C17_27  and  C18_28 
REMARK   11  A    between atoms: C18_28  and  C19_29 
ROOT
HETATM    1  C9  UNL     1      -3.287  -0.599   0.603  1.00  0.00     0.243 C 
HETATM    2  O2  UNL     1      -3.211  -0.810   1.864  1.00  0.00    -0.271 OA
HETATM    3  N4  UNL     1      -2.106  -0.827  -0.142  1.00  0.00    -0.345 N 
HETATM    4  C10 UNL     1      -1.933  -0.598  -1.561  1.00  0.00     0.132 C 
HETATM    5  C11 UNL     1      -0.644  -1.427  -1.806  1.00  0.00     0.015 C 
HETATM    6  C12 UNL     1      -1.012  -2.804  -1.394  1.00  0.00     0.007 C 
HETATM    7  C14 UNL     1      -0.847  -2.830   0.109  1.00  0.00     0.032 C 
HETATM    8  C15 UNL     1      -0.833  -1.349   0.413  1.00  0.00     0.092 C 
HETATM    9  C16 UNL     1       0.125  -0.841  -0.636  1.00  0.00     0.015 C 
ENDROOT
BRANCH   1  10
HETATM   10  C5  UNL     1      -4.585  -0.137   0.041  1.00  0.00     0.178 C 
BRANCH  10  11
HETATM   11  C3  UNL     1      -5.352  -1.249  -0.596  1.00  0.00     0.013 C 
HETATM   12  C4  UNL     1      -6.391  -0.913  -1.590  1.00  0.00     0.012 C 
BRANCH  11  13
HETATM   13  C2  UNL     1      -5.749  -2.338   0.388  1.00  0.00     0.002 C 
HETATM   14  C1  UNL     1      -6.954  -2.026   1.203  1.00  0.00     0.005 C 
ENDBRANCH  11  13
ENDBRANCH  10  11
BRANCH  10  15
HETATM   15  N1  UNL     1      -5.330   0.482   1.091  1.00  0.00    -0.369 N 
ATOM     16  H1  UNL     1      -5.177   0.086   2.018  1.00  0.00     0.161 HD
BRANCH  15  17
HETATM   17  C6  UNL     1      -6.234   1.544   1.046  1.00  0.00     0.092 C 
HETATM   18  S1  UNL     1      -6.994   2.074   2.431  1.00  0.00    -0.064 SA
BRANCH  17  19
HETATM   19  C7  UNL     1      -6.573   2.251  -0.201  1.00  0.00     0.193 C 
BRANCH  19  20
HETATM   20  N2  UNL     1      -7.147   3.577   0.121  1.00  0.00    -0.339 N 
HETATM   21  C8  UNL     1      -7.537   4.406  -0.952  1.00  0.00     0.329 C 
HETATM   22  N3  UNL     1      -8.100   5.702  -0.673  1.00  0.00    -0.040 NA
HETATM   23  O1  UNL     1      -7.398   4.024  -2.133  1.00  0.00    -0.251 OA
ATOM     24  H2  UNL     1      -7.257   3.882   1.088  1.00  0.00     0.164 HD
ENDBRANCH  19  20
ENDBRANCH  17  19
ENDBRANCH  15  17
ENDBRANCH  10  15
ENDBRANCH   1  10
BRANCH   9  25
HETATM   25  C17 UNL     1       1.530  -1.351  -0.507  1.00  0.00     0.007 C 
BRANCH  25  26
HETATM   26  C18 UNL     1       2.246  -0.731   0.666  1.00  0.00     0.005 C 
BRANCH  26  27
HETATM   27  C19 UNL     1       3.625  -1.180   0.916  1.00  0.00    -0.010 C 
HETATM   28  C20 UNL     1       4.145  -0.418   2.161  1.00  0.00     0.010 C 
HETATM   29  C21 UNL     1       5.213   0.528   1.780  1.00  0.00    -0.009 C 
HETATM   30  C22 UNL     1       5.308   1.745   2.683  1.00  0.00     0.006 C 
HETATM   31  C27 UNL     1       5.010   1.236   0.448  1.00  0.00     0.002 C 
HETATM   32  C23 UNL     1       5.901   2.835   1.804  1.00  0.00     0.009 C 
HETATM   33  C24 UNL     1       6.173   2.154   0.444  1.00  0.00    -0.043 C 
HETATM   34  C25 UNL     1       6.084   3.209  -0.654  1.00  0.00     0.015 C 
HETATM   35  C26 UNL     1       7.524   1.566   0.529  1.00  0.00     0.015 C 
HETATM   36  C28 UNL     1       4.733   0.390  -0.676  1.00  0.00    -0.005 C 
HETATM   37  C29 UNL     1       5.638   0.264  -1.833  1.00  0.00     0.005 C 
HETATM   38  C32 UNL     1       4.651  -1.043  -0.129  1.00  0.00    -0.006 C 
HETATM   39  C30 UNL     1       5.024  -0.979  -2.518  1.00  0.00     0.001 C 
HETATM   40  C31 UNL     1       4.638  -1.873  -1.322  1.00  0.00     0.005 C 
ENDBRANCH  26  27
ENDBRANCH  25  26
ENDBRANCH   9  25
BRANCH   6  41
HETATM   41  C13 UNL     1      -0.336  -3.920  -2.117  1.00  0.00     0.119 C 
HETATM   42 CL1  UNL     1      -0.846  -5.510  -1.544  1.00  0.00    -0.130 Cl
ENDBRANCH   6  41
TORSDOF 11
