REMARK  10 active torsions:
REMARK  status: ('A' for Active; 'I' for Inactive)
REMARK    1  A    between atoms: C2_2  and  C3_3 
REMARK    2  A    between atoms: C3_3  and  N1_4 
REMARK    3  A    between atoms: C5_9  and  C7_11 
REMARK    4  A    between atoms: C7_11  and  C8_12 
REMARK    5  A    between atoms: C8_12  and  C9_13 
REMARK    6  A    between atoms: C12_16  and  C13_17 
REMARK    7  A    between atoms: C18_22  and  O1_23 
REMARK    8  A    between atoms: C19_25  and  C20_26 
REMARK    9  A    between atoms: C20_26  and  O2_27 
REMARK   10  A    between atoms: C20_26  and  C21_29 
ROOT
HETATM    1  N1  UNL     1      -4.205  -1.002  -0.079  1.00  0.00    -0.345 N 
HETATM    2  C4  UNL     1      -3.587  -2.111  -0.782  1.00  0.00     0.171 C 
HETATM    3  S1  UNL     1      -4.369  -3.348  -1.523  1.00  0.00    -0.041 SA
HETATM    4  N2  UNL     1      -2.176  -1.896  -0.689  1.00  0.00    -0.356 N 
ATOM      5  H2  UNL     1      -1.431  -2.592  -0.691  1.00  0.00     0.162 HD
HETATM    6  C5  UNL     1      -2.054  -0.438  -0.590  1.00  0.00     0.052 C 
HETATM    7  C6  UNL     1      -2.233   0.118  -1.955  1.00  0.00     0.041 C 
HETATM    8  C19 UNL     1      -3.144  -0.151   0.381  1.00  0.00     0.147 C 
ENDROOT
BRANCH   6   9
HETATM    9  C7  UNL     1      -0.672  -0.050  -0.090  1.00  0.00     0.037 C 
BRANCH   9  10
HETATM   10  C8  UNL     1       0.336  -0.588  -1.062  1.00  0.00     0.044 C 
BRANCH  10  11
HETATM   11  C9  UNL     1       1.752  -0.290  -0.661  1.00  0.00    -0.025 A 
HETATM   12  C10 UNL     1       2.499   0.687  -1.284  1.00  0.00     0.010 A 
HETATM   13  C11 UNL     1       3.803   0.962  -0.928  1.00  0.00     0.008 A 
HETATM   14  C12 UNL     1       4.444   0.263   0.089  1.00  0.00    -0.048 A 
HETATM   15  C17 UNL     1       3.700  -0.711   0.711  1.00  0.00     0.044 A 
HETATM   16  C18 UNL     1       2.380  -0.985   0.347  1.00  0.00     0.072 A 
BRANCH  14  17
HETATM   17  C13 UNL     1       5.856   0.579   0.448  1.00  0.00    -0.024 C 
HETATM   18  C14 UNL     1       6.561   1.304  -0.684  1.00  0.00     0.019 C 
HETATM   19  C15 UNL     1       5.901   1.464   1.668  1.00  0.00     0.019 C 
HETATM   20  C16 UNL     1       6.695  -0.647   0.732  1.00  0.00     0.019 C 
ENDBRANCH  14  17
BRANCH  16  21
HETATM   21  O1  UNL     1       1.652  -1.980   0.998  1.00  0.00    -0.360 OA
ATOM     22  H1  UNL     1       2.086  -2.460   1.694  1.00  0.00     0.217 HD
ENDBRANCH  16  21
ENDBRANCH  10  11
ENDBRANCH   9  10
ENDBRANCH   6   9
BRANCH   8  23
HETATM   23  C20 UNL     1      -3.623   1.243   0.495  1.00  0.00     0.165 C 
BRANCH  23  24
HETATM   24  O2  UNL     1      -4.060   1.746  -0.713  1.00  0.00    -0.390 OA
ATOM     25  H2  UNL     1      -4.368   2.642  -0.640  1.00  0.00     0.210 HD
ENDBRANCH  23  24
BRANCH  23  26
HETATM   26  C21 UNL     1      -2.744   2.173   1.239  1.00  0.00    -0.004 C 
HETATM   27  C22 UNL     1      -2.965   3.470   1.160  1.00  0.00     0.009 C 
ENDBRANCH  23  26
ENDBRANCH   8  23
BRANCH   1  28
HETATM   28  C3  UNL     1      -5.649  -0.907   0.063  1.00  0.00     0.152 C 
BRANCH  28  29
HETATM   29  C2  UNL     1      -6.182  -1.968   0.972  1.00  0.00    -0.017 C 
HETATM   30  C1  UNL     1      -7.077  -2.827   0.538  1.00  0.00     0.008 C 
ENDBRANCH  28  29
ENDBRANCH   1  28
TORSDOF 10
