REMARK  11 active torsions:
REMARK  status: ('A' for Active; 'I' for Inactive)
REMARK    1  A    between atoms: O1_2  and  C2_3 
REMARK    2  A    between atoms: C2_3  and  C3_5 
REMARK    3  A    between atoms: C6_8  and  C7_9 
REMARK    4  A    between atoms: C12_16  and  O5_17 
REMARK    5  A    between atoms: O5_17  and  C13_18 
REMARK    6  A    between atoms: C15_21  and  C16_22 
REMARK    7  A    between atoms: C17_24  and  O8_25 
REMARK    8  A    between atoms: C18_27  and  C19_28 
REMARK    9  A    between atoms: C20_31  and  C21_32 
REMARK   10  A    between atoms: C21_32  and  O11_35 
REMARK   11  A    between atoms: O11_35  and  C24_36 
ROOT
HETATM    1  C3  UNL     1       0.740  -0.622  -0.560  1.00  0.00     0.081 A 
HETATM    2  C4  UNL     1      -0.323  -1.143  -1.477  1.00  0.00     0.015 C 
HETATM    3  C5  UNL     1      -0.905  -0.201  -2.462  1.00  0.00     0.028 C 
HETATM    4  C6  UNL     1      -2.214   0.142  -1.791  1.00  0.00     0.068 C 
HETATM    5  C8  UNL     1      -2.680  -1.329  -1.698  1.00  0.00     0.031 C 
HETATM    6  C9  UNL     1      -1.469  -1.831  -0.871  1.00  0.00    -0.035 C 
HETATM    7  C10 UNL     1      -1.435  -3.349  -1.103  1.00  0.00     0.016 C 
HETATM    8  C11 UNL     1      -1.918  -1.582   0.495  1.00  0.00     0.043 C 
HETATM    9  C12 UNL     1      -2.653  -0.260   0.629  1.00  0.00     0.151 C 
HETATM   10  C15 UNL     1      -2.120   0.706  -0.447  1.00  0.00     0.084 C 
HETATM   11  C17 UNL     1      -0.870   1.261   0.091  1.00  0.00     0.158 C 
HETATM   12  C18 UNL     1       0.347   0.489   0.316  1.00  0.00     0.101 A 
HETATM   13  C20 UNL     1       1.396   0.678  -0.755  1.00  0.00     0.063 A 
ENDROOT
BRANCH  13  14
HETATM   14  C21 UNL     1       2.783   1.111  -0.587  1.00  0.00     0.070 C 
HETATM   15  C22 UNL     1       2.875   2.660  -0.862  1.00  0.00     0.047 C 
HETATM   16  C23 UNL     1       3.584   0.565  -1.796  1.00  0.00     0.047 C 
BRANCH  14  17
HETATM   17  O11 UNL     1       3.424   0.960   0.613  1.00  0.00    -0.311 OA
BRANCH  17  18
HETATM   18  C24 UNL     1       4.709   1.318   0.860  1.00  0.00     0.255 C 
HETATM   19  C25 UNL     1       5.356   1.124   2.214  1.00  0.00     0.126 C 
HETATM   20  O12 UNL     1       5.441   1.828  -0.009  1.00  0.00    -0.266 OA
ENDBRANCH  17  18
ENDBRANCH  14  17
ENDBRANCH  13  14
BRANCH   1  21
HETATM   21  C2  UNL     1       1.555  -1.721  -0.036  1.00  0.00     0.269 C 
HETATM   22  O2  UNL     1       2.784  -1.687  -0.122  1.00  0.00    -0.264 OA
BRANCH  21  23
HETATM   23  O1  UNL     1       1.110  -2.881   0.590  1.00  0.00    -0.326 OA
HETATM   24  C1  UNL     1       1.952  -3.891   1.066  1.00  0.00     0.213 C 
ENDBRANCH  21  23
ENDBRANCH   1  21
BRANCH  12  25
HETATM   25  C19 UNL     1       0.910   0.480   1.700  1.00  0.00     0.186 C 
HETATM   26  O9  UNL     1       1.573  -0.454   2.201  1.00  0.00    -0.647 OA
HETATM   27  O10 UNL     1       0.689   1.586   2.505  1.00  0.00    -0.647 OA
ENDBRANCH  12  25
BRANCH  11  28
HETATM   28  O8  UNL     1      -0.612   2.532  -0.506  1.00  0.00    -0.393 OA
ATOM     29  H8  UNL     1       0.196   2.891  -0.158  1.00  0.00     0.210 HD
ENDBRANCH  11  28
BRANCH  10  30
HETATM   30  C16 UNL     1      -3.105   1.844  -0.386  1.00  0.00     0.247 C 
HETATM   31  O7  UNL     1      -2.881   2.933  -0.873  1.00  0.00    -0.306 OA
ENDBRANCH  10  30
BRANCH   4  32
HETATM   32  C7  UNL     1      -3.177   0.752  -2.726  1.00  0.00     0.183 C 
HETATM   33  O3  UNL     1      -2.856   1.053  -3.891  1.00  0.00    -0.647 OA
HETATM   34  O4  UNL     1      -4.462   0.995  -2.301  1.00  0.00    -0.647 OA
ENDBRANCH   4  32
BRANCH   9  35
HETATM   35  O5  UNL     1      -2.445   0.257   1.928  1.00  0.00    -0.315 OA
BRANCH  35  36
HETATM   36  C13 UNL     1      -3.415   0.533   2.846  1.00  0.00     0.255 C 
HETATM   37  C14 UNL     1      -3.076   1.078   4.187  1.00  0.00     0.126 C 
HETATM   38  O6  UNL     1      -4.608   0.321   2.547  1.00  0.00    -0.266 OA
ENDBRANCH  35  36
ENDBRANCH   9  35
TORSDOF 11
