REMARK  1 active torsions:
REMARK  status: ('A' for Active; 'I' for Inactive)
REMARK    1  A    between atoms: C2_2  and  C3_3 
ROOT
HETATM    1  C3  UNL     1      -0.023  -0.343   0.509  1.00  0.00     0.119 A 
HETATM    2  N1  UNL     1       1.038  -1.100   0.849  1.00  0.00    -0.337 N 
ATOM      3  H1  UNL     1       1.020  -2.078   1.137  1.00  0.00     0.168 HD
HETATM    4  C4  UNL     1       2.120  -0.321   0.736  1.00  0.00     0.199 A 
HETATM    5  N2  UNL     1       1.764   0.898   0.335  1.00  0.00    -0.295 N 
ATOM      6  H2  UNL     1       2.385   1.690   0.168  1.00  0.00     0.187 HD
HETATM    7  N3  UNL     1       0.460   0.882   0.197  1.00  0.00    -0.285 N 
ATOM      8  H3  UNL     1      -0.107   1.676  -0.101  1.00  0.00     0.188 HD
ENDROOT
BRANCH   1   9
HETATM    9  C2  UNL     1      -1.424  -0.702   0.463  1.00  0.00     0.040 C 
HETATM   10  C1  UNL     1      -2.329   0.171   0.105  1.00  0.00     0.015 C 
ENDBRANCH   1   9
TORSDOF 1
