REMARK  2 active torsions:
REMARK  status: ('A' for Active; 'I' for Inactive)
REMARK    1  A    between atoms: N1_2  and  C2_4 
REMARK    2  A    between atoms: C4_6  and  N2_7 
ROOT
HETATM    1  C2  UNL     1       0.375  -0.460  -0.609  1.00  0.00     0.112 A 
HETATM    2  C3  UNL     1      -0.901  -1.198  -0.434  1.00  0.00     0.061 A 
HETATM    3  C4  UNL     1      -0.936   0.328  -0.550  1.00  0.00     0.208 A 
ENDROOT
BRANCH   3   4
HETATM    4  N2  UNL     1      -1.221   1.093   0.639  1.00  0.00    -0.073 N 
ATOM      5  H23 UNL     1      -1.166   0.478   1.451  1.00  0.00     0.274 HD
ATOM      6  H22 UNL     1      -0.443   1.727   0.821  1.00  0.00     0.274 HD
ATOM      7  H21 UNL     1      -2.095   1.618   0.678  1.00  0.00     0.274 HD
ENDBRANCH   3   4
BRANCH   1   8
HETATM    8  N1  UNL     1       1.192  -0.283   0.531  1.00  0.00    -0.401 N 
HETATM    9  C1  UNL     1       2.214   0.442   0.619  1.00  0.00     0.112 C 
ATOM     10  H1  UNL     1       0.924  -0.798   1.370  1.00  0.00     0.158 HD
ENDBRANCH   1   8
TORSDOF 2
