REMARK  14 active torsions:
REMARK  status: ('A' for Active; 'I' for Inactive)
REMARK    1  A    between atoms: C2_4  and  C3_5 
REMARK    2  A    between atoms: C3_5  and  O1_7 
REMARK    3  A    between atoms: C3_5  and  C5_9 
REMARK    4  A    between atoms: C6_10  and  C7_11 
REMARK    5  A    between atoms: C8_12  and  C9_13 
REMARK    6  A    between atoms: C11_15  and  O2_16 
REMARK    7  A    between atoms: C14_19  and  O3_20 
REMARK    8  A    between atoms: O3_20  and  C15_21 
REMARK    9  A    between atoms: C16_23  and  C17_24 
REMARK   10  A    between atoms: C17_24  and  O5_25 
REMARK   11  A    between atoms: C18_27  and  O6_28 
REMARK   12  A    between atoms: C19_30  and  O7_31 
REMARK   13  A    between atoms: C20_33  and  O8_34 
REMARK   14  A    between atoms: C21_36  and  O9_37 
ROOT
HETATM    1  C9  UNL     1       1.146  -0.566   0.164  1.00  0.00     0.003 A 
HETATM    2  C10 UNL     1       1.238   0.135  -1.020  1.00  0.00     0.051 A 
HETATM    3  C11 UNL     1       0.126   0.669  -1.649  1.00  0.00     0.071 A 
HETATM    4  C13 UNL     1      -1.130   0.496  -1.070  1.00  0.00     0.076 A 
HETATM    5  C14 UNL     1      -1.276  -0.197   0.113  1.00  0.00     0.109 A 
HETATM    6  C21 UNL     1      -0.133  -0.703   0.689  1.00  0.00     0.112 A 
ENDROOT
BRANCH   5   7
HETATM    7  O3  UNL     1      -2.489  -0.407   0.744  1.00  0.00    -0.315 OA
BRANCH   7   8
HETATM    8  C15 UNL     1      -3.744   0.006   0.352  1.00  0.00     0.298 C 
HETATM    9  O4  UNL     1      -4.635  -1.061   0.133  1.00  0.00    -0.348 OA
HETATM   10  C16 UNL     1      -5.753  -0.620  -0.525  1.00  0.00     0.179 C 
HETATM   11  C18 UNL     1      -6.442   0.560   0.056  1.00  0.00     0.180 C 
HETATM   12  C19 UNL     1      -5.560   1.574   0.706  1.00  0.00     0.183 C 
HETATM   13  C20 UNL     1      -4.442   0.860   1.416  1.00  0.00     0.205 C 
BRANCH  10  14
HETATM   14  C17 UNL     1      -6.755  -1.782  -0.518  1.00  0.00     0.198 C 
BRANCH  14  15
HETATM   15  O5  UNL     1      -7.040  -2.106   0.807  1.00  0.00    -0.398 OA
ATOM     16  H5  UNL     1      -7.660  -2.825   0.811  1.00  0.00     0.209 HD
ENDBRANCH  14  15
ENDBRANCH  10  14
BRANCH  11  17
HETATM   17  O6  UNL     1      -7.450   0.232   0.958  1.00  0.00    -0.390 OA
ATOM     18  H6  UNL     1      -7.891   0.987   1.330  1.00  0.00     0.210 HD
ENDBRANCH  11  17
BRANCH  12  19
HETATM   19  O7  UNL     1      -5.000   2.411  -0.263  1.00  0.00    -0.390 OA
ATOM     20  H7  UNL     1      -4.439   3.056   0.151  1.00  0.00     0.210 HD
ENDBRANCH  12  19
BRANCH  13  21
HETATM   21  O8  UNL     1      -3.568   1.701   2.064  1.00  0.00    -0.388 OA
ATOM     22  H8  UNL     1      -4.001   2.230   2.724  1.00  0.00     0.210 HD
ENDBRANCH  13  21
ENDBRANCH   7   8
ENDBRANCH   5   7
BRANCH   6  23
HETATM   23  O9  UNL     1      -0.267  -1.413   1.898  1.00  0.00    -0.352 OA
HETATM   24  C22 UNL     1      -0.198  -0.779   3.145  1.00  0.00     0.210 C 
ENDBRANCH   6  23
BRANCH   3  25
HETATM   25  O2  UNL     1       0.270   1.364  -2.837  1.00  0.00    -0.356 OA
HETATM   26  C12 UNL     1       1.546   1.520  -3.392  1.00  0.00     0.210 C 
ENDBRANCH   3  25
BRANCH   1  27
HETATM   27  C8  UNL     1       2.282  -1.146   0.865  1.00  0.00     0.014 C 
HETATM   28  C7  UNL     1       3.507  -1.042   0.407  1.00  0.00     0.001 C 
BRANCH  28  29
HETATM   29  C6  UNL     1       4.601  -1.640   1.147  1.00  0.00    -0.001 C 
HETATM   30  C5  UNL     1       5.851  -1.583   0.761  1.00  0.00     0.016 C 
BRANCH  30  31
HETATM   31  C3  UNL     1       6.408  -0.945  -0.430  1.00  0.00     0.103 C 
HETATM   32  C4  UNL     1       5.842  -1.531  -1.680  1.00  0.00     0.056 C 
BRANCH  31  33
HETATM   33  C2  UNL     1       6.126   0.519  -0.383  1.00  0.00     0.096 C 
HETATM   34  N1  UNL     1       6.508   1.253   0.581  1.00  0.00    -0.404 N 
HETATM   35  C1  UNL     1       6.214   2.654   0.583  1.00  0.00     0.145 C 
ATOM     36  H1  UNL     1       7.027   0.842   1.357  1.00  0.00     0.158 HD
ENDBRANCH  31  33
BRANCH  31  37
HETATM   37  O1  UNL     1       7.810  -1.047  -0.461  1.00  0.00    -0.381 OA
ATOM     38  H1  UNL     1       7.990  -1.979  -0.491  1.00  0.00     0.211 HD
ENDBRANCH  31  37
ENDBRANCH  30  31
ENDBRANCH  28  29
ENDBRANCH   1  27
TORSDOF 14
