REMARK  14 active torsions:
REMARK  status: ('A' for Active; 'I' for Inactive)
REMARK    1  A    between atoms: C2_2  and  C3_3 
REMARK    2  A    between atoms: C3_3  and  O1_4 
REMARK    3  A    between atoms: O1_4  and  C4_5 
REMARK    4  A    between atoms: C6_7  and  O2_8 
REMARK    5  A    between atoms: C8_10  and  O3_11 
REMARK    6  A    between atoms: C10_13  and  O4_14 
REMARK    7  A    between atoms: C11_16  and  C12_17 
REMARK    8  A    between atoms: C14_19  and  C15_20 
REMARK    9  A    between atoms: C15_20  and  O5_21 
REMARK   10  A    between atoms: O5_21  and  C16_22 
REMARK   11  A    between atoms: C18_24  and  O6_25 
REMARK   12  A    between atoms: C19_27  and  O7_28 
REMARK   13  A    between atoms: C20_30  and  O8_31 
REMARK   14  A    between atoms: C21_33  and  O9_34 
ROOT
HETATM    1  C12 UNL     1      -1.074  -0.000   0.012  1.00  0.00     0.062 C 
HETATM    2  C13 UNL     1       0.044  -0.279  -0.962  1.00  0.00     0.074 C 
HETATM    3  C14 UNL     1       1.236  -0.503   0.041  1.00  0.00     0.040 C 
HETATM    4  C22 UNL     1       0.641  -0.041   1.281  1.00  0.00     0.182 C 
HETATM    5  O10 UNL     1      -0.727  -0.584   1.170  1.00  0.00    -0.354 OA
ENDROOT
BRANCH   1   6
HETATM    6  C11 UNL     1      -2.404  -0.057  -0.532  1.00  0.00     0.063 A 
HETATM    7  C4  UNL     1      -3.534  -0.562   0.130  1.00  0.00     0.087 A 
HETATM    8  C5  UNL     1      -4.813  -0.422  -0.422  1.00  0.00     0.077 A 
HETATM    9  C6  UNL     1      -5.001   0.214  -1.623  1.00  0.00     0.107 A 
HETATM   10  C8  UNL     1      -3.899   0.721  -2.296  1.00  0.00     0.136 A 
HETATM   11  C10 UNL     1      -2.653   0.579  -1.754  1.00  0.00     0.117 A 
BRANCH   7  12
HETATM   12  O1  UNL     1      -3.269  -1.186   1.308  1.00  0.00    -0.350 OA
BRANCH  12  13
HETATM   13  C3  UNL     1      -4.040  -1.822   2.238  1.00  0.00     0.175 C 
BRANCH  13  14
HETATM   14  C2  UNL     1      -5.096  -1.079   2.962  1.00  0.00     0.022 C 
HETATM   15  C1  UNL     1      -4.593   0.119   3.733  1.00  0.00     0.007 C 
ENDBRANCH  13  14
ENDBRANCH  12  13
ENDBRANCH   7  12
BRANCH   9  16
HETATM   16  O2  UNL     1      -6.234   0.379  -2.198  1.00  0.00    -0.353 OA
HETATM   17  C7  UNL     1      -7.413  -0.073  -1.636  1.00  0.00     0.210 C 
ENDBRANCH   9  16
BRANCH  10  18
HETATM   18  O3  UNL     1      -4.107   1.378  -3.535  1.00  0.00    -0.351 OA
HETATM   19  C9  UNL     1      -4.456   2.765  -3.377  1.00  0.00     0.210 C 
ENDBRANCH  10  18
BRANCH  11  20
HETATM   20  O4  UNL     1      -1.611   1.110  -2.486  1.00  0.00    -0.357 OA
ATOM     21  H4  UNL     1      -0.745   1.011  -2.109  1.00  0.00     0.217 HD
ENDBRANCH  11  20
ENDBRANCH   1   6
BRANCH   3  22
HETATM   22  C15 UNL     1       2.445  -0.013  -0.602  1.00  0.00     0.175 C 
BRANCH  22  23
HETATM   23  O5  UNL     1       3.639   0.071  -0.122  1.00  0.00    -0.383 OA
BRANCH  23  24
HETATM   24  C16 UNL     1       4.398  -0.725   0.597  1.00  0.00     0.155 C 
HETATM   25  C17 UNL     1       5.182   0.120   1.588  1.00  0.00     0.069 C 
HETATM   26  C18 UNL     1       6.504   0.564   1.022  1.00  0.00     0.152 C 
HETATM   27  C19 UNL     1       6.603   0.578  -0.470  1.00  0.00     0.178 C 
HETATM   28  C20 UNL     1       6.248  -0.718  -1.119  1.00  0.00     0.180 C 
HETATM   29  C21 UNL     1       5.419  -1.560  -0.212  1.00  0.00     0.178 C 
BRANCH  26  30
HETATM   30  O6  UNL     1       6.707   1.908   1.422  1.00  0.00    -0.393 OA
ATOM     31  H6  UNL     1       7.541   2.188   1.065  1.00  0.00     0.210 HD
ENDBRANCH  26  30
BRANCH  27  32
HETATM   32  O7  UNL     1       5.874   1.625  -0.992  1.00  0.00    -0.390 OA
ATOM     33  H7  UNL     1       5.937   1.634  -1.940  1.00  0.00     0.210 HD
ENDBRANCH  27  32
BRANCH  28  34
HETATM   34  O8  UNL     1       7.420  -1.420  -1.384  1.00  0.00    -0.390 OA
ATOM     35  H8  UNL     1       7.194  -2.245  -1.797  1.00  0.00     0.210 HD
ENDBRANCH  28  34
BRANCH  29  36
HETATM   36  O9  UNL     1       6.269  -2.080   0.754  1.00  0.00    -0.390 OA
ATOM     37  H9  UNL     1       6.896  -2.593   0.257  1.00  0.00     0.210 HD
ENDBRANCH  29  36
ENDBRANCH  23  24
ENDBRANCH  22  23
ENDBRANCH   3  22
TORSDOF 14
