REMARK  11 active torsions:
REMARK  status: ('A' for Active; 'I' for Inactive)
REMARK    1  A    between atoms: C2_2  and  C7_15 
REMARK    2  A    between atoms: C3_3  and  C4_4 
REMARK    3  A    between atoms: C4_4  and  C5_5 
REMARK    4  A    between atoms: C5_5  and  C6_6 
REMARK    5  A    between atoms: C6_6  and  N1_7 
REMARK    6  A    between atoms: C6_6  and  N2_11 
REMARK    7  A    between atoms: C7_15  and  N3_16 
REMARK    8  A    between atoms: N3_16  and  C8_18 
REMARK    9  A    between atoms: C8_18  and  C9_22 
REMARK   10  A    between atoms: C13_31  and  N7_32 
REMARK   11  A    between atoms: C18_44  and  O2_45 
ROOT
HETATM    1  C9  UNL     1      -1.355   0.525   0.632  1.00  0.00     0.309 C 
HETATM    2  N5  UNL     1      -1.298   1.283  -0.582  1.00  0.00    -0.055 N 
ATOM      3  H51 UNL     1      -1.334   0.667  -1.394  1.00  0.00     0.278 HD
ATOM      4  H52 UNL     1      -0.369   1.683  -0.714  1.00  0.00     0.278 HD
HETATM    5  C10 UNL     1      -2.311   2.305  -0.672  1.00  0.00     0.281 C 
HETATM    6  C11 UNL     1      -3.683   1.744  -0.591  1.00  0.00     0.080 A 
HETATM    7  C12 UNL     1      -4.130   0.461  -0.326  1.00  0.00     0.136 A 
HETATM    8  N6  UNL     1      -5.440   0.144  -0.300  1.00  0.00    -0.176 N 
ATOM      9  H6  UNL     1      -5.746  -0.809  -0.102  1.00  0.00     0.186 HD
HETATM   10  C13 UNL     1      -6.332   1.124  -0.543  1.00  0.00     0.680 A 
HETATM   11  N8  UNL     1      -5.934   2.378  -0.803  1.00  0.00    -0.156 N 
ATOM     12  H8  UNL     1      -6.638   3.094  -0.982  1.00  0.00     0.187 HD
HETATM   13  C14 UNL     1      -4.619   2.721  -0.835  1.00  0.00     0.271 A 
HETATM   14  O1  UNL     1      -4.318   3.916  -1.086  1.00  0.00    -0.267 OA
HETATM   15  N9  UNL     1      -3.356  -0.670  -0.052  1.00  0.00    -0.304 N 
HETATM   16  C15 UNL     1      -3.753  -2.037  -0.334  1.00  0.00     0.401 C 
HETATM   17  N10 UNL     1      -2.513  -2.741  -0.613  1.00  0.00     0.106 N 
HETATM   18  C16 UNL     1      -2.464  -3.979   0.118  1.00  0.00     0.312 C 
HETATM   19  C17 UNL     1      -1.421  -1.843  -0.268  1.00  0.00     0.337 C 
HETATM   20  C18 UNL     1      -2.044  -0.777   0.540  1.00  0.00     0.199 C 
ENDROOT
BRANCH   1  21
HETATM   21  C8  UNL     1      -0.010   0.386   1.232  1.00  0.00     0.107 C 
HETATM   22  N4  UNL     1       0.194   0.803   2.434  1.00  0.00    -0.387 N 
ATOM     23  H42 UNL     1       1.121   0.707   2.848  1.00  0.00     0.157 HD
ATOM     24  H41 UNL     1      -0.590   1.229   2.928  1.00  0.00     0.157 HD
BRANCH  21  25
HETATM   25  N3  UNL     1       1.079  -0.206   0.546  1.00  0.00    -0.374 N 
ATOM     26  H3  UNL     1       1.304  -1.172   0.782  1.00  0.00     0.161 HD
BRANCH  25  27
HETATM   27  C7  UNL     1       1.899   0.430  -0.455  1.00  0.00     0.154 C 
BRANCH  27  28
HETATM   28  C2  UNL     1       2.774   1.504   0.050  1.00  0.00    -0.070 C 
HETATM   29  C1  UNL     1       2.159   2.748   0.655  1.00  0.00     0.044 C 
HETATM   30  C3  UNL     1       4.067   1.478  -0.010  1.00  0.00    -0.023 C 
BRANCH  30  31
HETATM   31  C4  UNL     1       4.865   0.376  -0.552  1.00  0.00     0.031 C 
BRANCH  31  32
HETATM   32  C5  UNL     1       5.814  -0.128   0.539  1.00  0.00     0.066 C 
BRANCH  32  33
HETATM   33  C6  UNL     1       6.613  -1.264  -0.066  1.00  0.00     0.378 C 
BRANCH  33  34
HETATM   34  N1  UNL     1       7.367  -0.813  -1.210  1.00  0.00    -0.051 N 
ATOM     35  H13 UNL     1       6.768  -0.364  -1.902  1.00  0.00     0.276 HD
ATOM     36  H12 UNL     1       7.961  -0.016  -0.979  1.00  0.00     0.276 HD
ATOM     37  H11 UNL     1       7.905  -1.578  -1.617  1.00  0.00     0.276 HD
ENDBRANCH  33  34
BRANCH  33  38
HETATM   38  N2  UNL     1       5.684  -2.308  -0.469  1.00  0.00    -0.051 N 
ATOM     39  H23 UNL     1       5.081  -2.614   0.294  1.00  0.00     0.276 HD
ATOM     40  H22 UNL     1       4.953  -1.965  -1.093  1.00  0.00     0.276 HD
ATOM     41  H21 UNL     1       6.222  -3.073  -0.876  1.00  0.00     0.276 HD
ENDBRANCH  33  38
ENDBRANCH  32  33
ENDBRANCH  31  32
ENDBRANCH  30  31
ENDBRANCH  27  28
ENDBRANCH  25  27
ENDBRANCH  21  25
ENDBRANCH   1  21
BRANCH  20  42
HETATM   42  O2  UNL     1      -2.203  -1.265   1.857  1.00  0.00    -0.367 OA
ATOM     43  H2  UNL     1      -2.646  -2.103   1.798  1.00  0.00     0.212 HD
ENDBRANCH  20  42
BRANCH  10  44
HETATM   44  N7  UNL     1      -7.586   0.783  -0.511  1.00  0.00    -0.234 N 
ATOM     45  H72 UNL     1      -7.889  -0.171  -0.313  1.00  0.00     0.174 HD
ATOM     46  H71 UNL     1      -8.261   1.525  -0.695  1.00  0.00     0.174 HD
ENDBRANCH  10  44
TORSDOF 11
