REMARK  10 active torsions:
REMARK  status: ('A' for Active; 'I' for Inactive)
REMARK    1  A    between atoms: C2_3  and  C3_4 
REMARK    2  A    between atoms: C2_3  and  N7_22 
REMARK    3  A    between atoms: C3_4  and  C4_5 
REMARK    4  A    between atoms: C4_5  and  C5_6 
REMARK    5  A    between atoms: C5_6  and  N2_7 
REMARK    6  A    between atoms: N2_7  and  C6_9 
REMARK    7  A    between atoms: C7_14  and  N5_15 
REMARK    8  A    between atoms: N7_22  and  C9_24 
REMARK    9  A    between atoms: C9_24  and  C10_26 
REMARK   10  A    between atoms: C14_34  and  N11_35 
ROOT
HETATM    1  N1  UNL     1       0.004  -3.802   2.660  1.00  0.00    -0.195 NA
HETATM    2  C1  UNL     1      -0.125  -2.991   1.815  1.00  0.00     0.084 C 
HETATM    3  C2  UNL     1      -0.311  -1.983   0.789  1.00  0.00     0.190 C 
ENDROOT
BRANCH   3   4
HETATM    4  C3  UNL     1      -1.066  -2.543  -0.368  1.00  0.00     0.042 C 
BRANCH   4   5
HETATM    5  C4  UNL     1      -1.268  -1.531  -1.461  1.00  0.00     0.023 C 
BRANCH   5   6
HETATM    6  C5  UNL     1      -2.037  -0.324  -1.007  1.00  0.00     0.121 C 
BRANCH   6   7
HETATM    7  N2  UNL     1      -3.346  -0.626  -0.522  1.00  0.00    -0.371 N 
ATOM      8  H2  UNL     1      -3.679  -1.590  -0.499  1.00  0.00     0.161 HD
BRANCH   7   9
HETATM    9  C6  UNL     1      -4.099   0.333  -0.115  1.00  0.00     0.186 A 
HETATM   10  N3  UNL     1      -3.673   1.605  -0.139  1.00  0.00    -0.267 N 
HETATM   11  N4  UNL     1      -4.438   2.607   0.277  1.00  0.00    -0.131 N 
ATOM     12  H3  UNL     1      -2.736   1.808  -0.486  1.00  0.00     0.189 HD
HETATM   13  C7  UNL     1      -5.675   2.387   0.743  1.00  0.00     0.693 A 
ATOM     14  H4  UNL     1      -4.078   3.561   0.241  1.00  0.00     0.205 HD
HETATM   15  N6  UNL     1      -6.138   1.125   0.784  1.00  0.00    -0.152 N 
HETATM   16  C8  UNL     1      -5.371   0.096   0.363  1.00  0.00     0.304 A 
ATOM     17  H6  UNL     1      -7.078   0.943   1.137  1.00  0.00     0.188 HD
HETATM   18  O1  UNL     1      -5.852  -1.063   0.422  1.00  0.00    -0.263 OA
BRANCH  13  19
HETATM   19  N5  UNL     1      -6.380   3.387   1.136  1.00  0.00    -0.233 N 
ATOM     20  H52 UNL     1      -6.029   4.344   1.105  1.00  0.00     0.174 HD
ATOM     21  H51 UNL     1      -7.322   3.220   1.491  1.00  0.00     0.174 HD
ENDBRANCH  13  19
ENDBRANCH   7   9
ENDBRANCH   6   7
ENDBRANCH   5   6
ENDBRANCH   4   5
ENDBRANCH   3   4
BRANCH   3  22
HETATM   22  N7  UNL     1       0.901  -1.297   0.490  1.00  0.00    -0.361 N 
ATOM     23  H7  UNL     1       0.867  -0.301   0.706  1.00  0.00     0.162 HD
BRANCH  22  24
HETATM   24  C9  UNL     1       1.976  -1.659   0.026  1.00  0.00     0.124 C 
HETATM   25  N8  UNL     1       1.950  -3.108  -0.264  1.00  0.00    -0.082 NA
BRANCH  24  26
HETATM   26  C10 UNL     1       3.214  -1.047  -0.303  1.00  0.00     0.025 A 
HETATM   27  C11 UNL     1       4.251  -1.856  -0.835  1.00  0.00     0.033 A 
HETATM   28  C12 UNL     1       5.472  -1.381  -1.186  1.00  0.00     0.090 A 
HETATM   29  N9  UNL     1       5.742  -0.090  -1.035  1.00  0.00    -0.351 N 
HETATM   30  C13 UNL     1       4.794   0.718  -0.537  1.00  0.00     0.137 A 
ATOM     31  H9  UNL     1       6.656   0.282  -1.294  1.00  0.00     0.166 HD
HETATM   32  N10 UNL     1       5.077   2.040  -0.388  1.00  0.00    -0.176 N 
HETATM   33  C16 UNL     1       3.521   0.289  -0.158  1.00  0.00     0.090 A 
HETATM   34  C14 UNL     1       4.205   2.928   0.096  1.00  0.00     0.680 A 
ATOM     35  H10 UNL     1       6.003   2.370  -0.660  1.00  0.00     0.186 HD
HETATM   36  N12 UNL     1       2.996   2.492   0.450  1.00  0.00    -0.155 N 
HETATM   37  C15 UNL     1       2.619   1.186   0.338  1.00  0.00     0.274 A 
ATOM     38  H12 UNL     1       2.324   3.164   0.821  1.00  0.00     0.187 HD
HETATM   39  O2  UNL     1       1.480   0.881   0.691  1.00  0.00    -0.267 OA
BRANCH  34  40
HETATM   40  N11 UNL     1       4.548   4.184   0.211  1.00  0.00    -0.234 N 
ATOM     41 2H11 UNL     1       5.473   4.518  -0.060  1.00  0.00     0.174 HD
ATOM     42 1H11 UNL     1       3.882   4.862   0.581  1.00  0.00     0.174 HD
ENDBRANCH  34  40
ENDBRANCH  24  26
ENDBRANCH  22  24
ENDBRANCH   3  22
TORSDOF 10
