REMARK  10 active torsions:
REMARK  status: ('A' for Active; 'I' for Inactive)
REMARK    1  A    between atoms: N1_1  and  C1_4 
REMARK    2  A    between atoms: C4_9  and  N3_10 
REMARK    3  A    between atoms: N3_10  and  C5_12 
REMARK    4  A    between atoms: C6_15  and  C7_16 
REMARK    5  A    between atoms: C7_16  and  N5_17 
REMARK    6  A    between atoms: C7_16  and  C8_21 
REMARK    7  A    between atoms: C8_21  and  N6_22 
REMARK    8  A    between atoms: C10_29  and  N10_30 
REMARK    9  A    between atoms: N10_30  and  C11_32 
REMARK   10  A    between atoms: C14_35  and  C15_36 
ROOT
HETATM    1  C5  UNL     1      -0.920   2.161  -0.157  1.00  0.00     0.712 A 
HETATM    2  N4  UNL     1      -1.678   1.170  -0.642  1.00  0.00    -0.177 N 
ATOM      3  H4  UNL     1      -2.663   1.350  -0.836  1.00  0.00     0.185 HD
HETATM    4  C6  UNL     1      -1.178  -0.057  -0.881  1.00  0.00     0.145 A 
HETATM    5  N9  UNL     1       0.141  -0.267  -0.611  1.00  0.00    -0.177 N 
ATOM      6  H9  UNL     1       0.540  -1.190  -0.784  1.00  0.00     0.185 HD
HETATM    7  C10 UNL     1       0.927   0.698  -0.127  1.00  0.00     0.698 A 
HETATM    8  N12 UNL     1       0.397   1.903   0.098  1.00  0.00    -0.021 N 
ATOM      9  H12 UNL     1       0.988   2.647   0.468  1.00  0.00     0.203 HD
ENDROOT
BRANCH   1  10
HETATM   10  N3  UNL     1      -1.439   3.328   0.060  1.00  0.00    -0.021 N 
ATOM     11  H3  UNL     1      -2.427   3.485  -0.141  1.00  0.00     0.203 HD
BRANCH  10  12
HETATM   12  C4  UNL     1      -0.647   4.397   0.577  1.00  0.00     0.698 A 
HETATM   13  N2  UNL     1      -0.538   4.550   1.908  1.00  0.00    -0.201 N 
HETATM   14  C3  UNL     1       0.176   5.513   2.473  1.00  0.00     0.110 A 
ATOM     15  H2  UNL     1      -1.029   3.892   2.513  1.00  0.00     0.183 HD
HETATM   16  C2  UNL     1       0.839   6.402   1.635  1.00  0.00     0.066 A 
HETATM   17  C1  UNL     1       0.714   6.226   0.269  1.00  0.00     0.116 A 
HETATM   18  N13 UNL     1      -0.016   5.241  -0.251  1.00  0.00    -0.176 N 
ATOM     19  H13 UNL     1      -0.094   5.131  -1.262  1.00  0.00     0.186 HD
BRANCH  17  20
HETATM   20  N1  UNL     1       1.320   7.038  -0.511  1.00  0.00    -0.385 N 
ATOM     21  H12 UNL     1       1.879   7.792  -0.113  1.00  0.00     0.157 HD
ATOM     22  H11 UNL     1       1.228   6.908  -1.518  1.00  0.00     0.157 HD
ENDBRANCH  17  20
ENDBRANCH  10  12
ENDBRANCH   1  10
BRANCH   4  23
HETATM   23  C7  UNL     1      -2.056  -1.127  -1.420  1.00  0.00     0.269 C 
BRANCH  23  24
HETATM   24  N5  UNL     1      -2.868  -0.615  -2.499  1.00  0.00    -0.067 N 
ATOM     25  H53 UNL     1      -3.401   0.207  -2.216  1.00  0.00     0.275 HD
ATOM     26  H52 UNL     1      -2.301  -0.184  -3.230  1.00  0.00     0.275 HD
ATOM     27  H51 UNL     1      -3.471  -1.350  -2.869  1.00  0.00     0.275 HD
ENDBRANCH  23  24
BRANCH  23  28
HETATM   28  C8  UNL     1      -2.941  -1.594  -0.263  1.00  0.00     0.162 C 
BRANCH  28  29
HETATM   29  N6  UNL     1      -3.836  -2.632  -0.667  1.00  0.00    -0.364 N 
HETATM   30  C9  UNL     1      -4.889  -2.902   0.019  1.00  0.00     0.197 C 
HETATM   31  N7  UNL     1      -5.725  -3.945  -0.447  1.00  0.00    -0.067 NA
HETATM   32  N8  UNL     1      -5.156  -2.156   1.188  1.00  0.00    -0.067 NA
ATOM     33  H6  UNL     1      -3.636  -3.167  -1.512  1.00  0.00     0.161 HD
ENDBRANCH  28  29
ENDBRANCH  23  28
ENDBRANCH   4  23
BRANCH   7  34
HETATM   34  N10 UNL     1       2.143   0.470   0.111  1.00  0.00    -0.191 N 
ATOM     35  H10 UNL     1       2.692   1.247   0.480  1.00  0.00     0.184 HD
BRANCH  34  36
HETATM   36  C11 UNL     1       2.821  -0.749  -0.081  1.00  0.00     0.049 A 
HETATM   37  C12 UNL     1       2.772  -1.471  -1.255  1.00  0.00     0.031 A 
HETATM   38  C13 UNL     1       3.458  -2.676  -1.406  1.00  0.00     0.019 A 
HETATM   39  C14 UNL     1       4.208  -3.177  -0.374  1.00  0.00     0.029 A 
HETATM   40  C16 UNL     1       4.271  -2.471   0.814  1.00  0.00     0.019 A 
HETATM   41  C17 UNL     1       3.585  -1.279   0.946  1.00  0.00     0.031 A 
BRANCH  39  42
HETATM   42  C15 UNL     1       4.936  -4.433  -0.499  1.00  0.00     0.264 C 
HETATM   43  N11 UNL     1       5.705  -4.933   0.586  1.00  0.00    -0.057 NA
HETATM   44  O1  UNL     1       4.896  -5.090  -1.565  1.00  0.00    -0.271 OA
ENDBRANCH  39  42
ENDBRANCH  34  36
ENDBRANCH   7  34
TORSDOF 10
