REMARK  7 active torsions:
REMARK  status: ('A' for Active; 'I' for Inactive)
REMARK    1  A    between atoms: C1_2  and  C2_4 
REMARK    2  A    between atoms: N2_6  and  C4_7 
REMARK    3  A    between atoms: N3_11  and  C8_12 
REMARK    4  A    between atoms: C8_12  and  C9_13 
REMARK    5  A    between atoms: C9_13  and  S1_14 
REMARK    6  A    between atoms: S1_14  and  C10_15 
REMARK    7  A    between atoms: C10_15  and  C11_16 
ROOT
HETATM    1  C4  UNL     1      -1.039  -0.793  -0.739  1.00  0.00     0.118 C 
HETATM    2  C5  UNL     1      -0.122  -0.916  -1.922  1.00  0.00     0.029 C 
HETATM    3  C6  UNL     1       1.341  -0.837  -1.481  1.00  0.00     0.032 C 
HETATM    4  C7  UNL     1       1.343  -1.252  -0.029  1.00  0.00     0.272 C 
HETATM    5  N3  UNL     1       0.812  -0.205   0.753  1.00  0.00     0.091 N 
HETATM    6  C12 UNL     1      -0.504   0.141   0.311  1.00  0.00     0.298 C 
ENDROOT
BRANCH   1   7
HETATM    7  N2  UNL     1      -2.319  -0.272  -1.175  1.00  0.00    -0.344 N 
HETATM    8  C3  UNL     1      -3.355   0.048  -0.345  1.00  0.00     0.127 A 
HETATM    9  C2  UNL     1      -4.430   0.513  -1.064  1.00  0.00     0.114 A 
HETATM   10  N4  UNL     1      -4.044   0.477  -2.350  1.00  0.00    -0.347 N 
HETATM   11  C13 UNL     1      -2.772   0.003  -2.404  1.00  0.00     0.183 A 
ATOM     12  H4  UNL     1      -4.610   0.758  -3.151  1.00  0.00     0.167 HD
BRANCH   9  13
HETATM   13  C1  UNL     1      -5.682   0.932  -0.479  1.00  0.00     0.282 C 
HETATM   14  N1  UNL     1      -5.928   0.897   0.913  1.00  0.00    -0.056 NA
HETATM   15  O1  UNL     1      -6.599   1.349  -1.249  1.00  0.00    -0.269 OA
ENDBRANCH   9  13
ENDBRANCH   1   7
BRANCH   5  16
HETATM   16  C8  UNL     1       0.967  -0.293   2.149  1.00  0.00     0.282 C 
BRANCH  16  17
HETATM   17  C9  UNL     1       2.309  -0.144   2.748  1.00  0.00     0.104 C 
BRANCH  17  18
HETATM   18  S1  UNL     1       3.107   1.450   2.468  1.00  0.00    -0.167 SA
BRANCH  18  19
HETATM   19  C10 UNL     1       3.564   1.732   0.765  1.00  0.00     0.084 C 
BRANCH  19  20
HETATM   20  C11 UNL     1       4.668   0.801   0.298  1.00  0.00     0.096 C 
HETATM   21  S2  UNL     1       5.030   1.197  -1.433  1.00  0.00    -0.097 SA
ENDBRANCH  19  20
ENDBRANCH  18  19
ENDBRANCH  17  18
ENDBRANCH  16  17
ENDBRANCH   5  16
TORSDOF 7
