REMARK  6 active torsions:
REMARK  status: ('A' for Active; 'I' for Inactive)
REMARK    1  A    between atoms: C1_2  and  C2_3 
REMARK       I    between atoms: C1_2  and  N1_10 
REMARK    2  A    between atoms: C2_3  and  C3_4 
REMARK       I    between atoms: N1_10  and  C7_12 
REMARK       I    between atoms: C7_12  and  N2_14 
REMARK    3  A    between atoms: N2_14  and  C8_16 
REMARK    4  A    between atoms: C8_16  and  C9_17 
REMARK    5  A    between atoms: C9_17  and  C10_18 
REMARK    6  A    between atoms: C10_18  and  N3_19 
ROOT
HETATM    1  O1  UNL     1      -1.418   0.596  -0.698  1.00  0.00    -0.273 OA
HETATM    2  C1  UNL     1      -1.740  -0.379  -0.220  1.00  0.00     0.228 C 
HETATM    3  N1  UNL     1      -0.439  -1.479   0.176  1.00  0.00    -0.279 N 
ATOM      4  H1  UNL     1      -0.438  -2.421   0.568  1.00  0.00     0.173 HD
HETATM    5  C7  UNL     1       0.611  -0.624  -0.230  1.00  0.00     0.322 C 
HETATM    6  O3  UNL     1       0.559   0.549  -0.528  1.00  0.00    -0.247 OA
HETATM    7  N2  UNL     1       1.940  -1.245  -0.298  1.00  0.00    -0.343 N 
ATOM      8  H2  UNL     1       2.055  -2.236  -0.086  1.00  0.00     0.164 HD
ENDROOT
BRANCH   7   9
HETATM    9  C8  UNL     1       3.078  -0.448  -0.665  1.00  0.00     0.126 C 
BRANCH   9  10
HETATM   10  C9  UNL     1       3.404   0.619   0.326  1.00  0.00     0.040 C 
BRANCH  10  11
HETATM   11  C10 UNL     1       4.578   1.488  -0.045  1.00  0.00     0.130 C 
BRANCH  11  12
HETATM   12  N3  UNL     1       5.751   0.674  -0.194  1.00  0.00    -0.352 N 
HETATM   13  C11 UNL     1       6.248   0.065  -1.298  1.00  0.00     0.108 A 
HETATM   14  C12 UNL     1       7.394  -0.599  -0.936  1.00  0.00     0.106 A 
HETATM   15  N4  UNL     1       7.592  -0.396   0.372  1.00  0.00    -0.361 N 
HETATM   16  C13 UNL     1       6.600   0.376   0.829  1.00  0.00     0.182 A 
ATOM     17  H4  UNL     1       8.365  -0.766   0.925  1.00  0.00     0.166 HD
ENDBRANCH  11  12
ENDBRANCH  10  11
ENDBRANCH   9  10
ENDBRANCH   7   9
BRANCH   2  18
HETATM   18  C2  UNL     1      -2.962  -1.010   0.176  1.00  0.00     0.146 C 
BRANCH  18  19
HETATM   19  C3  UNL     1      -4.209  -0.308  -0.282  1.00  0.00     0.191 C 
HETATM   20  O2  UNL     1      -5.278  -1.056   0.207  1.00  0.00    -0.375 OA
HETATM   21  C4  UNL     1      -6.503  -0.639  -0.223  1.00  0.00     0.170 C 
HETATM   22  C5  UNL     1      -6.879   0.772   0.052  1.00  0.00     0.036 C 
HETATM   23  C6  UNL     1      -6.030   1.481   1.078  1.00  0.00     0.078 C 
HETATM   24  S1  UNL     1      -4.287   1.313   0.527  1.00  0.00    -0.137 SA
ENDBRANCH  18  19
ENDBRANCH   2  18
TORSDOF 6
