REMARK  2 active torsions:
REMARK  status: ('A' for Active; 'I' for Inactive)
REMARK    1  A    between atoms: C4_11  and  N5_12 
REMARK    2  A    between atoms: N5_12  and  N6_14 
ROOT
HETATM    1  C1  UNL     1      -0.382   2.378   0.732  1.00  0.00     0.180 C 
HETATM    2  N1  UNL     1       0.041   1.029   0.395  1.00  0.00    -0.273 N 
HETATM    3  N2  UNL     1       1.322   0.811   0.153  1.00  0.00    -0.270 N 
ATOM      4  H2  UNL     1       1.967   1.599   0.212  1.00  0.00     0.190 HD
HETATM    5  C2  UNL     1       1.818  -0.399  -0.167  1.00  0.00     0.210 A 
HETATM    6  N3  UNL     1       3.209  -0.548  -0.412  1.00  0.00    -0.062 NA
HETATM    7  N4  UNL     1       0.958  -1.429  -0.242  1.00  0.00    -0.293 N 
ATOM      8  H4  UNL     1       1.316  -2.353  -0.484  1.00  0.00     0.172 HD
HETATM    9  C3  UNL     1      -0.358  -1.283  -0.009  1.00  0.00     0.294 A 
HETATM   10  O1  UNL     1      -1.138  -2.266  -0.086  1.00  0.00    -0.264 OA
HETATM   11  C4  UNL     1      -0.816  -0.006   0.319  1.00  0.00     0.205 A 
ENDROOT
BRANCH  11  12
HETATM   12  N5  UNL     1      -2.060   0.203   0.553  1.00  0.00    -0.286 N 
ATOM     13  H5  UNL     1      -2.351   1.152   0.788  1.00  0.00     0.188 HD
BRANCH  12  14
HETATM   14  N6  UNL     1      -3.031  -0.783   0.505  1.00  0.00    -0.343 N 
ATOM     15  H62 UNL     1      -2.722  -1.726   0.268  1.00  0.00     0.176 HD
ATOM     16  H61 UNL     1      -4.020  -0.617   0.691  1.00  0.00     0.176 HD
ENDBRANCH  12  14
ENDBRANCH  11  12
TORSDOF 2
