REMARK  17 active torsions:
REMARK  status: ('A' for Active; 'I' for Inactive)
REMARK    1  A    between atoms: N5_15  and  C6_16 
REMARK    2  A    between atoms: C7_18  and  C8_19 
REMARK    3  A    between atoms: C8_19  and  O2_20 
REMARK    4  A    between atoms: C10_23  and  N6_24 
REMARK       I    between atoms: N6_24  and  C11_26 
REMARK    5  A    between atoms: C11_26  and  C12_28 
REMARK    6  A    between atoms: C13_31  and  C14_32 
REMARK    7  A    between atoms: C15_35  and  N9_36 
REMARK    8  A    between atoms: C16_41  and  N11_42 
REMARK    9  A    between atoms: N11_42  and  C17_44 
REMARK   10  A    between atoms: C17_44  and  C18_45 
REMARK   11  A    between atoms: C18_45  and  C19_46 
REMARK   12  A    between atoms: C19_46  and  S1_47 
REMARK   13  A    between atoms: S1_47  and  C20_48 
REMARK   14  A    between atoms: C21_51  and  C22_52 
REMARK   15  A    between atoms: C22_52  and  O4_53 
REMARK   16  A    between atoms: C22_52  and  C23_55 
REMARK   17  A    between atoms: C23_55  and  O5_56 
ROOT
HETATM    1  C12 UNL     1      -2.331   2.491   0.841  1.00  0.00     0.240 A 
HETATM    2  N7  UNL     1      -1.086   2.424   0.401  1.00  0.00    -0.313 N 
ATOM      3  H7  UNL     1      -0.805   2.336  -0.575  1.00  0.00     0.170 HD
HETATM    4  C13 UNL     1      -0.261   2.491   1.442  1.00  0.00     0.163 A 
HETATM    5  N15 UNL     1      -1.021   2.602   2.544  1.00  0.00    -0.240 N 
ATOM      6  H15 UNL     1      -0.690   2.675   3.506  1.00  0.00     0.196 HD
HETATM    7  O6  UNL     1      -2.260   2.598   2.149  1.00  0.00    -0.212 OA
ENDROOT
BRANCH   4   8
HETATM    8  C14 UNL     1       1.197   2.424   1.402  1.00  0.00     0.139 A 
HETATM    9  N8  UNL     1       1.984   2.502   2.483  1.00  0.00    -0.182 N 
HETATM   10  C15 UNL     1       3.319   2.421   2.501  1.00  0.00     0.678 A 
ATOM     11  H8  UNL     1       1.519   2.636   3.381  1.00  0.00     0.185 HD
HETATM   12  N10 UNL     1       4.117   2.248   1.441  1.00  0.00    -0.171 N 
HETATM   13  C16 UNL     1       3.746   2.121   0.173  1.00  0.00     0.161 A 
ATOM     14  H10 UNL     1       5.119   2.210   1.628  1.00  0.00     0.186 HD
HETATM   15  S2  UNL     1       2.039   2.201  -0.059  1.00  0.00    -0.032 SA
BRANCH  10  16
HETATM   16  N9  UNL     1       3.853   2.533   3.704  1.00  0.00    -0.234 N 
ATOM     17  H92 UNL     1       3.245   2.665   4.512  1.00  0.00     0.174 HD
ATOM     18  H91 UNL     1       4.871   2.471   3.718  1.00  0.00     0.174 HD
ENDBRANCH  10  16
BRANCH  13  19
HETATM   19  N11 UNL     1       4.469   1.916  -0.844  1.00  0.00    -0.370 N 
ATOM     20  H11 UNL     1       3.962   1.855  -1.727  1.00  0.00     0.161 HD
BRANCH  19  21
HETATM   21  C17 UNL     1       5.878   1.757  -0.949  1.00  0.00     0.122 C 
BRANCH  21  22
HETATM   22  C18 UNL     1       6.214   0.353  -0.477  1.00  0.00     0.030 C 
BRANCH  22  23
HETATM   23  C19 UNL     1       5.527  -0.702  -1.275  1.00  0.00     0.084 C 
BRANCH  23  24
HETATM   24  S1  UNL     1       5.916  -0.760  -3.015  1.00  0.00    -0.092 SA
BRANCH  24  25
HETATM   25  C20 UNL     1       7.581  -1.269  -3.357  1.00  0.00     0.160 A 
HETATM   26  N12 UNL     1       8.565  -1.628  -2.531  1.00  0.00    -0.322 N 
HETATM   27  C21 UNL     1       9.637  -1.942  -3.243  1.00  0.00     0.129 A 
ATOM     28  H12 UNL     1       8.502  -1.656  -1.513  1.00  0.00     0.169 HD
HETATM   29  N13 UNL     1       9.338  -1.783  -4.546  1.00  0.00    -0.285 N 
HETATM   30  N14 UNL     1       8.074  -1.369  -4.609  1.00  0.00    -0.278 N 
ATOM     31  H13 UNL     1       9.962  -1.948  -5.336  1.00  0.00     0.188 HD
ATOM     32  H14 UNL     1       7.561  -1.161  -5.466  1.00  0.00     0.189 HD
BRANCH  27  33
HETATM   33  C22 UNL     1      10.955  -2.401  -2.757  1.00  0.00     0.210 C 
BRANCH  33  34
HETATM   34  O4  UNL     1      11.283  -1.585  -1.669  1.00  0.00    -0.386 OA
ATOM     35  H4  UNL     1      12.130  -1.880  -1.357  1.00  0.00     0.210 HD
ENDBRANCH  33  34
BRANCH  33  36
HETATM   36  C23 UNL     1      10.796  -3.820  -2.208  1.00  0.00     0.203 C 
BRANCH  36  37
HETATM   37  O5  UNL     1      11.992  -4.224  -1.620  1.00  0.00    -0.398 OA
ATOM     38  H5  UNL     1      11.893  -5.105  -1.279  1.00  0.00     0.209 HD
ENDBRANCH  36  37
ENDBRANCH  33  36
ENDBRANCH  27  33
ENDBRANCH  24  25
ENDBRANCH  23  24
ENDBRANCH  22  23
ENDBRANCH  21  22
ENDBRANCH  19  21
ENDBRANCH  13  19
ENDBRANCH   4   8
BRANCH   1  39
HETATM   39  C11 UNL     1      -3.572   2.456   0.040  1.00  0.00     0.296 C 
HETATM   40  N6  UNL     1      -4.807   2.345   0.736  1.00  0.00    -0.327 N 
ATOM     41  H6  UNL     1      -4.775   2.293   1.754  1.00  0.00     0.165 HD
HETATM   42  O3  UNL     1      -3.490   2.521  -1.213  1.00  0.00    -0.264 OA
BRANCH  40  43
HETATM   43  C10 UNL     1      -6.104   2.301   0.102  1.00  0.00     0.231 C 
HETATM   44  C9  UNL     1      -7.141   2.779   1.085  1.00  0.00     0.088 C 
HETATM   45  C7  UNL     1      -7.398   1.630   2.034  1.00  0.00     0.154 C 
HETATM   46  O1  UNL     1      -8.158   0.677   1.332  1.00  0.00    -0.336 OA
HETATM   47  C6  UNL     1      -7.719   0.633   0.017  1.00  0.00     0.382 C 
HETATM   48  O7  UNL     1      -6.355   0.913  -0.082  1.00  0.00    -0.319 OA
BRANCH  45  49
HETATM   49  C8  UNL     1      -8.096   2.011   3.298  1.00  0.00     0.196 C 
BRANCH  49  50
HETATM   50  O2  UNL     1      -8.234   0.843   4.078  1.00  0.00    -0.398 OA
ATOM     51  H2  UNL     1      -8.678   1.085   4.882  1.00  0.00     0.209 HD
ENDBRANCH  49  50
ENDBRANCH  45  49
BRANCH  47  52
HETATM   52  N5  UNL     1      -7.863  -0.742  -0.461  1.00  0.00    -0.277 N 
HETATM   53  C2  UNL     1      -7.528  -1.894   0.101  1.00  0.00     0.156 A 
HETATM   54  N2  UNL     1      -6.962  -2.148   1.289  1.00  0.00    -0.174 N 
HETATM   55  C3  UNL     1      -7.833  -2.961  -0.716  1.00  0.00     0.094 A 
HETATM   56  C1  UNL     1      -6.702  -3.410   1.667  1.00  0.00     0.677 A 
ATOM     57  H2  UNL     1      -6.727  -1.375   1.912  1.00  0.00     0.186 HD
HETATM   58  N1  UNL     1      -6.153  -3.603   2.833  1.00  0.00    -0.234 N 
HETATM   59  N3  UNL     1      -6.987  -4.479   0.890  1.00  0.00    -0.200 N 
ATOM     60  H12 UNL     1      -5.938  -2.796   3.419  1.00  0.00     0.174 HD
ATOM     61  H11 UNL     1      -5.956  -4.562   3.120  1.00  0.00     0.174 HD
HETATM   62  C4  UNL     1      -7.553  -4.247  -0.298  1.00  0.00     0.139 A 
ATOM     63  H3  UNL     1      -6.778  -5.428   1.199  1.00  0.00     0.183 HD
HETATM   64  N4  UNL     1      -8.380  -2.419  -1.823  1.00  0.00    -0.348 N 
HETATM   65  C5  UNL     1      -8.397  -1.071  -1.661  1.00  0.00     0.190 A 
ATOM     66  H4  UNL     1      -8.720  -2.931  -2.637  1.00  0.00     0.167 HD
ENDBRANCH  47  52
ENDBRANCH  40  43
ENDBRANCH   1  39
TORSDOF 17
