REMARK  4 active torsions:
REMARK  status: ('A' for Active; 'I' for Inactive)
REMARK       I    between atoms: N2_4  and  C1_6 
REMARK       I    between atoms: C1_6  and  N4_11 
REMARK    1  A    between atoms: N3_7  and  O1_9 
REMARK    2  A    between atoms: C2_13  and  N5_14 
REMARK    3  A    between atoms: C2_13  and  C4_23 
REMARK    4  A    between atoms: N5_14  and  C3_16 
ROOT
HETATM    1  N1  UNL     1      -1.764   2.955  -1.931  1.00  0.00    -0.331 N 
ATOM      2  H11 UNL     1      -2.197   3.217  -2.816  1.00  0.00     0.177 HD
ATOM      3  H12 UNL     1      -0.965   3.464  -1.554  1.00  0.00     0.177 HD
HETATM    4  N2  UNL     1      -2.245   1.960  -1.288  1.00  0.00    -0.137 N 
ATOM      5  H2  UNL     1      -3.044   1.440  -1.652  1.00  0.00     0.205 HD
HETATM    6  C1  UNL     1      -1.636   1.592  -0.044  1.00  0.00     0.717 C 
HETATM    7  N3  UNL     1      -1.178   2.559   0.688  1.00  0.00    -0.097 N 
ATOM      8  H3  UNL     1      -0.739   2.324   1.578  1.00  0.00     0.213 HD
HETATM    9  N4  UNL     1      -1.511   0.279   0.430  1.00  0.00    -0.172 N 
ATOM     10  H4  UNL     1      -2.395  -0.216   0.545  1.00  0.00     0.186 HD
HETATM   11  C2  UNL     1      -0.489  -0.394   0.738  1.00  0.00     0.147 C 
ENDROOT
BRANCH  11  12
HETATM   12  N5  UNL     1      -0.716  -1.733   1.199  1.00  0.00    -0.173 N 
ATOM     13  H5  UNL     1      -0.383  -2.003   2.125  1.00  0.00     0.186 HD
BRANCH  12  14
HETATM   14  C3  UNL     1      -1.329  -2.603   0.475  1.00  0.00     0.709 A 
HETATM   15  N6  UNL     1      -1.586  -3.876   0.821  1.00  0.00    -0.117 N 
HETATM   16  N7  UNL     1      -2.235  -4.450  -0.195  1.00  0.00     0.006 NA
ATOM     17  H6  UNL     1      -1.331  -4.323   1.702  1.00  0.00     0.202 HD
HETATM   18  N8  UNL     1      -2.396  -3.578  -1.174  1.00  0.00     0.006 NA
HETATM   19  N9  UNL     1      -1.840  -2.452  -0.757  1.00  0.00    -0.117 N 
ATOM     20  H9  UNL     1      -1.805  -1.588  -1.298  1.00  0.00     0.202 HD
ENDBRANCH  12  14
ENDBRANCH  11  12
BRANCH  11  21
HETATM   21  C4  UNL     1       0.887   0.082   0.644  1.00  0.00     0.009 A 
HETATM   22  C5  UNL     1       1.330   0.846  -0.399  1.00  0.00     0.015 A 
HETATM   23  C6  UNL     1       2.628   1.304  -0.472  1.00  0.00     0.001 A 
HETATM   24  C7  UNL     1       3.505   0.980   0.538  1.00  0.00     0.000 A 
HETATM   25  C8  UNL     1       3.084   0.210   1.603  1.00  0.00     0.001 A 
HETATM   26  C9  UNL     1       1.788  -0.235   1.656  1.00  0.00     0.015 A 
ENDBRANCH  11  21
BRANCH   7  27
HETATM   27  O1  UNL     1      -1.251   3.874   0.332  1.00  0.00    -0.276 OA
ATOM     28  H1  UNL     1      -0.915   4.583   0.868  1.00  0.00     0.245 HD
ENDBRANCH   7  27
TORSDOF 4
