REMARK  2 active torsions:
REMARK  status: ('A' for Active; 'I' for Inactive)
REMARK    1  A    between atoms: C2_2  and  N1_5 
REMARK    2  A    between atoms: C5_6  and  C6_7 
ROOT
HETATM    1  N1  UNL     1      -0.255   0.362   0.035  1.00  0.00     0.126 N 
HETATM    2  C5  UNL     1       0.577  -0.298  -0.918  1.00  0.00     0.323 C 
HETATM    3  S1  UNL     1       0.117  -2.073  -0.919  1.00  0.00    -0.117 SA
HETATM    4  C12 UNL     1      -1.177  -1.849   0.324  1.00  0.00     0.038 C 
HETATM    5  C13 UNL     1      -2.320  -2.676  -0.226  1.00  0.00     0.029 C 
HETATM    6  C14 UNL     1      -0.836  -2.451   1.635  1.00  0.00     0.029 C 
HETATM    7  C15 UNL     1      -1.432  -0.364   0.316  1.00  0.00     0.171 C 
HETATM    8  C16 UNL     1      -2.047  -0.116   1.678  1.00  0.00     0.050 C 
HETATM    9  C17 UNL     1      -2.587  -0.148  -0.645  1.00  0.00     0.050 C 
ENDROOT
BRANCH   2  10
HETATM   10  C6  UNL     1       2.026  -0.404  -0.604  1.00  0.00     0.023 A 
HETATM   11  C7  UNL     1       2.531  -0.758   0.609  1.00  0.00     0.013 A 
HETATM   12  C8  UNL     1       3.874  -0.858   0.845  1.00  0.00     0.001 A 
HETATM   13  C9  UNL     1       4.741  -0.589  -0.189  1.00  0.00     0.003 A 
HETATM   14  C10 UNL     1       4.264  -0.230  -1.420  1.00  0.00     0.043 A 
HETATM   15  C11 UNL     1       2.914  -0.142  -1.615  1.00  0.00     0.125 A 
HETATM   16  F1  UNL     1       2.478   0.216  -2.847  1.00  0.00    -0.205 F 
ENDBRANCH   2  10
BRANCH   1  17
HETATM   17  C2  UNL     1      -0.376   1.754  -0.188  1.00  0.00     0.152 C 
HETATM   18  C1  UNL     1       1.001   2.449  -0.107  1.00  0.00     0.048 C 
HETATM   19  C3  UNL     1      -0.934   2.205  -1.511  1.00  0.00     0.048 C 
HETATM   20  C4  UNL     1      -1.163   2.532   0.864  1.00  0.00     0.048 C 
ENDBRANCH   1  17
TORSDOF 2
