REMARK  14 active torsions:
REMARK  status: ('A' for Active; 'I' for Inactive)
REMARK    1  A    between atoms: C6_6  and  N1_7 
REMARK    2  A    between atoms: C7_10  and  C8_11 
REMARK       I    between atoms: C8_11  and  N2_13 
REMARK    3  A    between atoms: N2_13  and  C9_15 
REMARK    4  A    between atoms: C9_15  and  C10_16 
REMARK    5  A    between atoms: C9_15  and  C14_26 
REMARK    6  A    between atoms: C10_16  and  C11_17 
REMARK    7  A    between atoms: C11_17  and  C12_18 
REMARK    8  A    between atoms: C12_18  and  N3_19 
REMARK       I    between atoms: N3_19  and  C13_21 
REMARK       I    between atoms: C14_26  and  N6_28 
REMARK    9  A    between atoms: N6_28  and  C15_30 
REMARK   10  A    between atoms: N7_36  and  C21_37 
REMARK   11  A    between atoms: C22_38  and  O5_39 
REMARK   12  A    between atoms: C22_38  and  N8_41 
REMARK       I    between atoms: N8_41  and  C23_43 
REMARK   13  A    between atoms: C23_43  and  C24_45 
REMARK   14  A    between atoms: C24_45  and  C25_46 
ROOT
HETATM    1  C1  UNL     1      -0.267  -1.181  -2.244  1.00  0.00     0.050 C 
HETATM    2  C2  UNL     1       0.489  -0.121  -1.546  1.00  0.00    -0.035 A 
HETATM    3  C3  UNL     1       1.752   0.176  -2.100  1.00  0.00    -0.024 A 
HETATM    4  C4  UNL     1       2.483   1.180  -1.500  1.00  0.00     0.043 A 
HETATM    5  C5  UNL     1       1.980   1.842  -0.416  1.00  0.00     0.067 A 
HETATM    6  C6  UNL     1       0.727   1.559   0.150  1.00  0.00     0.121 A 
HETATM    7  C7  UNL     1      -0.010   0.562  -0.440  1.00  0.00     0.071 A 
HETATM    8  N7  UNL     1       3.781   1.512  -2.034  1.00  0.00    -0.352 N 
HETATM    9  C31 UNL     1       4.404   0.454  -2.861  1.00  0.00     0.129 C 
HETATM   10  C32 UNL     1       3.347   0.170  -3.951  1.00  0.00     0.025 C 
HETATM   11  C33 UNL     1       2.239  -0.600  -3.274  1.00  0.00     0.043 C 
ENDROOT
BRANCH   7  12
HETATM   12  C8  UNL     1      -1.300   0.194   0.113  1.00  0.00     0.255 C 
HETATM   13  O3  UNL     1      -1.497  -0.993   0.481  1.00  0.00    -0.268 OA
HETATM   14  N2  UNL     1      -2.367   1.114   0.254  1.00  0.00    -0.344 N 
ATOM     15  H2  UNL     1      -2.240   2.084  -0.033  1.00  0.00     0.163 HD
BRANCH  14  16
HETATM   16  C9  UNL     1      -3.688   0.671   0.824  1.00  0.00     0.177 C 
BRANCH  16  17
HETATM   17  C10 UNL     1      -4.117   1.795   1.691  1.00  0.00     0.040 C 
BRANCH  17  18
HETATM   18  C11 UNL     1      -5.351   1.714   2.487  1.00  0.00     0.047 C 
BRANCH  18  19
HETATM   19  C12 UNL     1      -5.460   0.717   3.568  1.00  0.00     0.063 C 
BRANCH  19  20
HETATM   20  N3  UNL     1      -5.381  -0.655   3.314  1.00  0.00    -0.344 N 
HETATM   21  C13 UNL     1      -5.443  -1.583   4.403  1.00  0.00     0.185 C 
HETATM   22  N4  UNL     1      -4.497  -1.752   5.259  1.00  0.00    -0.374 N 
HETATM   23  N5  UNL     1      -6.617  -2.368   4.550  1.00  0.00    -0.064 NA
ATOM     24  H42 UNL     1      -3.654  -1.188   5.153  1.00  0.00     0.158 HD
ATOM     25  H41 UNL     1      -4.541  -2.413   6.035  1.00  0.00     0.158 HD
ATOM     26  H3  UNL     1      -5.280  -0.994   2.357  1.00  0.00     0.167 HD
ENDBRANCH  19  20
ENDBRANCH  18  19
ENDBRANCH  17  18
ENDBRANCH  16  17
BRANCH  16  27
HETATM   27  C14 UNL     1      -4.577   0.421  -0.351  1.00  0.00     0.240 C 
HETATM   28  O4  UNL     1      -4.048   0.638  -1.502  1.00  0.00    -0.271 OA
HETATM   29  N6  UNL     1      -5.901  -0.015  -0.368  1.00  0.00    -0.355 N 
ATOM     30  H6  UNL     1      -6.371  -0.202   0.518  1.00  0.00     0.162 HD
BRANCH  29  31
HETATM   31  C15 UNL     1      -6.641  -0.213  -1.622  1.00  0.00     0.084 C 
HETATM   32  C16 UNL     1      -7.676   0.873  -1.835  1.00  0.00     0.025 C 
HETATM   33  C17 UNL     1      -8.376   0.536  -3.138  1.00  0.00     0.002 C 
HETATM   34  C18 UNL     1      -9.112  -0.769  -2.951  1.00  0.00     0.000 C 
HETATM   35  C19 UNL     1      -8.163  -1.899  -2.723  1.00  0.00     0.002 C 
HETATM   36  C20 UNL     1      -7.198  -1.591  -1.630  1.00  0.00     0.025 C 
ENDBRANCH  29  31
ENDBRANCH  16  27
ENDBRANCH  14  16
ENDBRANCH   7  12
BRANCH   6  37
HETATM   37  N1  UNL     1       0.345   2.309   1.292  1.00  0.00    -0.115 N 
HETATM   38  O1  UNL     1       0.795   3.495   1.392  1.00  0.00    -0.532 OA
HETATM   39  O2  UNL     1      -0.460   1.891   2.303  1.00  0.00    -0.532 OA
ENDBRANCH   6  37
BRANCH   8  40
HETATM   40  C21 UNL     1       4.363   2.755  -1.792  1.00  0.00     0.147 C 
HETATM   41  C22 UNL     1       5.454   2.930  -0.895  1.00  0.00     0.158 C 
BRANCH  41  42
HETATM   42  O5  UNL     1       5.881   4.227  -0.968  1.00  0.00    -0.345 OA
ATOM     43  H5  UNL     1       6.609   4.344  -0.369  1.00  0.00     0.219 HD
ENDBRANCH  41  42
BRANCH  41  44
HETATM   44  N8  UNL     1       6.205   2.214   0.015  1.00  0.00    -0.307 N 
HETATM   45  C23 UNL     1       6.130   0.940   0.583  1.00  0.00     0.224 C 
HETATM   46  O6  UNL     1       5.294   0.059   0.359  1.00  0.00    -0.273 OA
ATOM     47  H8  UNL     1       7.009   2.743   0.355  1.00  0.00     0.171 HD
BRANCH  45  48
HETATM   48  C24 UNL     1       7.226   0.607   1.606  1.00  0.00     0.108 C 
BRANCH  48  49
HETATM   49  C25 UNL     1       7.196  -0.836   1.960  1.00  0.00    -0.006 C 
HETATM   50  C26 UNL     1       8.243  -1.194   2.997  1.00  0.00     0.005 C 
HETATM   51  C27 UNL     1       9.598  -1.472   2.472  1.00  0.00     0.000 C 
HETATM   52  C28 UNL     1       9.886  -1.095   1.065  1.00  0.00     0.000 C 
HETATM   53  C29 UNL     1       8.772  -1.320   0.088  1.00  0.00     0.000 C 
HETATM   54  C30 UNL     1       7.493  -1.744   0.779  1.00  0.00     0.005 C 
ENDBRANCH  48  49
ENDBRANCH  45  48
ENDBRANCH  41  44
ENDBRANCH   8  40
TORSDOF 14
