REMARK  18 active torsions:
REMARK  status: ('A' for Active; 'I' for Inactive)
REMARK    1  A    between atoms: C6_6  and  O1_7 
REMARK    2  A    between atoms: O1_7  and  C7_8 
REMARK    3  A    between atoms: C7_8  and  O2_9 
REMARK    4  A    between atoms: N1_11  and  C8_13 
REMARK    5  A    between atoms: C8_13  and  C9_14 
REMARK    6  A    between atoms: C9_14  and  C10_15 
REMARK       I    between atoms: C10_15  and  N2_17 
REMARK    7  A    between atoms: N2_17  and  C11_19 
REMARK    8  A    between atoms: C11_19  and  C12_20 
REMARK    9  A    between atoms: C11_19  and  C16_27 
REMARK   10  A    between atoms: C12_20  and  C13_21 
REMARK   11  A    between atoms: C13_21  and  C14_22 
REMARK   12  A    between atoms: C14_22  and  N3_23 
REMARK       I    between atoms: N3_23  and  C15_24 
REMARK   13  A    between atoms: C16_27  and  O4_28 
REMARK   14  A    between atoms: C16_27  and  C17_30 
REMARK   15  A    between atoms: C22_38  and  C23_39 
REMARK   16  A    between atoms: C23_39  and  C24_40 
REMARK       I    between atoms: C24_40  and  N7_42 
REMARK   17  A    between atoms: N7_42  and  C25_44 
REMARK   18  A    between atoms: C25_44  and  C26_45 
ROOT
HETATM    1  C7  UNL     1      -0.517  -0.787  -0.466  1.00  0.00     0.258 C 
HETATM    2  N1  UNL     1       0.631  -0.294  -1.014  1.00  0.00    -0.350 N 
ATOM      3  H1  UNL     1       0.772  -0.641  -1.963  1.00  0.00     0.163 HD
ENDROOT
BRANCH   1   4
HETATM    4  O1  UNL     1      -1.604  -1.244   0.069  1.00  0.00    -0.311 OA
BRANCH   4   5
HETATM    5  C6  UNL     1      -2.387  -1.066   1.196  1.00  0.00     0.133 C 
HETATM    6  C5  UNL     1      -2.585  -2.170   2.139  1.00  0.00     0.038 C 
HETATM    7  C4  UNL     1      -3.641  -1.921   3.192  1.00  0.00    -0.004 C 
HETATM    8  C2  UNL     1      -4.315  -0.603   3.057  1.00  0.00    -0.040 C 
HETATM    9  C30 UNL     1      -4.824  -2.845   2.835  1.00  0.00     0.011 C 
HETATM   10  C1  UNL     1      -5.592  -0.509   3.928  1.00  0.00     0.015 C 
HETATM   11  C3  UNL     1      -3.552   0.641   3.300  1.00  0.00     0.015 C 
HETATM   12  C21 UNL     1      -4.837  -0.798   1.620  1.00  0.00     0.001 C 
HETATM   13  C20 UNL     1      -3.771  -0.664   0.634  1.00  0.00     0.038 C 
HETATM   14  C22 UNL     1      -5.608  -2.065   1.723  1.00  0.00    -0.001 C 
BRANCH  14  15
HETATM   15  C23 UNL     1      -5.747  -3.000   0.606  1.00  0.00     0.108 C 
BRANCH  15  16
HETATM   16  C24 UNL     1      -6.268  -2.580  -0.665  1.00  0.00     0.221 C 
HETATM   17  O5  UNL     1      -6.460  -1.409  -1.090  1.00  0.00    -0.273 OA
HETATM   18  N7  UNL     1      -6.639  -3.580  -1.671  1.00  0.00    -0.340 N 
ATOM     19  H7  UNL     1      -6.586  -4.558  -1.385  1.00  0.00     0.167 HD
BRANCH  18  20
HETATM   20  C25 UNL     1      -7.059  -3.331  -2.985  1.00  0.00     0.070 C 
BRANCH  20  21
HETATM   21  C26 UNL     1      -6.027  -2.953  -4.010  1.00  0.00     0.051 C 
HETATM   22  C27 UNL     1      -5.104  -1.886  -4.031  1.00  0.00     0.039 C 
HETATM   23  C28 UNL     1      -3.694  -2.533  -4.066  1.00  0.00     0.233 C 
HETATM   24  N8  UNL     1      -3.931  -3.797  -4.744  1.00  0.00    -0.074 N 
HETATM   25  C29 UNL     1      -5.212  -4.254  -4.310  1.00  0.00     0.242 C 
ATOM     26  H82 UNL     1      -3.847  -3.734  -5.759  1.00  0.00     0.277 HD
ATOM     27  H81 UNL     1      -3.187  -4.480  -4.598  1.00  0.00     0.277 HD
ENDBRANCH  20  21
ENDBRANCH  18  20
ENDBRANCH  15  16
ENDBRANCH  14  15
ENDBRANCH   4   5
ENDBRANCH   1   4
BRANCH   1  28
HETATM   28  O2  UNL     1      -0.286   0.073   0.915  1.00  0.00    -0.327 OA
ATOM     29  H2  UNL     1       0.512   0.408   0.522  1.00  0.00     0.221 HD
ENDBRANCH   1  28
BRANCH   2  30
HETATM   30  C8  UNL     1       1.678   0.571  -0.616  1.00  0.00     0.133 C 
BRANCH  30  31
HETATM   31  C9  UNL     1       1.370   1.943  -0.082  1.00  0.00     0.122 C 
BRANCH  31  32
HETATM   32  C10 UNL     1       2.708   2.588   0.231  1.00  0.00     0.219 C 
HETATM   33  O3  UNL     1       2.605   3.799   0.610  1.00  0.00    -0.274 OA
HETATM   34  N2  UNL     1       3.967   1.978   0.110  1.00  0.00    -0.350 N 
ATOM     35  H2  UNL     1       4.094   0.999  -0.147  1.00  0.00     0.163 HD
BRANCH  34  36
HETATM   36  C11 UNL     1       5.119   2.922   0.401  1.00  0.00     0.144 C 
BRANCH  36  37
HETATM   37  C12 UNL     1       6.393   2.156   0.507  1.00  0.00     0.038 C 
BRANCH  37  38
HETATM   38  C13 UNL     1       6.513   1.150   1.580  1.00  0.00     0.062 C 
BRANCH  38  39
HETATM   39  C14 UNL     1       7.817   0.338   1.453  1.00  0.00     0.158 C 
BRANCH  39  40
HETATM   40  N3  UNL     1       8.971   1.003   1.516  1.00  0.00    -0.393 NA
HETATM   41  C15 UNL     1       9.959   1.676   1.433  1.00  0.00     0.274 C 
HETATM   42  N4  UNL     1      11.082   1.692   2.330  1.00  0.00    -0.052 NA
HETATM   43  N5  UNL     1      10.131   2.644   0.302  1.00  0.00    -0.052 NA
ENDBRANCH  39  40
ENDBRANCH  38  39
ENDBRANCH  37  38
ENDBRANCH  36  37
BRANCH  36  44
HETATM   44  C16 UNL     1       5.157   3.728  -0.886  1.00  0.00     0.099 C 
BRANCH  44  45
HETATM   45  O4  UNL     1       4.439   3.330  -1.898  1.00  0.00    -0.360 OA
ATOM     46  H4  UNL     1       4.463   3.834  -2.703  1.00  0.00     0.217 HD
ENDBRANCH  44  45
BRANCH  44  47
HETATM   47  C17 UNL     1       5.951   4.922  -1.031  1.00  0.00     0.101 A 
HETATM   48  N6  UNL     1       6.129   5.633  -2.129  1.00  0.00    -0.361 N 
HETATM   49  C18 UNL     1       6.797   6.693  -2.206  1.00  0.00     0.072 A 
ATOM     50  H6  UNL     1       5.688   5.294  -2.984  1.00  0.00     0.165 HD
HETATM   51  C19 UNL     1       7.392   7.127  -0.975  1.00  0.00     0.125 A 
HETATM   52  S1  UNL     1       6.856   5.882   0.078  1.00  0.00    -0.105 SA
ENDBRANCH  44  47
ENDBRANCH  36  44
ENDBRANCH  34  36
ENDBRANCH  31  32
ENDBRANCH  30  31
ENDBRANCH   2  30
TORSDOF 18
