REMARK  5 active torsions:
REMARK  status: ('A' for Active; 'I' for Inactive)
REMARK    1  A    between atoms: C2_2  and  C3_3 
REMARK    2  A    between atoms: C3_3  and  N1_4 
REMARK    3  A    between atoms: N2_6  and  C4_8 
REMARK    4  A    between atoms: C4_8  and  N3_10 
REMARK    5  A    between atoms: N3_10  and  C5_12 
ROOT
HETATM    1  C5  UNL     1      -0.415  -0.645   0.265  1.00  0.00     0.088 C 
HETATM    2  C6  UNL     1      -0.833   0.587   0.977  1.00  0.00     0.055 C 
HETATM    3  C7  UNL     1      -2.162   1.143   0.520  1.00  0.00     0.021 C 
HETATM    4  C8  UNL     1      -2.014   2.121  -0.626  1.00  0.00     0.037 C 
HETATM    5  C9  UNL     1      -2.658   2.007   1.694  1.00  0.00     0.037 C 
HETATM    6  N4  UNL     1      -3.150   0.146   0.292  1.00  0.00    -0.405 N 
ATOM      7  H4  UNL     1      -4.083   0.214   0.699  1.00  0.00     0.154 HD
HETATM    8  C10 UNL     1      -2.776  -0.942  -0.526  1.00  0.00     0.021 C 
HETATM    9  C11 UNL     1      -3.595  -0.864  -1.819  1.00  0.00     0.037 C 
HETATM   10  C12 UNL     1      -3.217  -2.248   0.147  1.00  0.00     0.037 C 
HETATM   11  C13 UNL     1      -1.335  -1.054  -0.858  1.00  0.00     0.055 C 
ENDROOT
BRANCH   1  12
HETATM   12  N3  UNL     1       0.940  -0.585  -0.232  1.00  0.00    -0.361 N 
ATOM     13  H3  UNL     1       1.106  -0.678  -1.234  1.00  0.00     0.162 HD
BRANCH  12  14
HETATM   14  C4  UNL     1       2.046  -0.400   0.636  1.00  0.00     0.186 C 
HETATM   15  S1  UNL     1       1.761  -0.253   2.233  1.00  0.00    -0.040 SA
BRANCH  14  16
HETATM   16  N2  UNL     1       3.390  -0.335   0.192  1.00  0.00    -0.281 N 
HETATM   17  N1  UNL     1       4.348  -0.846   0.842  1.00  0.00    -0.331 N 
ATOM     18  H1  UNL     1       4.128  -1.320   1.718  1.00  0.00     0.180 HD
ATOM     19  H2  UNL     1       3.593   0.142  -0.686  1.00  0.00     0.189 HD
BRANCH  17  20
HETATM   20  C3  UNL     1       5.716  -0.805   0.433  1.00  0.00     0.166 C 
BRANCH  20  21
HETATM   21  C2  UNL     1       6.287   0.551   0.396  1.00  0.00    -0.016 C 
HETATM   22  C1  UNL     1       6.776   1.088  -0.726  1.00  0.00     0.008 C 
ENDBRANCH  20  21
ENDBRANCH  17  20
ENDBRANCH  14  16
ENDBRANCH  12  14
ENDBRANCH   1  12
TORSDOF 5
