REMARK  5 active torsions:
REMARK  status: ('A' for Active; 'I' for Inactive)
REMARK    1  A    between atoms: C2_2  and  C3_3 
REMARK    2  A    between atoms: C3_3  and  N1_4 
REMARK    3  A    between atoms: N1_4  and  N2_6 
REMARK    4  A    between atoms: N2_6  and  C4_8 
REMARK    5  A    between atoms: N4_13  and  N5_14 
ROOT
HETATM    1  C4  UNL     1       1.290   0.044  -0.328  1.00  0.00     0.708 C 
HETATM    2  N3  UNL     1       1.197  -1.212  -0.115  1.00  0.00    -0.222 N 
ATOM      3  H3  UNL     1       0.414  -1.767  -0.459  1.00  0.00     0.177 HD
HETATM    4  C5  UNL     1       2.258  -1.781   0.633  1.00  0.00     0.160 C 
HETATM    5  C6  UNL     1       3.250  -0.681   0.778  1.00  0.00     0.187 C 
HETATM    6  N4  UNL     1       2.497   0.461   0.295  1.00  0.00    -0.128 N 
ENDROOT
BRANCH   1   7
HETATM    7  N2  UNL     1       0.377   0.897  -1.050  1.00  0.00    -0.135 N 
ATOM      8  H2  UNL     1       0.751   1.722  -1.519  1.00  0.00     0.205 HD
BRANCH   7   9
HETATM    9  N1  UNL     1      -0.974   0.650  -1.136  1.00  0.00    -0.322 N 
ATOM     10  H1  UNL     1      -1.485   0.697  -2.018  1.00  0.00     0.180 HD
BRANCH   9  11
HETATM   11  C3  UNL     1      -1.611   0.322   0.107  1.00  0.00     0.139 C 
BRANCH  11  12
HETATM   12  C2  UNL     1      -3.083   0.086  -0.182  1.00  0.00     0.017 C 
HETATM   13  C1  UNL     1      -3.852  -0.268   1.060  1.00  0.00     0.007 C 
ENDBRANCH  11  12
ENDBRANCH   9  11
ENDBRANCH   7   9
ENDBRANCH   1   7
BRANCH   6  14
HETATM   14  N5  UNL     1       2.936   1.779   0.442  1.00  0.00    -0.329 N 
ATOM     15  H52 UNL     1       2.407   2.582   0.102  1.00  0.00     0.177 HD
ATOM     16  H51 UNL     1       3.802   2.078   0.889  1.00  0.00     0.177 HD
ENDBRANCH   6  14
TORSDOF 5
