REMARK  8 active torsions:
REMARK  status: ('A' for Active; 'I' for Inactive)
REMARK       I    between atoms: C2_2  and  N1_4 
REMARK    1  A    between atoms: N1_4  and  N2_6 
REMARK       I    between atoms: N2_6  and  C3_8 
REMARK    2  A    between atoms: C3_8  and  C4_10 
REMARK    3  A    between atoms: C4_10  and  N3_12 
REMARK    4  A    between atoms: N3_12  and  S1_14 
REMARK    5  A    between atoms: S1_14  and  N4_17 
REMARK    6  A    between atoms: N4_17  and  S2_19 
REMARK    7  A    between atoms: C7_22  and  O6_23 
REMARK    8  A    between atoms: O6_23  and  N5_24 
ROOT
HETATM    1  S1  UNL     1       1.152   1.132   1.764  1.00  0.00     0.327 S 
HETATM    2  O3  UNL     1       1.742   1.148   3.169  1.00  0.00    -0.182 OA
HETATM    3  O4  UNL     1       1.509   2.417   1.138  1.00  0.00    -0.182 OA
ENDROOT
BRANCH   1   4
HETATM    4  N3  UNL     1      -0.522   0.838   1.945  1.00  0.00    -0.289 N 
ATOM      5  H3  UNL     1      -0.899   0.376   2.773  1.00  0.00     0.174 HD
BRANCH   4   6
HETATM    6  C4  UNL     1      -1.356   1.268   0.888  1.00  0.00     0.184 C 
HETATM    7  C5  UNL     1      -2.354   2.338   1.295  1.00  0.00     0.043 C 
BRANCH   6   8
HETATM    8  C3  UNL     1      -2.161   0.130   0.397  1.00  0.00     0.259 C 
HETATM    9  N2  UNL     1      -3.101   0.276  -0.671  1.00  0.00    -0.266 N 
ATOM     10  H2  UNL     1      -3.218   1.190  -1.109  1.00  0.00     0.190 HD
HETATM   11  O2  UNL     1      -2.039  -1.022   0.918  1.00  0.00    -0.269 OA
BRANCH   9  12
HETATM   12  N1  UNL     1      -3.853  -0.788  -1.124  1.00  0.00    -0.268 N 
HETATM   13  C2  UNL     1      -5.239  -0.873  -0.831  1.00  0.00     0.232 C 
HETATM   14  C1  UNL     1      -6.128  -1.976  -1.271  1.00  0.00     0.119 C 
HETATM   15  O1  UNL     1      -5.745   0.061  -0.144  1.00  0.00    -0.272 OA
ATOM     16  H1  UNL     1      -3.408  -1.522  -1.676  1.00  0.00     0.190 HD
ENDBRANCH   9  12
ENDBRANCH   6   8
ENDBRANCH   4   6
ENDBRANCH   1   4
BRANCH   1  17
HETATM   17  N4  UNL     1       1.961  -0.160   0.941  1.00  0.00    -0.206 N 
ATOM     18  H4  UNL     1       1.476  -1.031   0.724  1.00  0.00     0.192 HD
BRANCH  17  19
HETATM   19  S2  UNL     1       3.427   0.047   0.549  1.00  0.00     0.162 S 
HETATM   20  O5  UNL     1       4.168   1.070   1.350  1.00  0.00    -0.221 OA
HETATM   21  C6  UNL     1       4.386  -1.429   0.270  1.00  0.00     0.211 C 
HETATM   22  C7  UNL     1       4.735  -0.724  -1.033  1.00  0.00     0.320 C 
HETATM   23  O7  UNL     1       3.645   0.183  -1.113  1.00  0.00    -0.254 OA
BRANCH  22  24
HETATM   24  O6  UNL     1       5.897   0.039  -0.949  1.00  0.00    -0.253 OA
BRANCH  24  25
HETATM   25  N5  UNL     1       6.711  -0.284  -1.957  1.00  0.00    -0.308 N 
ATOM     26  H52 UNL     1       6.500  -0.983  -2.670  1.00  0.00     0.184 HD
ATOM     27  H51 UNL     1       7.562   0.275  -1.895  1.00  0.00     0.184 HD
ENDBRANCH  24  25
ENDBRANCH  22  24
ENDBRANCH  17  19
ENDBRANCH   1  17
TORSDOF 8
