REMARK  14 active torsions:
REMARK  status: ('A' for Active; 'I' for Inactive)
REMARK    1  A    between atoms: C4_4  and  C5_5 
REMARK    2  A    between atoms: C5_5  and  N1_6 
REMARK    3  A    between atoms: N1_6  and  C6_9 
REMARK    4  A    between atoms: C6_9  and  C7_10 
REMARK    5  A    between atoms: C7_10  and  C8_11 
REMARK    6  A    between atoms: C8_11  and  N2_12 
REMARK    7  A    between atoms: N2_12  and  C9_14 
REMARK    8  A    between atoms: N4_18  and  C11_20 
REMARK    9  A    between atoms: C11_20  and  C12_21 
REMARK   10  A    between atoms: C12_21  and  C13_22 
REMARK   11  A    between atoms: C14_26  and  N6_27 
REMARK   12  A    between atoms: N6_27  and  C15_29 
REMARK   13  A    between atoms: C15_29  and  C16_30 
REMARK   14  A    between atoms: C16_30  and  C17_31 
ROOT
HETATM    1  C9  UNL     1       0.179  -1.076  -0.755  1.00  0.00     0.707 A 
HETATM    2  N3  UNL     1      -0.581  -2.211  -0.838  1.00  0.00    -0.022 N 
ATOM      3  H3  UNL     1      -0.108  -3.105  -0.969  1.00  0.00     0.203 HD
HETATM    4  C10 UNL     1      -1.912  -2.201  -0.756  1.00  0.00     0.707 A 
HETATM    5  N4  UNL     1      -2.630  -3.252  -0.835  1.00  0.00    -0.225 N 
ATOM      6  H4  UNL     1      -3.643  -3.158  -0.763  1.00  0.00     0.177 HD
HETATM    7  N5  UNL     1      -2.524  -0.983  -0.581  1.00  0.00    -0.022 N 
ATOM      8  H5  UNL     1      -3.541  -0.943  -0.515  1.00  0.00     0.203 HD
HETATM    9  C14 UNL     1      -1.822   0.147  -0.495  1.00  0.00     0.707 A 
HETATM   10  N7  UNL     1      -0.486   0.074  -0.585  1.00  0.00    -0.022 N 
ATOM     11  H7  UNL     1       0.051   0.939  -0.521  1.00  0.00     0.203 HD
ENDROOT
BRANCH   1  12
HETATM   12  N2  UNL     1       1.454  -1.181  -0.844  1.00  0.00    -0.225 N 
ATOM     13  H2  UNL     1       1.852  -2.111  -0.973  1.00  0.00     0.177 HD
BRANCH  12  14
HETATM   14  C8  UNL     1       2.358  -0.060  -0.772  1.00  0.00     0.139 C 
BRANCH  14  15
HETATM   15  C7  UNL     1       2.664   0.150   0.699  1.00  0.00     0.048 C 
BRANCH  15  16
HETATM   16  C6  UNL     1       3.589   1.295   0.950  1.00  0.00     0.234 C 
BRANCH  16  17
HETATM   17  N1  UNL     1       4.842   1.069   0.271  1.00  0.00    -0.075 N 
ATOM     18  H12 UNL     1       5.394   1.926   0.248  1.00  0.00     0.277 HD
ATOM     19  H11 UNL     1       4.686   0.935  -0.728  1.00  0.00     0.277 HD
BRANCH  17  20
HETATM   20  C5  UNL     1       5.615  -0.007   0.804  1.00  0.00     0.237 C 
BRANCH  20  21
HETATM   21  C4  UNL     1       6.934  -0.127   0.093  1.00  0.00     0.015 A 
HETATM   22  C2  UNL     1       7.826   1.136   0.201  1.00  0.00    -0.013 A 
HETATM   23  C1  UNL     1       9.263   0.844   0.550  1.00  0.00     0.010 C 
HETATM   24  C3  UNL     1       7.273   0.707  -1.091  1.00  0.00     0.011 A 
ENDBRANCH  20  21
ENDBRANCH  17  20
ENDBRANCH  16  17
ENDBRANCH  15  16
ENDBRANCH  14  15
ENDBRANCH  12  14
ENDBRANCH   1  12
BRANCH   9  25
HETATM   25  N6  UNL     1      -2.431   1.291  -0.336  1.00  0.00    -0.225 N 
ATOM     26  H6  UNL     1      -1.870   2.140  -0.274  1.00  0.00     0.177 HD
BRANCH  25  27
HETATM   27  C15 UNL     1      -3.871   1.401  -0.244  1.00  0.00     0.142 C 
BRANCH  27  28
HETATM   28  C16 UNL     1      -4.201   2.878  -0.384  1.00  0.00     0.060 C 
BRANCH  28  29
HETATM   29  C17 UNL     1      -5.648   3.133  -0.305  1.00  0.00    -0.035 A 
HETATM   30  C18 UNL     1      -6.356   3.393  -1.450  1.00  0.00     0.010 A 
HETATM   31  C19 UNL     1      -7.727   3.633  -1.402  1.00  0.00     0.024 A 
HETATM   32  C20 UNL     1      -8.393   3.611  -0.201  1.00  0.00     0.035 A 
HETATM   33 CL1  UNL     1     -10.116   3.911  -0.143  1.00  0.00    -0.084 Cl
HETATM   34  C21 UNL     1      -7.691   3.351   0.956  1.00  0.00     0.048 A 
HETATM   35  C22 UNL     1      -6.315   3.112   0.896  1.00  0.00     0.042 A 
HETATM   36 CL2  UNL     1      -5.512   2.791   2.416  1.00  0.00    -0.084 Cl
ENDBRANCH  28  29
ENDBRANCH  27  28
ENDBRANCH  25  27
ENDBRANCH   9  25
BRANCH   5  37
HETATM   37  C11 UNL     1      -2.077  -4.553  -1.020  1.00  0.00     0.140 C 
BRANCH  37  38
HETATM   38  C12 UNL     1      -1.629  -5.175   0.289  1.00  0.00     0.051 C 
BRANCH  38  39
HETATM   39  C13 UNL     1      -2.879  -5.260   1.170  1.00  0.00     0.224 C 
HETATM   40  F1  UNL     1      -2.574  -5.821   2.395  1.00  0.00    -0.255 F 
ENDBRANCH  38  39
ENDBRANCH  37  38
ENDBRANCH   5  37
TORSDOF 14
