REMARK  11 active torsions:
REMARK  status: ('A' for Active; 'I' for Inactive)
REMARK    1  A    between atoms: N1_1  and  C1_5 
REMARK    2  A    between atoms: C1_5  and  C2_6 
REMARK    3  A    between atoms: C2_6  and  C3_7 
REMARK    4  A    between atoms: C3_7  and  C4_8 
REMARK    5  A    between atoms: C6_10  and  C7_11 
REMARK    6  A    between atoms: C7_11  and  O1_12 
REMARK    7  A    between atoms: C7_11  and  N2_14 
REMARK    8  A    between atoms: N2_14  and  C8_15 
REMARK    9  A    between atoms: C9_18  and  C10_19 
REMARK   10  A    between atoms: C10_19  and  C11_20 
REMARK   11  A    between atoms: C19_34  and  C20_35 
ROOT
HETATM    1  C8  UNL     1      -0.635  -1.163   1.040  1.00  0.00     0.199 A 
HETATM    2  N3  UNL     1      -1.300  -0.688  -0.070  1.00  0.00    -0.332 N 
ATOM      3  H3  UNL     1      -0.753  -0.239  -0.804  1.00  0.00     0.168 HD
HETATM    4  C9  UNL     1      -2.626  -0.784  -0.237  1.00  0.00     0.038 A 
HETATM    5  C17 UNL     1      -3.325  -1.392   0.763  1.00  0.00     0.058 A 
HETATM    6 CL1  UNL     1      -5.069  -1.582   0.657  1.00  0.00    -0.082 Cl
HETATM    7  C18 UNL     1      -2.730  -1.893   1.904  1.00  0.00     0.049 A 
HETATM    8  C19 UNL     1      -1.371  -1.788   2.066  1.00  0.00     0.100 A 
ENDROOT
BRANCH   1   9
HETATM    9  N2  UNL     1       0.554  -1.045   1.127  1.00  0.00    -0.365 NA
BRANCH   9  10
HETATM   10  C7  UNL     1       1.857  -0.941   1.272  1.00  0.00     0.197 C 
BRANCH  10  11
HETATM   11  C6  UNL     1       2.893  -1.902   0.749  1.00  0.00     0.080 A 
HETATM   12  C4  UNL     1       4.143  -1.399   0.054  1.00  0.00    -0.001 A 
HETATM   13  C5  UNL     1       4.182  -1.906   1.453  1.00  0.00     0.020 A 
BRANCH  12  14
HETATM   14  C3  UNL     1       4.336   0.037  -0.275  1.00  0.00     0.007 C 
BRANCH  14  15
HETATM   15  C2  UNL     1       4.244   0.168  -1.807  1.00  0.00     0.027 C 
BRANCH  15  16
HETATM   16  C1  UNL     1       4.438   1.626  -2.156  1.00  0.00     0.229 C 
BRANCH  16  17
HETATM   17  N1  UNL     1       5.745   2.033  -1.676  1.00  0.00    -0.079 N 
ATOM     18  H13 UNL     1       5.876   1.845  -0.682  1.00  0.00     0.274 HD
ATOM     19  H12 UNL     1       6.497   1.440  -2.028  1.00  0.00     0.274 HD
ATOM     20  H11 UNL     1       5.876   3.017  -1.911  1.00  0.00     0.274 HD
ENDBRANCH  16  17
ENDBRANCH  15  16
ENDBRANCH  14  15
ENDBRANCH  12  14
ENDBRANCH  10  11
BRANCH  10  21
HETATM   21  O1  UNL     1       2.320   0.085   1.929  1.00  0.00    -0.339 OA
ATOM     22  H1  UNL     1       1.667   0.691   2.259  1.00  0.00     0.220 HD
ENDBRANCH  10  21
ENDBRANCH   9  10
ENDBRANCH   1   9
BRANCH   8  23
HETATM   23  C20 UNL     1      -0.721  -2.309   3.262  1.00  0.00     0.214 C 
HETATM   24  O2  UNL     1       0.482  -2.277   3.539  1.00  0.00    -0.644 OA
HETATM   25  O3  UNL     1      -1.543  -2.923   4.229  1.00  0.00    -0.644 OA
ENDBRANCH   8  23
BRANCH   4  26
HETATM   26  C10 UNL     1      -3.237  -0.254  -1.489  1.00  0.00     0.104 C 
BRANCH  26  27
HETATM   27  C11 UNL     1      -4.025   0.961  -1.378  1.00  0.00     0.031 A 
HETATM   28  C12 UNL     1      -3.467   2.135  -0.912  1.00  0.00     0.167 A 
HETATM   29  F1  UNL     1      -2.163   2.191  -0.473  1.00  0.00    -0.202 F 
HETATM   30  C13 UNL     1      -4.198   3.301  -0.867  1.00  0.00     0.197 A 
HETATM   31  F2  UNL     1      -3.643   4.451  -0.408  1.00  0.00    -0.199 F 
HETATM   32  C14 UNL     1      -5.527   3.317  -1.296  1.00  0.00     0.199 A 
HETATM   33  F3  UNL     1      -6.196   4.489  -1.228  1.00  0.00    -0.199 F 
HETATM   34  C15 UNL     1      -6.085   2.155  -1.761  1.00  0.00     0.197 A 
HETATM   35  F4  UNL     1      -7.358   2.141  -2.178  1.00  0.00    -0.199 F 
HETATM   36  C16 UNL     1      -5.348   0.994  -1.803  1.00  0.00     0.167 A 
HETATM   37  F5  UNL     1      -5.952  -0.126  -2.347  1.00  0.00    -0.202 F 
ENDBRANCH  26  27
ENDBRANCH   4  26
TORSDOF 11
