REMARK  11 active torsions:
REMARK  status: ('A' for Active; 'I' for Inactive)
REMARK    1  A    between atoms: N1_2  and  C2_5 
REMARK    2  A    between atoms: C2_5  and  C4_7 
REMARK       I    between atoms: C4_7  and  N2_9 
REMARK    3  A    between atoms: N2_9  and  C5_11 
REMARK    4  A    between atoms: C5_11  and  C6_12 
REMARK    5  A    between atoms: C5_11  and  C26_40 
REMARK       I    between atoms: C6_12  and  N3_14 
REMARK    6  A    between atoms: N3_14  and  C7_16 
REMARK    7  A    between atoms: C7_16  and  C8_17 
REMARK    8  A    between atoms: C14_25  and  C15_26 
REMARK    9  A    between atoms: C15_26  and  C16_27 
REMARK   10  A    between atoms: C23_34  and  C24_35 
REMARK   11  A    between atoms: C24_35  and  C25_36 
ROOT
HETATM    1  C7  UNL     1      -1.939  -0.354  -0.546  1.00  0.00     0.094 C 
HETATM    2  C14 UNL     1      -3.141   0.235   0.165  1.00  0.00    -0.029 C 
HETATM    3  C19 UNL     1      -4.054  -0.866   0.099  1.00  0.00     0.006 C 
HETATM    4  C20 UNL     1      -4.387  -1.767  -0.051  1.00  0.00    -0.026 C 
HETATM    5  C21 UNL     1      -4.365  -3.081  -0.436  1.00  0.00     0.027 C 
HETATM    6  C22 UNL     1      -2.867  -2.825  -1.137  1.00  0.00     0.012 C 
HETATM    7  C23 UNL     1      -2.021  -1.888  -0.404  1.00  0.00     0.028 C 
ENDROOT
BRANCH   1   8
HETATM    8  N3  UNL     1      -0.710   0.005   0.178  1.00  0.00    -0.341 N 
HETATM    9  C6  UNL     1       0.606  -0.243  -0.234  1.00  0.00     0.242 C 
HETATM   10  O2  UNL     1       0.984  -0.815  -1.286  1.00  0.00    -0.271 OA
ATOM     11  H3  UNL     1      -0.828   0.483   1.071  1.00  0.00     0.164 HD
BRANCH   9  12
HETATM   12  C5  UNL     1       1.743   0.214   0.631  1.00  0.00     0.180 C 
BRANCH  12  13
HETATM   13  N2  UNL     1       3.003   0.199  -0.084  1.00  0.00    -0.346 N 
HETATM   14  C4  UNL     1       3.719   1.398  -0.306  1.00  0.00     0.248 C 
HETATM   15  O1  UNL     1       3.281   2.512   0.119  1.00  0.00    -0.271 OA
ATOM     16  H2  UNL     1       3.377  -0.684  -0.430  1.00  0.00     0.163 HD
BRANCH  14  17
HETATM   17  C2  UNL     1       4.999   1.346  -1.048  1.00  0.00     0.272 C 
HETATM   18  C3  UNL     1       5.938   0.329  -0.474  1.00  0.00     0.050 C 
BRANCH  17  19
HETATM   19  N1  UNL     1       5.585   2.667  -1.191  1.00  0.00    -0.067 N 
HETATM   20  C1  UNL     1       6.670   2.576  -2.134  1.00  0.00     0.267 C 
ATOM     21  H12 UNL     1       5.872   3.069  -0.299  1.00  0.00     0.277 HD
ATOM     22  H11 UNL     1       4.899   3.377  -1.448  1.00  0.00     0.277 HD
ENDBRANCH  17  19
ENDBRANCH  14  17
ENDBRANCH  12  13
BRANCH  12  23
HETATM   23  C26 UNL     1       1.951  -0.658   1.838  1.00  0.00     0.009 C 
HETATM   24  C27 UNL     1       2.333  -2.081   1.421  1.00  0.00     0.012 C 
HETATM   25  C28 UNL     1       2.940  -0.123   2.806  1.00  0.00     0.012 C 
ENDBRANCH  12  23
ENDBRANCH   9  12
ENDBRANCH   1   8
BRANCH   1  26
HETATM   26  C8  UNL     1      -1.624   0.096  -1.919  1.00  0.00     0.017 A 
HETATM   27  C9  UNL     1      -1.488  -0.743  -3.013  1.00  0.00     0.013 A 
HETATM   28  C10 UNL     1      -1.160  -0.279  -4.258  1.00  0.00     0.004 A 
HETATM   29  C11 UNL     1      -0.941   1.057  -4.492  1.00  0.00     0.045 A 
HETATM   30  C12 UNL     1      -1.067   1.907  -3.418  1.00  0.00     0.155 A 
HETATM   31  F1  UNL     1      -0.852   3.254  -3.625  1.00  0.00    -0.203 F 
HETATM   32  C13 UNL     1      -1.400   1.432  -2.161  1.00  0.00     0.164 A 
HETATM   33  F2  UNL     1      -1.434   2.395  -1.202  1.00  0.00    -0.202 F 
ENDBRANCH   1  26
BRANCH   2  34
HETATM   34  C15 UNL     1      -3.697   1.420   0.610  1.00  0.00    -0.013 C 
BRANCH  34  35
HETATM   35  C16 UNL     1      -3.082   2.270   1.731  1.00  0.00     0.000 C 
HETATM   36  C17 UNL     1      -3.037   1.454   3.009  1.00  0.00     0.013 C 
HETATM   37  C18 UNL     1      -4.096   3.387   2.042  1.00  0.00     0.013 C 
ENDBRANCH  34  35
ENDBRANCH   2  34
BRANCH   7  38
HETATM   38  C24 UNL     1      -1.806  -2.333   1.006  1.00  0.00     0.051 C 
BRANCH  38  39
HETATM   39  C25 UNL     1      -1.822  -3.806   1.106  1.00  0.00     0.053 C 
HETATM   40  N4  UNL     1      -2.157  -4.358   2.198  1.00  0.00    -0.411 N 
ATOM     41  H42 UNL     1      -2.411  -3.773   2.994  1.00  0.00     0.155 HD
ATOM     42  H41 UNL     1      -2.168  -5.376   2.267  1.00  0.00     0.155 HD
ENDBRANCH  38  39
ENDBRANCH   7  38
TORSDOF 11
