REMARK  13 active torsions:
REMARK  status: ('A' for Active; 'I' for Inactive)
REMARK    1  A    between atoms: C2_2  and  C3_3 
REMARK    2  A    between atoms: C3_3  and  C5_5 
REMARK    3  A    between atoms: C5_5  and  N1_6 
REMARK       I    between atoms: N1_6  and  C6_8 
REMARK       I    between atoms: C6_8  and  N2_10 
REMARK    4  A    between atoms: N2_10  and  C7_12 
REMARK    5  A    between atoms: C7_12  and  C8_13 
REMARK    6  A    between atoms: C7_12  and  C12_17 
REMARK    7  A    between atoms: C8_13  and  C9_14 
REMARK       I    between atoms: C12_17  and  N3_19 
REMARK    8  A    between atoms: N3_19  and  C13_21 
REMARK    9  A    between atoms: C13_21  and  C14_22 
REMARK   10  A    between atoms: C13_21  and  C21_29 
REMARK   11  A    between atoms: C14_22  and  C15_23 
REMARK   12  A    between atoms: C21_29  and  O3_30 
REMARK   13  A    between atoms: C21_29  and  C22_32 
ROOT
HETATM    1  C12 UNL     1       0.508  -0.502   0.059  1.00  0.00     0.241 C 
HETATM    2  O2  UNL     1       0.737  -0.508   1.297  1.00  0.00    -0.271 OA
HETATM    3  N3  UNL     1      -0.820  -0.254  -0.353  1.00  0.00    -0.349 N 
ATOM      4  H3  UNL     1      -1.020  -0.246  -1.353  1.00  0.00     0.163 HD
ENDROOT
BRANCH   3   5
HETATM    5  C13 UNL     1      -1.928  -0.007   0.578  1.00  0.00     0.138 C 
BRANCH   5   6
HETATM    6  C14 UNL     1      -2.976  -1.024   0.517  1.00  0.00     0.003 C 
BRANCH   6   7
HETATM    7  C15 UNL     1      -4.137  -1.005   1.404  1.00  0.00    -0.082 C 
HETATM    8  C16 UNL     1      -3.801  -1.058   2.888  1.00  0.00     0.034 C 
HETATM    9  C17 UNL     1      -5.076  -0.983   3.717  1.00  0.00     0.004 C 
HETATM   10  C18 UNL     1      -6.253  -1.558   2.969  1.00  0.00     0.001 C 
HETATM   11  C19 UNL     1      -6.559  -0.773   1.720  1.00  0.00     0.004 C 
HETATM   12  C20 UNL     1      -5.289  -0.105   1.168  1.00  0.00     0.034 C 
ENDBRANCH   6   7
ENDBRANCH   5   6
BRANCH   5  13
HETATM   13  C21 UNL     1      -2.335   1.423   0.503  1.00  0.00     0.178 C 
BRANCH  13  14
HETATM   14  O3  UNL     1      -1.180   2.164   0.975  1.00  0.00    -0.391 OA
ATOM     15  H3  UNL     1      -1.440   3.077   0.927  1.00  0.00     0.210 HD
ENDBRANCH  13  14
BRANCH  13  16
HETATM   16  C22 UNL     1      -2.505   1.965  -0.900  1.00  0.00     0.259 C 
HETATM   17  C23 UNL     1      -2.689   3.462  -0.764  1.00  0.00     0.119 C 
HETATM   18  C24 UNL     1      -4.101   3.716  -1.182  1.00  0.00     0.271 C 
HETATM   19  F1  UNL     1      -4.906   4.122  -0.137  1.00  0.00    -0.204 F 
HETATM   20  F2  UNL     1      -4.125   4.731  -2.143  1.00  0.00    -0.204 F 
HETATM   21  C25 UNL     1      -4.628   2.428  -1.709  1.00  0.00     0.351 C 
HETATM   22  N4  UNL     1      -3.552   1.461  -1.682  1.00  0.00     0.097 N 
HETATM   23  C26 UNL     1      -3.196   1.226  -3.089  1.00  0.00     0.310 C 
ENDBRANCH  13  16
ENDBRANCH   5  13
ENDBRANCH   3   5
BRANCH   1  24
HETATM   24  C7  UNL     1       1.610  -0.750  -0.884  1.00  0.00     0.178 C 
BRANCH  24  25
HETATM   25  N2  UNL     1       2.833  -0.960  -0.195  1.00  0.00    -0.330 N 
HETATM   26  C6  UNL     1       4.050  -0.229  -0.492  1.00  0.00     0.320 C 
HETATM   27  N1  UNL     1       5.217  -0.479   0.218  1.00  0.00    -0.322 N 
HETATM   28  O1  UNL     1       3.947   0.599  -1.396  1.00  0.00    -0.247 OA
ATOM     29  H1  UNL     1       5.125  -1.222   0.911  1.00  0.00     0.169 HD
ATOM     30  H2  UNL     1       2.857  -1.660   0.546  1.00  0.00     0.165 HD
BRANCH  27  31
HETATM   31  C5  UNL     1       6.501   0.092   0.168  1.00  0.00     0.070 C 
BRANCH  31  32
HETATM   32  C3  UNL     1       6.756   1.490   0.555  1.00  0.00     0.020 C 
HETATM   33  C4  UNL     1       6.000   2.515  -0.220  1.00  0.00     0.015 C 
BRANCH  32  34
HETATM   34  C2  UNL     1       8.284   1.801   0.416  1.00  0.00     0.005 C 
HETATM   35  C1  UNL     1       9.071   0.780   1.189  1.00  0.00     0.006 C 
ENDBRANCH  32  34
ENDBRANCH  31  32
ENDBRANCH  27  31
ENDBRANCH  24  25
BRANCH  24  36
HETATM   36  C8  UNL     1       1.336  -1.800  -1.889  1.00  0.00     0.038 C 
BRANCH  36  37
HETATM   37  C9  UNL     1       1.206  -3.205  -1.461  1.00  0.00    -0.020 C 
HETATM   38  C10 UNL     1       2.401  -3.836  -0.808  1.00  0.00     0.009 C 
HETATM   39  C11 UNL     1       0.952  -4.024  -2.746  1.00  0.00     0.009 C 
ENDBRANCH  36  37
ENDBRANCH  24  36
ENDBRANCH   1  24
TORSDOF 13
