REMARK  1 active torsions:
REMARK  status: ('A' for Active; 'I' for Inactive)
REMARK    1  A    between atoms: C2_2  and  C4_4 
ROOT
HETATM    1  C4  UNL     1      -0.165  -0.540   0.426  1.00  0.00     0.117 C 
HETATM    2  C5  UNL     1      -0.889  -0.951   1.692  1.00  0.00     0.065 C 
HETATM    3  N1  UNL     1       0.199  -1.742  -0.243  1.00  0.00    -0.311 N 
ATOM      4  H1  UNL     1      -0.383  -2.574  -0.142  1.00  0.00     0.182 HD
HETATM    5  N2  UNL     1       1.205  -1.785  -0.938  1.00  0.00    -0.332 N 
ATOM      6  H2  UNL     1       1.444  -2.658  -1.408  1.00  0.00     0.180 HD
HETATM    7  C6  UNL     1       2.052  -0.654  -1.111  1.00  0.00     0.211 C 
HETATM    8  C7  UNL     1       2.059   0.224   0.109  1.00  0.00     0.110 C 
HETATM    9  N3  UNL     1       3.226   0.960   0.409  1.00  0.00    -0.086 NA
HETATM   10  N4  UNL     1       0.991   0.241   0.796  1.00  0.00    -0.353 N 
ATOM     11  H4  UNL     1       0.949   0.823   1.633  1.00  0.00     0.163 HD
ENDROOT
BRANCH   1  12
HETATM   12  C2  UNL     1      -1.028   0.286  -0.482  1.00  0.00     0.027 C 
HETATM   13  C1  UNL     1      -2.274  -0.426  -0.934  1.00  0.00     0.014 C 
HETATM   14  C3  UNL     1      -1.452   1.593   0.162  1.00  0.00     0.014 C 
ENDBRANCH   1  12
TORSDOF 1
