REMARK  6 active torsions:
REMARK  status: ('A' for Active; 'I' for Inactive)
REMARK    1  A    between atoms: C4_4  and  C5_5 
REMARK    2  A    between atoms: C5_5  and  C6_6 
REMARK    3  A    between atoms: C5_5  and  C17_19 
REMARK    4  A    between atoms: C6_6  and  C7_7 
REMARK    5  A    between atoms: C7_7  and  C8_8 
REMARK    6  A    between atoms: C8_8  and  C9_9 
ROOT
HETATM    1  C5  UNL     1      -2.067   0.233  -0.725  1.00  0.00     0.051 C 
ENDROOT
BRANCH   1   2
HETATM    2  C4  UNL     1      -3.040   1.364  -0.633  1.00  0.00    -0.050 A 
HETATM    3  C3  UNL     1      -2.942   2.394   0.274  1.00  0.00     0.008 A 
HETATM    4  C2  UNL     1      -3.860   3.419   0.328  1.00  0.00     0.001 A 
HETATM    5  C1  UNL     1      -4.912   3.423  -0.548  1.00  0.00     0.000 A 
HETATM    6  C23 UNL     1      -5.052   2.402  -1.483  1.00  0.00     0.001 A 
HETATM    7  C22 UNL     1      -4.132   1.402  -1.515  1.00  0.00     0.008 A 
ENDBRANCH   1   2
BRANCH   1   8
HETATM    8  C6  UNL     1      -0.704   0.742  -0.425  1.00  0.00     0.014 C 
BRANCH   8   9
HETATM    9  C7  UNL     1       0.366  -0.334  -0.507  1.00  0.00     0.006 C 
BRANCH   9  10
HETATM   10  C8  UNL     1       1.682   0.343  -0.163  1.00  0.00     0.041 C 
BRANCH  10  11
HETATM   11  C9  UNL     1       2.808  -0.611  -0.205  1.00  0.00    -0.030 A 
HETATM   12  C10 UNL     1       2.829  -1.929  -0.575  1.00  0.00     0.096 A 
HETATM   13  N1  UNL     1       4.080  -2.408  -0.459  1.00  0.00    -0.365 N 
HETATM   14  C11 UNL     1       4.897  -1.417  -0.013  1.00  0.00     0.042 A 
ATOM     15  H1  UNL     1       4.370  -3.363  -0.672  1.00  0.00     0.165 HD
HETATM   16  C12 UNL     1       6.253  -1.412   0.264  1.00  0.00     0.030 A 
HETATM   17  C16 UNL     1       4.101  -0.293   0.146  1.00  0.00    -0.002 A 
HETATM   18  C13 UNL     1       6.843  -0.243   0.716  1.00  0.00     0.002 A 
HETATM   19  C14 UNL     1       6.068   0.883   0.880  1.00  0.00     0.001 A 
HETATM   20  C15 UNL     1       4.718   0.868   0.602  1.00  0.00     0.014 A 
ENDBRANCH  10  11
ENDBRANCH   9  10
ENDBRANCH   8   9
ENDBRANCH   1   8
BRANCH   1  21
HETATM   21  C17 UNL     1      -2.478  -0.920   0.070  1.00  0.00    -0.047 A 
HETATM   22  C18 UNL     1      -2.153  -1.076   1.396  1.00  0.00     0.025 A 
HETATM   23  C19 UNL     1      -2.573  -2.205   2.109  1.00  0.00     0.088 A 
HETATM   24  N2  UNL     1      -3.310  -3.167   1.503  1.00  0.00    -0.375 N 
HETATM   25  C20 UNL     1      -3.640  -3.035   0.208  1.00  0.00     0.088 A 
ATOM     26  H2  UNL     1      -3.613  -3.988   2.028  1.00  0.00     0.164 HD
HETATM   27  C21 UNL     1      -3.232  -1.926  -0.507  1.00  0.00     0.025 A 
ENDBRANCH   1  21
TORSDOF 6
