REMARK  3 active torsions:
REMARK  status: ('A' for Active; 'I' for Inactive)
REMARK    1  A    between atoms: N1_1  and  C1_4 
REMARK    2  A    between atoms: C2_7  and  N3_8 
REMARK    3  A    between atoms: N3_8  and  N4_10 
ROOT
HETATM    1  C1  UNL     1      -1.647  -0.088  -0.787  1.00  0.00     0.677 A 
HETATM    2  N2  UNL     1      -0.364  -0.291  -1.153  1.00  0.00    -0.176 N 
ATOM      3  H2  UNL     1      -0.141  -0.411  -2.141  1.00  0.00     0.186 HD
HETATM    4  C2  UNL     1       0.616  -0.338  -0.257  1.00  0.00     0.136 A 
HETATM    5  C3  UNL     1       0.361  -0.181   1.102  1.00  0.00     0.068 A 
HETATM    6  C4  UNL     1      -0.959   0.026   1.484  1.00  0.00     0.110 A 
HETATM    7  N5  UNL     1      -1.890   0.063   0.525  1.00  0.00    -0.202 N 
ATOM      8  H5  UNL     1      -2.857   0.217   0.811  1.00  0.00     0.183 HD
ENDROOT
BRANCH   4   9
HETATM    9  N3  UNL     1       1.989  -0.526  -0.588  1.00  0.00    -0.292 N 
ATOM     10  H3  UNL     1       2.303  -1.462  -0.846  1.00  0.00     0.188 HD
BRANCH   9  11
HETATM   11  N4  UNL     1       2.926   0.512  -0.576  1.00  0.00    -0.344 N 
ATOM     12  H42 UNL     1       2.595   1.441  -0.316  1.00  0.00     0.176 HD
ATOM     13  H41 UNL     1       3.909   0.377  -0.813  1.00  0.00     0.176 HD
ENDBRANCH   9  11
ENDBRANCH   4   9
BRANCH   1  14
HETATM   14  N1  UNL     1      -2.596  -0.067  -1.696  1.00  0.00    -0.234 N 
ATOM     15  H12 UNL     1      -2.411  -0.182  -2.693  1.00  0.00     0.174 HD
ATOM     16  H11 UNL     1      -3.566   0.086  -1.419  1.00  0.00     0.174 HD
ENDBRANCH   1  14
TORSDOF 3
