REMARK  10 active torsions:
REMARK  status: ('A' for Active; 'I' for Inactive)
REMARK    1  A    between atoms: C3_3  and  C4_4 
REMARK    2  A    between atoms: C4_4  and  N1_5 
REMARK    3  A    between atoms: N2_8  and  C7_9 
REMARK    4  A    between atoms: C7_9  and  C8_10 
REMARK    5  A    between atoms: C8_10  and  N3_11 
REMARK       I    between atoms: N3_11  and  C9_13 
REMARK    6  A    between atoms: C9_13  and  C10_15 
REMARK    7  A    between atoms: C15_20  and  C16_21 
REMARK    8  A    between atoms: C17_24  and  C18_25 
REMARK    9  A    between atoms: C18_25  and  C19_26 
REMARK   10  A    between atoms: C19_26  and  C20_27 
ROOT
HETATM    1  C1  UNL     1       8.506   1.649   2.719  1.00  0.00     0.112 C 
HETATM    2  C2  UNL     1       7.787   0.886   1.694  1.00  0.00    -0.109 C 
HETATM    3  C3  UNL     1       7.186   0.253   0.857  1.00  0.00    -0.077 C 
ENDROOT
BRANCH   3   4
HETATM    4  C4  UNL     1       6.449  -0.524  -0.140  1.00  0.00     0.366 C 
BRANCH   4   5
HETATM    5  N1  UNL     1       5.222  -1.010   0.451  1.00  0.00     0.108 N 
HETATM    6  C5  UNL     1       4.362   0.127   0.695  1.00  0.00     0.302 C 
HETATM    7  C6  UNL     1       2.898  -0.250   0.560  1.00  0.00     0.280 C 
HETATM    8  N2  UNL     1       2.562  -0.689  -0.795  1.00  0.00     0.019 N 
HETATM    9  C22 UNL     1       3.823  -1.122  -1.468  1.00  0.00     0.287 C 
HETATM   10  C25 UNL     1       1.819  -1.878  -0.687  1.00  0.00     0.415 C 
HETATM   11  C23 UNL     1       4.609  -1.928  -0.501  1.00  0.00     0.268 C 
HETATM   12  C24 UNL     1       3.881  -3.038   0.179  1.00  0.00     0.162 C 
HETATM   13  N4  UNL     1       2.457  -2.941   0.062  1.00  0.00    -0.335 N 
ATOM     14  H4  UNL     1       1.874  -3.642   0.520  1.00  0.00     0.164 HD
HETATM   15  O4  UNL     1       0.705  -2.161  -1.133  1.00  0.00    -0.239 OA
BRANCH   8  16
HETATM   16  C7  UNL     1       2.055   0.362  -1.585  1.00  0.00     0.269 C 
BRANCH  16  17
HETATM   17  C8  UNL     1       0.618   0.448  -1.906  1.00  0.00     0.151 C 
BRANCH  17  18
HETATM   18  N3  UNL     1      -0.268   0.567  -0.769  1.00  0.00    -0.359 N 
HETATM   19  C9  UNL     1      -1.662   0.658  -0.968  1.00  0.00     0.222 C 
HETATM   20  O1  UNL     1      -2.122   0.634  -2.122  1.00  0.00    -0.273 OA
ATOM     21  H3  UNL     1       0.115   0.585   0.176  1.00  0.00     0.162 HD
BRANCH  19  22
HETATM   22  C10 UNL     1      -2.568   0.780   0.180  1.00  0.00     0.083 C 
HETATM   23  C11 UNL     1      -2.294   1.969   1.042  1.00  0.00     0.014 C 
HETATM   24  C12 UNL     1      -2.665   3.297   0.610  1.00  0.00     0.001 C 
HETATM   25  C13 UNL     1      -3.289   3.515  -0.725  1.00  0.00     0.001 C 
HETATM   26  C14 UNL     1      -4.568   2.766  -0.931  1.00  0.00     0.016 C 
HETATM   27  C15 UNL     1      -4.813   1.758   0.189  1.00  0.00     0.091 C 
HETATM   28  C17 UNL     1      -4.002   0.541  -0.159  1.00  0.00     0.013 C 
BRANCH  27  29
HETATM   29  C16 UNL     1      -6.264   1.494   0.188  1.00  0.00     0.177 C 
HETATM   30  O2  UNL     1      -6.924   1.754   1.222  1.00  0.00    -0.648 OA
HETATM   31  O3  UNL     1      -6.953   0.970  -0.897  1.00  0.00    -0.648 OA
ENDBRANCH  27  29
BRANCH  28  32
HETATM   32  C18 UNL     1      -4.574  -0.717   0.458  1.00  0.00     0.006 C 
BRANCH  32  33
HETATM   33  C19 UNL     1      -3.855  -1.951   0.019  1.00  0.00     0.000 C 
BRANCH  33  34
HETATM   34  C20 UNL     1      -4.417  -3.211   0.628  1.00  0.00    -0.005 C 
HETATM   35  C21 UNL     1      -4.343  -3.196   2.136  1.00  0.00     0.005 C 
ENDBRANCH  33  34
ENDBRANCH  32  33
ENDBRANCH  28  32
ENDBRANCH  19  22
ENDBRANCH  17  18
ENDBRANCH  16  17
ENDBRANCH   8  16
ENDBRANCH   4   5
ENDBRANCH   3   4
TORSDOF 10
