REMARK  7 active torsions:
REMARK  status: ('A' for Active; 'I' for Inactive)
REMARK    1  A    between atoms: C2_2  and  O1_3 
REMARK    2  A    between atoms: O1_3  and  C3_4 
REMARK    3  A    between atoms: C3_4  and  C4_5 
REMARK    4  A    between atoms: C4_5  and  C5_6 
REMARK    5  A    between atoms: C7_12  and  C8_13 
REMARK    6  A    between atoms: C8_13  and  N3_14 
REMARK    7  A    between atoms: N3_14  and  C9_16 
ROOT
HETATM    1  C5  UNL     1      -0.271   0.565  -0.061  1.00  0.00     0.059 A 
HETATM    2  N1  UNL     1      -0.194   1.879   0.189  1.00  0.00    -0.351 N 
ATOM      3  H1  UNL     1       0.633   2.453   0.022  1.00  0.00     0.166 HD
HETATM    4  C6  UNL     1      -1.353   2.339   0.689  1.00  0.00     0.181 A 
HETATM    5  N2  UNL     1      -2.208   1.280   0.765  1.00  0.00    -0.352 N 
ATOM      6  H2  UNL     1      -3.169   1.310   1.106  1.00  0.00     0.166 HD
HETATM    7  C7  UNL     1      -1.568   0.194   0.314  1.00  0.00     0.055 A 
ENDROOT
BRANCH   7   8
HETATM    8  C8  UNL     1      -2.075  -1.176   0.207  1.00  0.00     0.179 C 
BRANCH   8   9
HETATM    9  N3  UNL     1      -3.434  -1.282   0.650  1.00  0.00    -0.381 N 
ATOM     10  H3  UNL     1      -3.628  -1.882   1.452  1.00  0.00     0.160 HD
BRANCH   9  11
HETATM   11  C9  UNL     1      -4.523  -0.610   0.049  1.00  0.00     0.169 C 
HETATM   12  N4  UNL     1      -4.502  -0.177  -1.169  1.00  0.00    -0.396 N 
ATOM     13  H42 UNL     1      -3.651  -0.336  -1.709  1.00  0.00     0.156 HD
ATOM     14  H41 UNL     1      -5.288   0.308  -1.603  1.00  0.00     0.156 HD
ENDBRANCH   9  11
ENDBRANCH   8   9
ENDBRANCH   7   8
BRANCH   1  15
HETATM   15  C4  UNL     1       0.741  -0.330  -0.602  1.00  0.00     0.055 C 
BRANCH  15  16
HETATM   16  C3  UNL     1       1.939   0.124  -0.924  1.00  0.00     0.137 C 
BRANCH  16  17
HETATM   17  O1  UNL     1       2.935  -0.673  -1.439  1.00  0.00    -0.363 OA
BRANCH  17  18
HETATM   18  C2  UNL     1       4.146  -0.824  -0.724  1.00  0.00     0.170 C 
HETATM   19  C1  UNL     1       4.842   0.520  -0.529  1.00  0.00     0.034 C 
ENDBRANCH  17  18
ENDBRANCH  16  17
ENDBRANCH  15  16
ENDBRANCH   1  15
TORSDOF 7
