REMARK  4 active torsions:
REMARK  status: ('A' for Active; 'I' for Inactive)
REMARK    1  A    between atoms: C6_6  and  O1_7 
REMARK    2  A    between atoms: C7_9  and  O2_10 
REMARK    3  A    between atoms: C8_12  and  O3_13 
REMARK    4  A    between atoms: C9_15  and  O4_16 
ROOT
HETATM    1  C1  UNL     1       2.302  -0.038  -1.217  1.00  0.00     0.012 C 
HETATM    2  C2  UNL     1       1.739   0.023   0.197  1.00  0.00     0.013 C 
HETATM    3  C3  UNL     1       1.189   1.346   0.543  1.00  0.00     0.007 C 
HETATM    4  C4  UNL     1       0.047   1.854  -0.226  1.00  0.00     0.003 C 
HETATM    5  C5  UNL     1      -1.226   1.509   0.531  1.00  0.00     0.034 C 
HETATM    6  C6  UNL     1      -2.004   0.411  -0.100  1.00  0.00     0.149 C 
HETATM    7  C7  UNL     1      -1.564  -0.968   0.130  1.00  0.00     0.178 C 
HETATM    8  C8  UNL     1      -0.258  -1.462  -0.295  1.00  0.00     0.178 C 
HETATM    9  C9  UNL     1       0.921  -1.164   0.562  1.00  0.00     0.153 C 
ENDROOT
BRANCH   6  10
HETATM   10  O1  UNL     1      -2.314   0.711  -1.446  1.00  0.00    -0.393 OA
ATOM     11  H1  UNL     1      -2.811   0.009  -1.849  1.00  0.00     0.210 HD
ENDBRANCH   6  10
BRANCH   7  12
HETATM   12  O2  UNL     1      -1.698  -1.233   1.514  1.00  0.00    -0.390 OA
ATOM     13  H2  UNL     1      -1.413  -2.127   1.663  1.00  0.00     0.210 HD
ENDBRANCH   7  12
BRANCH   8  14
HETATM   14  O3  UNL     1       0.070  -1.309  -1.623  1.00  0.00    -0.390 OA
ATOM     15  H3  UNL     1       0.920  -1.631  -1.900  1.00  0.00     0.210 HD
ENDBRANCH   8  14
BRANCH   9  16
HETATM   16  O4  UNL     1       0.640  -1.100   1.919  1.00  0.00    -0.393 OA
ATOM     17  H4  UNL     1       0.117  -1.858   2.152  1.00  0.00     0.210 HD
ENDBRANCH   9  16
TORSDOF 4
