REMARK  5 active torsions:
REMARK  status: ('A' for Active; 'I' for Inactive)
REMARK    1  A    between atoms: C3_4  and  N2_5 
REMARK       I    between atoms: N2_5  and  C4_7 
REMARK    2  A    between atoms: C4_7  and  O2_9 
REMARK    3  A    between atoms: O2_9  and  C5_10 
REMARK    4  A    between atoms: C10_15  and  C11_16 
REMARK    5  A    between atoms: C11_16  and  N3_17 
ROOT
HETATM    1  C1  UNL     1      -1.723   1.424  -0.580  1.00  0.00     0.310 C 
HETATM    2  N1  UNL     1      -1.882  -0.001  -0.732  1.00  0.00     0.092 N 
HETATM    3  C2  UNL     1      -0.678  -0.505  -1.398  1.00  0.00     0.297 C 
HETATM    4  C3  UNL     1       0.307  -0.609  -0.268  1.00  0.00     0.117 C 
HETATM    5  C9  UNL     1      -0.477  -0.512   1.023  1.00  0.00     0.064 C 
HETATM    6  C10 UNL     1      -1.888  -0.725   0.501  1.00  0.00     0.250 C 
ENDROOT
BRANCH   4   7
HETATM    7  N2  UNL     1       1.392   0.326  -0.347  1.00  0.00    -0.330 N 
HETATM    8  C4  UNL     1       2.740  -0.101  -0.435  1.00  0.00     0.361 C 
HETATM    9  O1  UNL     1       3.104  -1.301  -0.452  1.00  0.00    -0.238 OA
ATOM     10  H2  UNL     1       1.187   1.325  -0.340  1.00  0.00     0.165 HD
BRANCH   8  11
HETATM   11  O2  UNL     1       3.732   0.860  -0.508  1.00  0.00    -0.294 OA
BRANCH  11  12
HETATM   12  C5  UNL     1       5.094   0.512  -0.598  1.00  0.00     0.061 C 
HETATM   13  C6  UNL     1       5.355  -0.313  -1.839  1.00  0.00     0.046 C 
HETATM   14  C7  UNL     1       5.863   1.818  -0.766  1.00  0.00     0.046 C 
HETATM   15  C8  UNL     1       5.604  -0.230   0.598  1.00  0.00     0.046 C 
ENDBRANCH  11  12
ENDBRANCH   8  11
ENDBRANCH   4   7
BRANCH   6  16
HETATM   16  C11 UNL     1      -2.889  -0.284   1.510  1.00  0.00     0.271 C 
BRANCH  16  17
HETATM   17  N3  UNL     1      -4.254  -0.365   1.100  1.00  0.00    -0.076 N 
HETATM   18  C12 UNL     1      -4.473  -0.844  -0.229  1.00  0.00     0.271 C 
HETATM   19  C13 UNL     1      -4.848   0.963   1.209  1.00  0.00     0.271 C 
HETATM   20  C14 UNL     1      -5.043  -1.216   1.999  1.00  0.00     0.271 C 
ENDBRANCH  16  17
ENDBRANCH   6  16
TORSDOF 5
