REMARK  2 active torsions:
REMARK  status: ('A' for Active; 'I' for Inactive)
REMARK    1  A    between atoms: N2_4  and  C1_6 
REMARK    2  A    between atoms: C5_10  and  N3_11 
ROOT
HETATM    1  C1  UNL     1      -0.495   0.532  -0.660  1.00  0.00     0.129 C 
HETATM    2  C2  UNL     1      -1.058  -0.876  -0.515  1.00  0.00     0.029 C 
HETATM    3  C3  UNL     1       0.167  -1.643  -0.063  1.00  0.00     0.004 C 
HETATM    4  C4  UNL     1       0.742  -0.733   0.998  1.00  0.00     0.035 C 
HETATM    5  C5  UNL     1       0.537   0.627   0.428  1.00  0.00     0.207 C 
ENDROOT
BRANCH   1   6
HETATM    6  N2  UNL     1      -1.569   1.434  -0.384  1.00  0.00    -0.336 N 
HETATM    7  N1  UNL     1      -2.299   1.212   0.587  1.00  0.00    -0.349 N 
ATOM      8  H12 UNL     1      -2.125   0.395   1.172  1.00  0.00     0.176 HD
ATOM      9  H11 UNL     1      -3.065   1.856   0.784  1.00  0.00     0.176 HD
ATOM     10  H2  UNL     1      -1.730   2.247  -0.979  1.00  0.00     0.180 HD
ENDBRANCH   1   6
BRANCH   5  11
HETATM   11  N3  UNL     1       1.712   1.235  -0.101  1.00  0.00    -0.073 N 
ATOM     12  H33 UNL     1       2.062   0.751  -0.928  1.00  0.00     0.274 HD
ATOM     13  H32 UNL     1       1.521   2.138  -0.535  1.00  0.00     0.274 HD
ATOM     14  H31 UNL     1       2.413   1.299   0.638  1.00  0.00     0.274 HD
ENDBRANCH   5  11
TORSDOF 2
