REMARK  5 active torsions:
REMARK  status: ('A' for Active; 'I' for Inactive)
REMARK    1  A    between atoms: O1_1  and  C1_3 
REMARK    2  A    between atoms: C3_8  and  N2_9 
REMARK    3  A    between atoms: C5_11  and  O2_12 
REMARK    4  A    between atoms: C7_16  and  O3_17 
REMARK    5  A    between atoms: C9_20  and  O4_21 
ROOT
HETATM    1  C1  UNL     1       3.294  -0.081  -0.106  1.00  0.00     0.176 C 
HETATM    2  C2  UNL     1       2.880   1.362  -0.016  1.00  0.00     0.269 C 
HETATM    3  N1  UNL     1       1.492   1.279   0.374  1.00  0.00    -0.049 N 
ATOM      4  H11 UNL     1       0.974   2.156   0.329  1.00  0.00     0.279 HD
ATOM      5  H12 UNL     1       1.328   1.126   1.369  1.00  0.00     0.279 HD
HETATM    6  C3  UNL     1       1.001   0.213  -0.515  1.00  0.00     0.321 C 
HETATM    7  C9  UNL     1       1.979  -0.867  -0.278  1.00  0.00     0.199 C 
ENDROOT
BRANCH   6   8
HETATM    8  N2  UNL     1      -0.365  -0.009  -0.334  1.00  0.00    -0.339 N 
HETATM    9  C4  UNL     1      -0.885  -0.264   0.920  1.00  0.00     0.100 C 
HETATM   10  C5  UNL     1      -2.347  -0.663   0.925  1.00  0.00     0.193 C 
HETATM   11  C6  UNL     1      -3.168  -0.097  -0.176  1.00  0.00     0.237 C 
HETATM   12  F1  UNL     1      -4.416   0.321   0.281  1.00  0.00    -0.243 F 
HETATM   13  C7  UNL     1      -2.521   0.938  -1.026  1.00  0.00     0.193 C 
HETATM   14  C8  UNL     1      -1.142   0.466  -1.397  1.00  0.00     0.100 C 
BRANCH  10  15
HETATM   15  O2  UNL     1      -2.386  -2.071   0.948  1.00  0.00    -0.387 OA
ATOM     16  H2  UNL     1      -3.302  -2.321   0.951  1.00  0.00     0.210 HD
ENDBRANCH  10  15
BRANCH  13  17
HETATM   17  O3  UNL     1      -2.585   2.225  -0.560  1.00  0.00    -0.387 OA
ATOM     18  H3  UNL     1      -2.172   2.886  -1.103  1.00  0.00     0.210 HD
ENDBRANCH  13  17
ENDBRANCH   6   8
BRANCH   7  19
HETATM   19  O4  UNL     1       1.783  -1.722   0.762  1.00  0.00    -0.389 OA
ATOM     20  H4  UNL     1       0.973  -2.206   0.656  1.00  0.00     0.210 HD
ENDBRANCH   7  19
BRANCH   1  21
HETATM   21  O1  UNL     1       3.935  -0.490   1.050  1.00  0.00    -0.391 OA
ATOM     22  H1  UNL     1       4.197  -1.402   0.993  1.00  0.00     0.210 HD
ENDBRANCH   1  21
TORSDOF 5
