REMARK  8 active torsions:
REMARK  status: ('A' for Active; 'I' for Inactive)
REMARK    1  A    between atoms: N1_2  and  C2_4 
REMARK    2  A    between atoms: C3_7  and  C4_8 
REMARK    3  A    between atoms: C5_13  and  N5_14 
REMARK    4  A    between atoms: C6_19  and  N7_20 
REMARK    5  A    between atoms: N7_20  and  C7_22 
REMARK    6  A    between atoms: C7_22  and  C8_23 
REMARK    7  A    between atoms: C8_23  and  C9_24 
REMARK    8  A    between atoms: C9_24  and  N8_25 
ROOT
HETATM    1  C2  UNL     1      -2.349  -1.028   0.442  1.00  0.00     0.148 C 
HETATM    2  N2  UNL     1      -3.199   0.003   0.138  1.00  0.00    -0.321 N 
ATOM      3  H2  UNL     1      -3.960   0.140   0.803  1.00  0.00     0.169 HD
HETATM    4  C3  UNL     1      -3.191   0.867  -0.901  1.00  0.00     0.188 C 
HETATM    5  N4  UNL     1      -2.280   0.949  -1.906  1.00  0.00    -0.172 N 
ATOM      6  H4  UNL     1      -2.518   1.604  -2.651  1.00  0.00     0.186 HD
HETATM    7  C5  UNL     1      -1.113   0.300  -2.071  1.00  0.00     0.679 C 
HETATM    8  N6  UNL     1      -0.688  -0.740  -1.315  1.00  0.00    -0.173 N 
ATOM      9  H6  UNL     1       0.046  -1.306  -1.741  1.00  0.00     0.186 HD
HETATM   10  C6  UNL     1      -1.077  -1.147  -0.095  1.00  0.00     0.165 C 
ENDROOT
BRANCH  10  11
HETATM   11  N7  UNL     1      -0.215  -1.683   0.627  1.00  0.00    -0.352 N 
ATOM     12  H7  UNL     1      -0.587  -1.964   1.534  1.00  0.00     0.166 HD
BRANCH  11  13
HETATM   13  C7  UNL     1       1.145  -1.991   0.487  1.00  0.00     0.064 C 
BRANCH  13  14
HETATM   14  C8  UNL     1       2.086  -1.009   1.147  1.00  0.00     0.064 C 
BRANCH  14  15
HETATM   15  C9  UNL     1       1.973   0.389   0.629  1.00  0.00     0.127 C 
BRANCH  15  16
HETATM   16  N8  UNL     1       2.934   1.201   1.353  1.00  0.00    -0.367 N 
HETATM   17  C10 UNL     1       4.086   1.472   0.798  1.00  0.00     0.196 C 
HETATM   18  N9  UNL     1       5.056   2.264   1.474  1.00  0.00    -0.067 NA
HETATM   19  N10 UNL     1       4.428   0.994  -0.499  1.00  0.00    -0.067 NA
ATOM     20  H8  UNL     1       2.713   1.556   2.283  1.00  0.00     0.161 HD
ENDBRANCH  15  16
ENDBRANCH  14  15
ENDBRANCH  13  14
ENDBRANCH  11  13
ENDBRANCH  10  11
BRANCH   1  21
HETATM   21  N1  UNL     1      -2.804  -1.881   1.259  1.00  0.00    -0.378 N 
HETATM   22  C1  UNL     1      -2.194  -3.063   1.784  1.00  0.00     0.148 C 
ATOM     23  H1  UNL     1      -3.750  -1.697   1.594  1.00  0.00     0.160 HD
ENDBRANCH   1  21
BRANCH   7  24
HETATM   24  N5  UNL     1      -0.367   0.725  -3.027  1.00  0.00    -0.234 N 
ATOM     25  H52 UNL     1      -0.687   1.508  -3.596  1.00  0.00     0.174 HD
ATOM     26  H51 UNL     1       0.518   0.233  -3.152  1.00  0.00     0.174 HD
ENDBRANCH   7  24
BRANCH   4  27
HETATM   27  C4  UNL     1      -4.301   1.831  -0.950  1.00  0.00     0.299 C 
HETATM   28  N3  UNL     1      -4.338   2.757  -2.027  1.00  0.00    -0.054 NA
HETATM   29  O1  UNL     1      -5.194   1.849  -0.076  1.00  0.00    -0.268 OA
ENDBRANCH   4  27
TORSDOF 8
