REMARK  5 active torsions:
REMARK  status: ('A' for Active; 'I' for Inactive)
REMARK       I    between atoms: C1_4  and  N3_6 
REMARK    1  A    between atoms: N3_6  and  N4_8 
REMARK    2  A    between atoms: C3_12  and  C4_13 
REMARK    3  A    between atoms: C4_13  and  C5_14 
REMARK    4  A    between atoms: C5_14  and  N6_15 
REMARK    5  A    between atoms: N6_15  and  S1_17 
ROOT
HETATM    1  N4  UNL     1       2.452  -0.170   0.770  1.00  0.00    -0.151 N 
HETATM    2  N5  UNL     1       1.177  -0.147   0.202  1.00  0.00    -0.273 N 
ATOM      3  H5  UNL     1       0.762   0.685  -0.218  1.00  0.00     0.189 HD
HETATM    4  C2  UNL     1       0.528  -1.385   0.269  1.00  0.00     0.102 A 
HETATM    5  C3  UNL     1      -0.665  -1.778  -0.145  1.00  0.00     0.010 C 
HETATM    6  C6  UNL     1       1.480  -2.289   0.946  1.00  0.00     0.270 A 
HETATM    7  O4  UNL     1       1.326  -3.501   1.225  1.00  0.00    -0.280 OA
HETATM    8  C7  UNL     1       2.660  -1.488   1.238  1.00  0.00     0.334 A 
HETATM    9  O5  UNL     1       3.711  -1.897   1.818  1.00  0.00    -0.260 OA
ENDROOT
BRANCH   5  10
HETATM   10  C4  UNL     1      -1.529  -0.748  -0.820  1.00  0.00     0.050 C 
BRANCH  10  11
HETATM   11  C5  UNL     1      -2.811  -0.539  -0.088  1.00  0.00     0.138 C 
BRANCH  11  12
HETATM   12  N6  UNL     1      -3.581   0.455  -0.790  1.00  0.00    -0.301 N 
ATOM     13  H6  UNL     1      -3.266   0.916  -1.644  1.00  0.00     0.174 HD
BRANCH  12  14
HETATM   14  S1  UNL     1      -5.089   0.780  -0.033  1.00  0.00     0.204 S 
HETATM   15  O1  UNL     1      -6.083   1.254  -1.058  1.00  0.00    -0.578 OA
HETATM   16  O2  UNL     1      -5.619  -0.405   0.712  1.00  0.00    -0.578 OA
HETATM   17  O3  UNL     1      -4.862   2.020   1.066  1.00  0.00    -0.578 OA
ENDBRANCH  12  14
ENDBRANCH  11  12
ENDBRANCH  10  11
ENDBRANCH   5  10
BRANCH   1  18
HETATM   18  N3  UNL     1       3.388   0.867   0.887  1.00  0.00    -0.249 N 
HETATM   19  C1  UNL     1       4.218   1.211  -0.207  1.00  0.00     0.202 C 
HETATM   20  N1  UNL     1       4.182   0.532  -1.293  1.00  0.00    -0.372 N 
HETATM   21  N2  UNL     1       5.104   2.306  -0.134  1.00  0.00    -0.062 NA
ATOM     22  H12 UNL     1       4.780   0.780  -2.081  1.00  0.00     0.158 HD
ATOM     23  H11 UNL     1       3.541  -0.260  -1.346  1.00  0.00     0.158 HD
ATOM     24  H3  UNL     1       3.472   1.377   1.766  1.00  0.00     0.192 HD
ENDBRANCH   1  18
TORSDOF 5
