REMARK  4 active torsions:
REMARK  status: ('A' for Active; 'I' for Inactive)
REMARK    1  A    between atoms: C2_3  and  C3_4 
REMARK    2  A    between atoms: C3_4  and  C4_5 
REMARK    3  A    between atoms: N1_10  and  C8_11 
REMARK    4  A    between atoms: N2_18  and  C15_19 
ROOT
HETATM    1  O1  UNL     1       0.028   1.798   0.094  1.00  0.00    -0.271 OA
HETATM    2  C1  UNL     1      -0.267   0.580   0.160  1.00  0.00     0.254 C 
HETATM    3  C2  UNL     1      -1.594   0.114  -0.311  1.00  0.00     0.319 C 
HETATM    4  N1  UNL     1      -1.877  -1.235   0.122  1.00  0.00     0.108 N 
HETATM    5  C13 UNL     1      -0.728  -2.061   0.217  1.00  0.00     0.294 C 
HETATM    6  C14 UNL     1       0.188  -1.493   1.289  1.00  0.00     0.156 C 
HETATM    7  N2  UNL     1       0.724  -0.279   0.698  1.00  0.00    -0.344 N 
ENDROOT
BRANCH   7   8
HETATM    8  C15 UNL     1       2.128  -0.039   0.698  1.00  0.00     0.087 C 
HETATM    9  C16 UNL     1       2.619   1.185   1.326  1.00  0.00     0.025 C 
HETATM   10  C17 UNL     1       3.572   2.040   0.532  1.00  0.00     0.002 C 
HETATM   11  C18 UNL     1       4.921   1.390   0.360  1.00  0.00     0.000 C 
HETATM   12  C19 UNL     1       4.917   0.765  -1.019  1.00  0.00     0.000 C 
HETATM   13  C20 UNL     1       4.032  -0.484  -0.904  1.00  0.00     0.002 C 
HETATM   14  C21 UNL     1       2.599  -0.139  -0.738  1.00  0.00     0.025 C 
ENDBRANCH   7   8
BRANCH   3  15
HETATM   15  C3  UNL     1      -1.675   0.089  -1.813  1.00  0.00     0.092 C 
BRANCH  15  16
HETATM   16  C4  UNL     1      -1.467   1.398  -2.477  1.00  0.00    -0.015 A 
HETATM   17  C5  UNL     1      -0.320   1.985  -2.946  1.00  0.00     0.015 A 
HETATM   18  C6  UNL     1      -0.433   3.195  -3.508  1.00  0.00     0.008 A 
HETATM   19  C7  UNL     1      -1.675   3.755  -3.575  1.00  0.00     0.050 A 
HETATM   20  S1  UNL     1      -2.658   2.568  -2.845  1.00  0.00    -0.106 SA
ENDBRANCH  15  16
ENDBRANCH   3  15
BRANCH   4  21
HETATM   21  C8  UNL     1      -2.716  -1.355   1.237  1.00  0.00     0.224 C 
HETATM   22  C9  UNL     1      -4.114  -0.818   1.037  1.00  0.00     0.036 C 
HETATM   23  C10 UNL     1      -4.887  -1.447   2.172  1.00  0.00     0.002 C 
HETATM   24  C11 UNL     1      -4.088  -2.606   2.664  1.00  0.00     0.002 C 
HETATM   25  C12 UNL     1      -2.985  -2.785   1.615  1.00  0.00     0.036 C 
ENDBRANCH   4  21
TORSDOF 4
