REMARK  14 active torsions:
REMARK  status: ('A' for Active; 'I' for Inactive)
REMARK    1  A    between atoms: C4_4  and  C5_5 
REMARK    2  A    between atoms: C5_5  and  C6_6 
REMARK    3  A    between atoms: C6_6  and  C7_7 
REMARK    4  A    between atoms: C7_7  and  C8_8 
REMARK    5  A    between atoms: C8_8  and  C9_9 
REMARK    6  A    between atoms: C9_9  and  C10_10 
REMARK    7  A    between atoms: C10_10  and  C11_11 
REMARK    8  A    between atoms: C11_11  and  C12_12 
REMARK    9  A    between atoms: C12_12  and  C13_13 
REMARK   10  A    between atoms: C13_13  and  C14_14 
REMARK   11  A    between atoms: C14_14  and  C15_15 
REMARK   12  A    between atoms: C15_15  and  C16_16 
REMARK   13  A    between atoms: C16_16  and  C17_17 
REMARK   14  A    between atoms: C17_17  and  C18_18 
ROOT
HETATM    1  C11 UNL     1       1.306   2.517   0.645  1.00  0.00     0.000 C 
ENDROOT
BRANCH   1   2
HETATM    2  C10 UNL     1       1.780   1.801  -0.596  1.00  0.00     0.000 C 
BRANCH   2   3
HETATM    3  C9  UNL     1       2.057   0.352  -0.359  1.00  0.00     0.000 C 
BRANCH   3   4
HETATM    4  C8  UNL     1       2.520  -0.333  -1.618  1.00  0.00     0.000 C 
BRANCH   4   5
HETATM    5  C7  UNL     1       3.779   0.262  -2.166  1.00  0.00     0.000 C 
BRANCH   5   6
HETATM    6  C6  UNL     1       4.931   0.191  -1.199  1.00  0.00     0.005 C 
BRANCH   6   7
HETATM    7  C5  UNL     1       5.264  -1.233  -0.821  1.00  0.00     0.038 C 
BRANCH   7   8
HETATM    8  C4  UNL     1       6.393  -1.199   0.120  1.00  0.00    -0.058 A 
HETATM    9  C3  UNL     1       7.684  -1.246  -0.338  1.00  0.00     0.007 A 
HETATM   10  C2  UNL     1       8.774  -1.215   0.527  1.00  0.00     0.001 A 
HETATM   11  C1  UNL     1       8.545  -1.135   1.874  1.00  0.00     0.000 A 
HETATM   12  C23 UNL     1       7.246  -1.087   2.348  1.00  0.00     0.001 A 
HETATM   13  C22 UNL     1       6.169  -1.119   1.470  1.00  0.00     0.007 A 
ENDBRANCH   7   8
ENDBRANCH   6   7
ENDBRANCH   5   6
ENDBRANCH   4   5
ENDBRANCH   3   4
ENDBRANCH   2   3
ENDBRANCH   1   2
BRANCH   1  14
HETATM   14  C12 UNL     1       0.047   1.880   1.132  1.00  0.00     0.000 C 
BRANCH  14  15
HETATM   15  C13 UNL     1      -1.092   1.914   0.136  1.00  0.00     0.000 C 
BRANCH  15  16
HETATM   16  C14 UNL     1      -2.268   1.234   0.801  1.00  0.00     0.000 C 
BRANCH  16  17
HETATM   17  C15 UNL     1      -3.487   1.197  -0.092  1.00  0.00     0.000 C 
BRANCH  17  18
HETATM   18  C16 UNL     1      -4.570   0.494   0.701  1.00  0.00     0.002 C 
BRANCH  18  19
HETATM   19  C17 UNL     1      -5.858   0.384  -0.075  1.00  0.00     0.033 C 
BRANCH  19  20
HETATM   20  C18 UNL     1      -6.892  -0.313   0.745  1.00  0.00     0.186 C 
HETATM   21  C19 UNL     1      -6.531  -1.694   1.157  1.00  0.00     0.034 C 
HETATM   22  C20 UNL     1      -7.706  -2.540   0.665  1.00  0.00     0.029 C 
HETATM   23  C21 UNL     1      -8.153  -1.703  -0.538  1.00  0.00     0.233 C 
HETATM   24  N1  UNL     1      -8.159  -0.377   0.037  1.00  0.00    -0.071 N 
ATOM     25  H12 UNL     1      -8.976  -0.168   0.611  1.00  0.00     0.277 HD
ATOM     26  H11 UNL     1      -8.307   0.376  -0.635  1.00  0.00     0.277 HD
ENDBRANCH  19  20
ENDBRANCH  18  19
ENDBRANCH  17  18
ENDBRANCH  16  17
ENDBRANCH  15  16
ENDBRANCH  14  15
ENDBRANCH   1  14
TORSDOF 14
