REMARK  15 active torsions:
REMARK  status: ('A' for Active; 'I' for Inactive)
REMARK    1  A    between atoms: N1_1  and  C1_5 
REMARK    2  A    between atoms: C1_5  and  C2_6 
REMARK    3  A    between atoms: C2_6  and  C3_7 
REMARK    4  A    between atoms: C3_7  and  C4_8 
REMARK    5  A    between atoms: C4_8  and  C5_9 
REMARK    6  A    between atoms: C5_9  and  C6_10 
REMARK    7  A    between atoms: C6_10  and  C7_11 
REMARK    8  A    between atoms: C7_11  and  C8_12 
REMARK    9  A    between atoms: C8_12  and  C9_13 
REMARK   10  A    between atoms: C9_13  and  C10_14 
REMARK   11  A    between atoms: C10_14  and  C11_15 
REMARK   12  A    between atoms: C11_15  and  C12_16 
REMARK   13  A    between atoms: C12_16  and  C13_17 
REMARK   14  A    between atoms: C13_17  and  C14_18 
REMARK   15  A    between atoms: C14_18  and  N2_19 
ROOT
HETATM    1  C11 UNL     1      -0.700  -3.236  -0.957  1.00  0.00     0.000 C 
ENDROOT
BRANCH   1   2
HETATM    2  C10 UNL     1       0.053  -2.373  -1.893  1.00  0.00     0.000 C 
BRANCH   2   3
HETATM    3  C9  UNL     1       0.951  -1.428  -1.105  1.00  0.00     0.000 C 
BRANCH   3   4
HETATM    4  C8  UNL     1       1.739  -0.528  -1.992  1.00  0.00     0.000 C 
BRANCH   4   5
HETATM    5  C7  UNL     1       2.620   0.411  -1.208  1.00  0.00     0.000 C 
BRANCH   5   6
HETATM    6  C6  UNL     1       3.576  -0.390  -0.384  1.00  0.00     0.000 C 
BRANCH   6   7
HETATM    7  C5  UNL     1       4.507   0.503   0.432  1.00  0.00     0.000 C 
BRANCH   7   8
HETATM    8  C4  UNL     1       5.449  -0.328   1.244  1.00  0.00     0.000 C 
BRANCH   8   9
HETATM    9  C3  UNL     1       6.370   0.525   2.052  1.00  0.00     0.002 C 
BRANCH   9  10
HETATM   10  C2  UNL     1       7.207   1.427   1.174  1.00  0.00     0.027 C 
BRANCH  10  11
HETATM   11  C1  UNL     1       8.046   0.583   0.224  1.00  0.00     0.229 C 
BRANCH  11  12
HETATM   12  N1  UNL     1       8.846   1.464  -0.614  1.00  0.00    -0.079 N 
ATOM     13  H13 UNL     1       8.277   2.153  -1.106  1.00  0.00     0.274 HD
ATOM     14  H12 UNL     1       9.413   2.111  -0.066  1.00  0.00     0.274 HD
ATOM     15  H11 UNL     1       9.408   0.899  -1.250  1.00  0.00     0.274 HD
ENDBRANCH  11  12
ENDBRANCH  10  11
ENDBRANCH   9  10
ENDBRANCH   8   9
ENDBRANCH   7   8
ENDBRANCH   6   7
ENDBRANCH   5   6
ENDBRANCH   4   5
ENDBRANCH   3   4
ENDBRANCH   2   3
ENDBRANCH   1   2
BRANCH   1  16
HETATM   16  C12 UNL     1      -1.590  -2.552   0.011  1.00  0.00     0.002 C 
BRANCH  16  17
HETATM   17  C13 UNL     1      -2.678  -1.720  -0.584  1.00  0.00     0.020 C 
BRANCH  17  18
HETATM   18  C14 UNL     1      -3.515  -1.078   0.503  1.00  0.00     0.119 C 
BRANCH  18  19
HETATM   19  N2  UNL     1      -4.547  -0.287  -0.094  1.00  0.00    -0.392 N 
HETATM   20  C15 UNL     1      -5.323   0.464   0.577  1.00  0.00     0.016 C 
HETATM   21  C16 UNL     1      -5.339   0.684   2.038  1.00  0.00     0.062 C 
HETATM   22  C23 UNL     1      -6.399   1.305   0.070  1.00  0.00    -0.008 A 
HETATM   23  C17 UNL     1      -6.810   0.874   2.299  1.00  0.00     0.045 C 
HETATM   24  C18 UNL     1      -7.295   1.574   1.082  1.00  0.00    -0.046 A 
HETATM   25  C19 UNL     1      -8.429   2.366   0.890  1.00  0.00     0.008 A 
HETATM   26  C20 UNL     1      -8.640   2.885  -0.360  1.00  0.00     0.001 A 
HETATM   27  C21 UNL     1      -7.768   2.640  -1.400  1.00  0.00     0.001 A 
HETATM   28  C22 UNL     1      -6.658   1.856  -1.185  1.00  0.00     0.014 A 
ATOM     29  H2  UNL     1      -4.666  -0.328  -1.106  1.00  0.00     0.159 HD
ENDBRANCH  18  19
ENDBRANCH  17  18
ENDBRANCH  16  17
ENDBRANCH   1  16
TORSDOF 15
