REMARK  14 active torsions:
REMARK  status: ('A' for Active; 'I' for Inactive)
REMARK    1  A    between atoms: N1_1  and  C1_5 
REMARK    2  A    between atoms: C1_5  and  C2_6 
REMARK    3  A    between atoms: C2_6  and  C3_7 
REMARK    4  A    between atoms: C3_7  and  C4_8 
REMARK    5  A    between atoms: C4_8  and  C5_9 
REMARK    6  A    between atoms: C5_9  and  C6_10 
REMARK    7  A    between atoms: C6_10  and  C7_11 
REMARK    8  A    between atoms: C7_11  and  C8_12 
REMARK    9  A    between atoms: C8_12  and  C9_13 
REMARK   10  A    between atoms: C9_13  and  C10_14 
REMARK   11  A    between atoms: C10_14  and  C11_15 
REMARK   12  A    between atoms: C11_15  and  C12_16 
REMARK   13  A    between atoms: C12_16  and  C13_17 
REMARK   14  A    between atoms: C13_17  and  C14_18 
ROOT
HETATM    1  C10 UNL     1       0.844  -1.448   0.387  1.00  0.00     0.000 C 
ENDROOT
BRANCH   1   2
HETATM    2  C9  UNL     1      -0.515  -1.920   0.145  1.00  0.00     0.000 C 
BRANCH   2   3
HETATM    3  C8  UNL     1      -1.726  -1.165   0.462  1.00  0.00     0.000 C 
BRANCH   3   4
HETATM    4  C7  UNL     1      -2.049   0.097  -0.218  1.00  0.00     0.000 C 
BRANCH   4   5
HETATM    5  C6  UNL     1      -3.361   0.663   0.310  1.00  0.00     0.000 C 
BRANCH   5   6
HETATM    6  C5  UNL     1      -4.533  -0.253   0.096  1.00  0.00     0.000 C 
BRANCH   6   7
HETATM    7  C4  UNL     1      -5.803   0.413   0.639  1.00  0.00     0.000 C 
BRANCH   7   8
HETATM    8  C3  UNL     1      -6.954  -0.552   0.398  1.00  0.00     0.002 C 
BRANCH   8   9
HETATM    9  C2  UNL     1      -8.216   0.067   0.918  1.00  0.00     0.027 C 
BRANCH   9  10
HETATM   10  C1  UNL     1      -8.566   1.365   0.262  1.00  0.00     0.229 C 
BRANCH  10  11
HETATM   11  N1  UNL     1      -8.733   1.091  -1.169  1.00  0.00    -0.079 N 
ATOM     12  H13 UNL     1      -7.921   0.637  -1.587  1.00  0.00     0.274 HD
ATOM     13  H12 UNL     1      -9.409   0.351  -1.359  1.00  0.00     0.274 HD
ATOM     14  H11 UNL     1      -8.972   1.976  -1.616  1.00  0.00     0.274 HD
ENDBRANCH  10  11
ENDBRANCH   9  10
ENDBRANCH   8   9
ENDBRANCH   7   8
ENDBRANCH   6   7
ENDBRANCH   5   6
ENDBRANCH   4   5
ENDBRANCH   3   4
ENDBRANCH   2   3
ENDBRANCH   1   2
BRANCH   1  15
HETATM   15  C11 UNL     1       1.232  -0.195  -0.294  1.00  0.00     0.000 C 
BRANCH  15  16
HETATM   16  C12 UNL     1       2.706   0.107  -0.007  1.00  0.00     0.005 C 
BRANCH  16  17
HETATM   17  C13 UNL     1       3.640  -0.950  -0.477  1.00  0.00     0.038 C 
BRANCH  17  18
HETATM   18  C14 UNL     1       5.054  -0.530  -0.150  1.00  0.00    -0.057 A 
HETATM   19  C15 UNL     1       5.650  -0.863   1.043  1.00  0.00     0.008 A 
HETATM   20  C16 UNL     1       6.961  -0.449   1.295  1.00  0.00     0.013 A 
HETATM   21  C17 UNL     1       7.654   0.284   0.363  1.00  0.00    -0.026 A 
HETATM   22  C18 UNL     1       8.947   0.698   0.598  1.00  0.00     0.012 A 
HETATM   23  C22 UNL     1       7.074   0.622  -0.831  1.00  0.00    -0.025 A 
HETATM   24  C19 UNL     1       9.650   1.442  -0.351  1.00  0.00     0.001 A 
HETATM   25  C20 UNL     1       9.032   1.764  -1.542  1.00  0.00     0.001 A 
HETATM   26  C21 UNL     1       7.737   1.358  -1.795  1.00  0.00     0.012 A 
HETATM   27  C23 UNL     1       5.763   0.204  -1.073  1.00  0.00     0.019 A 
ENDBRANCH  17  18
ENDBRANCH  16  17
ENDBRANCH  15  16
ENDBRANCH   1  15
TORSDOF 14
