REMARK  5 active torsions:
REMARK  status: ('A' for Active; 'I' for Inactive)
REMARK    1  A    between atoms: N1_1  and  C1_4 
REMARK    2  A    between atoms: N4_13  and  C5_14 
REMARK    3  A    between atoms: C5_14  and  O2_15 
REMARK    4  A    between atoms: C7_21  and  C8_22 
REMARK    5  A    between atoms: C8_22  and  O3_23 
ROOT
HETATM    1  C1  UNL     1       4.099   1.243  -0.208  1.00  0.00     0.681 C 
HETATM    2  N2  UNL     1       4.479   0.055  -0.708  1.00  0.00    -0.154 N 
ATOM      3  H2  UNL     1       5.460  -0.033  -0.972  1.00  0.00     0.187 HD
HETATM    4  C2  UNL     1       3.699  -1.044  -0.901  1.00  0.00     0.288 C 
HETATM    5  O1  UNL     1       4.275  -2.001  -1.437  1.00  0.00    -0.265 OA
HETATM    6  C3  UNL     1       2.369  -1.189  -0.568  1.00  0.00     0.135 A 
HETATM    7  N3  UNL     1       1.739  -2.369  -0.531  1.00  0.00    -0.346 N 
ATOM      8  H3  UNL     1       2.144  -3.281  -0.739  1.00  0.00     0.167 HD
HETATM    9  C4  UNL     1       0.471  -2.121  -0.167  1.00  0.00     0.189 A 
HETATM   10  N4  UNL     1       0.266  -0.779   0.036  1.00  0.00    -0.278 N 
HETATM   11  C9  UNL     1       1.448  -0.192  -0.214  1.00  0.00     0.141 A 
HETATM   12  C10 UNL     1       1.727   1.156  -0.142  1.00  0.00     0.289 C 
HETATM   13  O4  UNL     1       0.721   1.887  -0.237  1.00  0.00    -0.265 OA
HETATM   14  N7  UNL     1       2.908   1.795   0.014  1.00  0.00    -0.154 N 
ATOM     15  H7  UNL     1       2.885   2.767   0.323  1.00  0.00     0.187 HD
ENDROOT
BRANCH  10  16
HETATM   16  C5  UNL     1      -0.940  -0.119   0.431  1.00  0.00     0.338 C 
HETATM   17  C6  UNL     1      -1.800  -1.295   1.012  1.00  0.00     0.328 C 
HETATM   18  N5  UNL     1      -2.990  -0.530   1.377  1.00  0.00    -0.037 N 
HETATM   19  C7  UNL     1      -3.126   0.362   0.246  1.00  0.00     0.411 C 
ATOM     20  H52 UNL     1      -3.816  -1.089   1.590  1.00  0.00     0.280 HD
ATOM     21  H51 UNL     1      -2.949  -0.072   2.288  1.00  0.00     0.280 HD
HETATM   22  N6  UNL     1      -1.877   0.251  -0.528  1.00  0.00     0.010 N 
ATOM     23  H62 UNL     1      -1.632   1.086  -1.060  1.00  0.00     0.285 HD
ATOM     24  H61 UNL     1      -1.930  -0.374  -1.332  1.00  0.00     0.285 HD
BRANCH  16  25
HETATM   25  O2  UNL     1      -0.884   0.616   1.616  1.00  0.00    -0.347 OA
ATOM     26  H2  UNL     1      -1.685   1.054   1.878  1.00  0.00     0.214 HD
ENDBRANCH  16  25
BRANCH  19  27
HETATM   27  C8  UNL     1      -4.283   0.008  -0.637  1.00  0.00     0.226 C 
BRANCH  27  28
HETATM   28  O3  UNL     1      -4.325   0.919  -1.685  1.00  0.00    -0.397 OA
ATOM     29  H3  UNL     1      -5.059   0.694  -2.245  1.00  0.00     0.209 HD
ENDBRANCH  27  28
ENDBRANCH  19  27
ENDBRANCH  10  16
BRANCH   1  30
HETATM   30  N1  UNL     1       5.108   1.993   0.121  1.00  0.00    -0.234 N 
ATOM     31  H12 UNL     1       6.020   1.570  -0.049  1.00  0.00     0.174 HD
ATOM     32  H11 UNL     1       4.820   2.895   0.501  1.00  0.00     0.174 HD
ENDBRANCH   1  30
TORSDOF 5
