REMARK  4 active torsions:
REMARK  status: ('A' for Active; 'I' for Inactive)
REMARK    1  A    between atoms: C3_7  and  N3_8 
REMARK    2  A    between atoms: C4_14  and  C5_15 
REMARK    3  A    between atoms: N7_17  and  N8_19 
REMARK    4  A    between atoms: N8_19  and  C6_21 
ROOT
HETATM    1  C1  UNL     1      -2.027   1.848   1.599  1.00  0.00     0.180 C 
HETATM    2  N1  UNL     1      -2.662   0.736   0.912  1.00  0.00    -0.134 N 
HETATM    3  C2  UNL     1      -3.990   0.539   1.022  1.00  0.00     0.354 A 
HETATM    4  O1  UNL     1      -4.666   1.332   1.726  1.00  0.00    -0.245 OA
HETATM    5  N2  UNL     1      -4.577  -0.492   0.385  1.00  0.00    -0.139 N 
ATOM      6  H2  UNL     1      -5.584  -0.617   0.486  1.00  0.00     0.189 HD
HETATM    7  C3  UNL     1      -3.896  -1.364  -0.378  1.00  0.00     0.716 A 
HETATM    8  N4  UNL     1      -2.562  -1.170  -0.491  1.00  0.00     0.092 N 
HETATM    9  N5  UNL     1      -1.657  -1.844  -1.153  1.00  0.00    -0.246 N 
ATOM     10  H5  UNL     1      -1.833  -2.672  -1.721  1.00  0.00     0.190 HD
HETATM   11  C4  UNL     1      -0.439  -1.259  -0.960  1.00  0.00     0.179 A 
HETATM   12  N11 UNL     1      -0.669  -0.208  -0.153  1.00  0.00    -0.169 N 
ATOM     13  H11 UNL     1       0.045   0.440   0.181  1.00  0.00     0.186 HD
HETATM   14  C10 UNL     1      -1.978  -0.136   0.149  1.00  0.00     0.726 A 
ENDROOT
BRANCH  11  15
HETATM   15  C5  UNL     1       0.838  -1.686  -1.513  1.00  0.00     0.177 C 
HETATM   16  N6  UNL     1       0.916  -2.827  -2.357  1.00  0.00    -0.077 NA
HETATM   17  N7  UNL     1       1.887  -1.024  -1.232  1.00  0.00    -0.283 N 
ATOM     18  H7  UNL     1       2.778  -1.329  -1.623  1.00  0.00     0.188 HD
BRANCH  17  19
HETATM   19  N8  UNL     1       1.866   0.099  -0.413  1.00  0.00    -0.283 N 
ATOM     20  H8  UNL     1       0.974   0.502  -0.126  1.00  0.00     0.188 HD
BRANCH  19  21
HETATM   21  C6  UNL     1       2.958   0.626  -0.020  1.00  0.00     0.135 A 
HETATM   22  C7  UNL     1       4.149   0.080  -0.410  1.00  0.00     0.137 A 
HETATM   23  N9  UNL     1       5.324   0.620  -0.007  1.00  0.00    -0.371 N 
HETATM   24  C8  UNL     1       5.292   1.712   0.790  1.00  0.00     0.104 A 
ATOM     25  H9  UNL     1       6.213   0.212  -0.298  1.00  0.00     0.164 HD
HETATM   26  C9  UNL     1       4.097   2.264   1.184  1.00  0.00     0.106 A 
HETATM   27  N10 UNL     1       2.946   1.705   0.767  1.00  0.00    -0.349 N 
ATOM     28  H10 UNL     1       2.055   2.110   1.055  1.00  0.00     0.167 HD
ENDBRANCH  19  21
ENDBRANCH  17  19
ENDBRANCH  11  15
BRANCH   7  29
HETATM   29  N3  UNL     1      -4.513  -2.336  -0.967  1.00  0.00    -0.232 N 
ATOM     30  H32 UNL     1      -5.519  -2.482  -0.882  1.00  0.00     0.174 HD
ATOM     31  H31 UNL     1      -3.996  -2.998  -1.546  1.00  0.00     0.174 HD
ENDBRANCH   7  29
TORSDOF 4
