REMARK  9 active torsions:
REMARK  status: ('A' for Active; 'I' for Inactive)
REMARK    1  A    between atoms: C2_2  and  O1_3 
REMARK    2  A    between atoms: C2_2  and  C4_7 
REMARK    3  A    between atoms: O1_3  and  C3_4 
REMARK    4  A    between atoms: C4_7  and  C5_8 
REMARK    5  A    between atoms: C4_7  and  N3_11 
REMARK    6  A    between atoms: N4_14  and  C8_15 
REMARK    7  A    between atoms: C9_18  and  N6_19 
REMARK    8  A    between atoms: C16_38  and  C17_39 
REMARK    9  A    between atoms: C17_39  and  N11_40 
REMARK       I    between atoms: N11_40  and  C18_42 
ROOT
HETATM    1  N3  UNL     1      -1.108   0.403  -0.447  1.00  0.00    -0.385 N 
HETATM    2  C6  UNL     1      -0.648  -0.839  -0.993  1.00  0.00     0.139 C 
HETATM    3  C7  UNL     1       0.757  -0.872  -1.531  1.00  0.00     0.151 C 
HETATM    4  N4  UNL     1       1.684   0.005  -0.879  1.00  0.00    -0.323 N 
HETATM    5  C15 UNL     1       1.162   1.253  -0.460  1.00  0.00     0.105 C 
HETATM    6  S1  UNL     1       2.116   2.367   0.229  1.00  0.00    -0.063 SA
HETATM    7  C16 UNL     1      -0.313   1.523  -0.685  1.00  0.00     0.159 C 
ENDROOT
BRANCH   4   8
HETATM    8  C8  UNL     1       3.025  -0.394  -0.713  1.00  0.00     0.140 A 
HETATM    9  N5  UNL     1       3.979  -0.028  -1.636  1.00  0.00    -0.176 N 
HETATM   10  C9  UNL     1       5.260  -0.394  -1.496  1.00  0.00     0.679 A 
ATOM     11  H5  UNL     1       3.705   0.533  -2.442  1.00  0.00     0.186 HD
HETATM   12  N7  UNL     1       5.660  -1.132  -0.449  1.00  0.00    -0.176 N 
HETATM   13  C10 UNL     1       4.759  -1.508   0.473  1.00  0.00     0.131 A 
ATOM     14  H7  UNL     1       6.638  -1.405  -0.354  1.00  0.00     0.186 HD
HETATM   15  N8  UNL     1       5.132  -2.218   1.486  1.00  0.00    -0.384 N 
HETATM   16  C11 UNL     1       3.411  -1.141   0.353  1.00  0.00     0.081 A 
ATOM     17  H82 UNL     1       6.113  -2.485   1.573  1.00  0.00     0.157 HD
ATOM     18  H81 UNL     1       4.448  -2.504   2.186  1.00  0.00     0.157 HD
HETATM   19  C12 UNL     1       2.490  -1.576   1.357  1.00  0.00     0.066 A 
HETATM   20  C13 UNL     1       2.168  -0.843   2.487  1.00  0.00     0.119 A 
HETATM   21  N10 UNL     1       1.766  -2.702   1.472  1.00  0.00    -0.350 N 
HETATM   22  N9  UNL     1       1.297  -1.488   3.247  1.00  0.00    -0.360 N 
HETATM   23  C14 UNL     1       1.049  -2.653   2.604  1.00  0.00     0.180 A 
ATOM     24  H9  UNL     1       0.897  -1.173   4.131  1.00  0.00     0.166 HD
ATOM     25  H10 UNL     1       1.762  -3.473   0.804  1.00  0.00     0.166 HD
BRANCH  10  26
HETATM   26  N6  UNL     1       6.133  -0.040  -2.369  1.00  0.00    -0.234 N 
ATOM     27  H62 UNL     1       5.829   0.521  -3.165  1.00  0.00     0.174 HD
ATOM     28  H61 UNL     1       7.108  -0.319  -2.262  1.00  0.00     0.174 HD
ENDBRANCH  10  26
ENDBRANCH   4   8
BRANCH   7  29
HETATM   29  C17 UNL     1      -0.373   2.052  -2.111  1.00  0.00     0.154 C 
BRANCH  29  30
HETATM   30  N11 UNL     1      -1.654   2.456  -2.560  1.00  0.00    -0.362 N 
HETATM   31  C18 UNL     1      -2.321   3.596  -2.058  1.00  0.00     0.181 C 
HETATM   32  N12 UNL     1      -3.623   3.658  -2.113  1.00  0.00    -0.374 N 
HETATM   33  N13 UNL     1      -1.620   4.693  -1.484  1.00  0.00    -0.064 NA
ATOM     34 2H12 UNL     1      -4.126   2.872  -2.525  1.00  0.00     0.158 HD
ATOM     35 1H12 UNL     1      -4.104   4.481  -1.751  1.00  0.00     0.158 HD
ATOM     36  H11 UNL     1      -2.116   1.899  -3.278  1.00  0.00     0.162 HD
ENDBRANCH  29  30
ENDBRANCH   7  29
BRANCH   1  37
HETATM   37  C4  UNL     1      -1.680   0.207   0.838  1.00  0.00     0.199 C 
BRANCH  37  38
HETATM   38  C2  UNL     1      -2.952  -0.619   0.862  1.00  0.00     0.160 C 
HETATM   39  C1  UNL     1      -3.650  -0.474   2.217  1.00  0.00     0.043 C 
BRANCH  38  40
HETATM   40  O1  UNL     1      -2.920  -1.917   0.423  1.00  0.00    -0.299 OA
BRANCH  40  41
HETATM   41  C3  UNL     1      -3.730  -2.407  -0.604  1.00  0.00     0.373 C 
HETATM   42  N1  UNL     1      -3.697  -3.744  -1.054  1.00  0.00    -0.032 NA
HETATM   43  O2  UNL     1      -4.505  -1.590  -1.119  1.00  0.00    -0.242 OA
ENDBRANCH  40  41
ENDBRANCH  38  40
ENDBRANCH  37  38
BRANCH  37  44
HETATM   44  C5  UNL     1      -1.854   1.395   1.703  1.00  0.00     0.256 C 
HETATM   45  N2  UNL     1      -1.585   1.294   3.125  1.00  0.00    -0.060 NA
HETATM   46  O3  UNL     1      -2.220   2.538   1.361  1.00  0.00    -0.274 OA
ENDBRANCH  37  44
ENDBRANCH   1  37
TORSDOF 9
