REMARK  1 active torsions:
REMARK  status: ('A' for Active; 'I' for Inactive)
REMARK    1  A    between atoms: O1_1  and  C1_3 
ROOT
HETATM    1  C1  UNL     1       1.489  -0.850  -0.301  1.00  0.00     0.157 C 
HETATM    2  C2  UNL     1       2.958  -0.779  -0.418  1.00  0.00     0.038 A 
HETATM    3  C3  UNL     1       3.404  -2.149  -0.784  1.00  0.00     0.017 A 
HETATM    4  C4  UNL     1       4.645  -2.601  -0.977  1.00  0.00     0.001 A 
HETATM    5  C5  UNL     1       5.658  -1.708  -0.824  1.00  0.00     0.002 A 
HETATM    6  C6  UNL     1       5.324  -0.437  -0.492  1.00  0.00     0.026 A 
HETATM    7  C7  UNL     1       4.007   0.032  -0.290  1.00  0.00     0.094 A 
HETATM    8  S1  UNL     1       4.263   1.801   0.113  1.00  0.00     0.269 S 
HETATM    9  O2  UNL     1       5.150   2.028   1.221  1.00  0.00    -0.200 OA
HETATM   10  O3  UNL     1       4.973   2.446  -1.055  1.00  0.00    -0.200 OA
HETATM   11  N1  UNL     1       2.622   2.480   0.311  1.00  0.00    -0.257 N 
HETATM   12  C8  UNL     1       2.070   3.174  -0.714  1.00  0.00     0.110 A 
HETATM   13  C9  UNL     1       0.706   2.857  -0.671  1.00  0.00     0.036 A 
HETATM   14  C10 UNL     1       0.655   1.986   0.417  1.00  0.00     0.040 A 
HETATM   15  C11 UNL     1       1.798   1.767   1.064  1.00  0.00     0.125 A 
HETATM   16  C12 UNL     1      -0.434   0.773   0.396  1.00  0.00     0.195 C 
HETATM   17  N2  UNL     1      -1.578   1.166   0.201  1.00  0.00    -0.385 NA
HETATM   18  C13 UNL     1      -2.903   1.355   0.002  1.00  0.00     0.122 A 
HETATM   19  C14 UNL     1      -3.471   2.591  -0.315  1.00  0.00     0.045 A 
HETATM   20  C15 UNL     1      -4.784   2.813  -0.572  1.00  0.00     0.003 A 
HETATM   21  C16 UNL     1      -5.687   1.773  -0.534  1.00  0.00     0.001 A 
HETATM   22  C17 UNL     1      -5.207   0.524  -0.228  1.00  0.00     0.017 A 
HETATM   23  C18 UNL     1      -3.902   0.347   0.020  1.00  0.00     0.031 A 
HETATM   24  C19 UNL     1      -3.454  -1.012   0.354  1.00  0.00     0.046 A 
HETATM   25  C20 UNL     1      -4.115  -2.183   0.303  1.00  0.00     0.030 A 
HETATM   26  C21 UNL     1      -3.454  -3.365   0.661  1.00  0.00     0.004 A 
HETATM   27  C22 UNL     1      -2.108  -3.216   1.056  1.00  0.00     0.027 A 
HETATM   28  C23 UNL     1      -1.510  -1.994   1.082  1.00  0.00     0.028 A 
HETATM   29  N3  UNL     1      -2.222  -0.994   0.733  1.00  0.00    -0.357 N 
ATOM     30  H3  UNL     1      -1.767  -0.081   0.757  1.00  0.00     0.166 HD
HETATM   31  C24 UNL     1      -0.158  -1.538   1.445  1.00  0.00     0.191 C 
HETATM   32  N4  UNL     1       0.317  -0.512   0.470  1.00  0.00    -0.295 N 
ENDROOT
BRANCH   1  33
HETATM   33  O1  UNL     1       1.012  -1.540  -1.387  1.00  0.00    -0.345 OA
ATOM     34  H1  UNL     1       0.066  -1.586  -1.312  1.00  0.00     0.219 HD
ENDBRANCH   1  33
TORSDOF 1
