REMARK  8 active torsions:
REMARK  status: ('A' for Active; 'I' for Inactive)
REMARK    1  A    between atoms: C2_2  and  C3_3 
REMARK    2  A    between atoms: C3_3  and  C4_4 
REMARK    3  A    between atoms: C4_4  and  C5_5 
REMARK    4  A    between atoms: C5_5  and  C11_15 
REMARK    5  A    between atoms: C6_6  and  O1_7 
REMARK    6  A    between atoms: C6_6  and  C7_9 
REMARK    7  A    between atoms: C7_9  and  O2_11 
REMARK    8  A    between atoms: C7_9  and  C9_13 
ROOT
HETATM    1  C5  UNL     1      -0.639  -0.057   0.270  1.00  0.00    -0.039 C 
HETATM    2  C6  UNL     1      -1.570  -0.533  -0.723  1.00  0.00     0.080 C 
ENDROOT
BRANCH   1   3
HETATM    3  C4  UNL     1      -1.113   1.295   0.819  1.00  0.00     0.037 C 
BRANCH   3   4
HETATM    4  C3  UNL     1      -1.316   2.393  -0.133  1.00  0.00     0.004 C 
BRANCH   4   5
HETATM    5  C2  UNL     1      -1.738   3.688   0.618  1.00  0.00    -0.004 C 
HETATM    6  C1  UNL     1      -1.936   4.792  -0.398  1.00  0.00     0.005 C 
ENDBRANCH   4   5
ENDBRANCH   3   4
ENDBRANCH   1   3
BRANCH   1   7
HETATM    7  C11 UNL     1       0.825  -0.126   0.218  1.00  0.00    -0.013 C 
HETATM    8  C12 UNL     1       1.497   0.966  -0.614  1.00  0.00     0.019 C 
HETATM    9  C13 UNL     1       2.986   0.800  -0.690  1.00  0.00    -0.013 C 
HETATM   10  C14 UNL     1       3.513   1.058   0.725  1.00  0.00     0.009 C 
HETATM   11  C18 UNL     1       3.469  -0.547  -1.093  1.00  0.00     0.009 C 
HETATM   12  C15 UNL     1       2.887   0.101   1.674  1.00  0.00    -0.013 C 
HETATM   13  C16 UNL     1       3.383  -1.308   1.312  1.00  0.00     0.009 C 
HETATM   14  C20 UNL     1       1.390   0.011   1.618  1.00  0.00     0.019 C 
HETATM   15  C17 UNL     1       2.902  -1.520  -0.077  1.00  0.00    -0.013 C 
HETATM   16  C19 UNL     1       1.398  -1.439  -0.240  1.00  0.00     0.019 C 
ENDBRANCH   1   7
BRANCH   2  17
HETATM   17  O1  UNL     1      -1.724   0.232  -1.906  1.00  0.00    -0.362 OA
ATOM     18  H1  UNL     1      -2.337  -0.082  -2.560  1.00  0.00     0.217 HD
ENDBRANCH   2  17
BRANCH   2  19
HETATM   19  C7  UNL     1      -2.011  -1.908  -0.966  1.00  0.00     0.102 C 
HETATM   20  C8  UNL     1      -1.448  -2.537  -2.222  1.00  0.00     0.053 C 
BRANCH  19  21
HETATM   21  O2  UNL     1      -3.431  -1.897  -1.338  1.00  0.00    -0.383 OA
ATOM     22  H2  UNL     1      -3.717  -2.789  -1.496  1.00  0.00     0.211 HD
ENDBRANCH  19  21
BRANCH  19  23
HETATM   23  C9  UNL     1      -2.031  -2.903   0.132  1.00  0.00     0.040 C 
HETATM   24  C10 UNL     1      -2.927  -2.514   1.286  1.00  0.00     0.008 C 
ENDBRANCH  19  23
ENDBRANCH   2  19
TORSDOF 8
