REMARK  2 active torsions:
REMARK  status: ('A' for Active; 'I' for Inactive)
REMARK    1  A    between atoms: C2_2  and  C3_4 
REMARK    2  A    between atoms: C3_4  and  C4_5 
ROOT
HETATM    1  C4  UNL     1      -0.817   2.071  -0.271  1.00  0.00    -0.008 C 
HETATM    2  C5  UNL     1       0.366   1.262   0.157  1.00  0.00     0.005 C 
HETATM    3  C6  UNL     1       1.624   2.014   0.399  1.00  0.00     0.000 C 
HETATM    4  C7  UNL     1       2.575   2.124  -0.730  1.00  0.00     0.000 C 
HETATM    5  C8  UNL     1       3.440   0.965  -1.027  1.00  0.00     0.000 C 
HETATM    6  C9  UNL     1       4.019   0.239   0.164  1.00  0.00     0.002 C 
HETATM    7  C10 UNL     1       3.135  -0.893   0.571  1.00  0.00     0.020 C 
HETATM    8  C11 UNL     1       3.846  -2.207   0.810  1.00  0.00     0.138 C 
HETATM    9  N1  UNL     1       2.949  -3.335   0.638  1.00  0.00    -0.225 N 
ATOM     10  H1  UNL     1       3.263  -4.217   1.043  1.00  0.00     0.177 HD
HETATM   11  C12 UNL     1       1.688  -3.370  -0.022  1.00  0.00     0.694 A 
HETATM   12  N2  UNL     1       1.508  -4.363  -0.983  1.00  0.00    -0.131 N 
ATOM     13  H2  UNL     1       2.191  -5.076  -1.239  1.00  0.00     0.205 HD
HETATM   14  N3  UNL     1       0.337  -4.228  -1.492  1.00  0.00    -0.274 N 
ATOM     15  H3  UNL     1      -0.076  -4.810  -2.220  1.00  0.00     0.189 HD
HETATM   16  C13 UNL     1      -0.265  -3.137  -0.864  1.00  0.00     0.112 A 
HETATM   17  N4  UNL     1       0.572  -2.628   0.031  1.00  0.00    -0.178 N 
ATOM     18  H4  UNL     1       0.400  -1.828   0.640  1.00  0.00     0.185 HD
HETATM   19  C14 UNL     1      -1.637  -2.724  -1.319  1.00  0.00     0.082 C 
HETATM   20  C15 UNL     1      -2.623  -2.410  -0.241  1.00  0.00    -0.012 C 
HETATM   21  C16 UNL     1      -3.801  -3.346  -0.344  1.00  0.00     0.010 C 
HETATM   22  C17 UNL     1      -3.153  -1.000  -0.547  1.00  0.00     0.005 C 
HETATM   23  C18 UNL     1      -2.319   0.076   0.097  1.00  0.00     0.001 C 
HETATM   24  C19 UNL     1      -1.845   1.117  -0.870  1.00  0.00     0.005 C 
ENDROOT
BRANCH   1  25
HETATM   25  C3  UNL     1      -1.380   2.907   0.837  1.00  0.00     0.082 C 
BRANCH  25  26
HETATM   26  C2  UNL     1      -2.544   3.734   0.434  1.00  0.00     0.123 C 
HETATM   27  C1  UNL     1      -2.320   5.191   0.194  1.00  0.00     0.091 C 
HETATM   28  O1  UNL     1      -3.664   3.313   0.285  1.00  0.00    -0.298 OA
ENDBRANCH  25  26
ENDBRANCH   1  25
TORSDOF 2
