REMARK  2 active torsions:
REMARK  status: ('A' for Active; 'I' for Inactive)
REMARK       I    between atoms: C1_2  and  N2_4 
REMARK       I    between atoms: N2_4  and  C2_6 
REMARK    1  A    between atoms: C2_6  and  C3_8 
REMARK    2  A    between atoms: C3_8  and  N3_9 
ROOT
HETATM    1  C3  UNL     1      -0.805  -0.047   0.252  1.00  0.00     0.367 C 
HETATM    2  N4  UNL     1      -1.595   0.604   1.243  1.00  0.00    -0.252 N 
ATOM      3  H4  UNL     1      -1.353   0.823   2.209  1.00  0.00     0.177 HD
HETATM    4  S1  UNL     1      -3.081   0.932   0.388  1.00  0.00     0.324 S 
HETATM    5  O3  UNL     1      -3.621   2.273   0.781  1.00  0.00    -0.182 OA
HETATM    6  O4  UNL     1      -4.083  -0.136   0.575  1.00  0.00    -0.182 OA
HETATM    7  N5  UNL     1      -2.435   0.944  -1.220  1.00  0.00    -0.233 N 
ATOM      8  H5  UNL     1      -2.915   1.202  -2.082  1.00  0.00     0.183 HD
HETATM    9  C4  UNL     1      -1.097   0.518  -1.073  1.00  0.00     0.300 C 
HETATM   10  O5  UNL     1      -0.248   0.616  -1.985  1.00  0.00    -0.267 OA
ENDROOT
BRANCH   1  11
HETATM   11  C2  UNL     1       0.629   0.091   0.595  1.00  0.00     0.293 C 
HETATM   12  N2  UNL     1       1.677  -0.441  -0.181  1.00  0.00    -0.277 N 
HETATM   13  C1  UNL     1       3.012  -0.264   0.216  1.00  0.00     0.335 C 
ATOM     14  H2  UNL     1       1.465  -0.957  -1.035  1.00  0.00     0.173 HD
HETATM   15  N1  UNL     1       4.128  -0.769  -0.511  1.00  0.00    -0.040 NA
HETATM   16  O1  UNL     1       3.309   0.378   1.282  1.00  0.00    -0.251 OA
HETATM   17  O2  UNL     1       0.922   0.722   1.643  1.00  0.00    -0.268 OA
ENDBRANCH   1  11
BRANCH   1  18
HETATM   18  N3  UNL     1      -1.168  -1.471   0.177  1.00  0.00    -0.034 N 
ATOM     19  H33 UNL     1      -0.569  -1.985  -0.469  1.00  0.00     0.278 HD
ATOM     20  H32 UNL     1      -0.929  -1.972   1.033  1.00  0.00     0.278 HD
ATOM     21  H31 UNL     1      -2.156  -1.566  -0.059  1.00  0.00     0.278 HD
ENDBRANCH   1  18
TORSDOF 2
