REMARK  4 active torsions:
REMARK  status: ('A' for Active; 'I' for Inactive)
REMARK    1  A    between atoms: N1_1  and  C1_4 
REMARK    2  A    between atoms: C3_11  and  C4_12 
REMARK       I    between atoms: C4_12  and  N4_14 
REMARK    3  A    between atoms: N5_19  and  N6_20 
REMARK    4  A    between atoms: N7_23  and  O3_24 
ROOT
HETATM    1  C1  UNL     1      -3.622   0.213  -0.088  1.00  0.00     0.694 A 
HETATM    2  N2  UNL     1      -2.646   0.262  -1.011  1.00  0.00    -0.173 N 
ATOM      3  H2  UNL     1      -2.868   0.208  -2.005  1.00  0.00     0.186 HD
HETATM    4  C2  UNL     1      -1.375   0.383  -0.600  1.00  0.00     0.151 A 
HETATM    5  N3  UNL     1      -0.385   0.435  -1.446  1.00  0.00    -0.383 N 
ATOM      6  H31 UNL     1       0.582   0.527  -1.133  1.00  0.00     0.157 HD
ATOM      7  H32 UNL     1      -0.636   0.379  -2.433  1.00  0.00     0.157 HD
HETATM    8  C3  UNL     1      -1.033   0.459   0.747  1.00  0.00     0.193 A 
HETATM    9  N7  UNL     1      -2.075   0.402   1.614  1.00  0.00    -0.140 N 
HETATM   10  N8  UNL     1      -3.328   0.284   1.222  1.00  0.00    -0.105 N 
ATOM     11  H8  UNL     1      -4.076   0.246   1.914  1.00  0.00     0.208 HD
ENDROOT
BRANCH   8  12
HETATM   12  C4  UNL     1       0.340   0.589   1.190  1.00  0.00     0.283 C 
HETATM   13  O1  UNL     1       0.576   0.652   2.412  1.00  0.00    -0.265 OA
HETATM   14  N4  UNL     1       1.386   0.644   0.271  1.00  0.00    -0.286 N 
HETATM   15  C5  UNL     1       2.325  -0.246   0.175  1.00  0.00     0.246 C 
ATOM     16  H4  UNL     1       1.415   1.437  -0.369  1.00  0.00     0.172 HD
HETATM   17  O2  UNL     1       2.709  -1.436   0.777  1.00  0.00    -0.299 OA
HETATM   18  N5  UNL     1       3.457  -0.369  -0.677  1.00  0.00    -0.238 N 
HETATM   19  C6  UNL     1       3.362  -1.794  -0.450  1.00  0.00     0.331 C 
BRANCH  18  20
HETATM   20  N6  UNL     1       4.239   0.539  -1.372  1.00  0.00    -0.338 N 
ATOM     21  H62 UNL     1       4.306   1.544  -1.532  1.00  0.00     0.177 HD
ATOM     22  H61 UNL     1       5.051   0.451  -1.983  1.00  0.00     0.177 HD
ENDBRANCH  18  20
ENDBRANCH   8  12
BRANCH   9  23
HETATM   23  O3  UNL     1      -1.832   0.471   2.972  1.00  0.00    -0.267 OA
ATOM     24  H3  UNL     1      -2.562   0.431   3.579  1.00  0.00     0.247 HD
ENDBRANCH   9  23
BRANCH   1  25
HETATM   25  N1  UNL     1      -4.830   0.097  -0.532  1.00  0.00    -0.233 N 
ATOM     26  H12 UNL     1      -5.053   0.043  -1.526  1.00  0.00     0.174 HD
ATOM     27  H11 UNL     1      -5.571   0.060   0.168  1.00  0.00     0.174 HD
ENDBRANCH   1  25
TORSDOF 4
