REMARK  4 active torsions:
REMARK  status: ('A' for Active; 'I' for Inactive)
REMARK    1  A    between atoms: C5_5  and  C6_6 
REMARK    2  A    between atoms: C6_6  and  N1_7 
REMARK    3  A    between atoms: C6_6  and  C8_12 
REMARK    4  A    between atoms: C8_12  and  N4_13 
ROOT
HETATM    1  C1  UNL     1       4.452  -1.147  -0.566  1.00  0.00     0.012 C 
HETATM    2  C2  UNL     1       3.286  -1.037  -0.262  1.00  0.00    -0.112 C 
HETATM    3  C3  UNL     1       1.862  -0.927   0.107  1.00  0.00     0.071 A 
HETATM    4  C4  UNL     1       0.892  -1.883  -0.550  1.00  0.00     0.025 A 
HETATM    5  C5  UNL     1       0.875  -0.472  -0.935  1.00  0.00     0.028 A 
ENDROOT
BRANCH   5   6
HETATM    6  C6  UNL     1      -0.252   0.435  -0.505  1.00  0.00     0.133 C 
BRANCH   6   7
HETATM    7  N1  UNL     1      -1.049  -0.185   0.512  1.00  0.00    -0.359 N 
HETATM    8  C7  UNL     1      -2.313  -0.422   0.388  1.00  0.00     0.197 C 
HETATM    9  N2  UNL     1      -3.035  -1.042   1.445  1.00  0.00    -0.067 NA
HETATM   10  N3  UNL     1      -3.004  -0.069  -0.803  1.00  0.00    -0.067 NA
ATOM     11  H1  UNL     1      -0.592  -0.455   1.383  1.00  0.00     0.162 HD
ENDBRANCH   6   7
BRANCH   6  12
HETATM   12  C8  UNL     1       0.291   1.764  -0.061  1.00  0.00     0.311 C 
HETATM   13  C9  UNL     1      -0.848   2.623   0.358  1.00  0.00     0.094 C 
HETATM   14  N5  UNL     1      -1.743   3.273   0.680  1.00  0.00    -0.195 NA
BRANCH  12  15
HETATM   15  N4  UNL     1       1.190   1.672   1.043  1.00  0.00    -0.061 N 
ATOM     16  H43 UNL     1       0.754   1.181   1.824  1.00  0.00     0.276 HD
ATOM     17  H42 UNL     1       1.949   1.023   0.837  1.00  0.00     0.276 HD
ATOM     18  H41 UNL     1       1.559   2.574   1.344  1.00  0.00     0.276 HD
ENDBRANCH  12  15
ENDBRANCH   6  12
ENDBRANCH   5   6
TORSDOF 4
