REMARK  8 active torsions:
REMARK  status: ('A' for Active; 'I' for Inactive)
REMARK    1  A    between atoms: C2_3  and  C3_4 
REMARK    2  A    between atoms: C2_3  and  N12_35 
REMARK    3  A    between atoms: C3_4  and  C4_5 
REMARK    4  A    between atoms: C4_5  and  N2_6 
REMARK    5  A    between atoms: N2_6  and  C5_8 
REMARK    6  A    between atoms: C8_17  and  N6_18 
REMARK    7  A    between atoms: C9_23  and  N8_24 
REMARK    8  A    between atoms: C13_39  and  C14_40 
ROOT
HETATM    1  N1  UNL     1       5.132   4.109  -1.850  1.00  0.00    -0.195 NA
HETATM    2  C1  UNL     1       4.344   3.283  -1.627  1.00  0.00     0.086 C 
HETATM    3  C2  UNL     1       3.353   2.248  -1.335  1.00  0.00     0.215 C 
ENDROOT
BRANCH   3   4
HETATM    4  C3  UNL     1       2.656   1.831  -2.611  1.00  0.00     0.061 C 
BRANCH   4   5
HETATM    5  C4  UNL     1       1.626   0.771  -2.385  1.00  0.00     0.124 C 
BRANCH   5   6
HETATM    6  N2  UNL     1       0.584   1.187  -1.480  1.00  0.00    -0.374 N 
ATOM      7  H2  UNL     1       0.628   2.126  -1.085  1.00  0.00     0.161 HD
BRANCH   6   8
HETATM    8  C5  UNL     1      -0.497   0.351  -1.116  1.00  0.00     0.131 A 
HETATM    9  N3  UNL     1      -0.632  -0.909  -1.595  1.00  0.00    -0.306 N 
HETATM   10  C6  UNL     1      -1.655  -1.714  -1.257  1.00  0.00     0.277 A 
ATOM     11  H3  UNL     1       0.074  -1.263  -2.241  1.00  0.00     0.170 HD
HETATM   12  O1  UNL     1      -1.747  -2.890  -1.728  1.00  0.00    -0.266 OA
HETATM   13  C7  UNL     1      -2.647  -1.295  -0.386  1.00  0.00     0.147 A 
HETATM   14  N4  UNL     1      -3.682  -2.076  -0.029  1.00  0.00    -0.257 N 
HETATM   15  C11 UNL     1      -2.519  -0.010   0.109  1.00  0.00     0.111 A 
HETATM   16  N5  UNL     1      -4.576  -1.563   0.818  1.00  0.00     0.091 N 
ATOM     17  H4  UNL     1      -3.780  -3.024  -0.392  1.00  0.00     0.189 HD
HETATM   18  C8  UNL     1      -5.647  -2.306   1.217  1.00  0.00     0.726 A 
HETATM   19  C10 UNL     1      -4.486  -0.325   1.318  1.00  0.00     0.733 A 
HETATM   20  N7  UNL     1      -6.568  -1.822   2.069  1.00  0.00    -0.020 N 
HETATM   21  C9  UNL     1      -6.417  -0.571   2.533  1.00  0.00     0.705 A 
ATOM     22  H7  UNL     1      -7.363  -2.392   2.356  1.00  0.00     0.203 HD
HETATM   23  N9  UNL     1      -5.390   0.195   2.175  1.00  0.00    -0.020 N 
ATOM     24  H9  UNL     1      -5.289   1.144   2.536  1.00  0.00     0.203 HD
HETATM   25  N10 UNL     1      -3.438   0.469   0.958  1.00  0.00    -0.184 N 
ATOM     26  H10 UNL     1      -3.355   1.415   1.330  1.00  0.00     0.184 HD
HETATM   27  C12 UNL     1      -1.462   0.799  -0.250  1.00  0.00     0.119 A 
HETATM   28  N11 UNL     1      -1.333   2.126   0.264  1.00  0.00    -0.096 NA
BRANCH  18  29
HETATM   29  N6  UNL     1      -5.783  -3.506   0.766  1.00  0.00    -0.232 N 
ATOM     30  H62 UNL     1      -5.084  -3.873   0.120  1.00  0.00     0.174 HD
ATOM     31  H61 UNL     1      -6.584  -4.062   1.065  1.00  0.00     0.174 HD
ENDBRANCH  18  29
BRANCH  21  32
HETATM   32  N8  UNL     1      -7.291  -0.094   3.350  1.00  0.00    -0.234 N 
ATOM     33  H82 UNL     1      -8.078  -0.681   3.624  1.00  0.00     0.174 HD
ATOM     34  H81 UNL     1      -7.176   0.856   3.702  1.00  0.00     0.174 HD
ENDBRANCH  21  32
ENDBRANCH   6   8
ENDBRANCH   5   6
ENDBRANCH   4   5
ENDBRANCH   3   4
BRANCH   3  35
HETATM   35  N12 UNL     1       4.040   1.087  -0.763  1.00  0.00    -0.242 N 
HETATM   36  N13 UNL     1       4.940   0.325  -1.375  1.00  0.00    -0.017 NA
HETATM   37  N14 UNL     1       5.353  -0.641  -0.553  1.00  0.00    -0.276 N 
HETATM   38  C13 UNL     1       4.713  -0.511   0.623  1.00  0.00     0.153 A 
ATOM     39  H14 UNL     1       6.041  -1.360  -0.779  1.00  0.00     0.184 HD
HETATM   40  C15 UNL     1       3.888   0.583   0.475  1.00  0.00     0.166 A 
HETATM   41  N16 UNL     1       3.023   1.082   1.485  1.00  0.00    -0.079 NA
BRANCH  38  42
HETATM   42  C14 UNL     1       4.861  -1.360   1.821  1.00  0.00     0.285 C 
HETATM   43  N15 UNL     1       5.740  -2.459   1.857  1.00  0.00    -0.056 NA
HETATM   44  O2  UNL     1       4.174  -1.082   2.834  1.00  0.00    -0.269 OA
ENDBRANCH  38  42
ENDBRANCH   3  35
TORSDOF 8
