REMARK  10 active torsions:
REMARK  status: ('A' for Active; 'I' for Inactive)
REMARK    1  A    between atoms: O1_1  and  C1_3 
REMARK    2  A    between atoms: C1_3  and  C2_4 
REMARK    3  A    between atoms: C2_4  and  C3_5 
REMARK    4  A    between atoms: C2_4  and  N1_17 
REMARK    5  A    between atoms: C3_5  and  O2_6 
REMARK    6  A    between atoms: O2_6  and  C4_7 
REMARK    7  A    between atoms: C4_7  and  C5_8 
REMARK    8  A    between atoms: C5_8  and  O3_9 
REMARK    9  A    between atoms: O3_9  and  C6_10 
REMARK   10  A    between atoms: C6_10  and  C7_11 
ROOT
HETATM    1  C2  UNL     1      -1.780   0.330  -0.164  1.00  0.00     0.134 C 
ENDROOT
BRANCH   1   2
HETATM    2  C1  UNL     1      -1.205   1.724   0.127  1.00  0.00     0.191 C 
BRANCH   2   3
HETATM    3  O1  UNL     1       0.169   1.734   0.204  1.00  0.00    -0.399 OA
ATOM      4  H1  UNL     1       0.525   2.596   0.384  1.00  0.00     0.209 HD
ENDBRANCH   2   3
ENDBRANCH   1   2
BRANCH   1   5
HETATM    5  C3  UNL     1      -1.377  -0.548   0.986  1.00  0.00     0.195 C 
BRANCH   5   6
HETATM    6  O2  UNL     1      -0.018  -0.682   1.066  1.00  0.00    -0.387 OA
BRANCH   6   7
HETATM    7  C4  UNL     1       0.514  -1.312  -0.026  1.00  0.00     0.193 C 
BRANCH   7   8
HETATM    8  C5  UNL     1       2.030  -1.407   0.255  1.00  0.00     0.194 C 
BRANCH   8   9
HETATM    9  O3  UNL     1       2.628  -2.034  -0.811  1.00  0.00    -0.385 OA
BRANCH   9  10
HETATM   10  C6  UNL     1       3.988  -2.151  -0.581  1.00  0.00     0.206 C 
BRANCH  10  11
HETATM   11  C7  UNL     1       4.561  -0.792  -0.415  1.00  0.00    -0.035 A 
HETATM   12  C8  UNL     1       4.936  -0.290   0.815  1.00  0.00     0.009 A 
HETATM   13  C9  UNL     1       5.458   0.972   0.900  1.00  0.00     0.001 A 
HETATM   14  C10 UNL     1       5.621   1.760  -0.219  1.00  0.00     0.000 A 
HETATM   15  C11 UNL     1       5.248   1.257  -1.437  1.00  0.00     0.001 A 
HETATM   16  C12 UNL     1       4.725  -0.002  -1.532  1.00  0.00     0.009 A 
ENDBRANCH  10  11
ENDBRANCH   9  10
ENDBRANCH   8   9
ENDBRANCH   7   8
ENDBRANCH   6   7
ENDBRANCH   5   6
ENDBRANCH   1   5
BRANCH   1  17
HETATM   17  N1  UNL     1      -3.236   0.443  -0.222  1.00  0.00    -0.349 N 
HETATM   18  C13 UNL     1      -3.969   0.934   0.903  1.00  0.00     0.127 C 
HETATM   19  C14 UNL     1      -5.206   0.130   1.197  1.00  0.00     0.039 C 
HETATM   20  C15 UNL     1      -5.889  -0.452   0.015  1.00  0.00     0.123 C 
HETATM   21  N2  UNL     1      -5.348  -0.119  -1.258  1.00  0.00    -0.367 N 
HETATM   22  C16 UNL     1      -3.937   0.068  -1.391  1.00  0.00     0.170 C 
ATOM     23  H2  UNL     1      -5.960  -0.015  -2.067  1.00  0.00     0.161 HD
HETATM   24  S1  UNL     1      -3.153  -0.127  -2.779  1.00  0.00    -0.041 SA
ENDBRANCH   1  17
TORSDOF 10
