REMARK  13 active torsions:
REMARK  status: ('A' for Active; 'I' for Inactive)
REMARK    1  A    between atoms: C2_2  and  C3_3 
REMARK    2  A    between atoms: C7_10  and  C8_11 
REMARK    3  A    between atoms: C8_11  and  N1_12 
REMARK       I    between atoms: N1_12  and  C9_14 
REMARK    4  A    between atoms: C9_14  and  C10_16 
REMARK    5  A    between atoms: C10_16  and  C11_17 
REMARK    6  A    between atoms: C11_17  and  C12_18 
REMARK    7  A    between atoms: C12_18  and  C13_19 
REMARK    8  A    between atoms: C13_19  and  C14_20 
REMARK    9  A    between atoms: C14_20  and  C15_21 
REMARK   10  A    between atoms: C15_21  and  N2_22 
REMARK       I    between atoms: N2_22  and  C16_24 
REMARK   11  A    between atoms: C19_28  and  N3_29 
REMARK       I    between atoms: N3_29  and  C20_31 
REMARK   12  A    between atoms: C20_31  and  O7_33 
REMARK   13  A    between atoms: O7_33  and  C21_34 
ROOT
HETATM    1  C3  UNL     1      -1.724   1.619  -0.449  1.00  0.00    -0.010 C 
HETATM    2  C4  UNL     1      -2.581   1.024  -1.517  1.00  0.00     0.179 C 
HETATM    3  O1  UNL     1      -2.859  -0.293  -1.474  1.00  0.00    -0.372 OA
HETATM    4  C5  UNL     1      -3.531  -0.754  -0.363  1.00  0.00     0.250 C 
HETATM    5  C6  UNL     1      -2.471  -1.155   0.627  1.00  0.00     0.291 C 
HETATM    6  O2  UNL     1      -2.878  -1.906   1.555  1.00  0.00    -0.262 OA
HETATM    7  O3  UNL     1      -1.114  -0.912   0.802  1.00  0.00    -0.312 OA
HETATM    8  C7  UNL     1      -0.174  -0.381  -0.143  1.00  0.00     0.150 C 
HETATM    9  C18 UNL     1      -0.325   1.055  -0.397  1.00  0.00     0.046 C 
HETATM   10  C19 UNL     1      -4.462   0.254   0.237  1.00  0.00     0.195 C 
HETATM   11  C25 UNL     1      -3.681   1.182   1.046  1.00  0.00     0.153 C 
HETATM   12  O8  UNL     1      -4.257   1.559   2.072  1.00  0.00    -0.296 OA
HETATM   13  C26 UNL     1      -2.341   1.766   0.892  1.00  0.00     0.092 C 
ENDROOT
BRANCH   8  14
HETATM   14  C8  UNL     1       1.199  -0.659   0.437  1.00  0.00     0.155 C 
BRANCH  14  15
HETATM   15  N1  UNL     1       2.199  -0.143  -0.488  1.00  0.00    -0.359 N 
HETATM   16  C9  UNL     1       3.589  -0.255  -0.215  1.00  0.00     0.217 C 
HETATM   17  O4  UNL     1       3.931  -0.812   0.845  1.00  0.00    -0.274 OA
ATOM     18  H1  UNL     1       1.895   0.309  -1.351  1.00  0.00     0.162 HD
BRANCH  16  19
HETATM   19  C10 UNL     1       4.564   0.273  -1.160  1.00  0.00     0.103 C 
BRANCH  19  20
HETATM   20  C11 UNL     1       5.990  -0.141  -0.759  1.00  0.00     0.009 C 
BRANCH  20  21
HETATM   21  C12 UNL     1       6.204  -1.606  -0.801  1.00  0.00     0.001 C 
BRANCH  21  22
HETATM   22  C13 UNL     1       7.526  -2.103  -0.387  1.00  0.00     0.002 C 
BRANCH  22  23
HETATM   23  C14 UNL     1       8.735  -1.771  -1.136  1.00  0.00     0.020 C 
BRANCH  23  24
HETATM   24  C15 UNL     1       9.192  -0.379  -1.300  1.00  0.00     0.122 C 
BRANCH  24  25
HETATM   25  N2  UNL     1       9.415   0.367  -0.098  1.00  0.00    -0.361 N 
HETATM   26  C16 UNL     1      10.369  -0.073   0.842  1.00  0.00     0.213 C 
HETATM   27  C17 UNL     1      10.567   0.740   2.087  1.00  0.00     0.117 C 
HETATM   28  O5  UNL     1      11.055  -1.122   0.666  1.00  0.00    -0.274 OA
ATOM     29  H2  UNL     1       8.882   1.219   0.078  1.00  0.00     0.162 HD
ENDBRANCH  24  25
ENDBRANCH  23  24
ENDBRANCH  22  23
ENDBRANCH  21  22
ENDBRANCH  20  21
ENDBRANCH  19  20
ENDBRANCH  16  19
ENDBRANCH  14  15
ENDBRANCH   8  14
BRANCH   1  30
HETATM   30  C2  UNL     1      -1.480   3.065  -0.960  1.00  0.00     0.007 C 
HETATM   31  C1  UNL     1      -2.761   3.806  -1.118  1.00  0.00     0.006 C 
ENDBRANCH   1  30
BRANCH  10  32
HETATM   32  N3  UNL     1      -5.500  -0.449   0.944  1.00  0.00    -0.322 N 
HETATM   33  C20 UNL     1      -6.861  -0.417   0.671  1.00  0.00     0.362 C 
HETATM   34  O6  UNL     1      -7.299   0.273  -0.273  1.00  0.00    -0.238 OA
ATOM     35  H3  UNL     1      -5.205  -1.032   1.728  1.00  0.00     0.165 HD
BRANCH  33  36
HETATM   36  O7  UNL     1      -7.756  -1.140   1.427  1.00  0.00    -0.294 OA
BRANCH  36  37
HETATM   37  C21 UNL     1      -9.137  -1.180   1.240  1.00  0.00     0.061 C 
HETATM   38  C22 UNL     1      -9.519  -1.707  -0.142  1.00  0.00     0.046 C 
HETATM   39  C23 UNL     1      -9.692  -2.201   2.240  1.00  0.00     0.046 C 
HETATM   40  C24 UNL     1      -9.818   0.132   1.478  1.00  0.00     0.046 C 
ENDBRANCH  36  37
ENDBRANCH  33  36
ENDBRANCH  10  32
TORSDOF 13
