REMARK  4 active torsions:
REMARK  status: ('A' for Active; 'I' for Inactive)
REMARK    1  A    between atoms: N3_8  and  C4_10 
REMARK    2  A    between atoms: C4_10  and  C5_11 
REMARK    3  A    between atoms: C5_11  and  C6_12 
REMARK    4  A    between atoms: C6_12  and  N4_13 
ROOT
HETATM    1  C1  UNL     1       6.294  -0.934  -1.054  1.00  0.00     0.065 C 
HETATM    2  C2  UNL     1       5.242  -0.354  -0.507  1.00  0.00     0.112 A 
HETATM    3  N1  UNL     1       5.219   0.798   0.313  1.00  0.00    -0.283 N 
ATOM      4  H1  UNL     1       6.037   1.343   0.586  1.00  0.00     0.188 HD
HETATM    5  N2  UNL     1       3.901   1.075   0.691  1.00  0.00    -0.270 N 
ATOM      6  H2  UNL     1       3.610   1.853   1.283  1.00  0.00     0.190 HD
HETATM    7  C3  UNL     1       3.024   0.101   0.120  1.00  0.00     0.196 A 
HETATM    8  N3  UNL     1       1.751  -0.021   0.222  1.00  0.00    -0.361 N 
ATOM      9  H3  UNL     1       1.276  -0.785  -0.259  1.00  0.00     0.162 HD
HETATM   10  N6  UNL     1       3.888  -0.767  -0.614  1.00  0.00    -0.313 N 
ATOM     11  H6  UNL     1       3.573  -1.578  -1.146  1.00  0.00     0.170 HD
ENDROOT
BRANCH   8  12
HETATM   12  C4  UNL     1       0.992   0.905   1.004  1.00  0.00     0.124 C 
BRANCH  12  13
HETATM   13  C5  UNL     1      -0.492   0.529   0.947  1.00  0.00     0.050 C 
BRANCH  13  14
HETATM   14  C6  UNL     1      -0.999   0.608  -0.456  1.00  0.00     0.274 C 
BRANCH  14  15
HETATM   15  N4  UNL     1      -2.362   0.205  -0.582  1.00  0.00     0.091 N 
HETATM   16  C7  UNL     1      -2.511  -1.243  -0.382  1.00  0.00     0.300 C 
HETATM   17  C8  UNL     1      -3.904  -1.532  -0.958  1.00  0.00     0.262 C 
HETATM   18  N5  UNL     1      -4.832  -0.970  -0.005  1.00  0.00    -0.072 N 
HETATM   19  C9  UNL     1      -4.642   0.421   0.267  1.00  0.00     0.262 C 
ATOM     20  H52 UNL     1      -5.792  -1.144  -0.301  1.00  0.00     0.277 HD
ATOM     21  H51 UNL     1      -4.815  -1.506   0.863  1.00  0.00     0.277 HD
HETATM   22  C10 UNL     1      -3.198   0.837   0.428  1.00  0.00     0.300 C 
ENDBRANCH  14  15
ENDBRANCH  13  14
ENDBRANCH  12  13
ENDBRANCH   8  12
TORSDOF 4
