REMARK  4 active torsions:
REMARK  status: ('A' for Active; 'I' for Inactive)
REMARK    1  A    between atoms: C4_5  and  C5_6 
REMARK    2  A    between atoms: C5_6  and  N1_7 
REMARK       I    between atoms: N1_7  and  C6_9 
REMARK       I    between atoms: C6_9  and  N2_11 
REMARK    3  A    between atoms: N2_11  and  C7_13 
REMARK    4  A    between atoms: C7_13  and  C8_14 
ROOT
HETATM    1  N1  UNL     1       1.171  -1.502  -0.348  1.00  0.00    -0.341 N 
ATOM      2  H1  UNL     1       0.814  -2.186  -1.015  1.00  0.00     0.164 HD
HETATM    3  C6  UNL     1       0.268  -0.514   0.067  1.00  0.00     0.316 C 
HETATM    4  O2  UNL     1       0.524   0.383   0.902  1.00  0.00    -0.247 OA
HETATM    5  N2  UNL     1      -1.056  -0.479  -0.469  1.00  0.00    -0.343 N 
ATOM      6  H2  UNL     1      -1.353  -1.172  -1.156  1.00  0.00     0.164 HD
ENDROOT
BRANCH   1   7
HETATM    7  C5  UNL     1       2.515  -1.662   0.048  1.00  0.00     0.149 C 
BRANCH   7   8
HETATM    8  C4  UNL     1       3.539  -0.661  -0.300  1.00  0.00     0.102 C 
HETATM    9  C3  UNL     1       3.433   0.730   0.156  1.00  0.00     0.036 C 
HETATM   10  C2  UNL     1       4.881   1.249  -0.076  1.00  0.00     0.105 C 
HETATM   11  C1  UNL     1       5.652   0.037   0.308  1.00  0.00     0.218 C 
HETATM   12  O1  UNL     1       6.882  -0.016   0.545  1.00  0.00    -0.274 OA
HETATM   13  N4  UNL     1       4.792  -1.084   0.373  1.00  0.00    -0.355 N 
ATOM     14  H4  UNL     1       4.991  -1.992   0.794  1.00  0.00     0.162 HD
ENDBRANCH   7   8
ENDBRANCH   1   7
BRANCH   5  15
HETATM   15  C7  UNL     1      -1.961   0.541  -0.029  1.00  0.00     0.130 C 
BRANCH  15  16
HETATM   16  C8  UNL     1      -3.317   0.446  -0.683  1.00  0.00     0.031 C 
HETATM   17  C9  UNL     1      -4.151   1.597  -0.107  1.00  0.00     0.035 C 
HETATM   18  C10 UNL     1      -4.832   0.899   1.052  1.00  0.00     0.232 C 
HETATM   19  N3  UNL     1      -5.286  -0.335   0.395  1.00  0.00    -0.075 N 
HETATM   20  C11 UNL     1      -4.041  -0.790  -0.205  1.00  0.00     0.238 C 
ATOM     21  H32 UNL     1      -5.757  -1.009   0.999  1.00  0.00     0.277 HD
ATOM     22  H31 UNL     1      -6.072  -0.230  -0.246  1.00  0.00     0.277 HD
ENDBRANCH  15  16
ENDBRANCH   5  15
TORSDOF 4
