REMARK  5 active torsions:
REMARK  status: ('A' for Active; 'I' for Inactive)
REMARK    1  A    between atoms: N1_2  and  C2_4 
REMARK    2  A    between atoms: N3_7  and  C4_9 
REMARK    3  A    between atoms: C9_14  and  C10_15 
REMARK    4  A    between atoms: C10_15  and  N4_16 
REMARK       I    between atoms: N4_16  and  C11_18 
REMARK    5  A    between atoms: C11_18  and  C12_20 
ROOT
HETATM    1  C2  UNL     1      -2.955   1.365  -0.714  1.00  0.00     0.180 C 
HETATM    2  C3  UNL     1      -3.423   1.115  -2.051  1.00  0.00     0.136 C 
HETATM    3  N2  UNL     1      -3.810   0.925  -3.119  1.00  0.00    -0.188 NA
HETATM    4  N3  UNL     1      -2.165   0.595  -0.085  1.00  0.00    -0.363 N 
ATOM      5  H3  UNL     1      -1.892   0.863   0.861  1.00  0.00     0.162 HD
ENDROOT
BRANCH   1   6
HETATM    6  N1  UNL     1      -3.403   2.545  -0.057  1.00  0.00    -0.372 N 
HETATM    7  C1  UNL     1      -3.926   2.447   1.287  1.00  0.00     0.148 C 
ATOM      8  H1  UNL     1      -3.356   3.448  -0.528  1.00  0.00     0.161 HD
ENDBRANCH   1   6
BRANCH   4   9
HETATM    9  C4  UNL     1      -1.625  -0.641  -0.622  1.00  0.00     0.089 C 
HETATM   10  C5  UNL     1      -2.144  -1.763   0.238  1.00  0.00     0.026 C 
HETATM   11  C6  UNL     1      -1.506  -3.089  -0.080  1.00  0.00     0.002 C 
HETATM   12  C7  UNL     1      -0.377  -2.954  -1.077  1.00  0.00     0.001 C 
HETATM   13  C8  UNL     1       0.563  -1.901  -0.529  1.00  0.00     0.008 C 
HETATM   14  C9  UNL     1      -0.127  -0.566  -0.683  1.00  0.00     0.026 C 
BRANCH  14  15
HETATM   15  C10 UNL     1       0.446   0.383   0.341  1.00  0.00     0.129 C 
BRANCH  15  16
HETATM   16  N4  UNL     1       1.891   0.445   0.266  1.00  0.00    -0.360 N 
HETATM   17  C11 UNL     1       2.656   1.268   1.130  1.00  0.00     0.225 C 
HETATM   18  O1  UNL     1       1.986   1.949   1.983  1.00  0.00    -0.273 OA
ATOM     19  H4  UNL     1       2.374  -0.122  -0.431  1.00  0.00     0.162 HD
BRANCH  17  20
HETATM   20  C12 UNL     1       4.114   1.385   1.113  1.00  0.00     0.119 A 
HETATM   21  C13 UNL     1       4.982   0.217   0.761  1.00  0.00     0.060 A 
HETATM   22  C14 UNL     1       4.925   1.428  -0.130  1.00  0.00     0.126 A 
HETATM   23 CL1  UNL     1       4.227   1.198  -1.728  1.00  0.00    -0.101 Cl
HETATM   24 CL2  UNL     1       6.416   2.435  -0.138  1.00  0.00    -0.101 Cl
ENDBRANCH  17  20
ENDBRANCH  15  16
ENDBRANCH  14  15
ENDBRANCH   4   9
TORSDOF 5
