REMARK  4 active torsions:
REMARK  status: ('A' for Active; 'I' for Inactive)
REMARK    1  A    between atoms: C2_2  and  C3_3 
REMARK    2  A    between atoms: C3_3  and  N1_4 
REMARK       I    between atoms: N1_4  and  C4_6 
REMARK    3  A    between atoms: C4_6  and  C5_8 
REMARK    4  A    between atoms: C5_8  and  N2_9 
ROOT
HETATM    1  N1  UNL     1       0.194   0.511   0.167  1.00  0.00    -0.359 N 
ATOM      2  H1  UNL     1       0.282  -0.232   0.860  1.00  0.00     0.162 HD
HETATM    3  C4  UNL     1      -1.088   1.113  -0.061  1.00  0.00     0.246 C 
HETATM    4  O1  UNL     1      -1.238   2.031  -0.905  1.00  0.00    -0.272 OA
ENDROOT
BRANCH   1   5
HETATM    5  C3  UNL     1       1.366   0.941  -0.570  1.00  0.00     0.131 C 
BRANCH   5   6
HETATM    6  C2  UNL     1       2.570   0.135  -0.140  1.00  0.00    -0.025 C 
HETATM    7  C1  UNL     1       2.740   0.375   1.352  1.00  0.00     0.017 C 
HETATM    8  C10 UNL     1       2.336  -1.295  -0.497  1.00  0.00     0.011 C 
HETATM    9  C11 UNL     1       3.448  -2.186   0.002  1.00  0.00     0.004 C 
HETATM   10  C12 UNL     1       4.793  -1.549  -0.076  1.00  0.00     0.042 C 
HETATM   11  C13 UNL     1       4.881  -0.375  -0.993  1.00  0.00     0.114 C 
HETATM   12 CL1  UNL     1       4.859  -0.947  -2.695  1.00  0.00    -0.102 Cl
HETATM   13 CL2  UNL     1       6.503   0.363  -0.751  1.00  0.00    -0.102 Cl
HETATM   14  C14 UNL     1       3.844   0.675  -0.770  1.00  0.00     0.053 C 
ENDBRANCH   5   6
ENDBRANCH   1   5
BRANCH   3  15
HETATM   15  C5  UNL     1      -2.244   0.629   0.724  1.00  0.00     0.374 C 
BRANCH  15  16
HETATM   16  N2  UNL     1      -3.463   1.299   0.413  1.00  0.00     0.100 N 
HETATM   17  C6  UNL     1      -4.512   0.737   1.243  1.00  0.00     0.300 C 
HETATM   18  C7  UNL     1      -4.898  -0.654   0.808  1.00  0.00     0.262 C 
HETATM   19  N3  UNL     1      -5.217  -0.728  -0.598  1.00  0.00    -0.072 N 
HETATM   20  C8  UNL     1      -5.122   0.571  -1.246  1.00  0.00     0.262 C 
ATOM     21  H32 UNL     1      -4.640  -1.422  -1.073  1.00  0.00     0.277 HD
ATOM     22  H31 UNL     1      -6.133  -1.151  -0.748  1.00  0.00     0.277 HD
HETATM   23  C9  UNL     1      -3.744   1.136  -0.997  1.00  0.00     0.300 C 
ENDBRANCH  15  16
ENDBRANCH   3  15
TORSDOF 4
