REMARK  5 active torsions:
REMARK  status: ('A' for Active; 'I' for Inactive)
REMARK    1  A    between atoms: C3_9  and  N3_10 
REMARK    2  A    between atoms: N3_10  and  C4_12 
REMARK    3  A    between atoms: C4_12  and  C5_13 
REMARK    4  A    between atoms: C5_13  and  C6_14 
REMARK    5  A    between atoms: C6_14  and  N4_15 
ROOT
HETATM    1  N3  UNL     1       1.982  -0.614   0.225  1.00  0.00    -0.374 N 
ATOM      2  H3  UNL     1       1.423  -1.422  -0.049  1.00  0.00     0.161 HD
ENDROOT
BRANCH   1   3
HETATM    3  C3  UNL     1       3.255  -0.554   0.008  1.00  0.00     0.140 A 
HETATM    4  C1  UNL     1       3.985  -1.545  -0.599  1.00  0.00     0.114 A 
HETATM    5 CL1  UNL     1       3.398  -3.094  -1.210  1.00  0.00    -0.077 Cl
HETATM    6  C2  UNL     1       5.305  -1.081  -0.636  1.00  0.00     0.120 A 
HETATM    7 BR1  UNL     1       6.772  -2.055  -1.379  1.00  0.00    -0.028 Br
HETATM    8  N1  UNL     1       5.342   0.140  -0.069  1.00  0.00    -0.290 N 
HETATM    9  N2  UNL     1       4.117   0.433   0.305  1.00  0.00    -0.283 N 
ATOM     10  H1  UNL     1       6.167   0.728   0.048  1.00  0.00     0.187 HD
ATOM     11  H2  UNL     1       3.852   1.304   0.765  1.00  0.00     0.188 HD
ENDBRANCH   1   3
BRANCH   1  12
HETATM   12  C4  UNL     1       1.395   0.545   0.885  1.00  0.00     0.123 C 
BRANCH  12  13
HETATM   13  C5  UNL     1      -0.103   0.410   0.871  1.00  0.00     0.050 C 
BRANCH  13  14
HETATM   14  C6  UNL     1      -0.580   0.335  -0.547  1.00  0.00     0.274 C 
BRANCH  14  15
HETATM   15  N4  UNL     1      -2.011   0.210  -0.681  1.00  0.00     0.092 N 
HETATM   16  C7  UNL     1      -2.699   1.421  -0.274  1.00  0.00     0.298 C 
HETATM   17  C8  UNL     1      -4.145   1.089   0.013  1.00  0.00     0.198 C 
HETATM   18  O1  UNL     1      -4.511   0.046  -0.838  1.00  0.00    -0.388 OA
HETATM   19  C9  UNL     1      -4.000  -1.120  -0.278  1.00  0.00     0.198 C 
HETATM   20  C10 UNL     1      -2.529  -0.960  -0.001  1.00  0.00     0.298 C 
ENDBRANCH  14  15
ENDBRANCH  13  14
ENDBRANCH  12  13
ENDBRANCH   1  12
TORSDOF 5
