REMARK  4 active torsions:
REMARK  status: ('A' for Active; 'I' for Inactive)
REMARK    1  A    between atoms: C2_2  and  N1_3 
REMARK       I    between atoms: N1_3  and  C3_5 
REMARK       I    between atoms: C3_5  and  N4_21 
REMARK    2  A    between atoms: N2_6  and  C4_8 
REMARK    3  A    between atoms: C4_8  and  C5_9 
REMARK       I    between atoms: N3_16  and  C12_17 
REMARK    4  A    between atoms: C12_17  and  C13_19 
ROOT
HETATM    1  N1  UNL     1       3.658  -0.594   0.182  1.00  0.00    -0.226 N 
ATOM      2  H1  UNL     1       3.898  -1.540   0.479  1.00  0.00     0.177 HD
HETATM    3  C3  UNL     1       2.479  -0.382  -0.579  1.00  0.00     0.682 C 
HETATM    4  N2  UNL     1       1.318  -0.744  -0.200  1.00  0.00    -0.223 N 
ATOM      5  H2  UNL     1       1.227  -1.214   0.701  1.00  0.00     0.177 HD
HETATM    6  N4  UNL     1       2.612   0.272  -1.833  1.00  0.00    -0.126 N 
ATOM      7  H4  UNL     1       2.676  -0.257  -2.703  1.00  0.00     0.197 HD
HETATM    8  C14 UNL     1       2.652   1.675  -1.827  1.00  0.00     0.196 C 
HETATM    9  N5  UNL     1       2.696   2.834  -1.807  1.00  0.00    -0.171 NA
ENDROOT
BRANCH   1  10
HETATM   10  C2  UNL     1       4.537   0.518   0.549  1.00  0.00     0.133 C 
HETATM   11  C1  UNL     1       5.693  -0.014   1.346  1.00  0.00     0.027 C 
ENDBRANCH   1  10
BRANCH   4  12
HETATM   12  C4  UNL     1       0.120  -0.522  -0.983  1.00  0.00     0.169 C 
BRANCH  12  13
HETATM   13  C5  UNL     1      -1.060  -0.760  -0.080  1.00  0.00     0.051 C 
HETATM   14  C6  UNL     1      -0.968  -2.201   0.410  1.00  0.00     0.041 C 
HETATM   15  C7  UNL     1      -1.067   0.119   1.134  1.00  0.00     0.016 C 
HETATM   16  C8  UNL     1      -0.375   1.435   0.934  1.00  0.00     0.013 C 
HETATM   17  C9  UNL     1      -2.552   0.345   1.341  1.00  0.00     0.006 C 
HETATM   18  C10 UNL     1      -2.859   1.508   2.220  1.00  0.00     0.012 C 
HETATM   19  C11 UNL     1      -2.990   0.576  -0.111  1.00  0.00     0.131 C 
HETATM   20  N3  UNL     1      -2.325  -0.529  -0.766  1.00  0.00    -0.340 N 
HETATM   21  C12 UNL     1      -2.822  -1.243  -1.868  1.00  0.00     0.234 C 
HETATM   22  O1  UNL     1      -2.164  -2.182  -2.356  1.00  0.00    -0.272 OA
BRANCH  21  23
HETATM   23  C13 UNL     1      -4.123  -0.890  -2.455  1.00  0.00     0.217 C 
HETATM   24 CL1  UNL     1      -4.570  -1.899  -3.823  1.00  0.00    -0.121 Cl
ENDBRANCH  21  23
ENDBRANCH  12  13
ENDBRANCH   4  12
TORSDOF 4
