REMARK  6 active torsions:
REMARK  status: ('A' for Active; 'I' for Inactive)
REMARK    1  A    between atoms: C3_3  and  N1_5 
REMARK    2  A    between atoms: N1_5  and  C5_7 
REMARK    3  A    between atoms: C8_13  and  N3_14 
REMARK    4  A    between atoms: N3_14  and  C9_16 
REMARK    5  A    between atoms: C9_16  and  C10_17 
REMARK    6  A    between atoms: C10_17  and  C11_18 
ROOT
HETATM    1  C1  UNL     1       6.074   3.071  -1.180  1.00  0.00     0.014 C 
HETATM    2  C2  UNL     1       5.668   2.048  -0.684  1.00  0.00    -0.092 C 
HETATM    3  C3  UNL     1       5.173   0.804  -0.051  1.00  0.00     0.174 C 
HETATM    4  C4  UNL     1       5.993  -0.334  -0.665  1.00  0.00     0.046 C 
ENDROOT
BRANCH   3   5
HETATM    5  N1  UNL     1       3.789   0.688  -0.385  1.00  0.00    -0.211 N 
ATOM      6  H1  UNL     1       3.442   1.270  -1.147  1.00  0.00     0.179 HD
BRANCH   5   7
HETATM    7  C5  UNL     1       2.941  -0.090   0.195  1.00  0.00     0.681 A 
HETATM    8  N2  UNL     1       3.338  -0.882   1.207  1.00  0.00    -0.181 N 
HETATM    9  C6  UNL     1       2.440  -1.684   1.797  1.00  0.00     0.122 A 
ATOM     10  H2  UNL     1       4.308  -0.873   1.521  1.00  0.00     0.185 HD
HETATM   11 CL1  UNL     1       2.976  -2.710   3.114  1.00  0.00    -0.064 Cl
HETATM   12  C7  UNL     1       1.137  -1.673   1.349  1.00  0.00     0.091 A 
HETATM   13  C8  UNL     1       0.730  -0.863   0.314  1.00  0.00     0.119 A 
HETATM   14  N5  UNL     1       1.674  -0.066  -0.255  1.00  0.00    -0.177 N 
ATOM     15  H5  UNL     1       1.420   0.552  -1.026  1.00  0.00     0.185 HD
BRANCH  13  16
HETATM   16  N3  UNL     1      -0.478  -0.835  -0.120  1.00  0.00    -0.376 N 
ATOM     17  H3  UNL     1      -0.746  -0.221  -0.889  1.00  0.00     0.161 HD
BRANCH  16  18
HETATM   18  C9  UNL     1      -1.446  -1.700   0.515  1.00  0.00     0.123 C 
BRANCH  18  19
HETATM   19  C10 UNL     1      -2.849  -1.509   0.004  1.00  0.00     0.055 C 
BRANCH  19  20
HETATM   20  C11 UNL     1      -3.395  -0.142   0.211  1.00  0.00     0.227 C 
HETATM   21  C12 UNL     1      -2.656   0.976  -0.429  1.00  0.00     0.074 C 
HETATM   22  C13 UNL     1      -3.696   2.109  -0.395  1.00  0.00     0.200 C 
HETATM   23  F1  UNL     1      -3.755   2.726  -1.632  1.00  0.00    -0.248 F 
HETATM   24  C14 UNL     1      -4.997   1.406  -0.083  1.00  0.00     0.309 C 
HETATM   25  N4  UNL     1      -4.745  -0.003  -0.312  1.00  0.00     0.091 N 
HETATM   26  C15 UNL     1      -4.831  -0.342  -1.698  1.00  0.00     0.310 C 
ENDBRANCH  19  20
ENDBRANCH  18  19
ENDBRANCH  16  18
ENDBRANCH  13  16
ENDBRANCH   5   7
ENDBRANCH   3   5
TORSDOF 6
