REMARK  3 active torsions:
REMARK  status: ('A' for Active; 'I' for Inactive)
REMARK    1  A    between atoms: N1_2  and  C3_4 
REMARK    2  A    between atoms: C3_4  and  C4_5 
REMARK    3  A    between atoms: C4_5  and  N2_6 
ROOT
HETATM    1  N2  UNL     1       1.512   0.195  -0.109  1.00  0.00    -0.170 N 
HETATM    2  C5  UNL     1       2.278  -0.605  -0.870  1.00  0.00     0.133 A 
HETATM    3 BR1  UNL     1       1.805  -1.476  -2.508  1.00  0.00    -0.027 Br
HETATM    4  C6  UNL     1       3.522  -0.718  -0.280  1.00  0.00     0.130 A 
HETATM    5 BR2  UNL     1       5.021  -1.723  -0.905  1.00  0.00    -0.028 Br
HETATM    6  N3  UNL     1       3.495   0.017   0.838  1.00  0.00    -0.182 N 
ATOM      7  H3  UNL     1       4.265   0.136   1.497  1.00  0.00     0.185 HD
HETATM    8  C7  UNL     1       2.257   0.578   0.941  1.00  0.00     0.680 A 
HETATM    9  N4  UNL     1       1.917   1.353   1.928  1.00  0.00    -0.234 N 
ATOM     10  H41 UNL     1       2.483   1.644   2.725  1.00  0.00     0.174 HD
ATOM     11  H42 UNL     1       0.991   1.773   2.005  1.00  0.00     0.174 HD
ENDROOT
BRANCH   1  12
HETATM   12  C4  UNL     1       0.157   0.538  -0.416  1.00  0.00     0.192 C 
BRANCH  12  13
HETATM   13  C3  UNL     1      -0.824  -0.445   0.177  1.00  0.00     0.078 C 
BRANCH  13  14
HETATM   14  N1  UNL     1      -2.141  -0.113  -0.132  1.00  0.00    -0.400 N 
HETATM   15  C1  UNL     1      -2.764   1.020   0.390  1.00  0.00     0.148 C 
HETATM   16  C2  UNL     1      -2.947  -0.956  -0.902  1.00  0.00     0.148 C 
ENDBRANCH  13  14
ENDBRANCH  12  13
ENDBRANCH   1  12
TORSDOF 3
