REMARK  5 active torsions:
REMARK  status: ('A' for Active; 'I' for Inactive)
REMARK    1  A    between atoms: N1_2  and  C3_4 
REMARK    2  A    between atoms: C3_4  and  C4_5 
REMARK    3  A    between atoms: C4_5  and  N2_6 
REMARK    4  A    between atoms: N2_6  and  C5_8 
REMARK    5  A    between atoms: C8_14  and  C9_15 
ROOT
HETATM    1  C5  UNL     1       1.167  -1.359  -0.070  1.00  0.00     0.680 A 
HETATM    2  N3  UNL     1       1.140  -2.324  -0.982  1.00  0.00    -0.200 N 
ATOM      3  H3  UNL     1       1.990  -2.814  -1.260  1.00  0.00     0.183 HD
HETATM    4  C6  UNL     1      -0.046  -2.629  -1.522  1.00  0.00     0.132 A 
HETATM    5  C7  UNL     1      -1.188  -1.948  -1.132  1.00  0.00     0.077 A 
HETATM    6 CL1  UNL     1      -2.654  -2.354  -1.950  1.00  0.00    -0.080 Cl
HETATM    7  C8  UNL     1      -1.187  -0.942  -0.197  1.00  0.00     0.076 A 
HETATM    8  N5  UNL     1       0.032  -0.675   0.323  1.00  0.00    -0.186 N 
HETATM    9  C15 UNL     1       0.152   0.294   1.389  1.00  0.00     0.175 C 
ENDROOT
BRANCH   7  10
HETATM   10  C9  UNL     1      -2.432  -0.303   0.223  1.00  0.00    -0.046 C 
HETATM   11  C10 UNL     1      -2.447   1.181  -0.066  1.00  0.00     0.064 C 
HETATM   12  C11 UNL     1      -3.461   1.583  -1.090  1.00  0.00     0.236 C 
HETATM   13  N4  UNL     1      -4.725   1.988  -0.529  1.00  0.00    -0.072 N 
HETATM   14  C12 UNL     1      -4.947   1.135   0.628  1.00  0.00     0.269 C 
ATOM     15  H42 UNL     1      -4.773   2.984  -0.314  1.00  0.00     0.277 HD
ATOM     16  H41 UNL     1      -5.492   1.968  -1.201  1.00  0.00     0.277 HD
HETATM   17  C13 UNL     1      -4.949  -0.288   0.136  1.00  0.00     0.199 C 
HETATM   18  F1  UNL     1      -5.989  -0.895   0.861  1.00  0.00    -0.247 F 
HETATM   19  C14 UNL     1      -3.661  -1.016   0.514  1.00  0.00     0.075 C 
ENDBRANCH   7  10
BRANCH   1  20
HETATM   20  N2  UNL     1       2.284  -1.001   0.431  1.00  0.00    -0.224 N 
ATOM     21  H2  UNL     1       2.217  -0.260   1.128  1.00  0.00     0.177 HD
BRANCH  20  22
HETATM   22  C4  UNL     1       3.605  -1.460   0.182  1.00  0.00     0.168 C 
BRANCH  22  23
HETATM   23  C3  UNL     1       4.546  -0.399   0.698  1.00  0.00     0.291 C 
BRANCH  23  24
HETATM   24  N1  UNL     1       4.390   0.862   0.048  1.00  0.00     0.081 N 
HETATM   25  C1  UNL     1       5.160   1.936   0.693  1.00  0.00     0.309 C 
HETATM   26  C2  UNL     1       4.737   0.822  -1.361  1.00  0.00     0.309 C 
ENDBRANCH  23  24
ENDBRANCH  22  23
ENDBRANCH  20  22
ENDBRANCH   1  20
TORSDOF 5
