REMARK  7 active torsions:
REMARK  status: ('A' for Active; 'I' for Inactive)
REMARK       I    between atoms: N1_2  and  C2_4 
REMARK    1  A    between atoms: C2_4  and  C3_6 
REMARK    2  A    between atoms: N2_8  and  C5_9 
REMARK    3  A    between atoms: C5_9  and  C7_11 
REMARK    4  A    between atoms: N3_16  and  C12_17 
REMARK    5  A    between atoms: C12_17  and  C13_19 
REMARK    6  A    between atoms: C13_19  and  O2_20 
REMARK    7  A    between atoms: C13_19  and  C14_23 
ROOT
HETATM    1  C3  UNL     1       0.900   1.158  -0.432  1.00  0.00     0.344 C 
HETATM    2  C4  UNL     1      -0.533   0.920  -0.823  1.00  0.00     0.318 C 
HETATM    3  N2  UNL     1      -1.004  -0.210  -0.071  1.00  0.00     0.097 N 
HETATM    4  C10 UNL     1      -0.235  -1.406  -0.214  1.00  0.00     0.303 C 
HETATM    5  C11 UNL     1       0.946  -1.080  -1.108  1.00  0.00     0.306 C 
HETATM    6  N3  UNL     1       1.745  -0.016  -0.595  1.00  0.00     0.130 N 
ENDROOT
BRANCH   6   7
HETATM    7  C12 UNL     1       2.369  -0.254   0.675  1.00  0.00     0.396 C 
HETATM    8 CL1  UNL     1       2.998   1.347   1.209  1.00  0.00    -0.086 Cl
BRANCH   7   9
HETATM    9  C13 UNL     1       3.494  -1.227   0.674  1.00  0.00     0.346 C 
HETATM   10  F1  UNL     1       3.118  -2.525   0.352  1.00  0.00    -0.198 F 
BRANCH   9  11
HETATM   11  O2  UNL     1       4.542  -0.812  -0.167  1.00  0.00    -0.352 OA
ATOM     12  H2  UNL     1       5.261  -1.433  -0.168  1.00  0.00     0.213 HD
ENDBRANCH   9  11
BRANCH   9  13
HETATM   13  C14 UNL     1       4.078  -1.306   2.066  1.00  0.00     0.453 C 
HETATM   14  F2  UNL     1       4.572  -0.138   2.549  1.00  0.00    -0.165 F 
HETATM   15  F3  UNL     1       5.108  -2.253   2.073  1.00  0.00    -0.165 F 
HETATM   16  F4  UNL     1       3.095  -1.846   2.902  1.00  0.00    -0.165 F 
ENDBRANCH   9  13
ENDBRANCH   7   9
ENDBRANCH   6   7
BRANCH   1  17
HETATM   17  C2  UNL     1       1.406   2.312  -1.199  1.00  0.00     0.252 C 
HETATM   18  N1  UNL     1       0.683   3.529  -1.143  1.00  0.00    -0.364 N 
HETATM   19  C1  UNL     1       1.100   4.724  -1.863  1.00  0.00     0.149 C 
ATOM     20  H1  UNL     1      -0.164   3.570  -0.576  1.00  0.00     0.161 HD
HETATM   21  O1  UNL     1       2.451   2.266  -1.902  1.00  0.00    -0.271 OA
ENDBRANCH   1  17
BRANCH   3  22
HETATM   22  C5  UNL     1      -2.422  -0.399  -0.138  1.00  0.00     0.222 C 
HETATM   23  C6  UNL     1      -2.956  -0.683  -1.501  1.00  0.00     0.043 C 
BRANCH  22  24
HETATM   24  C7  UNL     1      -2.823  -1.426   0.871  1.00  0.00     0.010 C 
HETATM   25  C8  UNL     1      -2.464  -1.013   2.276  1.00  0.00     0.011 C 
HETATM   26  C9  UNL     1      -4.303  -1.735   0.829  1.00  0.00     0.011 C 
ENDBRANCH  22  24
ENDBRANCH   3  22
TORSDOF 7
