REMARK  18 active torsions:
REMARK  status: ('A' for Active; 'I' for Inactive)
REMARK    1  A    between atoms: C2_2  and  C4_4 
REMARK    2  A    between atoms: C4_4  and  C5_5 
REMARK    3  A    between atoms: C5_5  and  N1_6 
REMARK    4  A    between atoms: C5_5  and  C9_11 
REMARK    5  A    between atoms: N1_6  and  C6_8 
REMARK       I    between atoms: C9_11  and  N2_13 
REMARK    6  A    between atoms: N2_13  and  C10_15 
REMARK    7  A    between atoms: C10_15  and  C11_16 
REMARK    8  A    between atoms: C10_15  and  C18_23 
REMARK    9  A    between atoms: C11_16  and  C12_17 
REMARK   10  A    between atoms: C18_23  and  O2_24 
REMARK   11  A    between atoms: C18_23  and  N3_26 
REMARK   12  A    between atoms: C19_28  and  C20_29 
REMARK       I    between atoms: C20_29  and  N4_31 
REMARK   13  A    between atoms: N4_31  and  C21_33 
REMARK   14  A    between atoms: C21_33  and  C22_34 
REMARK   15  A    between atoms: C21_33  and  C26_38 
REMARK   16  A    between atoms: C22_34  and  C23_35 
REMARK   17  A    between atoms: C26_38  and  N5_40 
REMARK       I    between atoms: N5_40  and  C28_41 
REMARK       I    between atoms: C28_41  and  N6_43 
REMARK   18  A    between atoms: N6_43  and  N7_45 
ROOT
HETATM    1  C18 UNL     1       0.012  -0.080   0.386  1.00  0.00     0.163 C 
ENDROOT
BRANCH   1   2
HETATM    2  C10 UNL     1      -1.200  -0.741  -0.105  1.00  0.00     0.063 C 
BRANCH   2   3
HETATM    3  N2  UNL     1      -2.331   0.038   0.270  1.00  0.00    -0.325 N 
HETATM    4  C9  UNL     1      -3.681   0.215  -0.056  1.00  0.00     0.244 C 
HETATM    5  O1  UNL     1      -4.253  -0.367  -0.936  1.00  0.00    -0.271 OA
ATOM      6  H2  UNL     1      -2.073   0.676   1.023  1.00  0.00     0.169 HD
BRANCH   4   7
HETATM    7  C5  UNL     1      -4.400   1.232   0.882  1.00  0.00     0.170 C 
BRANCH   7   8
HETATM    8  C4  UNL     1      -5.750   1.518   0.478  1.00  0.00     0.038 C 
BRANCH   8   9
HETATM    9  C2  UNL     1      -6.021   2.365  -0.733  1.00  0.00    -0.020 C 
HETATM   10  C1  UNL     1      -7.567   2.572  -0.715  1.00  0.00     0.009 C 
HETATM   11  C3  UNL     1      -5.801   1.836  -2.091  1.00  0.00     0.009 C 
ENDBRANCH   8   9
ENDBRANCH   7   8
BRANCH   7  12
HETATM   12  N1  UNL     1      -4.181   0.489   2.102  1.00  0.00    -0.406 N 
ATOM     13  H1  UNL     1      -3.761  -0.439   2.040  1.00  0.00     0.154 HD
BRANCH  12  14
HETATM   14  C6  UNL     1      -4.517   0.983   3.355  1.00  0.00     0.069 C 
HETATM   15  C7  UNL     1      -5.937   0.920   3.763  1.00  0.00     0.031 C 
HETATM   16  C8  UNL     1      -4.103   2.469   3.494  1.00  0.00     0.031 C 
ENDBRANCH  12  14
ENDBRANCH   7  12
ENDBRANCH   4   7
ENDBRANCH   2   3
BRANCH   2  17
HETATM   17  C11 UNL     1      -1.142  -1.589  -1.291  1.00  0.00     0.066 C 
BRANCH  17  18
HETATM   18  C12 UNL     1      -2.124  -2.726  -1.382  1.00  0.00    -0.009 C 
HETATM   19  C13 UNL     1      -2.046  -3.785  -0.352  1.00  0.00     0.005 C 
HETATM   20  C14 UNL     1      -3.234  -4.737  -0.471  1.00  0.00     0.000 C 
HETATM   21  C15 UNL     1      -3.888  -4.641  -1.817  1.00  0.00     0.000 C 
HETATM   22  C16 UNL     1      -2.747  -4.658  -2.876  1.00  0.00     0.000 C 
HETATM   23  C17 UNL     1      -1.959  -3.374  -2.779  1.00  0.00     0.005 C 
ENDBRANCH  17  18
ENDBRANCH   2  17
ENDBRANCH   1   2
BRANCH   1  24
HETATM   24  O2  UNL     1      -0.162   0.639   1.510  1.00  0.00    -0.345 OA
ATOM     25  H2  UNL     1       0.624   1.068   1.828  1.00  0.00     0.219 HD
ENDBRANCH   1  24
BRANCH   1  26
HETATM   26  N3  UNL     1       1.354   0.015  -0.007  1.00  0.00    -0.340 N 
HETATM   27  C19 UNL     1       1.862  -0.140  -1.104  1.00  0.00     0.164 C 
ATOM     28  H3  UNL     1       2.007   0.250   0.741  1.00  0.00     0.167 HD
BRANCH  27  29
HETATM   29  C20 UNL     1       3.230  -0.077  -1.569  1.00  0.00     0.260 C 
HETATM   30  O3  UNL     1       3.447  -0.277  -2.816  1.00  0.00    -0.267 OA
HETATM   31  N4  UNL     1       4.220   0.216  -0.663  1.00  0.00    -0.327 N 
ATOM     32  H4  UNL     1       3.785   0.294   0.256  1.00  0.00     0.168 HD
BRANCH  31  33
HETATM   33  C21 UNL     1       5.592   0.450  -0.506  1.00  0.00     0.025 C 
BRANCH  33  34
HETATM   34  C22 UNL     1       6.088   1.792  -0.158  1.00  0.00     0.059 C 
BRANCH  34  35
HETATM   35  C23 UNL     1       5.769   2.867  -1.188  1.00  0.00    -0.017 C 
HETATM   36  C24 UNL     1       6.294   2.481  -2.559  1.00  0.00     0.010 C 
HETATM   37  C25 UNL     1       4.307   3.217  -1.275  1.00  0.00     0.010 C 
ENDBRANCH  34  35
ENDBRANCH  33  34
BRANCH  33  38
HETATM   38  C26 UNL     1       6.324  -0.760   0.013  1.00  0.00     0.210 C 
HETATM   39  C27 UNL     1       5.447  -1.366   1.128  1.00  0.00     0.054 C 
BRANCH  38  40
HETATM   40  N5  UNL     1       7.417  -0.230   0.895  1.00  0.00    -0.384 NA
HETATM   41  C28 UNL     1       8.386   0.251   1.587  1.00  0.00     0.407 C 
HETATM   42  O4  UNL     1       9.472   0.907   1.351  1.00  0.00    -0.229 OA
HETATM   43  N6  UNL     1       8.317   0.073   3.071  1.00  0.00    -0.246 N 
ATOM     44  H6  UNL     1       7.560  -0.471   3.484  1.00  0.00     0.192 HD
BRANCH  43  45
HETATM   45  N7  UNL     1       9.254   0.631   3.862  1.00  0.00    -0.340 N 
ATOM     46  H72 UNL     1      10.005   1.172   3.433  1.00  0.00     0.177 HD
ATOM     47  H71 UNL     1       9.207   0.510   4.874  1.00  0.00     0.177 HD
ENDBRANCH  43  45
ENDBRANCH  38  40
ENDBRANCH  33  38
ENDBRANCH  31  33
ENDBRANCH  27  29
ENDBRANCH   1  26
TORSDOF 18
