REMARK  13 active torsions:
REMARK  status: ('A' for Active; 'I' for Inactive)
REMARK    1  A    between atoms: N1_1  and  C1_4 
REMARK    2  A    between atoms: C2_7  and  N3_8 
REMARK    3  A    between atoms: N3_8  and  C3_10 
REMARK    4  A    between atoms: C3_10  and  C4_11 
REMARK    5  A    between atoms: C4_11  and  O1_12 
REMARK    6  A    between atoms: C6_15  and  O2_16 
REMARK    7  A    between atoms: C7_18  and  O3_19 
REMARK    8  A    between atoms: O3_19  and  S1_20 
REMARK    9  A    between atoms: S1_20  and  N4_21 
REMARK   10  A    between atoms: C9_30  and  C10_31 
REMARK       I    between atoms: C10_31  and  N7_33 
REMARK   11  A    between atoms: N7_33  and  C11_34 
REMARK   12  A    between atoms: C11_34  and  C12_35 
REMARK   13  A    between atoms: C12_35  and  C13_36 
ROOT
HETATM    1  C1  UNL     1       1.073  -1.318  -3.894  1.00  0.00     0.162 A 
HETATM    2  N2  UNL     1      -0.093  -1.395  -3.193  1.00  0.00    -0.172 N 
ATOM      3  H2  UNL     1      -0.899  -1.832  -3.640  1.00  0.00     0.186 HD
HETATM    4  C2  UNL     1      -0.235  -0.921  -1.936  1.00  0.00     0.695 A 
HETATM    5  N5  UNL     1       0.809  -0.342  -1.332  1.00  0.00    -0.122 N 
ATOM      6  H5  UNL     1       0.710   0.018  -0.383  1.00  0.00     0.206 HD
HETATM    7  N6  UNL     1       1.954  -0.236  -1.952  1.00  0.00    -0.197 N 
HETATM    8  C9  UNL     1       3.123   0.336  -1.541  1.00  0.00     0.228 A 
HETATM    9  N9  UNL     1       3.968   0.200  -2.556  1.00  0.00    -0.277 N 
ATOM     10  H9  UNL     1       4.934   0.528  -2.557  1.00  0.00     0.189 HD
HETATM   11  N10 UNL     1       3.381  -0.420  -3.565  1.00  0.00    -0.279 N 
ATOM     12  H10 UNL     1       3.807  -0.648  -4.463  1.00  0.00     0.189 HD
HETATM   13  C16 UNL     1       2.130  -0.693  -3.194  1.00  0.00     0.189 A 
ENDROOT
BRANCH   4  14
HETATM   14  N3  UNL     1      -1.514  -1.050  -1.316  1.00  0.00    -0.222 N 
ATOM     15  H3  UNL     1      -2.269  -1.490  -1.842  1.00  0.00     0.177 HD
BRANCH  14  16
HETATM   16  C3  UNL     1      -1.783  -0.588   0.012  1.00  0.00     0.176 C 
BRANCH  16  17
HETATM   17  C4  UNL     1      -3.286  -0.440   0.141  1.00  0.00     0.079 C 
HETATM   18  C5  UNL     1      -3.821   0.710  -0.636  1.00  0.00     0.074 C 
HETATM   19  C6  UNL     1      -5.144   1.078   0.059  1.00  0.00     0.151 C 
HETATM   20  C7  UNL     1      -5.233   0.120   1.232  1.00  0.00     0.175 C 
HETATM   21  C8  UNL     1      -3.738  -0.058   1.564  1.00  0.00     0.075 C 
BRANCH  17  22
HETATM   22  O1  UNL     1      -3.958  -1.595  -0.145  1.00  0.00    -0.388 OA
ATOM     23  H1  UNL     1      -4.900  -1.502  -0.064  1.00  0.00     0.210 HD
ENDBRANCH  17  22
BRANCH  19  24
HETATM   24  O2  UNL     1      -6.201   0.823  -0.816  1.00  0.00    -0.393 OA
ATOM     25  H2  UNL     1      -7.018   1.050  -0.387  1.00  0.00     0.210 HD
ENDBRANCH  19  24
BRANCH  20  26
HETATM   26  O3  UNL     1      -5.991   0.549   2.275  1.00  0.00    -0.252 OA
BRANCH  26  27
HETATM   27  S1  UNL     1      -7.363  -0.467   2.354  1.00  0.00     0.356 S 
HETATM   28  O4  UNL     1      -8.471   0.103   1.508  1.00  0.00    -0.176 OA
HETATM   29  O5  UNL     1      -7.008  -1.804   1.773  1.00  0.00    -0.176 OA
BRANCH  27  30
HETATM   30  N4  UNL     1      -7.808  -0.641   3.999  1.00  0.00    -0.306 N 
ATOM     31  H42 UNL     1      -7.326  -0.206   4.786  1.00  0.00     0.171 HD
ATOM     32  H41 UNL     1      -8.627  -1.247   4.046  1.00  0.00     0.171 HD
ENDBRANCH  27  30
ENDBRANCH  26  27
ENDBRANCH  20  26
ENDBRANCH  16  17
ENDBRANCH  14  16
ENDBRANCH   4  14
BRANCH   1  33
HETATM   33  N1  UNL     1       1.167  -1.761  -5.002  1.00  0.00    -0.382 N 
ATOM     34  H12 UNL     1       0.404  -2.212  -5.507  1.00  0.00     0.157 HD
ATOM     35  H11 UNL     1       2.040  -1.703  -5.527  1.00  0.00     0.157 HD
ENDBRANCH   1  33
BRANCH   8  36
HETATM   36  C10 UNL     1       3.393   0.945  -0.194  1.00  0.00     0.362 C 
HETATM   37  O6  UNL     1       2.469   0.635   0.645  1.00  0.00    -0.247 OA
HETATM   38  N7  UNL     1       4.481   1.698   0.019  1.00  0.00    -0.381 NA
BRANCH  38  39
HETATM   39  C11 UNL     1       5.612   2.481   0.240  1.00  0.00     0.166 C 
BRANCH  39  40
HETATM   40  C12 UNL     1       6.566   1.959   1.290  1.00  0.00     0.127 C 
BRANCH  40  41
HETATM   41  C13 UNL     1       7.119   0.641   0.993  1.00  0.00     0.085 A 
HETATM   42  C14 UNL     1       8.257   0.247   0.326  1.00  0.00     0.074 A 
HETATM   43  C15 UNL     1       8.266  -1.158   0.351  1.00  0.00     0.103 A 
HETATM   44 BR1  UNL     1       9.581  -2.310  -0.392  1.00  0.00    -0.029 Br
HETATM   45  N8  UNL     1       7.164  -1.506   1.012  1.00  0.00    -0.254 N 
HETATM   46  O7  UNL     1       6.505  -0.469   1.381  1.00  0.00    -0.241 OA
ATOM     47  H8  UNL     1       6.882  -2.468   1.200  1.00  0.00     0.195 HD
ENDBRANCH  40  41
ENDBRANCH  39  40
ENDBRANCH  38  39
ENDBRANCH   8  36
TORSDOF 13
