REMARK  1 active torsions:
REMARK  status: ('A' for Active; 'I' for Inactive)
REMARK    1  A    between atoms: C2_2  and  C4_4 
ROOT
HETATM    1  C4  UNL     1      -0.837   0.023  -0.544  1.00  0.00     0.024 C 
HETATM    2  C5  UNL     1       0.431   0.193   0.230  1.00  0.00     0.039 C 
HETATM    3  C6  UNL     1       1.677  -0.049  -0.566  1.00  0.00     0.043 A 
HETATM    4  N1  UNL     1       1.816  -1.418  -0.994  1.00  0.00    -0.333 N 
ATOM      5  H1  UNL     1       2.473  -1.539  -1.765  1.00  0.00     0.165 HD
HETATM    6  C7  UNL     1       1.221  -2.638  -0.557  1.00  0.00     0.317 C 
HETATM    7  O1  UNL     1       1.937  -3.639  -0.887  1.00  0.00    -0.247 OA
HETATM    8  N2  UNL     1       0.023  -3.013   0.158  1.00  0.00    -0.335 N 
ATOM      9  H2  UNL     1      -0.085  -4.012   0.332  1.00  0.00     0.164 HD
HETATM   10  C8  UNL     1      -1.038  -2.185   0.660  1.00  0.00     0.142 C 
HETATM   11  C9  UNL     1      -2.446  -2.744   0.515  1.00  0.00     0.260 C 
HETATM   12  N3  UNL     1      -2.825  -1.387   0.075  1.00  0.00    -0.067 N 
ATOM     13  H31 UNL     1      -3.191  -0.695   0.729  1.00  0.00     0.277 HD
ATOM     14  H32 UNL     1      -3.647  -1.223  -0.506  1.00  0.00     0.277 HD
HETATM   15  C10 UNL     1      -1.487  -1.290  -0.461  1.00  0.00     0.214 C 
HETATM   16  C11 UNL     1       2.401   0.975  -1.289  1.00  0.00     0.021 A 
HETATM   17  C12 UNL     1       2.625   2.367  -0.818  1.00  0.00     0.008 C 
HETATM   18  C13 UNL     1       2.939   1.918   0.587  1.00  0.00     0.008 C 
HETATM   19  C14 UNL     1       2.928   0.502   0.102  1.00  0.00     0.021 A 
ENDROOT
BRANCH   1  20
HETATM   20  C2  UNL     1      -1.861   1.119  -0.246  1.00  0.00    -0.016 C 
HETATM   21  C1  UNL     1      -1.289   2.477  -0.603  1.00  0.00     0.010 C 
HETATM   22  C3  UNL     1      -2.314   1.137   1.168  1.00  0.00     0.010 C 
ENDBRANCH   1  20
TORSDOF 1
