REMARK  5 active torsions:
REMARK  status: ('A' for Active; 'I' for Inactive)
REMARK    1  A    between atoms: N1_2  and  C2_4 
REMARK    2  A    between atoms: C2_4  and  N2_6 
REMARK    3  A    between atoms: N2_6  and  N3_8 
REMARK       I    between atoms: N3_8  and  C3_10 
REMARK       I    between atoms: C3_10  and  N4_12 
REMARK    4  A    between atoms: N4_12  and  C4_14 
REMARK    5  A    between atoms: C4_14  and  C5_15 
ROOT
HETATM    1  N3  UNL     1       2.739   0.867   0.037  1.00  0.00    -0.249 N 
ATOM      2  H3  UNL     1       2.826   0.245   0.841  1.00  0.00     0.192 HD
HETATM    3  C3  UNL     1       1.453   1.220  -0.499  1.00  0.00     0.334 C 
HETATM    4  O1  UNL     1       1.360   1.988  -1.477  1.00  0.00    -0.246 OA
HETATM    5  N4  UNL     1       0.272   0.697   0.083  1.00  0.00    -0.341 N 
ATOM      6  H4  UNL     1       0.333   0.067   0.883  1.00  0.00     0.164 HD
ENDROOT
BRANCH   1   7
HETATM    7  N2  UNL     1       3.860   1.408  -0.584  1.00  0.00    -0.272 N 
ATOM      8  H2  UNL     1       3.784   2.262  -1.137  1.00  0.00     0.189 HD
BRANCH   7   9
HETATM    9  C2  UNL     1       5.113   0.753  -0.437  1.00  0.00     0.186 C 
HETATM   10  S1  UNL     1       6.446   1.390  -1.174  1.00  0.00    -0.040 SA
BRANCH   9  11
HETATM   11  N1  UNL     1       5.262  -0.436   0.325  1.00  0.00    -0.370 N 
HETATM   12  C1  UNL     1       6.596  -1.032   0.415  1.00  0.00     0.148 C 
ATOM     13  H1  UNL     1       4.463  -0.862   0.795  1.00  0.00     0.161 HD
ENDBRANCH   9  11
ENDBRANCH   7   9
ENDBRANCH   1   7
BRANCH   5  14
HETATM   14  C4  UNL     1      -1.009   1.054  -0.454  1.00  0.00     0.129 C 
BRANCH  14  15
HETATM   15  C5  UNL     1      -2.126   0.374   0.319  1.00  0.00     0.008 C 
HETATM   16  C6  UNL     1      -1.963  -1.153   0.231  1.00  0.00     0.011 C 
HETATM   17  C7  UNL     1      -3.351  -1.574  -0.127  1.00  0.00    -0.014 C 
HETATM   18  C8  UNL     1      -4.266  -1.160   0.995  1.00  0.00     0.005 C 
HETATM   19  C11 UNL     1      -3.695  -0.497  -1.165  1.00  0.00     0.010 C 
HETATM   20  C9  UNL     1      -4.498   0.328   0.845  1.00  0.00     0.005 C 
HETATM   21  C10 UNL     1      -3.488   0.688  -0.206  1.00  0.00    -0.009 C 
ENDBRANCH  14  15
ENDBRANCH   5  14
TORSDOF 5
