REMARK  7 active torsions:
REMARK  status: ('A' for Active; 'I' for Inactive)
REMARK    1  A    between atoms: C3_3  and  C6_6 
REMARK    2  A    between atoms: C7_7  and  C8_8 
REMARK    3  A    between atoms: C8_8  and  N1_9 
REMARK    4  A    between atoms: N1_9  and  C9_11 
REMARK    5  A    between atoms: C9_11  and  N2_13 
REMARK    6  A    between atoms: N2_13  and  N3_15 
REMARK    7  A    between atoms: N3_15  and  C10_17 
ROOT
HETATM    1  C1  UNL     1      -2.409   2.887   0.324  1.00  0.00     0.098 C 
HETATM    2  C2  UNL     1      -2.727   1.712   0.418  1.00  0.00    -0.165 C 
HETATM    3  C3  UNL     1      -3.129   0.307   0.511  1.00  0.00     0.067 C 
HETATM    4  C4  UNL     1      -4.387   0.097  -0.328  1.00  0.00     0.042 C 
HETATM    5  C5  UNL     1      -3.369  -0.101   1.951  1.00  0.00     0.042 C 
ENDROOT
BRANCH   3   6
HETATM    6  C6  UNL     1      -2.058  -0.502  -0.096  1.00  0.00    -0.084 C 
HETATM    7  C7  UNL     1      -1.184  -1.182  -0.617  1.00  0.00    -0.085 C 
BRANCH   7   8
HETATM    8  C8  UNL     1      -0.161  -2.006  -1.259  1.00  0.00     0.216 C 
BRANCH   8   9
HETATM    9  N1  UNL     1       0.947  -1.195  -1.650  1.00  0.00    -0.356 N 
ATOM     10  H1  UNL     1       1.106  -1.062  -2.649  1.00  0.00     0.162 HD
BRANCH   9  11
HETATM   11  C9  UNL     1       1.842  -0.561  -0.755  1.00  0.00     0.187 C 
HETATM   12  S1  UNL     1       1.582  -0.779   0.841  1.00  0.00    -0.040 SA
BRANCH  11  13
HETATM   13  N2  UNL     1       2.906   0.220  -1.255  1.00  0.00    -0.274 N 
ATOM     14  H2  UNL     1       3.039   0.335  -2.260  1.00  0.00     0.189 HD
BRANCH  13  15
HETATM   15  N3  UNL     1       3.770   0.831  -0.350  1.00  0.00    -0.276 N 
ATOM     16  H3  UNL     1       3.670   1.825  -0.145  1.00  0.00     0.189 HD
BRANCH  15  17
HETATM   17  C10 UNL     1       4.785   0.079   0.286  1.00  0.00     0.199 C 
HETATM   18  N4  UNL     1       5.663   0.705   1.207  1.00  0.00    -0.068 NA
HETATM   19  S2  UNL     1       4.963  -1.505  -0.028  1.00  0.00    -0.043 SA
ENDBRANCH  15  17
ENDBRANCH  13  15
ENDBRANCH  11  13
ENDBRANCH   9  11
ENDBRANCH   8   9
ENDBRANCH   7   8
ENDBRANCH   3   6
TORSDOF 7
