REMARK  3 active torsions:
REMARK  status: ('A' for Active; 'I' for Inactive)
REMARK    1  A    between atoms: C2_2  and  C3_3 
REMARK    2  A    between atoms: N1_4  and  C4_5 
REMARK    3  A    between atoms: C6_9  and  N3_10 
REMARK       I    between atoms: N3_10  and  C7_12 
ROOT
HETATM    1  C3  UNL     1      -1.205   0.209   0.744  1.00  0.00     0.119 C 
HETATM    2  N1  UNL     1      -1.060   1.550   0.211  1.00  0.00    -0.350 N 
HETATM    3  C5  UNL     1       0.360   1.825   0.155  1.00  0.00     0.151 C 
HETATM    4  C6  UNL     1       1.065   0.473   0.418  1.00  0.00     0.112 C 
HETATM    5  C8  UNL     1      -0.044  -0.476   0.059  1.00  0.00     0.006 C 
HETATM    6  C9  UNL     1       0.109  -1.917   0.299  1.00  0.00     0.014 C 
HETATM    7  C10 UNL     1      -0.307  -2.167  -1.156  1.00  0.00     0.002 C 
HETATM    8  C11 UNL     1      -0.210  -0.680  -1.421  1.00  0.00     0.014 C 
ENDROOT
BRANCH   4   9
HETATM    9  N3  UNL     1       2.259   0.369  -0.331  1.00  0.00    -0.358 N 
HETATM   10  C7  UNL     1       3.139  -0.720  -0.190  1.00  0.00     0.182 C 
HETATM   11  N4  UNL     1       3.413  -1.441  -1.250  1.00  0.00    -0.374 N 
HETATM   12  N5  UNL     1       3.763  -1.074   1.056  1.00  0.00    -0.064 NA
ATOM     13  H42 UNL     1       2.970  -1.190  -2.134  1.00  0.00     0.158 HD
ATOM     14  H41 UNL     1       4.051  -2.230  -1.148  1.00  0.00     0.158 HD
ATOM     15  H3  UNL     1       2.490   1.107  -0.995  1.00  0.00     0.162 HD
ENDBRANCH   4   9
BRANCH   2  16
HETATM   16  C4  UNL     1      -2.061   2.454  -0.192  1.00  0.00     0.183 C 
HETATM   17  N2  UNL     1      -1.757   3.735  -0.695  1.00  0.00    -0.070 NA
HETATM   18  S1  UNL     1      -3.669   2.075  -0.102  1.00  0.00    -0.044 SA
ENDBRANCH   2  16
BRANCH   1  19
HETATM   19  C2  UNL     1      -2.498  -0.401   0.502  1.00  0.00    -0.011 C 
HETATM   20  C1  UNL     1      -3.227  -0.835   1.513  1.00  0.00     0.009 C 
ENDBRANCH   1  19
TORSDOF 3
