REMARK  4 active torsions:
REMARK  status: ('A' for Active; 'I' for Inactive)
REMARK       I    between atoms: C1_4  and  N3_6 
REMARK    1  A    between atoms: C4_9  and  N4_10 
REMARK       I    between atoms: N4_10  and  C5_12 
REMARK    2  A    between atoms: C5_12  and  C6_14 
REMARK    3  A    between atoms: C15_23  and  C16_24 
REMARK    4  A    between atoms: C16_24  and  N5_25 
ROOT
HETATM    1  C6  UNL     1      -1.224   0.243   0.268  1.00  0.00     0.083 C 
HETATM    2  C7  UNL     1      -0.966   1.678  -0.210  1.00  0.00     0.014 C 
HETATM    3  C8  UNL     1      -1.536   2.713   0.668  1.00  0.00     0.001 C 
HETATM    4  C9  UNL     1      -2.999   2.590   0.996  1.00  0.00     0.000 C 
HETATM    5  C10 UNL     1      -3.858   2.278  -0.164  1.00  0.00     0.000 C 
HETATM    6  C11 UNL     1      -4.893   1.251  -0.029  1.00  0.00     0.000 C 
HETATM    7  C12 UNL     1      -4.690   0.058   0.781  1.00  0.00     0.000 C 
HETATM    8  C13 UNL     1      -3.853  -1.051   0.283  1.00  0.00     0.000 C 
HETATM    9  C14 UNL     1      -3.124  -0.879  -0.987  1.00  0.00     0.007 C 
HETATM   10  C15 UNL     1      -1.622  -0.657  -0.840  1.00  0.00     0.024 C 
ENDROOT
BRANCH   1  11
HETATM   11  C5  UNL     1      -0.065  -0.247   1.070  1.00  0.00     0.222 C 
HETATM   12  N4  UNL     1       1.253  -0.291   0.557  1.00  0.00    -0.356 N 
ATOM     13  H4  UNL     1       1.405   0.029  -0.399  1.00  0.00     0.162 HD
HETATM   14  O1  UNL     1      -0.175  -0.656   2.255  1.00  0.00    -0.273 OA
BRANCH  12  15
HETATM   15  C4  UNL     1       2.379  -0.754   1.293  1.00  0.00     0.087 C 
HETATM   16  C3  UNL     1       3.429   0.298   1.530  1.00  0.00     0.045 C 
HETATM   17  C2  UNL     1       4.105   0.721   0.263  1.00  0.00     0.127 C 
HETATM   18  N3  UNL     1       4.360  -0.376  -0.638  1.00  0.00    -0.356 N 
HETATM   19  C1  UNL     1       5.330  -0.146  -1.670  1.00  0.00     0.183 C 
HETATM   20  C18 UNL     1       3.733  -1.655  -0.586  1.00  0.00     0.127 C 
HETATM   21  N1  UNL     1       5.448  -0.964  -2.683  1.00  0.00    -0.374 N 
HETATM   22  N2  UNL     1       6.208   0.962  -1.660  1.00  0.00    -0.064 NA
ATOM     23  H12 UNL     1       6.138  -0.800  -3.417  1.00  0.00     0.158 HD
ATOM     24  H11 UNL     1       4.815  -1.763  -2.690  1.00  0.00     0.158 HD
HETATM   25  C17 UNL     1       3.043  -1.965   0.699  1.00  0.00     0.045 C 
ENDBRANCH  12  15
ENDBRANCH   1  11
BRANCH  10  26
HETATM   26  C16 UNL     1      -0.886  -1.973  -0.889  1.00  0.00     0.235 C 
BRANCH  26  27
HETATM   27  N5  UNL     1      -1.053  -2.774   0.293  1.00  0.00    -0.079 N 
ATOM     28  H53 UNL     1      -0.791  -2.246   1.125  1.00  0.00     0.274 HD
ATOM     29  H52 UNL     1      -2.043  -2.923   0.490  1.00  0.00     0.274 HD
ATOM     30  H51 UNL     1      -0.555  -3.664   0.260  1.00  0.00     0.274 HD
ENDBRANCH  26  27
ENDBRANCH  10  26
TORSDOF 4
