REMARK  3 active torsions:
REMARK  status: ('A' for Active; 'I' for Inactive)
REMARK    1  A    between atoms: C5_5  and  N1_6 
REMARK       I    between atoms: N1_6  and  C6_8 
REMARK       I    between atoms: C6_8  and  N3_12 
REMARK    2  A    between atoms: C9_15  and  N4_16 
REMARK       I    between atoms: N4_16  and  C10_18 
REMARK       I    between atoms: C10_18  and  N5_20 
REMARK    3  A    between atoms: N5_20  and  C11_22 
ROOT
HETATM    1  N1  UNL     1       2.608  -1.131   0.086  1.00  0.00    -0.222 N 
ATOM      2  H1  UNL     1       2.244  -1.906  -0.469  1.00  0.00     0.178 HD
HETATM    3  C6  UNL     1       1.783  -0.478   1.039  1.00  0.00     0.670 C 
HETATM    4  N2  UNL     1       2.357  -0.027   2.106  1.00  0.00    -0.235 N 
ATOM      5  H21 UNL     1       1.764   0.442   2.791  1.00  0.00     0.174 HD
ATOM      6  H22 UNL     1       3.360  -0.136   2.257  1.00  0.00     0.174 HD
HETATM    7  N3  UNL     1       0.368  -0.324   0.826  1.00  0.00    -0.218 N 
HETATM    8  C7  UNL     1      -0.309   0.649   1.610  1.00  0.00     0.143 C 
HETATM    9  C8  UNL     1      -1.747   0.816   1.376  1.00  0.00     0.045 C 
HETATM   10  C9  UNL     1      -2.352   0.047   0.263  1.00  0.00     0.089 C 
HETATM   11  C14 UNL     1      -1.730  -1.301   0.018  1.00  0.00     0.045 C 
HETATM   12  C15 UNL     1      -0.238  -1.179  -0.171  1.00  0.00     0.143 C 
ENDROOT
BRANCH   1  13
HETATM   13  C5  UNL     1       3.955  -0.689  -0.086  1.00  0.00     0.099 C 
HETATM   14  C4  UNL     1       4.059   0.764  -0.520  1.00  0.00     0.026 C 
HETATM   15  C3  UNL     1       5.499   1.178  -0.316  1.00  0.00     0.006 C 
HETATM   16  C2  UNL     1       6.417   0.020  -0.074  1.00  0.00    -0.019 C 
HETATM   17  C1  UNL     1       7.844   0.511  -0.358  1.00  0.00     0.010 C 
HETATM   18  C17 UNL     1       6.174  -1.150  -0.971  1.00  0.00     0.006 C 
HETATM   19  C16 UNL     1       4.708  -1.495  -1.122  1.00  0.00     0.026 C 
ENDBRANCH   1  13
BRANCH  10  20
HETATM   20  N4  UNL     1      -3.756  -0.182   0.564  1.00  0.00    -0.338 N 
HETATM   21  C10 UNL     1      -4.803   0.292  -0.254  1.00  0.00     0.316 C 
HETATM   22  O1  UNL     1      -4.568   0.947  -1.301  1.00  0.00    -0.247 OA
HETATM   23  N5  UNL     1      -6.150   0.025   0.112  1.00  0.00    -0.339 N 
ATOM     24  H5  UNL     1      -6.349  -0.505   0.960  1.00  0.00     0.164 HD
ATOM     25  H4  UNL     1      -3.995  -0.709   1.404  1.00  0.00     0.164 HD
BRANCH  23  26
HETATM   26  C11 UNL     1      -7.233   0.497  -0.705  1.00  0.00     0.078 C 
HETATM   27  C12 UNL     1      -8.166   1.346   0.108  1.00  0.00     0.032 C 
HETATM   28  C13 UNL     1      -7.987  -0.735  -1.208  1.00  0.00     0.032 C 
ENDBRANCH  23  26
ENDBRANCH  10  20
TORSDOF 3
