REMARK  20 active torsions:
REMARK  status: ('A' for Active; 'I' for Inactive)
REMARK    1  A    between atoms: C2_5  and  C3_6 
REMARK    2  A    between atoms: N4_14  and  C10_15 
REMARK    3  A    between atoms: C10_15  and  C11_16 
REMARK    4  A    between atoms: C11_16  and  C12_17 
REMARK    5  A    between atoms: C12_17  and  C13_18 
REMARK    6  A    between atoms: C13_18  and  N5_19 
REMARK    7  A    between atoms: C16_22  and  C17_23 
REMARK       I    between atoms: C17_23  and  N6_25 
REMARK    8  A    between atoms: N6_25  and  C18_27 
REMARK    9  A    between atoms: C18_27  and  C19_28 
REMARK   10  A    between atoms: C19_28  and  C20_29 
REMARK   11  A    between atoms: C20_29  and  N7_30 
REMARK   12  A    between atoms: N7_30  and  C21_33 
REMARK   13  A    between atoms: C21_33  and  C22_34 
REMARK   14  A    between atoms: C22_34  and  C23_35 
REMARK   15  A    between atoms: C23_35  and  N8_36 
REMARK   16  A    between atoms: C25_41  and  N11_42 
REMARK   17  A    between atoms: N11_42  and  C26_44 
REMARK   18  A    between atoms: C26_44  and  C27_45 
REMARK   19  A    between atoms: C27_45  and  N12_46 
REMARK   20  A    between atoms: N12_46  and  C28_48 
ROOT
HETATM    1  N5  UNL     1      -0.854   0.695  -1.119  1.00  0.00    -0.302 N 
HETATM    2  C14 UNL     1      -0.356   0.112  -0.024  1.00  0.00     0.111 A 
HETATM    3  C15 UNL     1       0.658   0.686   0.694  1.00  0.00     0.039 A 
HETATM    4  C16 UNL     1       1.229   1.922   0.315  1.00  0.00     0.078 A 
HETATM    5  C25 UNL     1       0.681   2.469  -0.809  1.00  0.00     0.132 A 
HETATM    6  N14 UNL     1      -0.336   1.836  -1.480  1.00  0.00    -0.283 N 
ATOM      7  H14 UNL     1      -0.710   2.287  -2.315  1.00  0.00     0.189 HD
ENDROOT
BRANCH   1   8
HETATM    8  C13 UNL     1      -1.945   0.075  -1.889  1.00  0.00     0.148 C 
BRANCH   8   9
HETATM    9  C12 UNL     1      -3.265   0.528  -1.369  1.00  0.00     0.023 C 
BRANCH   9  10
HETATM   10  C11 UNL     1      -4.472   0.041  -2.046  1.00  0.00     0.024 C 
BRANCH  10  11
HETATM   11  C10 UNL     1      -4.822  -1.386  -2.074  1.00  0.00     0.152 C 
BRANCH  11  12
HETATM   12  N4  UNL     1      -5.098  -2.004  -0.794  1.00  0.00    -0.261 N 
HETATM   13  N1  UNL     1      -4.374  -2.754   0.000  1.00  0.00    -0.235 N 
HETATM   14  C1  UNL     1      -3.008  -3.194  -0.160  1.00  0.00     0.200 C 
HETATM   15  N2  UNL     1      -5.094  -3.131   1.054  1.00  0.00    -0.280 N 
HETATM   16  C2  UNL     1      -6.337  -2.624   0.972  1.00  0.00     0.102 A 
ATOM     17  H2  UNL     1      -4.752  -3.719   1.814  1.00  0.00     0.189 HD
HETATM   18  C9  UNL     1      -6.347  -1.915  -0.188  1.00  0.00     0.163 A 
HETATM   19  N3  UNL     1      -7.411  -1.186  -0.743  1.00  0.00    -0.079 NA
BRANCH  16  20
HETATM   20  C3  UNL     1      -7.390  -2.842   1.954  1.00  0.00    -0.005 A 
HETATM   21  C4  UNL     1      -8.630  -2.296   1.893  1.00  0.00     0.014 A 
HETATM   22  C5  UNL     1      -9.611  -2.543   2.857  1.00  0.00     0.001 A 
HETATM   23  C6  UNL     1      -9.347  -3.363   3.919  1.00  0.00     0.000 A 
HETATM   24  C7  UNL     1      -8.094  -3.928   3.999  1.00  0.00     0.001 A 
HETATM   25  C8  UNL     1      -7.147  -3.676   3.049  1.00  0.00     0.014 A 
ENDBRANCH  16  20
ENDBRANCH  11  12
ENDBRANCH  10  11
ENDBRANCH   9  10
ENDBRANCH   8   9
ENDBRANCH   1   8
BRANCH   5  26
HETATM   26  N11 UNL     1       1.090   3.603  -1.258  1.00  0.00    -0.373 N 
ATOM     27  H11 UNL     1       1.835   4.062  -0.734  1.00  0.00     0.161 HD
BRANCH  26  28
HETATM   28  C26 UNL     1       0.607   4.284  -2.415  1.00  0.00     0.141 C 
BRANCH  28  29
HETATM   29  C27 UNL     1       1.272   3.784  -3.685  1.00  0.00     0.140 C 
BRANCH  29  30
HETATM   30  N12 UNL     1       0.797   4.454  -4.869  1.00  0.00    -0.385 N 
ATOM     31  H12 UNL     1       0.244   3.942  -5.556  1.00  0.00     0.160 HD
BRANCH  30  32
HETATM   32  C28 UNL     1       1.094   5.813  -5.079  1.00  0.00     0.168 C 
HETATM   33  N13 UNL     1       0.325   6.787  -4.666  1.00  0.00    -0.396 N 
ATOM     34 2H13 UNL     1      -0.528   6.531  -4.169  1.00  0.00     0.156 HD
ATOM     35 1H13 UNL     1       0.540   7.772  -4.818  1.00  0.00     0.156 HD
ENDBRANCH  30  32
ENDBRANCH  29  30
ENDBRANCH  28  29
ENDBRANCH  26  28
ENDBRANCH   5  26
BRANCH   4  36
HETATM   36  C17 UNL     1       2.302   2.478   1.084  1.00  0.00     0.255 C 
HETATM   37  O1  UNL     1       2.465   1.967   2.258  1.00  0.00    -0.268 OA
HETATM   38  N6  UNL     1       3.165   3.490   0.697  1.00  0.00    -0.357 N 
ATOM     39  H6  UNL     1       3.042   3.902  -0.228  1.00  0.00     0.162 HD
BRANCH  38  40
HETATM   40  C18 UNL     1       4.250   4.003   1.550  1.00  0.00     0.124 C 
BRANCH  40  41
HETATM   41  C19 UNL     1       5.238   2.897   1.789  1.00  0.00     0.047 C 
BRANCH  41  42
HETATM   42  C20 UNL     1       5.819   2.395   0.476  1.00  0.00     0.234 C 
BRANCH  42  43
HETATM   43  N7  UNL     1       6.769   1.363   0.720  1.00  0.00    -0.075 N 
ATOM     44  H72 UNL     1       7.320   1.183  -0.119  1.00  0.00     0.277 HD
ATOM     45  H71 UNL     1       7.504   1.697   1.344  1.00  0.00     0.277 HD
BRANCH  43  46
HETATM   46  C21 UNL     1       6.210   0.147   1.218  1.00  0.00     0.234 C 
BRANCH  46  47
HETATM   47  C22 UNL     1       7.287  -0.911   1.433  1.00  0.00     0.047 C 
BRANCH  47  48
HETATM   48  C23 UNL     1       6.725  -2.196   1.958  1.00  0.00     0.123 C 
BRANCH  48  49
HETATM   49  N8  UNL     1       7.724  -3.201   2.166  1.00  0.00    -0.367 N 
HETATM   50  C24 UNL     1       7.793  -4.233   1.404  1.00  0.00     0.196 C 
HETATM   51  N9  UNL     1       6.839  -4.340   0.343  1.00  0.00    -0.067 NA
HETATM   52  N10 UNL     1       8.790  -5.228   1.612  1.00  0.00    -0.067 NA
ATOM     53  H8  UNL     1       8.391  -3.096   2.931  1.00  0.00     0.161 HD
ENDBRANCH  48  49
ENDBRANCH  47  48
ENDBRANCH  46  47
ENDBRANCH  43  46
ENDBRANCH  42  43
ENDBRANCH  41  42
ENDBRANCH  40  41
ENDBRANCH  38  40
ENDBRANCH   4  36
TORSDOF 20
