REMARK  20 active torsions:
REMARK  status: ('A' for Active; 'I' for Inactive)
REMARK    1  A    between atoms: N1_1  and  C1_5 
REMARK    2  A    between atoms: C1_5  and  C2_6 
REMARK    3  A    between atoms: C2_6  and  C3_7 
REMARK    4  A    between atoms: C3_7  and  C4_8 
REMARK    5  A    between atoms: C4_8  and  N2_9 
REMARK    6  A    between atoms: C7_14  and  C8_15 
REMARK    7  A    between atoms: C8_15  and  C9_16 
REMARK    8  A    between atoms: C9_16  and  C10_17 
REMARK    9  A    between atoms: C9_16  and  N4_19 
REMARK       I    between atoms: N4_19  and  C11_21 
REMARK   10  A    between atoms: C11_21  and  C12_23 
REMARK       I    between atoms: C12_23  and  N5_25 
REMARK   11  A    between atoms: N5_25  and  C13_27 
REMARK   12  A    between atoms: C13_27  and  C14_28 
REMARK   13  A    between atoms: C14_28  and  N6_29 
REMARK   14  A    between atoms: C14_28  and  C16_33 
REMARK   15  A    between atoms: N6_29  and  C15_31 
REMARK       I    between atoms: C16_33  and  N7_35 
REMARK   16  A    between atoms: N7_35  and  C17_37 
REMARK   17  A    between atoms: C17_37  and  C18_38 
REMARK       I    between atoms: C18_38  and  N8_40 
REMARK   18  A    between atoms: N8_40  and  C19_42 
REMARK   19  A    between atoms: C19_42  and  C20_43 
REMARK   20  A    between atoms: C20_43  and  C21_44 
ROOT
HETATM    1  C13 UNL     1       0.370   2.086  -2.264  1.00  0.00     0.158 C 
ENDROOT
BRANCH   1   2
HETATM    2  N5  UNL     1      -0.668   1.251  -1.713  1.00  0.00    -0.350 N 
HETATM    3  C12 UNL     1      -1.649   0.731  -2.579  1.00  0.00     0.309 C 
HETATM    4  O3  UNL     1      -1.619   0.993  -3.818  1.00  0.00    -0.262 OA
ATOM      5  H5  UNL     1      -0.691   1.041  -0.715  1.00  0.00     0.162 HD
BRANCH   3   6
HETATM    6  C11 UNL     1      -2.717  -0.127  -2.020  1.00  0.00     0.309 C 
HETATM    7  N4  UNL     1      -3.672  -0.635  -2.896  1.00  0.00    -0.342 N 
ATOM      8  H4  UNL     1      -3.526  -0.370  -3.870  1.00  0.00     0.163 HD
HETATM    9  O2  UNL     1      -2.667  -0.326  -0.789  1.00  0.00    -0.262 OA
BRANCH   7  10
HETATM   10  C9  UNL     1      -4.827  -1.465  -2.682  1.00  0.00     0.152 C 
BRANCH  10  11
HETATM   11  C8  UNL     1      -5.218  -1.539  -1.216  1.00  0.00     0.091 C 
BRANCH  11  12
HETATM   12  C7  UNL     1      -5.676  -0.236  -0.703  1.00  0.00     0.032 A 
HETATM   13  N2  UNL     1      -5.993  -0.007   0.587  1.00  0.00    -0.297 N 
HETATM   14  N3  UNL     1      -6.387   1.251   0.697  1.00  0.00    -0.310 N 
HETATM   15  C5  UNL     1      -6.335   1.859  -0.505  1.00  0.00     0.109 A 
ATOM     16  H3  UNL     1      -6.686   1.696   1.565  1.00  0.00     0.186 HD
HETATM   17  C6  UNL     1      -5.887   0.944  -1.424  1.00  0.00     0.045 A 
BRANCH  13  18
HETATM   18  C4  UNL     1      -5.909  -1.005   1.663  1.00  0.00     0.149 C 
BRANCH  18  19
HETATM   19  C3  UNL     1      -7.197  -1.753   1.786  1.00  0.00     0.023 C 
BRANCH  19  20
HETATM   20  C2  UNL     1      -8.396  -0.932   2.113  1.00  0.00     0.029 C 
BRANCH  20  21
HETATM   21  C1  UNL     1      -8.314  -0.201   3.422  1.00  0.00     0.229 C 
BRANCH  21  22
HETATM   22  N1  UNL     1      -9.539   0.556   3.609  1.00  0.00    -0.079 N 
ATOM     23  H13 UNL     1      -9.737   1.179   2.826  1.00  0.00     0.274 HD
ATOM     24  H12 UNL     1     -10.373  -0.027   3.539  1.00  0.00     0.274 HD
ATOM     25  H11 UNL     1      -9.483   1.053   4.498  1.00  0.00     0.274 HD
ENDBRANCH  21  22
ENDBRANCH  20  21
ENDBRANCH  19  20
ENDBRANCH  18  19
ENDBRANCH  13  18
ENDBRANCH  11  12
ENDBRANCH  10  11
BRANCH  10  26
HETATM   26  C10 UNL     1      -4.448  -2.821  -3.134  1.00  0.00     0.256 C 
HETATM   27  O1  UNL     1      -3.353  -3.100  -3.584  1.00  0.00    -0.305 OA
ENDBRANCH  10  26
ENDBRANCH   7  10
ENDBRANCH   3   6
ENDBRANCH   1   2
BRANCH   1  28
HETATM   28  C14 UNL     1       1.361   2.581  -1.267  1.00  0.00     0.193 C 
BRANCH  28  29
HETATM   29  N6  UNL     1       0.827   3.377  -0.207  1.00  0.00    -0.353 N 
ATOM     30  H6  UNL     1       0.087   2.979   0.371  1.00  0.00     0.162 HD
BRANCH  29  31
HETATM   31  C15 UNL     1       1.273   4.694   0.084  1.00  0.00     0.349 C 
HETATM   32  O4  UNL     1       2.170   5.233  -0.584  1.00  0.00    -0.284 OA
ENDBRANCH  29  31
ENDBRANCH  28  29
BRANCH  28  33
HETATM   33  C16 UNL     1       2.089   1.395  -0.702  1.00  0.00     0.242 C 
HETATM   34  O5  UNL     1       2.150   1.274   0.559  1.00  0.00    -0.271 OA
HETATM   35  N7  UNL     1       2.707   0.416  -1.523  1.00  0.00    -0.350 N 
ATOM     36  H7  UNL     1       2.650   0.507  -2.537  1.00  0.00     0.163 HD
BRANCH  35  37
HETATM   37  C17 UNL     1       3.399  -0.682  -0.966  1.00  0.00     0.225 C 
BRANCH  37  38
HETATM   38  C18 UNL     1       4.649  -0.370  -0.200  1.00  0.00     0.238 C 
HETATM   39  O6  UNL     1       5.138  -1.421   0.350  1.00  0.00    -0.271 OA
HETATM   40  N8  UNL     1       5.179   0.906  -0.125  1.00  0.00    -0.339 N 
ATOM     41  H8  UNL     1       4.629   1.598  -0.634  1.00  0.00     0.167 HD
BRANCH  40  42
HETATM   42  C19 UNL     1       6.312   1.454   0.501  1.00  0.00     0.068 C 
BRANCH  42  43
HETATM   43  C20 UNL     1       7.658   1.111   0.032  1.00  0.00     0.085 C 
BRANCH  43  44
HETATM   44  C21 UNL     1       8.095  -0.267   0.132  1.00  0.00    -0.025 A 
HETATM   45  C22 UNL     1       8.305  -1.187  -0.907  1.00  0.00     0.096 A 
HETATM   46  N9  UNL     1       8.772  -2.315  -0.371  1.00  0.00    -0.365 N 
HETATM   47  C23 UNL     1       8.887  -2.207   0.961  1.00  0.00     0.042 A 
ATOM     48  H9  UNL     1       9.011  -3.151  -0.904  1.00  0.00     0.165 HD
HETATM   49  C24 UNL     1       9.329  -3.125   1.917  1.00  0.00     0.030 A 
HETATM   50  C28 UNL     1       8.474  -0.953   1.288  1.00  0.00    -0.002 A 
HETATM   51  C25 UNL     1       9.345  -2.739   3.239  1.00  0.00     0.002 A 
HETATM   52  C26 UNL     1       8.927  -1.467   3.574  1.00  0.00     0.001 A 
HETATM   53  C27 UNL     1       8.495  -0.576   2.625  1.00  0.00     0.014 A 
ENDBRANCH  43  44
ENDBRANCH  42  43
ENDBRANCH  40  42
ENDBRANCH  37  38
ENDBRANCH  35  37
ENDBRANCH  28  33
ENDBRANCH   1  28
TORSDOF 20
