REMARK  21 active torsions:
REMARK  status: ('A' for Active; 'I' for Inactive)
REMARK       I    between atoms: C2_4  and  N2_5 
REMARK       I    between atoms: C2_4  and  N8_45 
REMARK    1  A    between atoms: N2_5  and  C3_7 
REMARK    2  A    between atoms: C3_7  and  C4_8 
REMARK    3  A    between atoms: C4_8  and  C5_9 
REMARK    4  A    between atoms: C5_9  and  C6_10 
REMARK    5  A    between atoms: C6_10  and  C7_11 
REMARK    6  A    between atoms: C7_11  and  C8_12 
REMARK       I    between atoms: C8_12  and  N3_14 
REMARK    7  A    between atoms: N3_14  and  C9_15 
REMARK    8  A    between atoms: C9_15  and  C10_16 
REMARK       I    between atoms: C10_16  and  N4_18 
REMARK    9  A    between atoms: N4_18  and  C11_20 
REMARK   10  A    between atoms: C12_21  and  O3_22 
REMARK   11  A    between atoms: C12_21  and  N5_24 
REMARK   12  A    between atoms: N5_24  and  C13_26 
REMARK   13  A    between atoms: C13_26  and  C14_27 
REMARK   14  A    between atoms: C14_27  and  C15_28 
REMARK   15  A    between atoms: C15_28  and  C16_29 
REMARK       I    between atoms: C16_29  and  N6_31 
REMARK   16  A    between atoms: N6_31  and  C17_33 
REMARK   17  A    between atoms: C17_33  and  C18_34 
REMARK       I    between atoms: C18_34  and  N7_36 
REMARK   18  A    between atoms: N7_36  and  C19_38 
REMARK   19  A    between atoms: C19_38  and  C20_39 
REMARK   20  A    between atoms: N8_45  and  C26_47 
REMARK   21  A    between atoms: C26_47  and  C27_48 
ROOT
HETATM    1  C27 UNL     1     -11.924   1.989   0.912  1.00  0.00     0.304 C 
HETATM    2  O6  UNL     1     -12.440   2.684   1.849  1.00  0.00    -0.256 OA
HETATM    3  N9  UNL     1     -12.089   2.102  -0.394  1.00  0.00    -0.419 NA
HETATM    4  C28 UNL     1     -12.285   2.248  -1.790  1.00  0.00     0.263 C 
ENDROOT
BRANCH   1   5
HETATM    5  C26 UNL     1     -10.959   0.927   1.532  1.00  0.00     0.256 C 
BRANCH   5   6
HETATM    6  N8  UNL     1     -10.546   0.101   0.442  1.00  0.00    -0.216 N 
HETATM    7  C2  UNL     1      -9.685  -0.970   0.511  1.00  0.00     0.673 C 
HETATM    8  N1  UNL     1      -9.937  -2.187   0.918  1.00  0.00    -0.231 N 
HETATM    9  N2  UNL     1      -8.340  -0.770  -0.010  1.00  0.00    -0.206 N 
HETATM   10  C1  UNL     1      -8.830  -3.187   0.772  1.00  0.00     0.165 C 
ATOM     11  H1  UNL     1     -10.841  -2.443   1.315  1.00  0.00     0.177 HD
ATOM     12  H2  UNL     1      -7.547  -1.140   0.514  1.00  0.00     0.183 HD
ATOM     13  H8  UNL     1     -10.926   0.327  -0.477  1.00  0.00     0.178 HD
BRANCH   9  14
HETATM   14  C3  UNL     1      -8.101  -0.084  -1.212  1.00  0.00     0.079 C 
BRANCH  14  15
HETATM   15  C4  UNL     1      -6.703  -0.147  -1.705  1.00  0.00     0.045 C 
BRANCH  15  16
HETATM   16  C5  UNL     1      -5.594   0.479  -0.937  1.00  0.00     0.006 C 
BRANCH  16  17
HETATM   17  C6  UNL     1      -5.410   0.139   0.487  1.00  0.00     0.011 C 
BRANCH  17  18
HETATM   18  C7  UNL     1      -4.246   0.656   1.187  1.00  0.00     0.119 C 
BRANCH  18  19
HETATM   19  C8  UNL     1      -2.945  -0.119   0.726  1.00  0.00     0.286 C 
HETATM   20  O1  UNL     1      -3.082  -0.705  -0.396  1.00  0.00    -0.258 OA
HETATM   21  N3  UNL     1      -1.905  -0.059   1.579  1.00  0.00    -0.406 NA
BRANCH  21  22
HETATM   22  C9  UNL     1      -0.741  -0.069   2.390  1.00  0.00     0.324 C 
BRANCH  22  23
HETATM   23  C10 UNL     1       0.431   0.493   1.638  1.00  0.00     0.252 C 
HETATM   24  O2  UNL     1       1.413   0.819   2.422  1.00  0.00    -0.270 OA
HETATM   25  N4  UNL     1       0.435   0.642   0.259  1.00  0.00    -0.331 N 
ATOM     26  H4  UNL     1      -0.420   0.275  -0.159  1.00  0.00     0.168 HD
BRANCH  25  27
HETATM   27  C11 UNL     1       1.310   1.168  -0.723  1.00  0.00     0.146 C 
HETATM   28  C12 UNL     1       2.711   0.812  -0.803  1.00  0.00     0.151 C 
BRANCH  28  29
HETATM   29  O3  UNL     1       3.333   1.137  -1.925  1.00  0.00    -0.345 OA
ATOM     30  H3  UNL     1       4.252   0.903  -1.977  1.00  0.00     0.219 HD
ENDBRANCH  28  29
BRANCH  28  31
HETATM   31  N5  UNL     1       3.553   0.182   0.086  1.00  0.00    -0.370 N 
ATOM     32  H5  UNL     1       3.194  -0.084   1.003  1.00  0.00     0.161 HD
BRANCH  31  33
HETATM   33  C13 UNL     1       4.973  -0.124  -0.251  1.00  0.00     0.126 C 
BRANCH  33  34
HETATM   34  C14 UNL     1       4.958  -1.422  -0.971  1.00  0.00     0.052 C 
BRANCH  34  35
HETATM   35  C15 UNL     1       6.191  -2.051  -1.417  1.00  0.00     0.049 C 
BRANCH  35  36
HETATM   36  C16 UNL     1       7.235  -2.517  -0.496  1.00  0.00     0.237 C 
HETATM   37  O4  UNL     1       7.996  -3.433  -0.925  1.00  0.00    -0.269 OA
HETATM   38  N6  UNL     1       7.371  -1.946   0.759  1.00  0.00    -0.349 N 
ATOM     39  H6  UNL     1       6.664  -1.253   1.003  1.00  0.00     0.163 HD
BRANCH  38  40
HETATM   40  C17 UNL     1       8.374  -2.194   1.772  1.00  0.00     0.225 C 
BRANCH  40  41
HETATM   41  C18 UNL     1       9.747  -1.775   1.439  1.00  0.00     0.235 C 
HETATM   42  O5  UNL     1      10.608  -1.837   2.400  1.00  0.00    -0.272 OA
HETATM   43  N7  UNL     1      10.156  -1.357   0.169  1.00  0.00    -0.355 N 
ATOM     44  H7  UNL     1       9.487  -1.324  -0.601  1.00  0.00     0.162 HD
BRANCH  43  45
HETATM   45  C19 UNL     1      11.560  -0.965  -0.050  1.00  0.00     0.161 C 
BRANCH  45  46
HETATM   46  C20 UNL     1      11.650   0.514  -0.189  1.00  0.00    -0.041 A 
HETATM   47  C21 UNL     1      12.454   1.230   0.645  1.00  0.00     0.009 A 
HETATM   48  C22 UNL     1      12.534   2.608   0.431  1.00  0.00     0.001 A 
HETATM   49  C23 UNL     1      11.831   3.220  -0.578  1.00  0.00     0.000 A 
HETATM   50  C24 UNL     1      11.025   2.462  -1.405  1.00  0.00     0.001 A 
HETATM   51  C25 UNL     1      10.926   1.104  -1.225  1.00  0.00     0.009 A 
ENDBRANCH  45  46
ENDBRANCH  43  45
ENDBRANCH  40  41
ENDBRANCH  38  40
ENDBRANCH  35  36
ENDBRANCH  34  35
ENDBRANCH  33  34
ENDBRANCH  31  33
ENDBRANCH  28  31
ENDBRANCH  25  27
ENDBRANCH  22  23
ENDBRANCH  21  22
ENDBRANCH  18  19
ENDBRANCH  17  18
ENDBRANCH  16  17
ENDBRANCH  15  16
ENDBRANCH  14  15
ENDBRANCH   9  14
ENDBRANCH   5   6
ENDBRANCH   1   5
TORSDOF 20
