REMARK  20 active torsions:
REMARK  status: ('A' for Active; 'I' for Inactive)
REMARK    1  A    between atoms: C2_2  and  C3_3 
REMARK    2  A    between atoms: C3_3  and  C4_4 
REMARK    3  A    between atoms: C4_4  and  N1_5 
REMARK    4  A    between atoms: C7_10  and  C8_11 
REMARK    5  A    between atoms: C8_11  and  C9_12 
REMARK    6  A    between atoms: C9_12  and  N3_13 
REMARK       I    between atoms: N3_13  and  C10_14 
REMARK    7  A    between atoms: C10_14  and  C11_16 
REMARK    8  A    between atoms: C14_19  and  C15_20 
REMARK    9  A    between atoms: C15_20  and  C16_21 
REMARK   10  A    between atoms: C16_21  and  C17_22 
REMARK   11  A    between atoms: C17_22  and  N4_23 
REMARK       I    between atoms: N4_23  and  C18_25 
REMARK   12  A    between atoms: C18_25  and  C19_27 
REMARK   13  A    between atoms: C19_27  and  N5_28 
REMARK       I    between atoms: N5_28  and  C20_30 
REMARK   14  A    between atoms: C20_30  and  C21_32 
REMARK   15  A    between atoms: C21_32  and  N6_33 
REMARK       I    between atoms: N6_33  and  C22_35 
REMARK   16  A    between atoms: C22_35  and  C23_37 
REMARK   17  A    between atoms: C23_37  and  N7_38 
REMARK       I    between atoms: N7_38  and  C24_40 
REMARK   18  A    between atoms: C24_40  and  C25_42 
REMARK   19  A    between atoms: C25_42  and  C26_43 
REMARK   20  A    between atoms: C26_43  and  N8_44 
ROOT
HETATM    1  N4  UNL     1       0.621   1.065   0.907  1.00  0.00    -0.360 N 
ATOM      2  H4  UNL     1       0.556   2.083   0.898  1.00  0.00     0.162 HD
HETATM    3  C18 UNL     1       1.849   0.455   1.230  1.00  0.00     0.235 C 
HETATM    4  O2  UNL     1       1.946  -0.795   1.255  1.00  0.00    -0.272 OA
ENDROOT
BRANCH   1   5
HETATM    5  C17 UNL     1      -0.543   0.282   0.590  1.00  0.00     0.123 C 
BRANCH   5   6
HETATM    6  C16 UNL     1      -0.414  -0.574  -0.618  1.00  0.00     0.026 C 
BRANCH   6   7
HETATM    7  C15 UNL     1      -1.655  -1.375  -0.920  1.00  0.00     0.058 C 
BRANCH   7   8
HETATM    8  C14 UNL     1      -2.802  -0.430  -1.145  1.00  0.00     0.009 A 
HETATM    9  C13 UNL     1      -3.148   0.150  -2.343  1.00  0.00     0.027 A 
HETATM   10  C12 UNL     1      -4.257   0.924  -2.108  1.00  0.00     0.038 A 
HETATM   11  C11 UNL     1      -4.603   0.831  -0.779  1.00  0.00     0.116 A 
HETATM   12  N11 UNL     1      -3.693   0.002  -0.241  1.00  0.00    -0.354 N 
ATOM     13  H11 UNL     1      -3.681  -0.268   0.743  1.00  0.00     0.166 HD
BRANCH  11  14
HETATM   14  C10 UNL     1      -5.738   1.502  -0.105  1.00  0.00     0.342 C 
HETATM   15  N3  UNL     1      -6.560   2.305  -0.737  1.00  0.00    -0.382 NA
HETATM   16  O1  UNL     1      -5.852   1.237   1.142  1.00  0.00    -0.249 OA
BRANCH  15  17
HETATM   17  C9  UNL     1      -7.354   2.966  -1.283  1.00  0.00     0.165 C 
BRANCH  17  18
HETATM   18  C8  UNL     1      -8.813   2.625  -1.431  1.00  0.00     0.118 C 
BRANCH  18  19
HETATM   19  C7  UNL     1      -8.975   1.163  -1.729  1.00  0.00     0.033 A 
HETATM   20  N1  UNL     1      -9.256   0.180  -0.849  1.00  0.00    -0.345 N 
HETATM   21  C5  UNL     1      -9.315  -1.001  -1.486  1.00  0.00     0.183 A 
HETATM   22  N2  UNL     1      -9.069  -0.769  -2.788  1.00  0.00    -0.360 N 
HETATM   23  C6  UNL     1      -8.859   0.546  -2.957  1.00  0.00     0.114 A 
ATOM     24  H2  UNL     1      -9.046  -1.475  -3.524  1.00  0.00     0.166 HD
BRANCH  20  25
HETATM   25  C4  UNL     1      -9.464   0.382   0.570  1.00  0.00     0.130 C 
BRANCH  25  26
HETATM   26  C3  UNL     1     -10.889   0.664   0.917  1.00  0.00     0.020 C 
BRANCH  26  27
HETATM   27  C2  UNL     1     -11.863  -0.406   0.554  1.00  0.00    -0.003 C 
HETATM   28  C1  UNL     1     -11.623  -1.730   1.198  1.00  0.00     0.005 C 
ENDBRANCH  26  27
ENDBRANCH  25  26
ENDBRANCH  20  25
ENDBRANCH  18  19
ENDBRANCH  17  18
ENDBRANCH  15  17
ENDBRANCH  11  14
ENDBRANCH   7   8
ENDBRANCH   6   7
ENDBRANCH   5   6
ENDBRANCH   1   5
BRANCH   3  29
HETATM   29  C19 UNL     1       3.011   1.339   1.534  1.00  0.00     0.225 C 
BRANCH  29  30
HETATM   30  N5  UNL     1       4.154   0.525   1.874  1.00  0.00    -0.351 N 
HETATM   31  C20 UNL     1       4.118  -0.289   3.021  1.00  0.00     0.235 C 
HETATM   32  O3  UNL     1       3.059  -0.284   3.740  1.00  0.00    -0.272 OA
ATOM     33  H5  UNL     1       4.986   0.540   1.284  1.00  0.00     0.163 HD
BRANCH  31  34
HETATM   34  C21 UNL     1       5.205  -1.172   3.483  1.00  0.00     0.225 C 
BRANCH  34  35
HETATM   35  N6  UNL     1       6.373  -1.040   2.664  1.00  0.00    -0.351 N 
HETATM   36  C22 UNL     1       7.083   0.170   2.626  1.00  0.00     0.235 C 
HETATM   37  O4  UNL     1       6.720   1.181   3.324  1.00  0.00    -0.272 OA
ATOM     38  H6  UNL     1       6.691  -1.831   2.104  1.00  0.00     0.163 HD
BRANCH  36  39
HETATM   39  C23 UNL     1       8.282   0.392   1.805  1.00  0.00     0.225 C 
BRANCH  39  40
HETATM   40  N7  UNL     1       8.718  -0.717   1.015  1.00  0.00    -0.352 N 
HETATM   41  C24 UNL     1       9.864  -0.586   0.187  1.00  0.00     0.219 C 
HETATM   42  O5  UNL     1      10.463   0.525   0.177  1.00  0.00    -0.274 OA
ATOM     43  H7  UNL     1       8.207  -1.599   1.046  1.00  0.00     0.162 HD
BRANCH  41  44
HETATM   44  C25 UNL     1      10.326  -1.723  -0.628  1.00  0.00     0.122 C 
BRANCH  44  45
HETATM   45  C26 UNL     1      11.536  -1.357  -1.465  1.00  0.00     0.131 C 
BRANCH  45  46
HETATM   46  N8  UNL     1      12.593  -0.939  -0.564  1.00  0.00    -0.366 N 
HETATM   47  C27 UNL     1      13.719  -0.479  -0.987  1.00  0.00     0.196 C 
HETATM   48  N9  UNL     1      14.689  -0.096  -0.028  1.00  0.00    -0.067 NA
HETATM   49  N10 UNL     1      13.967  -0.365  -2.364  1.00  0.00    -0.067 NA
ATOM     50  H8  UNL     1      12.439  -1.012   0.442  1.00  0.00     0.161 HD
ENDBRANCH  45  46
ENDBRANCH  44  45
ENDBRANCH  41  44
ENDBRANCH  39  40
ENDBRANCH  36  39
ENDBRANCH  34  35
ENDBRANCH  31  34
ENDBRANCH  29  30
ENDBRANCH   3  29
TORSDOF 20
