REMARK  2 active torsions:
REMARK  status: ('A' for Active; 'I' for Inactive)
REMARK    1  A    between atoms: C2_2  and  N1_3 
REMARK    2  A    between atoms: C4_8  and  C5_9 
ROOT
HETATM    1  C1  UNL     1      -2.265   0.717  -0.784  1.00  0.00     0.046 C 
HETATM    2  C2  UNL     1      -1.465  -0.046   0.252  1.00  0.00     0.124 A 
HETATM    3  C3  UNL     1      -1.222   0.533   1.596  1.00  0.00     0.046 A 
HETATM    4  C4  UNL     1      -0.132   0.629   0.630  1.00  0.00     0.027 A 
ENDROOT
BRANCH   2   5
HETATM    5  N1  UNL     1      -1.580  -1.443   0.170  1.00  0.00    -0.070 N 
ATOM      6  H13 UNL     1      -2.561  -1.720   0.206  1.00  0.00     0.275 HD
ATOM      7  H12 UNL     1      -1.341  -1.763  -0.768  1.00  0.00     0.275 HD
ATOM      8  H11 UNL     1      -1.041  -1.957   0.867  1.00  0.00     0.275 HD
ENDBRANCH   2   5
BRANCH   4   9
HETATM    9  C5  UNL     1       1.033  -0.302   0.562  1.00  0.00    -0.008 C 
HETATM   10  C6  UNL     1       1.239  -0.856  -0.834  1.00  0.00     0.005 C 
HETATM   11  C7  UNL     1       2.143   0.367  -1.062  1.00  0.00     0.001 C 
HETATM   12  C8  UNL     1       2.396   0.329   0.430  1.00  0.00     0.005 C 
ENDBRANCH   4   9
TORSDOF 2
