REMARK  12 active torsions:
REMARK  status: ('A' for Active; 'I' for Inactive)
REMARK    1  A    between atoms: N1_1  and  C1_4 
REMARK    2  A    between atoms: C2_7  and  N3_8 
REMARK    3  A    between atoms: N5_15  and  C5_16 
REMARK    4  A    between atoms: C6_17  and  O1_18 
REMARK    5  A    between atoms: O1_18  and  C7_19 
REMARK    6  A    between atoms: C7_19  and  C8_20 
REMARK    7  A    between atoms: C7_19  and  C10_29 
REMARK    8  A    between atoms: C10_29  and  N10_30 
REMARK    9  A    between atoms: C10_29  and  N11_34 
REMARK   10  A    between atoms: C11_42  and  C12_43 
REMARK   11  A    between atoms: C12_43  and  O2_44 
REMARK   12  A    between atoms: C13_46  and  O3_47 
ROOT
HETATM    1  C5  UNL     1      -1.140  -0.715  -0.276  1.00  0.00     0.199 C 
HETATM    2  C6  UNL     1       0.329  -0.681  -0.107  1.00  0.00     0.159 C 
HETATM    3  N12 UNL     1       0.991  -1.685  -0.571  1.00  0.00    -0.285 N 
ATOM      4  H12 UNL     1       2.007  -1.739  -0.495  1.00  0.00     0.188 HD
HETATM    5  N13 UNL     1       0.247  -2.691  -1.181  1.00  0.00    -0.325 N 
ATOM      6  H13 UNL     1       0.515  -3.082  -2.084  1.00  0.00     0.180 HD
HETATM    7  C11 UNL     1      -0.928  -3.156  -0.468  1.00  0.00     0.154 C 
HETATM    8  C13 UNL     1      -1.670  -2.031   0.221  1.00  0.00     0.175 C 
ENDROOT
BRANCH   2   9
HETATM    9  O1  UNL     1       1.065   0.295   0.487  1.00  0.00    -0.319 OA
BRANCH   9  10
HETATM   10  C7  UNL     1       2.185   0.935   0.011  1.00  0.00     0.256 C 
BRANCH  10  11
HETATM   11  C8  UNL     1       3.385   0.164  -0.293  1.00  0.00     0.132 A 
HETATM   12  N6  UNL     1       3.671  -0.614  -1.374  1.00  0.00    -0.284 N 
HETATM   13  N7  UNL     1       4.847  -1.157  -1.298  1.00  0.00    -0.272 N 
ATOM     14  H6  UNL     1       3.032  -0.754  -2.156  1.00  0.00     0.188 HD
HETATM   15  C9  UNL     1       5.392  -0.757  -0.152  1.00  0.00     0.208 A 
ATOM     16  H7  UNL     1       5.274  -1.775  -1.988  1.00  0.00     0.189 HD
HETATM   17  N8  UNL     1       6.684  -1.133   0.309  1.00  0.00    -0.062 NA
HETATM   18  N9  UNL     1       4.491   0.057   0.467  1.00  0.00    -0.316 N 
ATOM     19  H9  UNL     1       4.633   0.515   1.367  1.00  0.00     0.170 HD
ENDBRANCH  10  11
BRANCH  10  20
HETATM   20  C10 UNL     1       2.530   1.953   1.109  1.00  0.00     0.414 C 
BRANCH  20  21
HETATM   21  N10 UNL     1       3.686   2.711   0.795  1.00  0.00    -0.047 N 
ATOM     22 3H10 UNL     1       4.481   2.104   0.592  1.00  0.00     0.276 HD
ATOM     23 2H10 UNL     1       3.593   3.166  -0.113  1.00  0.00     0.276 HD
ATOM     24 1H10 UNL     1       3.915   3.387   1.524  1.00  0.00     0.276 HD
ENDBRANCH  20  21
BRANCH  20  25
HETATM   25  N11 UNL     1       2.541   1.265   2.371  1.00  0.00    -0.047 N 
ATOM     26 3H11 UNL     1       1.670   0.767   2.555  1.00  0.00     0.276 HD
ATOM     27 2H11 UNL     1       3.164   0.457   2.373  1.00  0.00     0.276 HD
ATOM     28 1H11 UNL     1       2.770   1.941   3.100  1.00  0.00     0.276 HD
ENDBRANCH  20  25
ENDBRANCH  10  20
ENDBRANCH   9  10
ENDBRANCH   2   9
BRANCH   1  29
HETATM   29  N5  UNL     1      -1.798   0.417   0.336  1.00  0.00    -0.311 N 
HETATM   30  C4  UNL     1      -1.508   0.928   1.541  1.00  0.00     0.186 A 
HETATM   31  N4  UNL     1      -2.343   1.961   1.729  1.00  0.00    -0.346 N 
HETATM   32  C3  UNL     1      -3.157   2.125   0.681  1.00  0.00     0.123 A 
ATOM     33  H4  UNL     1      -2.355   2.546   2.564  1.00  0.00     0.167 HD
HETATM   34  C2  UNL     1      -4.170   3.035   0.409  1.00  0.00     0.145 A 
HETATM   35  C14 UNL     1      -2.801   1.133  -0.204  1.00  0.00     0.155 A 
HETATM   36  N2  UNL     1      -4.799   2.910  -0.768  1.00  0.00    -0.175 N 
HETATM   37  C1  UNL     1      -4.447   1.941  -1.627  1.00  0.00     0.679 A 
ATOM     38  H2  UNL     1      -5.550   3.556  -1.012  1.00  0.00     0.186 HD
HETATM   39  N14 UNL     1      -3.474   1.056  -1.381  1.00  0.00    -0.174 N 
ATOM     40  H14 UNL     1      -3.242   0.336  -2.065  1.00  0.00     0.186 HD
BRANCH  34  41
HETATM   41  N3  UNL     1      -4.493   3.956   1.246  1.00  0.00    -0.383 N 
ATOM     42  H32 UNL     1      -5.237   4.624   1.046  1.00  0.00     0.157 HD
ATOM     43  H31 UNL     1      -4.014   4.051   2.142  1.00  0.00     0.157 HD
ENDBRANCH  34  41
BRANCH  37  44
HETATM   44  N1  UNL     1      -5.080   1.855  -2.753  1.00  0.00    -0.234 N 
ATOM     45  H12 UNL     1      -5.822   2.530  -2.941  1.00  0.00     0.174 HD
ATOM     46  H11 UNL     1      -4.812   1.118  -3.406  1.00  0.00     0.174 HD
ENDBRANCH  37  44
ENDBRANCH   1  29
BRANCH   8  47
HETATM   47  O3  UNL     1      -1.558  -2.054   1.590  1.00  0.00    -0.391 OA
ATOM     48  H3  UNL     1      -1.893  -2.886   1.904  1.00  0.00     0.210 HD
ENDBRANCH   8  47
BRANCH   7  49
HETATM   49  C12 UNL     1      -1.827  -3.941  -1.371  1.00  0.00     0.193 C 
BRANCH  49  50
HETATM   50  O2  UNL     1      -1.130  -5.039  -1.856  1.00  0.00    -0.399 OA
ATOM     51  H2  UNL     1      -1.701  -5.537  -2.429  1.00  0.00     0.209 HD
ENDBRANCH  49  50
ENDBRANCH   7  49
TORSDOF 12
