REMARK  3 active torsions:
REMARK  status: ('A' for Active; 'I' for Inactive)
REMARK       I    between atoms: C2_4  and  N2_5 
REMARK       I    between atoms: C2_4  and  N3_8 
REMARK    1  A    between atoms: N3_8  and  C4_10 
REMARK    2  A    between atoms: C7_13  and  N4_14 
REMARK    3  A    between atoms: C9_18  and  N5_19 
ROOT
HETATM    1  C4  UNL     1       0.439  -0.076  -0.555  1.00  0.00     0.082 A 
HETATM    2  C5  UNL     1       0.746   0.199   0.788  1.00  0.00     0.035 A 
HETATM    3  C6  UNL     1       2.013   0.177   1.283  1.00  0.00     0.038 A 
HETATM    4  C7  UNL     1       3.053  -0.130   0.426  1.00  0.00     0.105 A 
HETATM    5  C8  UNL     1       2.798  -0.401  -0.881  1.00  0.00     0.074 A 
HETATM    6  C9  UNL     1       1.472  -0.371  -1.371  1.00  0.00     0.132 A 
ENDROOT
BRANCH   1   7
HETATM    7  N3  UNL     1      -0.894  -0.061  -0.953  1.00  0.00    -0.190 N 
HETATM    8  C2  UNL     1      -1.959   0.309  -0.058  1.00  0.00     0.673 C 
HETATM    9  N1  UNL     1      -2.755  -0.589   0.340  1.00  0.00    -0.231 N 
HETATM   10  N2  UNL     1      -2.075   1.642   0.339  1.00  0.00    -0.231 N 
HETATM   11  C1  UNL     1      -2.736  -1.979   0.004  1.00  0.00     0.165 C 
ATOM     12  H1  UNL     1      -3.496  -0.288   0.973  1.00  0.00     0.177 HD
HETATM   13  C3  UNL     1      -3.146   2.148   1.192  1.00  0.00     0.165 C 
ATOM     14  H2  UNL     1      -1.369   2.302   0.014  1.00  0.00     0.177 HD
ATOM     15  H3  UNL     1      -1.125  -0.321  -1.912  1.00  0.00     0.184 HD
ENDBRANCH   1   7
BRANCH   6  16
HETATM   16  N5  UNL     1       1.328  -0.666  -2.728  1.00  0.00    -0.113 N 
HETATM   17  O3  UNL     1       2.168  -1.454  -3.262  1.00  0.00    -0.532 OA
HETATM   18  O4  UNL     1       0.339  -0.161  -3.504  1.00  0.00    -0.532 OA
ENDBRANCH   6  16
BRANCH   4  19
HETATM   19  N4  UNL     1       4.386  -0.152   0.955  1.00  0.00    -0.116 N 
HETATM   20  O1  UNL     1       4.614   0.093   2.140  1.00  0.00    -0.532 OA
HETATM   21  O2  UNL     1       5.449  -0.452   0.136  1.00  0.00    -0.532 OA
ENDBRANCH   4  19
TORSDOF 3
