REMARK  6 active torsions:
REMARK  status: ('A' for Active; 'I' for Inactive)
REMARK    1  A    between atoms: C1_2  and  C2_4 
REMARK    2  A    between atoms: C2_4  and  C3_5 
REMARK    3  A    between atoms: C3_5  and  C4_6 
REMARK    4  A    between atoms: C4_6  and  O3_7 
REMARK    5  A    between atoms: O3_7  and  C5_8 
REMARK    6  A    between atoms: C5_8  and  C6_10 
ROOT
HETATM    1  C4  UNL     1       1.327  -0.918   1.179  1.00  0.00     0.188 C 
ENDROOT
BRANCH   1   2
HETATM    2  C3  UNL     1       2.521  -0.302   0.456  1.00  0.00    -0.009 C 
HETATM    3  C12 UNL     1       2.585  -0.660  -0.991  1.00  0.00     0.012 C 
HETATM    4  C13 UNL     1       2.702   0.787  -1.343  1.00  0.00     0.002 C 
HETATM    5  C14 UNL     1       2.328   1.132   0.096  1.00  0.00     0.012 C 
BRANCH   2   6
HETATM    6  C2  UNL     1       3.767  -0.556   1.270  1.00  0.00     0.124 C 
BRANCH   6   7
HETATM    7  C1  UNL     1       4.986  -0.008   0.673  1.00  0.00     0.173 C 
HETATM    8  O1  UNL     1       5.543  -0.627  -0.262  1.00  0.00    -0.648 OA
HETATM    9  O2  UNL     1       5.546   1.183   1.114  1.00  0.00    -0.648 OA
ENDBRANCH   6   7
ENDBRANCH   2   6
ENDBRANCH   1   2
BRANCH   1  10
HETATM   10  O3  UNL     1       0.185  -0.644   0.362  1.00  0.00    -0.320 OA
BRANCH  10  11
HETATM   11  C5  UNL     1      -1.076  -1.060   0.714  1.00  0.00     0.263 C 
HETATM   12  O4  UNL     1      -1.232  -1.693   1.776  1.00  0.00    -0.265 OA
BRANCH  11  13
HETATM   13  C6  UNL     1      -2.237  -0.747  -0.178  1.00  0.00     0.085 C 
HETATM   14  C7  UNL     1      -3.522  -1.266   0.352  1.00  0.00     0.014 C 
HETATM   15  C8  UNL     1      -4.497  -0.258   0.813  1.00  0.00     0.001 C 
HETATM   16  C9  UNL     1      -4.631   0.957  -0.049  1.00  0.00     0.000 C 
HETATM   17  C10 UNL     1      -3.513   1.134  -1.032  1.00  0.00     0.001 C 
HETATM   18  C11 UNL     1      -2.218   0.745  -0.407  1.00  0.00     0.014 C 
ENDBRANCH  11  13
ENDBRANCH  10  11
ENDBRANCH   1  10
TORSDOF 6
