REMARK  1 active torsions:
REMARK  status: ('A' for Active; 'I' for Inactive)
REMARK    1  A    between atoms: C2_2  and  N1_3 
ROOT
HETATM    1  N1  UNL     1       0.075   0.176  -0.032  1.00  0.00     0.011 N 
HETATM    2  C3  UNL     1      -0.876   0.823  -0.952  1.00  0.00     0.268 C 
HETATM    3  C4  UNL     1      -1.901   0.086  -0.141  1.00  0.00     0.058 C 
HETATM    4  C5  UNL     1      -1.501  -1.344  -0.343  1.00  0.00     0.150 C 
HETATM    5  N2  UNL     1      -0.035  -1.185  -0.236  1.00  0.00    -0.046 NA
HETATM    6  C6  UNL     1      -0.942   0.486   0.990  1.00  0.00     0.268 C 
ENDROOT
BRANCH   1   7
HETATM    7  C2  UNL     1       1.329   0.769   0.115  1.00  0.00     0.256 C 
HETATM    8  C1  UNL     1       2.489  -0.196   0.231  1.00  0.00     0.036 C 
ENDBRANCH   1   7
TORSDOF 1
