REMARK  1 active torsions:
REMARK  status: ('A' for Active; 'I' for Inactive)
REMARK    1  A    between atoms: C3_3  and  N1_4 
ROOT
HETATM    1  C1  UNL     1       3.282  -0.299  -0.555  1.00  0.00     0.013 C 
HETATM    2  C2  UNL     1       2.354  -0.393   0.229  1.00  0.00    -0.088 C 
HETATM    3  C3  UNL     1       1.266  -0.488   1.157  1.00  0.00     0.352 C 
ENDROOT
BRANCH   3   4
HETATM    4  N1  UNL     1       0.043  -0.113   0.614  1.00  0.00     0.023 N 
HETATM    5  C4  UNL     1      -0.018   0.831  -0.468  1.00  0.00     0.263 C 
HETATM    6  C5  UNL     1      -1.553   0.934  -0.590  1.00  0.00     0.054 C 
HETATM    7  C6  UNL     1      -1.885  -0.122   0.444  1.00  0.00     0.136 C 
HETATM    8  C7  UNL     1      -0.867  -1.175   0.162  1.00  0.00     0.284 C 
HETATM    9  N2  UNL     1      -0.987   0.239   1.521  1.00  0.00    -0.039 NA
ENDBRANCH   3   4
TORSDOF 1
