REMARK  13 active torsions:
REMARK  status: ('A' for Active; 'I' for Inactive)
REMARK       I    between atoms: N1_2  and  C2_4 
REMARK       I    between atoms: C2_4  and  N10_42 
REMARK    1  A    between atoms: N2_5  and  C3_7 
REMARK    2  A    between atoms: C3_7  and  C5_9 
REMARK    3  A    between atoms: C5_9  and  C6_10 
REMARK    4  A    between atoms: C6_10  and  C7_11 
REMARK    5  A    between atoms: C8_14  and  C9_15 
REMARK    6  A    between atoms: C9_15  and  C10_16 
REMARK    7  A    between atoms: C10_16  and  C11_17 
REMARK    8  A    between atoms: C11_17  and  C12_18 
REMARK       I    between atoms: C12_18  and  N4_20 
REMARK    9  A    between atoms: C18_29  and  C19_30 
REMARK   10  A    between atoms: C19_30  and  C20_31 
REMARK   11  A    between atoms: C20_31  and  C21_32 
REMARK   12  A    between atoms: C21_32  and  N6_33 
REMARK   13  A    between atoms: N10_42  and  C25_44 
ROOT
HETATM    1  C7  UNL     1       0.115   0.209   0.339  1.00  0.00     0.210 C 
HETATM    2  N3  UNL     1      -0.920  -0.903   0.331  1.00  0.00    -0.364 N 
ATOM      3  H3  UNL     1      -0.599  -1.842   0.566  1.00  0.00     0.162 HD
HETATM    4  C8  UNL     1      -2.201  -0.755   0.045  1.00  0.00     0.075 C 
HETATM    5  C17 UNL     1      -3.082   0.332  -0.332  1.00  0.00     0.264 C 
HETATM    6  O2  UNL     1      -4.255  -0.012  -0.666  1.00  0.00    -0.266 OA
HETATM    7  N5  UNL     1      -2.914   1.762  -0.416  1.00  0.00    -0.343 N 
ATOM      8  H5  UNL     1      -3.713   2.262  -0.026  1.00  0.00     0.163 HD
HETATM    9  C18 UNL     1      -1.907   2.662  -0.909  1.00  0.00     0.177 C 
HETATM   10  C23 UNL     1      -0.714   1.919  -1.422  1.00  0.00     0.244 C 
HETATM   11  O3  UNL     1      -0.189   2.387  -2.443  1.00  0.00    -0.271 OA
HETATM   12  N9  UNL     1      -0.014   0.731  -0.973  1.00  0.00    -0.330 N 
HETATM   13  C24 UNL     1       0.535  -0.006  -2.071  1.00  0.00     0.155 C 
ENDROOT
BRANCH   1  14
HETATM   14  C6  UNL     1       1.340  -0.372   0.858  1.00  0.00     0.021 C 
BRANCH  14  15
HETATM   15  C5  UNL     1       2.576   0.331   1.141  1.00  0.00     0.025 C 
BRANCH  15  16
HETATM   16  C3  UNL     1       3.412   1.038   0.150  1.00  0.00     0.022 C 
HETATM   17  C4  UNL     1       2.837   2.373  -0.200  1.00  0.00     0.068 C 
BRANCH  16  18
HETATM   18  N2  UNL     1       3.934   0.269  -0.928  1.00  0.00    -0.196 N 
HETATM   19  C2  UNL     1       5.170  -0.060  -0.987  1.00  0.00     0.674 C 
HETATM   20  N1  UNL     1       5.673  -0.831  -2.076  1.00  0.00    -0.231 N 
HETATM   21  N10 UNL     1       6.115   0.323   0.024  1.00  0.00    -0.222 N 
HETATM   22  C1  UNL     1       6.554  -0.227  -3.072  1.00  0.00     0.165 C 
ATOM     23  H1  UNL     1       5.415  -1.814  -2.160  1.00  0.00     0.177 HD
ATOM     24  H10 UNL     1       6.510   1.263  -0.017  1.00  0.00     0.178 HD
ATOM     25  H2  UNL     1       3.306  -0.028  -1.675  1.00  0.00     0.184 HD
BRANCH  21  26
HETATM   26  C25 UNL     1       6.535  -0.543   1.088  1.00  0.00     0.099 C 
HETATM   27  C26 UNL     1       7.201  -1.811   0.596  1.00  0.00     0.026 C 
HETATM   28  C27 UNL     1       8.563  -1.361   0.148  1.00  0.00     0.002 C 
HETATM   29  C28 UNL     1       8.780   0.023   0.731  1.00  0.00     0.002 C 
HETATM   30  C29 UNL     1       7.699   0.151   1.796  1.00  0.00     0.026 C 
ENDBRANCH  21  26
ENDBRANCH  16  18
ENDBRANCH  15  16
ENDBRANCH  14  15
ENDBRANCH   1  14
BRANCH   4  31
HETATM   31  C9  UNL     1      -2.921  -2.069   0.142  1.00  0.00     0.063 C 
BRANCH  31  32
HETATM   32  C10 UNL     1      -3.888  -2.111   1.274  1.00  0.00     0.015 C 
BRANCH  32  33
HETATM   33  C11 UNL     1      -4.524  -3.470   1.370  1.00  0.00     0.103 C 
BRANCH  33  34
HETATM   34  C12 UNL     1      -5.308  -3.844   0.190  1.00  0.00     0.219 C 
HETATM   35  O1  UNL     1      -5.635  -3.032  -0.709  1.00  0.00    -0.273 OA
HETATM   36  N4  UNL     1      -5.705  -5.224   0.096  1.00  0.00    -0.352 N 
HETATM   37  C13 UNL     1      -5.404  -6.260   1.044  1.00  0.00     0.126 C 
HETATM   38  C16 UNL     1      -6.487  -5.758  -1.006  1.00  0.00     0.126 C 
HETATM   39  C14 UNL     1      -6.067  -7.505   0.511  1.00  0.00     0.021 C 
HETATM   40  C15 UNL     1      -7.159  -6.957  -0.368  1.00  0.00     0.021 C 
ENDBRANCH  33  34
ENDBRANCH  32  33
ENDBRANCH  31  32
ENDBRANCH   4  31
BRANCH   9  41
HETATM   41  C19 UNL     1      -1.526   3.671   0.132  1.00  0.00     0.036 C 
BRANCH  41  42
HETATM   42  C20 UNL     1      -2.686   4.505   0.563  1.00  0.00     0.022 C 
BRANCH  42  43
HETATM   43  C21 UNL     1      -3.304   5.284  -0.576  1.00  0.00     0.122 C 
BRANCH  43  44
HETATM   44  N6  UNL     1      -4.404   6.045  -0.039  1.00  0.00    -0.367 N 
HETATM   45  C22 UNL     1      -4.275   7.294   0.298  1.00  0.00     0.196 C 
HETATM   46  N7  UNL     1      -5.397   8.021   0.831  1.00  0.00    -0.067 NA
HETATM   47  N8  UNL     1      -3.011   7.891   0.121  1.00  0.00    -0.067 NA
ATOM     48  H6  UNL     1      -5.309   5.591   0.080  1.00  0.00     0.161 HD
ENDBRANCH  43  44
ENDBRANCH  42  43
ENDBRANCH  41  42
ENDBRANCH   9  41
TORSDOF 13
