REMARK  16 active torsions:
REMARK  status: ('A' for Active; 'I' for Inactive)
REMARK    1  A    between atoms: C2_2  and  N1_3 
REMARK    2  A    between atoms: C2_2  and  C3_7 
REMARK    3  A    between atoms: C3_7  and  O1_8 
REMARK    4  A    between atoms: O1_8  and  N2_9 
REMARK    5  A    between atoms: N2_9  and  C4_10 
REMARK    6  A    between atoms: C4_10  and  C5_11 
REMARK    7  A    between atoms: C6_14  and  N4_15 
REMARK       I    between atoms: N4_15  and  C7_17 
REMARK    8  A    between atoms: C7_17  and  C8_19 
REMARK    9  A    between atoms: C10_23  and  C11_24 
REMARK   10  A    between atoms: C12_25  and  N6_26 
REMARK       I    between atoms: N7_29  and  C15_30 
REMARK   11  A    between atoms: C15_30  and  C16_32 
REMARK   12  A    between atoms: C19_39  and  S1_40 
REMARK   13  A    between atoms: S1_40  and  C20_41 
REMARK   14  A    between atoms: C20_41  and  C21_42 
REMARK   15  A    between atoms: N10_45  and  N11_46 
REMARK   16  A    between atoms: C24_56  and  O10_57 
ROOT
HETATM    1  C8  UNL     1       0.644  -2.256   0.588  1.00  0.00     0.177 A 
HETATM    2  N5  UNL     1       0.001  -1.608  -0.397  1.00  0.00    -0.354 N 
ATOM      3  H5  UNL     1       0.434  -1.485  -1.312  1.00  0.00     0.165 HD
HETATM    4  C9  UNL     1      -1.242  -1.121  -0.141  1.00  0.00     0.128 A 
HETATM    5  C10 UNL     1      -1.892  -1.244   1.053  1.00  0.00     0.127 A 
HETATM    6  O7  UNL     1      -1.207  -1.896   2.001  1.00  0.00    -0.270 OA
HETATM    7  C22 UNL     1      -0.030  -2.368   1.791  1.00  0.00     0.321 A 
HETATM    8  O8  UNL     1       0.561  -2.971   2.717  1.00  0.00    -0.257 OA
ENDROOT
BRANCH   1   9
HETATM    9  C7  UNL     1       1.980  -2.808   0.372  1.00  0.00     0.280 C 
HETATM   10  N4  UNL     1       2.667  -2.707  -0.846  1.00  0.00    -0.303 N 
ATOM     11  H4  UNL     1       2.245  -3.112  -1.682  1.00  0.00     0.171 HD
HETATM   12  O2  UNL     1       2.522  -3.399   1.333  1.00  0.00    -0.265 OA
BRANCH  10  13
HETATM   13  C6  UNL     1       3.801  -2.128  -0.950  1.00  0.00     0.178 A 
HETATM   14  N3  UNL     1       4.489  -1.549   0.040  1.00  0.00    -0.332 N 
HETATM   15  C5  UNL     1       5.686  -0.969  -0.175  1.00  0.00     0.117 A 
ATOM     16  H3  UNL     1       4.098  -1.546   0.982  1.00  0.00     0.168 HD
HETATM   17  C24 UNL     1       6.269  -0.942  -1.429  1.00  0.00     0.173 A 
HETATM   18  N12 UNL     1       5.598  -1.514  -2.429  1.00  0.00    -0.299 N 
HETATM   19  C23 UNL     1       4.400  -2.094  -2.215  1.00  0.00     0.291 A 
ATOM     20  H12 UNL     1       5.996  -1.513  -3.368  1.00  0.00     0.171 HD
HETATM   21  O9  UNL     1       3.782  -2.631  -3.181  1.00  0.00    -0.264 OA
BRANCH  15  22
HETATM   22  C4  UNL     1       6.422  -0.342   0.944  1.00  0.00     0.252 C 
BRANCH  22  23
HETATM   23  N2  UNL     1       7.479   0.188   0.894  1.00  0.00    -0.292 NA
BRANCH  23  24
HETATM   24  O1  UNL     1       8.602   0.750   0.831  1.00  0.00    -0.207 OA
BRANCH  24  25
HETATM   25  C3  UNL     1       8.878   2.114   0.665  1.00  0.00     0.250 C 
BRANCH  25  26
HETATM   26  C2  UNL     1      10.370   2.268   0.651  1.00  0.00     0.206 C 
HETATM   27  C1  UNL     1      10.711   3.685   0.290  1.00  0.00     0.042 C 
BRANCH  26  28
HETATM   28  N1  UNL     1      10.983   1.809   1.874  1.00  0.00    -0.073 N 
ATOM     29  H13 UNL     1      11.994   1.935   1.837  1.00  0.00     0.274 HD
ATOM     30  H12 UNL     1      10.759   2.438   2.645  1.00  0.00     0.274 HD
ATOM     31  H11 UNL     1      10.751   0.846   2.119  1.00  0.00     0.274 HD
ENDBRANCH  26  28
ENDBRANCH  25  26
ENDBRANCH  24  25
ENDBRANCH  23  24
ENDBRANCH  22  23
ENDBRANCH  15  22
BRANCH  17  32
HETATM   32  O10 UNL     1       7.499  -0.346  -1.650  1.00  0.00    -0.344 OA
ATOM     33  H10 UNL     1       7.899  -0.327  -2.511  1.00  0.00     0.219 HD
ENDBRANCH  17  32
ENDBRANCH  10  13
ENDBRANCH   1   9
BRANCH   5  34
HETATM   34  C11 UNL     1      -3.217  -0.737   1.371  1.00  0.00     0.137 A 
HETATM   35  C12 UNL     1      -4.160  -0.210   0.548  1.00  0.00     0.137 A 
HETATM   36  N8  UNL     1      -5.204   0.185   1.364  1.00  0.00    -0.320 N 
HETATM   37  C19 UNL     1      -4.921  -0.088   2.641  1.00  0.00     0.168 A 
ATOM     38  H8  UNL     1      -6.066   0.622   1.038  1.00  0.00     0.169 HD
HETATM   39  N10 UNL     1      -3.710  -0.650   2.645  1.00  0.00    -0.234 N 
BRANCH  35  40
HETATM   40  N6  UNL     1      -4.255  -0.073  -0.852  1.00  0.00    -0.362 N 
HETATM   41  C13 UNL     1      -4.526  -1.215  -1.684  1.00  0.00     0.144 C 
HETATM   42  C14 UNL     1      -5.566  -0.981  -2.749  1.00  0.00     0.146 C 
HETATM   43  N7  UNL     1      -5.920   0.447  -2.762  1.00  0.00    -0.340 N 
HETATM   44  C15 UNL     1      -7.281   0.797  -2.773  1.00  0.00     0.320 C 
HETATM   45  C17 UNL     1      -4.789   1.336  -2.766  1.00  0.00     0.146 C 
HETATM   46  O3  UNL     1      -8.126  -0.184  -2.792  1.00  0.00    -0.261 OA
HETATM   47  C18 UNL     1      -4.089   1.280  -1.408  1.00  0.00     0.144 C 
BRANCH  44  48
HETATM   48  C16 UNL     1      -7.833   2.125  -2.766  1.00  0.00     0.270 C 
HETATM   49  O4  UNL     1      -7.128   3.139  -2.730  1.00  0.00    -0.640 OA
HETATM   50  O5  UNL     1      -9.222   2.283  -2.799  1.00  0.00    -0.640 OA
ENDBRANCH  44  48
ENDBRANCH  35  40
BRANCH  37  51
HETATM   51  S1  UNL     1      -5.953   0.236   4.083  1.00  0.00    -0.083 SA
BRANCH  51  52
HETATM   52  C20 UNL     1      -7.506   1.023   3.586  1.00  0.00     0.181 C 
BRANCH  52  53
HETATM   53  C21 UNL     1      -8.290   0.048   2.792  1.00  0.00     0.240 C 
HETATM   54  N9  UNL     1      -7.796  -1.259   2.539  1.00  0.00    -0.061 NA
HETATM   55  O6  UNL     1      -9.430   0.340   2.308  1.00  0.00    -0.276 OA
ENDBRANCH  52  53
ENDBRANCH  51  52
ENDBRANCH  37  51
BRANCH  39  56
HETATM   56  N11 UNL     1      -3.056  -1.084   3.806  1.00  0.00    -0.336 N 
ATOM     57 2H11 UNL     1      -2.131  -1.513   3.809  1.00  0.00     0.177 HD
ATOM     58 1H11 UNL     1      -3.423  -1.019   4.755  1.00  0.00     0.177 HD
ENDBRANCH  39  56
ENDBRANCH   5  34
TORSDOF 16
