REMARK  5 active torsions:
REMARK  status: ('A' for Active; 'I' for Inactive)
REMARK    1  A    between atoms: C4_4  and  C5_5 
REMARK    2  A    between atoms: C5_5  and  N1_6 
REMARK    3  A    between atoms: C10_17  and  N3_18 
REMARK    4  A    between atoms: N3_18  and  C11_21 
REMARK    5  A    between atoms: C11_21  and  N4_22 
ROOT
HETATM    1  C1  UNL     1      -2.477  -2.132  -0.698  1.00  0.00     0.012 C 
HETATM    2  C2  UNL     1      -1.794  -1.286   0.333  1.00  0.00     0.019 C 
HETATM    3  C3  UNL     1      -2.670  -0.055   0.543  1.00  0.00     0.041 C 
HETATM    4  C4  UNL     1      -2.261   0.784  -0.632  1.00  0.00     0.212 C 
HETATM    5  N2  UNL     1      -0.883   0.489  -0.920  1.00  0.00    -0.060 N 
ATOM      6  H21 UNL     1      -0.268   1.287  -0.764  1.00  0.00     0.278 HD
ATOM      7  H22 UNL     1      -0.705   0.372  -1.917  1.00  0.00     0.278 HD
HETATM    8  C6  UNL     1      -0.504  -0.668  -0.145  1.00  0.00     0.131 C 
HETATM    9  C7  UNL     1       0.357  -1.628  -0.924  1.00  0.00     0.039 C 
HETATM   10  C8  UNL     1       1.221  -2.371   0.067  1.00  0.00     0.004 C 
HETATM   11  C9  UNL     1       2.330  -1.436   0.476  1.00  0.00     0.033 C 
HETATM   12  C10 UNL     1       1.723  -0.125   0.903  1.00  0.00     0.190 C 
HETATM   13  C12 UNL     1       0.237  -0.218   1.083  1.00  0.00     0.072 C 
ENDROOT
BRANCH   4  14
HETATM   14  C5  UNL     1      -2.564   2.239  -0.496  1.00  0.00     0.262 C 
BRANCH  14  15
HETATM   15  N1  UNL     1      -2.204   2.817   0.766  1.00  0.00    -0.077 N 
ATOM     16  H13 UNL     1      -2.635   2.295   1.529  1.00  0.00     0.274 HD
ATOM     17  H12 UNL     1      -1.219   2.642   0.965  1.00  0.00     0.274 HD
ATOM     18  H11 UNL     1      -2.411   3.811   0.859  1.00  0.00     0.274 HD
ENDBRANCH  14  15
ENDBRANCH   4  14
BRANCH  12  19
HETATM   19  N3  UNL     1       2.140   0.989   0.090  1.00  0.00    -0.047 N 
ATOM     20  H32 UNL     1       2.148   0.749  -0.901  1.00  0.00     0.279 HD
ATOM     21  H31 UNL     1       1.432   1.723   0.067  1.00  0.00     0.279 HD
BRANCH  19  22
HETATM   22  C11 UNL     1       3.431   1.502   0.528  1.00  0.00     0.460 C 
BRANCH  22  23
HETATM   23  N4  UNL     1       3.990   2.247  -0.597  1.00  0.00    -0.055 N 
ATOM     24  H43 UNL     1       4.045   1.699  -1.455  1.00  0.00     0.276 HD
ATOM     25  H42 UNL     1       3.366   2.974  -0.948  1.00  0.00     0.276 HD
ATOM     26  H41 UNL     1       4.894   2.606  -0.290  1.00  0.00     0.276 HD
ENDBRANCH  22  23
ENDBRANCH  19  22
ENDBRANCH  12  19
TORSDOF 5
