REMARK  11 active torsions:
REMARK  status: ('A' for Active; 'I' for Inactive)
REMARK    1  A    between atoms: O1_2  and  C2_3 
REMARK    2  A    between atoms: C2_3  and  C3_4 
REMARK    3  A    between atoms: C3_4  and  O2_5 
REMARK    4  A    between atoms: O2_5  and  N1_6 
REMARK    5  A    between atoms: C4_7  and  N2_8 
REMARK    6  A    between atoms: N2_8  and  C5_10 
REMARK    7  A    between atoms: C7_25  and  N9_26 
REMARK    8  A    between atoms: C8_31  and  C9_32 
REMARK    9  A    between atoms: C9_32  and  O4_34 
REMARK   10  A    between atoms: O4_34  and  C11_35 
REMARK   11  A    between atoms: C13_41  and  N13_42 
ROOT
HETATM    1  N1  UNL     1       1.325   0.056  -0.766  1.00  0.00    -0.035 N 
HETATM    2  C4  UNL     1       1.866   1.227  -0.151  1.00  0.00     0.737 C 
HETATM    3  N6  UNL     1       1.427   2.057   0.720  1.00  0.00    -0.128 N 
ATOM      4  H6  UNL     1       2.116   2.783   0.916  1.00  0.00     0.205 HD
HETATM    5  N7  UNL     1       0.274   2.244   1.473  1.00  0.00    -0.269 N 
ATOM      6  H7  UNL     1       0.322   3.050   2.096  1.00  0.00     0.189 HD
HETATM    7  C6  UNL     1      -0.956   1.542   1.551  1.00  0.00     0.164 A 
HETATM    8  N8  UNL     1      -1.723   2.191   2.445  1.00  0.00    -0.173 N 
ATOM      9  H8  UNL     1      -1.366   3.023   2.914  1.00  0.00     0.186 HD
HETATM   10  C7  UNL     1      -2.950   1.746   2.718  1.00  0.00     0.677 A 
HETATM   11  N10 UNL     1      -3.392   0.666   2.097  1.00  0.00    -0.191 N 
ATOM     12  H10 UNL     1      -4.335   0.358   2.333  1.00  0.00     0.184 HD
HETATM   13  C8  UNL     1      -2.727  -0.073   1.183  1.00  0.00     0.086 A 
HETATM   14  C12 UNL     1      -1.461   0.403   0.915  1.00  0.00     0.103 A 
HETATM   15  N12 UNL     1      -0.904  -0.473  -0.041  1.00  0.00    -0.340 N 
ATOM     16  H12 UNL     1      -1.306  -1.404   0.071  1.00  0.00     0.163 HD
HETATM   17  C13 UNL     1       0.045  -0.483  -1.122  1.00  0.00     0.432 C 
ENDROOT
BRANCH   2  18
HETATM   18  N2  UNL     1       3.172   1.581  -0.572  1.00  0.00    -0.016 N 
ATOM     19  H2  UNL     1       3.966   0.987  -0.334  1.00  0.00     0.203 HD
BRANCH  18  20
HETATM   20  C5  UNL     1       3.350   2.655  -1.255  1.00  0.00     0.734 A 
HETATM   21  N3  UNL     1       4.508   3.159  -1.744  1.00  0.00    -0.108 N 
HETATM   22  N4  UNL     1       4.181   4.268  -2.368  1.00  0.00    -0.167 N 
ATOM     23  H3  UNL     1       5.442   2.760  -1.648  1.00  0.00     0.207 HD
HETATM   24  O3  UNL     1       2.921   4.508  -2.315  1.00  0.00    -0.126 OA
ATOM     25  H4  UNL     1       4.853   4.871  -2.842  1.00  0.00     0.219 HD
HETATM   26  N5  UNL     1       2.403   3.510  -1.626  1.00  0.00    -0.068 N 
ATOM     27  H5  UNL     1       1.412   3.408  -1.408  1.00  0.00     0.216 HD
ENDBRANCH  18  20
ENDBRANCH   2  18
BRANCH   1  28
HETATM   28  O2  UNL     1       2.331  -0.775  -1.107  1.00  0.00    -0.259 OA
BRANCH  28  29
HETATM   29  C3  UNL     1       2.500  -1.802  -0.190  1.00  0.00     0.228 C 
BRANCH  29  30
HETATM   30  C2  UNL     1       3.615  -2.722  -0.576  1.00  0.00     0.195 C 
BRANCH  30  31
HETATM   31  O1  UNL     1       4.832  -2.092  -0.671  1.00  0.00    -0.394 OA
HETATM   32  C1  UNL     1       5.287  -1.502   0.488  1.00  0.00     0.201 C 
ENDBRANCH  30  31
ENDBRANCH  29  30
ENDBRANCH  28  29
ENDBRANCH   1  28
BRANCH  17  33
HETATM   33  N13 UNL     1      -0.473   0.190  -2.317  1.00  0.00    -0.038 N 
ATOM     34 3H13 UNL     1      -0.505   1.203  -2.200  1.00  0.00     0.279 HD
ATOM     35 2H13 UNL     1       0.187   0.149  -3.094  1.00  0.00     0.279 HD
ATOM     36 1H13 UNL     1      -1.384  -0.193  -2.570  1.00  0.00     0.279 HD
ENDBRANCH  17  33
BRANCH  13  37
HETATM   37  C9  UNL     1      -3.237  -1.245   0.508  1.00  0.00     0.182 C 
HETATM   38  C10 UNL     1      -4.677  -1.394   1.135  1.00  0.00     0.047 C 
BRANCH  37  39
HETATM   39  O4  UNL     1      -3.617  -1.098  -0.838  1.00  0.00    -0.295 OA
BRANCH  39  40
HETATM   40  C11 UNL     1      -3.630  -2.064  -1.793  1.00  0.00     0.373 C 
HETATM   41  N11 UNL     1      -4.032  -1.817  -3.131  1.00  0.00    -0.032 NA
HETATM   42  O5  UNL     1      -3.269  -3.208  -1.450  1.00  0.00    -0.242 OA
ENDBRANCH  39  40
ENDBRANCH  37  39
ENDBRANCH  13  37
BRANCH  10  43
HETATM   43  N9  UNL     1      -3.659   2.400   3.588  1.00  0.00    -0.234 N 
ATOM     44  H92 UNL     1      -3.318   3.233   4.067  1.00  0.00     0.174 HD
ATOM     45  H91 UNL     1      -4.598   2.060   3.797  1.00  0.00     0.174 HD
ENDBRANCH  10  43
TORSDOF 11
