REMARK  13 active torsions:
REMARK  status: ('A' for Active; 'I' for Inactive)
REMARK    1  A    between atoms: N1_1  and  C1_4 
REMARK    2  A    between atoms: C2_7  and  N3_8 
REMARK    3  A    between atoms: C4_14  and  C5_15 
REMARK       I    between atoms: C5_15  and  N5_17 
REMARK    4  A    between atoms: N5_17  and  C6_19 
REMARK    5  A    between atoms: C8_21  and  O4_22 
REMARK    6  A    between atoms: O4_22  and  C9_23 
REMARK    7  A    between atoms: C9_23  and  C10_24 
REMARK    8  A    between atoms: C12_30  and  C13_31 
REMARK    9  A    between atoms: C14_34  and  C15_35 
REMARK   10  A    between atoms: C15_35  and  S1_36 
REMARK   11  A    between atoms: S1_36  and  C16_37 
REMARK   12  A    between atoms: C17_42  and  S2_43 
REMARK   13  A    between atoms: S2_43  and  N9_44 
ROOT
HETATM    1  C6  UNL     1      -1.769  -1.338  -0.735  1.00  0.00     0.103 C 
HETATM    2  C7  UNL     1      -1.569  -2.214  -1.938  1.00  0.00     0.060 C 
HETATM    3  C8  UNL     1      -0.821  -3.373  -1.394  1.00  0.00     0.147 C 
HETATM    4  C11 UNL     1      -0.001  -2.872  -0.254  1.00  0.00     0.127 C 
HETATM    5  N6  UNL     1       1.363  -2.819  -0.664  1.00  0.00    -0.376 N 
ATOM      6  H6  UNL     1       1.468  -2.992  -1.664  1.00  0.00     0.160 HD
HETATM    7  C12 UNL     1       2.634  -2.582  -0.020  1.00  0.00     0.110 C 
HETATM    8  C14 UNL     1       2.824  -1.654   0.880  1.00  0.00    -0.028 C 
HETATM    9  C18 UNL     1       1.810  -0.708   1.480  1.00  0.00     0.111 C 
HETATM   10  S4  UNL     1       0.633  -0.271   0.177  1.00  0.00    -0.156 SA
HETATM   11  C19 UNL     1      -0.625  -1.584   0.173  1.00  0.00     0.095 C 
ENDROOT
BRANCH   1  12
HETATM   12  N5  UNL     1      -1.947   0.052  -1.003  1.00  0.00    -0.350 N 
HETATM   13  C5  UNL     1      -3.100   0.780  -0.575  1.00  0.00     0.272 C 
HETATM   14  O3  UNL     1      -3.955   0.125   0.058  1.00  0.00    -0.266 OA
ATOM     15  H5  UNL     1      -1.221   0.547  -1.522  1.00  0.00     0.163 HD
BRANCH  13  16
HETATM   16  C4  UNL     1      -3.306   2.185  -0.832  1.00  0.00     0.144 A 
HETATM   17  C1  UNL     1      -4.392   2.881  -0.351  1.00  0.00     0.133 A 
HETATM   18  N2  UNL     1      -4.562   4.233  -0.627  1.00  0.00    -0.321 N 
HETATM   19  C2  UNL     1      -3.667   4.892  -1.374  1.00  0.00     0.190 A 
ATOM     20  H2  UNL     1      -5.375   4.727  -0.258  1.00  0.00     0.169 HD
HETATM   21  C3  UNL     1      -2.589   4.184  -1.847  1.00  0.00     0.143 A 
HETATM   22  N4  UNL     1      -2.402   2.888  -1.597  1.00  0.00    -0.355 N 
ATOM     23  H4  UNL     1      -1.583   2.413  -1.975  1.00  0.00     0.165 HD
BRANCH  17  24
HETATM   24  N1  UNL     1      -5.273   2.356   0.354  1.00  0.00    -0.383 N 
ATOM     25  H12 UNL     1      -6.078   2.872   0.710  1.00  0.00     0.157 HD
ATOM     26  H11 UNL     1      -5.148   1.364   0.556  1.00  0.00     0.157 HD
ENDBRANCH  17  24
BRANCH  19  27
HETATM   27  N3  UNL     1      -3.838   6.277  -1.657  1.00  0.00    -0.096 N 
HETATM   28  O1  UNL     1      -3.035   6.913  -2.355  1.00  0.00    -0.530 OA
HETATM   29  O2  UNL     1      -4.926   6.942  -1.151  1.00  0.00    -0.530 OA
ENDBRANCH  19  27
ENDBRANCH  13  16
ENDBRANCH   1  12
BRANCH   3  30
HETATM   30  O4  UNL     1      -1.606  -4.474  -1.089  1.00  0.00    -0.373 OA
BRANCH  30  31
HETATM   31  C9  UNL     1      -1.283  -5.597  -1.825  1.00  0.00     0.281 C 
BRANCH  31  32
HETATM   32  C10 UNL     1      -2.191  -6.702  -1.422  1.00  0.00     0.197 C 
HETATM   33  O5  UNL     1      -3.110  -6.566  -0.554  1.00  0.00    -0.646 OA
HETATM   34  O6  UNL     1      -2.082  -7.980  -1.988  1.00  0.00    -0.646 OA
ENDBRANCH  31  32
ENDBRANCH  30  31
ENDBRANCH   3  30
BRANCH   7  35
HETATM   35  C13 UNL     1       3.716  -3.410  -0.514  1.00  0.00     0.226 C 
HETATM   36  O7  UNL     1       3.414  -4.251  -1.444  1.00  0.00    -0.643 OA
HETATM   37  O8  UNL     1       5.032  -3.459  -0.166  1.00  0.00    -0.643 OA
ENDBRANCH   7  35
BRANCH   8  38
HETATM   38  C15 UNL     1       4.143  -1.492   1.488  1.00  0.00     0.119 C 
BRANCH  38  39
HETATM   39  S1  UNL     1       5.089  -0.074   1.008  1.00  0.00    -0.099 SA
BRANCH  39  40
HETATM   40  C16 UNL     1       4.457   1.524   1.419  1.00  0.00     0.129 A 
HETATM   41  N7  UNL     1       3.682   2.351   0.709  1.00  0.00    -0.287 N 
HETATM   42  N8  UNL     1       3.339   3.462   1.179  1.00  0.00    -0.281 N 
ATOM     43  H7  UNL     1       3.368   2.076  -0.222  1.00  0.00     0.188 HD
HETATM   44  C17 UNL     1       3.740   3.836   2.391  1.00  0.00     0.208 A 
ATOM     45  H8  UNL     1       2.748   4.084   0.627  1.00  0.00     0.188 HD
HETATM   46  S3  UNL     1       4.668   2.478   2.854  1.00  0.00    -0.031 SA
BRANCH  44  47
HETATM   47  S2  UNL     1       3.406   5.333   3.255  1.00  0.00     0.280 S 
HETATM   48  O9  UNL     1       3.335   5.058   4.726  1.00  0.00    -0.199 OA
HETATM   49  O10 UNL     1       2.102   5.885   2.802  1.00  0.00    -0.199 OA
BRANCH  47  50
HETATM   50  N9  UNL     1       4.631   6.505   2.941  1.00  0.00    -0.323 N 
ATOM     51  H92 UNL     1       5.434   6.338   2.335  1.00  0.00     0.169 HD
ATOM     52  H91 UNL     1       4.437   7.372   3.442  1.00  0.00     0.169 HD
ENDBRANCH  47  50
ENDBRANCH  44  47
ENDBRANCH  39  40
ENDBRANCH  38  39
ENDBRANCH   8  38
TORSDOF 13
