REMARK  4 active torsions:
REMARK  status: ('A' for Active; 'I' for Inactive)
REMARK    1  A    between atoms: N1_1  and  C1_4 
REMARK    2  A    between atoms: C2_7  and  N3_8 
REMARK    3  A    between atoms: N3_8  and  C3_10 
REMARK    4  A    between atoms: N7_24  and  C10_25 
ROOT
HETATM    1  C1  UNL     1      -0.091  -2.185   1.687  1.00  0.00     0.147 A 
HETATM    2  N2  UNL     1      -0.930  -1.307   1.065  1.00  0.00    -0.175 N 
ATOM      3  H2  UNL     1      -1.938  -1.431   1.160  1.00  0.00     0.186 HD
HETATM    4  C2  UNL     1      -0.466  -0.289   0.335  1.00  0.00     0.681 A 
HETATM    5  N4  UNL     1       0.882  -0.121   0.208  1.00  0.00    -0.172 N 
ATOM      6  H4  UNL     1       1.241   0.655  -0.348  1.00  0.00     0.186 HD
HETATM    7  C8  UNL     1       1.726  -0.945   0.792  1.00  0.00     0.176 A 
HETATM    8  C9  UNL     1       1.258  -1.996   1.545  1.00  0.00     0.140 A 
HETATM    9  N5  UNL     1       2.359  -2.635   1.995  1.00  0.00    -0.279 N 
ATOM     10  H5  UNL     1       2.367  -3.465   2.587  1.00  0.00     0.189 HD
HETATM   11  N6  UNL     1       3.412  -2.008   1.542  1.00  0.00    -0.233 N 
ATOM     12  H6  UNL     1       4.372  -2.292   1.740  1.00  0.00     0.209 HD
HETATM   13  N7  UNL     1       3.091  -0.963   0.798  1.00  0.00    -0.223 N 
ENDROOT
BRANCH   4  14
HETATM   14  N3  UNL     1      -1.372   0.597  -0.295  1.00  0.00    -0.221 N 
ATOM     15  H3  UNL     1      -0.939   1.346  -0.835  1.00  0.00     0.178 HD
BRANCH  14  16
HETATM   16  C3  UNL     1      -2.781   0.602  -0.290  1.00  0.00     0.100 C 
HETATM   17  C4  UNL     1      -3.452  -0.643  -0.822  1.00  0.00     0.036 C 
HETATM   18  C5  UNL     1      -4.616  -0.172  -1.707  1.00  0.00     0.076 C 
HETATM   19  S1  UNL     1      -5.326   1.294  -0.958  1.00  0.00    -0.169 SA
HETATM   20  C6  UNL     1      -4.790   1.574   0.745  1.00  0.00     0.076 C 
HETATM   21  C7  UNL     1      -3.436   0.940   1.039  1.00  0.00     0.036 C 
ENDBRANCH  14  16
ENDBRANCH   4  14
BRANCH   1  22
HETATM   22  N1  UNL     1      -0.562  -3.160   2.386  1.00  0.00    -0.383 N 
ATOM     23  H12 UNL     1      -1.567  -3.301   2.492  1.00  0.00     0.157 HD
ATOM     24  H11 UNL     1       0.065  -3.816   2.851  1.00  0.00     0.157 HD
ENDBRANCH   1  22
BRANCH  13  25
HETATM   25  C10 UNL     1       3.934  -0.032   0.128  1.00  0.00     0.060 A 
HETATM   26  C11 UNL     1       4.644   0.911   0.849  1.00  0.00     0.031 A 
HETATM   27  C12 UNL     1       5.473   1.833   0.236  1.00  0.00     0.002 A 
HETATM   28  C13 UNL     1       5.600   1.818  -1.136  1.00  0.00     0.000 A 
HETATM   29  C14 UNL     1       4.909   0.894  -1.882  1.00  0.00     0.002 A 
HETATM   30  C15 UNL     1       4.095  -0.007  -1.243  1.00  0.00     0.031 A 
ENDBRANCH  13  25
TORSDOF 4
