REMARK  11 active torsions:
REMARK  status: ('A' for Active; 'I' for Inactive)
REMARK    1  A    between atoms: C2_2  and  C3_3 
REMARK    2  A    between atoms: C3_3  and  N1_4 
REMARK    3  A    between atoms: C3_3  and  C6_9 
REMARK       I    between atoms: N1_4  and  C4_6 
REMARK       I    between atoms: C6_9  and  N2_11 
REMARK    4  A    between atoms: N2_11  and  C7_13 
REMARK    5  A    between atoms: C7_13  and  C8_14 
REMARK    6  A    between atoms: C7_13  and  C20_29 
REMARK    7  A    between atoms: C11_17  and  O3_18 
REMARK    8  A    between atoms: C20_29  and  N3_30 
REMARK    9  A    between atoms: C20_29  and  N6_35 
REMARK   10  A    between atoms: N7_38  and  C24_39 
REMARK   11  A    between atoms: C24_39  and  C25_40 
ROOT
HETATM    1  C7  UNL     1      -0.594   0.466   0.519  1.00  0.00     0.061 C 
ENDROOT
BRANCH   1   2
HETATM    2  N2  UNL     1      -0.556   1.886   0.665  1.00  0.00    -0.325 N 
HETATM    3  C6  UNL     1      -1.122   2.734  -0.320  1.00  0.00     0.244 C 
HETATM    4  O2  UNL     1      -1.678   2.162  -1.330  1.00  0.00    -0.271 OA
ATOM      5  H2  UNL     1      -0.116   2.296   1.489  1.00  0.00     0.169 HD
BRANCH   3   6
HETATM    6  C3  UNL     1      -1.134   4.206  -0.288  1.00  0.00     0.176 C 
BRANCH   6   7
HETATM    7  C2  UNL     1       0.134   4.818  -0.844  1.00  0.00     0.030 C 
HETATM    8  C1  UNL     1       1.386   4.545  -0.110  1.00  0.00     0.007 C 
ENDBRANCH   6   7
BRANCH   6   9
HETATM    9  N1  UNL     1      -2.174   4.658  -1.235  1.00  0.00    -0.348 N 
HETATM   10  C4  UNL     1      -3.256   5.471  -0.815  1.00  0.00     0.214 C 
HETATM   11  C5  UNL     1      -4.318   5.940  -1.739  1.00  0.00     0.117 C 
HETATM   12  O1  UNL     1      -3.336   5.819   0.393  1.00  0.00    -0.274 OA
ATOM     13  H1  UNL     1      -2.112   4.378  -2.214  1.00  0.00     0.163 HD
ENDBRANCH   6   9
ENDBRANCH   3   6
ENDBRANCH   1   2
BRANCH   1  14
HETATM   14  C8  UNL     1      -1.873  -0.187   0.941  1.00  0.00    -0.027 C 
HETATM   15  C9  UNL     1      -2.560   0.137   2.020  1.00  0.00    -0.046 C 
HETATM   16  C10 UNL     1      -2.065   1.219   2.908  1.00  0.00     0.046 C 
HETATM   17  C11 UNL     1      -3.841  -0.517   2.428  1.00  0.00     0.163 C 
HETATM   18  C12 UNL     1      -4.060  -1.881   1.906  1.00  0.00     0.050 C 
HETATM   19  C13 UNL     1      -4.145  -2.858   3.059  1.00  0.00     0.020 C 
HETATM   20  C17 UNL     1      -5.312  -1.924   1.100  1.00  0.00     0.138 C 
HETATM   21  C18 UNL     1      -2.936  -2.373   1.017  1.00  0.00     0.025 C 
HETATM   22  C14 UNL     1      -5.583  -2.914   3.527  1.00  0.00     0.002 C 
HETATM   23  C15 UNL     1      -6.325  -3.738   2.465  1.00  0.00     0.007 C 
HETATM   24  C16 UNL     1      -6.312  -3.001   1.169  1.00  0.00     0.079 C 
HETATM   25  O4  UNL     1      -5.511  -0.999   0.333  1.00  0.00    -0.297 OA
HETATM   26  C19 UNL     1      -2.426  -1.325   0.105  1.00  0.00     0.042 C 
BRANCH  17  27
HETATM   27  O3  UNL     1      -3.920  -0.443   3.815  1.00  0.00    -0.390 OA
ATOM     28  H3  UNL     1      -4.734  -0.859   4.074  1.00  0.00     0.210 HD
ENDBRANCH  17  27
ENDBRANCH   1  14
BRANCH   1  29
HETATM   29  C20 UNL     1       0.650  -0.266   0.849  1.00  0.00     0.241 C 
BRANCH  29  30
HETATM   30  N3  UNL     1       0.495  -1.685   0.673  1.00  0.00    -0.340 N 
HETATM   31  C21 UNL     1       0.918  -2.483   1.588  1.00  0.00     0.198 C 
HETATM   32  N4  UNL     1       0.794  -3.899   1.472  1.00  0.00    -0.067 NA
HETATM   33  N5  UNL     1       1.518  -1.943   2.749  1.00  0.00    -0.067 NA
ATOM     34  H3  UNL     1       0.054  -2.055  -0.169  1.00  0.00     0.164 HD
ENDBRANCH  29  30
BRANCH  29  35
HETATM   35  N6  UNL     1       1.801   0.096   0.006  1.00  0.00    -0.305 N 
HETATM   36  C22 UNL     1       3.084   0.621   0.473  1.00  0.00     0.150 C 
HETATM   37  C23 UNL     1       3.781   1.147  -0.733  1.00  0.00     0.147 C 
HETATM   38  N7  UNL     1       3.269   0.308  -1.779  1.00  0.00    -0.332 N 
HETATM   39  C31 UNL     1       1.905  -0.001  -1.406  1.00  0.00     0.322 C 
HETATM   40  O5  UNL     1       1.018  -0.295  -2.239  1.00  0.00    -0.247 OA
BRANCH  38  41
HETATM   41  C24 UNL     1       3.888  -0.151  -2.991  1.00  0.00     0.132 C 
BRANCH  41  42
HETATM   42  C25 UNL     1       4.537  -1.502  -2.891  1.00  0.00     0.004 C 
HETATM   43  C26 UNL     1       5.123  -1.800  -4.261  1.00  0.00     0.006 C 
HETATM   44  C27 UNL     1       6.498  -2.389  -4.191  1.00  0.00     0.000 C 
HETATM   45  C28 UNL     1       7.474  -1.622  -3.350  1.00  0.00     0.000 C 
HETATM   46  C29 UNL     1       6.804  -0.747  -2.314  1.00  0.00     0.000 C 
HETATM   47  C30 UNL     1       5.587  -1.505  -1.832  1.00  0.00     0.006 C 
ENDBRANCH  41  42
ENDBRANCH  38  41
ENDBRANCH  29  35
ENDBRANCH   1  29
TORSDOF 11
