REMARK  17 active torsions:
REMARK  status: ('A' for Active; 'I' for Inactive)
REMARK    1  A    between atoms: C2_2  and  C3_3 
REMARK    2  A    between atoms: C3_3  and  C4_4 
REMARK    3  A    between atoms: C4_4  and  C5_5 
REMARK    4  A    between atoms: C7_10  and  C8_11 
REMARK    5  A    between atoms: C8_11  and  C9_12 
REMARK    6  A    between atoms: C17_24  and  O2_25 
REMARK    7  A    between atoms: C18_27  and  C19_28 
REMARK    8  A    between atoms: C19_28  and  C20_29 
REMARK    9  A    between atoms: C24_36  and  C25_37 
REMARK   10  A    between atoms: C25_37  and  C26_38 
REMARK   11  A    between atoms: C26_38  and  C27_39 
REMARK   12  A    between atoms: C27_39  and  C28_40 
REMARK   13  A    between atoms: C28_40  and  C29_41 
REMARK   14  A    between atoms: C29_41  and  C30_42 
REMARK   15  A    between atoms: C32_47  and  O5_48 
REMARK   16  A    between atoms: C36_53  and  O6_54 
REMARK   17  A    between atoms: C37_56  and  O7_57 
ROOT
HETATM    1  C5  UNL     1      -2.894  -2.792   0.646  1.00  0.00     0.144 C 
HETATM    2  N1  UNL     1      -2.406  -2.034  -0.480  1.00  0.00    -0.345 N 
ATOM      3  H1  UNL     1      -2.147  -2.579  -1.302  1.00  0.00     0.163 HD
HETATM    4  C6  UNL     1      -2.242  -0.651  -0.592  1.00  0.00     0.265 C 
HETATM    5  O1  UNL     1      -2.457  -0.159  -1.757  1.00  0.00    -0.266 OA
HETATM    6  C7  UNL     1      -1.859   0.318   0.445  1.00  0.00     0.083 C 
HETATM    7  N3  UNL     1      -0.516   0.724   0.561  1.00  0.00    -0.338 N 
ATOM      8  H3  UNL     1      -0.190   0.713   1.528  1.00  0.00     0.167 HD
HETATM    9  C17 UNL     1       0.472   1.136  -0.323  1.00  0.00     0.139 C 
HETATM   10  C18 UNL     1       0.841   0.669  -1.679  1.00  0.00     0.159 C 
HETATM   11  N4  UNL     1       2.320   0.605  -1.758  1.00  0.00    -0.347 N 
ATOM     12  H4  UNL     1       2.827   1.444  -1.475  1.00  0.00     0.163 HD
HETATM   13  C23 UNL     1       3.088  -0.469  -2.174  1.00  0.00     0.241 C 
HETATM   14  O3  UNL     1       4.018  -0.197  -3.029  1.00  0.00    -0.271 OA
HETATM   15  C24 UNL     1       2.971  -1.891  -1.760  1.00  0.00     0.176 C 
HETATM   16  N5  UNL     1       1.930  -2.489  -2.550  1.00  0.00    -0.350 N 
ATOM     17  H5  UNL     1       1.674  -1.941  -3.371  1.00  0.00     0.163 HD
HETATM   18  C32 UNL     1       1.207  -3.659  -2.418  1.00  0.00     0.194 C 
HETATM   19  C33 UNL     1       0.536  -4.257  -1.372  1.00  0.00    -0.019 C 
HETATM   20  C34 UNL     1      -0.016  -4.765  -0.566  1.00  0.00    -0.067 C 
HETATM   21  C35 UNL     1      -0.706  -5.447   0.406  1.00  0.00     0.104 C 
HETATM   22  C36 UNL     1      -1.935  -5.250   0.855  1.00  0.00     0.104 C 
HETATM   23  C37 UNL     1      -2.886  -4.238   0.431  1.00  0.00     0.099 C 
ENDROOT
BRANCH   6  24
HETATM   24  C8  UNL     1      -2.923   1.395   0.566  1.00  0.00     0.104 C 
BRANCH  24  25
HETATM   25  C9  UNL     1      -2.686   2.438   1.544  1.00  0.00    -0.025 A 
HETATM   26  C10 UNL     1      -3.014   2.340   2.902  1.00  0.00     0.096 A 
HETATM   27  N2  UNL     1      -2.596   3.468   3.518  1.00  0.00    -0.365 N 
HETATM   28  C11 UNL     1      -2.019   4.275   2.615  1.00  0.00     0.042 A 
ATOM     29  H2  UNL     1      -2.702   3.673   4.511  1.00  0.00     0.165 HD
HETATM   30  C12 UNL     1      -1.460   5.536   2.729  1.00  0.00     0.030 A 
HETATM   31  C16 UNL     1      -2.066   3.653   1.381  1.00  0.00    -0.002 A 
HETATM   32  C13 UNL     1      -0.939   6.195   1.609  1.00  0.00     0.002 A 
HETATM   33  C14 UNL     1      -0.978   5.593   0.373  1.00  0.00     0.001 A 
HETATM   34  C15 UNL     1      -1.541   4.327   0.278  1.00  0.00     0.014 A 
ENDBRANCH  24  25
ENDBRANCH   6  24
BRANCH   9  35
HETATM   35  O2  UNL     1       1.256   2.116   0.056  1.00  0.00    -0.348 OA
ATOM     36  H2  UNL     1       1.932   2.398  -0.549  1.00  0.00     0.219 HD
ENDBRANCH   9  35
BRANCH   1  37
HETATM   37  C4  UNL     1      -4.230  -2.305   1.179  1.00  0.00     0.032 C 
BRANCH  37  38
HETATM   38  C3  UNL     1      -5.358  -2.294   0.222  1.00  0.00     0.002 C 
BRANCH  38  39
HETATM   39  C2  UNL     1      -6.568  -1.727   1.001  1.00  0.00    -0.004 C 
HETATM   40  C1  UNL     1      -6.891  -2.586   2.197  1.00  0.00     0.005 C 
ENDBRANCH  38  39
ENDBRANCH  37  38
ENDBRANCH   1  37
BRANCH  10  41
HETATM   41  C19 UNL     1       0.474   1.797  -2.617  1.00  0.00     0.037 C 
BRANCH  41  42
HETATM   42  C20 UNL     1       0.748   1.583  -4.049  1.00  0.00    -0.020 C 
HETATM   43  C21 UNL     1       0.076   0.449  -4.724  1.00  0.00     0.009 C 
HETATM   44  C22 UNL     1       0.304   2.865  -4.774  1.00  0.00     0.009 C 
ENDBRANCH  41  42
ENDBRANCH  10  41
BRANCH  23  45
HETATM   45  O7  UNL     1      -3.903  -4.686  -0.251  1.00  0.00    -0.360 OA
ATOM     46  H7  UNL     1      -3.898  -5.626  -0.391  1.00  0.00     0.217 HD
ENDBRANCH  23  45
BRANCH  22  47
HETATM   47  O6  UNL     1      -2.406  -6.134   1.886  1.00  0.00    -0.358 OA
ATOM     48  H6  UNL     1      -3.288  -5.993   2.208  1.00  0.00     0.217 HD
ENDBRANCH  22  47
BRANCH  15  49
HETATM   49  C25 UNL     1       2.923  -2.172  -0.321  1.00  0.00     0.035 C 
BRANCH  49  50
HETATM   50  C26 UNL     1       4.067  -1.797   0.554  1.00  0.00     0.002 C 
BRANCH  50  51
HETATM   51  C27 UNL     1       4.400  -0.361   0.634  1.00  0.00     0.000 C 
BRANCH  51  52
HETATM   52  C28 UNL     1       5.573  -0.131   1.626  1.00  0.00     0.007 C 
BRANCH  52  53
HETATM   53  C29 UNL     1       5.800   1.374   1.612  1.00  0.00     0.077 C 
BRANCH  53  54
HETATM   54  C30 UNL     1       6.895   1.763   2.509  1.00  0.00     0.123 C 
HETATM   55  C31 UNL     1       7.724   0.799   3.298  1.00  0.00     0.091 C 
HETATM   56  O4  UNL     1       7.150   2.953   2.623  1.00  0.00    -0.298 OA
ENDBRANCH  53  54
ENDBRANCH  52  53
ENDBRANCH  51  52
ENDBRANCH  50  51
ENDBRANCH  49  50
ENDBRANCH  15  49
BRANCH  18  57
HETATM   57  O5  UNL     1       1.146  -4.357  -3.540  1.00  0.00    -0.340 OA
ATOM     58  H5  UNL     1       0.649  -5.161  -3.449  1.00  0.00     0.220 HD
ENDBRANCH  18  57
TORSDOF 17
