REMARK  6 active torsions:
REMARK  status: ('A' for Active; 'I' for Inactive)
REMARK    1  A    between atoms: S1_2  and  C2_4 
REMARK    2  A    between atoms: C2_4  and  N1_5 
REMARK    3  A    between atoms: N1_5  and  C3_7 
REMARK    4  A    between atoms: C3_7  and  C4_8 
REMARK    5  A    between atoms: C4_8  and  C5_9 
REMARK    6  A    between atoms: C6_12  and  N4_13 
ROOT
HETATM    1  C5  UNL     1      -2.029  -0.124   0.863  1.00  0.00     0.144 C 
HETATM    2  N2  UNL     1      -2.876  -0.807  -0.113  1.00  0.00    -0.138 NA
HETATM    3  N3  UNL     1      -3.921   0.031   0.367  1.00  0.00    -0.113 NA
HETATM    4  C6  UNL     1      -2.900   1.070   0.456  1.00  0.00     0.311 C 
ENDROOT
BRANCH   1   5
HETATM    5  C4  UNL     1      -0.604   0.092   0.449  1.00  0.00     0.045 C 
BRANCH   5   6
HETATM    6  C3  UNL     1       0.101  -1.201   0.162  1.00  0.00     0.116 C 
BRANCH   6   7
HETATM    7  N1  UNL     1       1.454  -0.994  -0.236  1.00  0.00    -0.411 N 
ATOM      8  H1  UNL     1       1.780  -1.187  -1.183  1.00  0.00     0.154 HD
BRANCH   7   9
HETATM    9  C2  UNL     1       2.321  -0.496   0.786  1.00  0.00     0.222 C 
BRANCH   9  10
HETATM   10  S1  UNL     1       3.980  -0.262   0.194  1.00  0.00     0.028 S 
HETATM   11  C1  UNL     1       4.005   0.913  -1.161  1.00  0.00     0.129 C 
HETATM   12  O1  UNL     1       4.575  -1.716  -0.444  1.00  0.00    -0.257 OA
ENDBRANCH   9  10
ENDBRANCH   7   9
ENDBRANCH   6   7
ENDBRANCH   5   6
ENDBRANCH   1   5
BRANCH   4  13
HETATM   13  N4  UNL     1      -2.550   1.519  -0.889  1.00  0.00    -0.058 N 
ATOM     14  H43 UNL     1      -1.555   1.728  -0.973  1.00  0.00     0.276 HD
ATOM     15  H42 UNL     1      -2.603   0.760  -1.569  1.00  0.00     0.276 HD
ATOM     16  H41 UNL     1      -3.130   2.313  -1.160  1.00  0.00     0.276 HD
ENDBRANCH   4  13
TORSDOF 6
