REMARK  16 active torsions:
REMARK  status: ('A' for Active; 'I' for Inactive)
REMARK    1  A    between atoms: O1_2  and  C2_3 
REMARK    2  A    between atoms: C5_6  and  N1_7 
REMARK    3  A    between atoms: N1_7  and  C6_9 
REMARK    4  A    between atoms: C7_10  and  C8_11 
REMARK       I    between atoms: C8_11  and  N2_13 
REMARK    5  A    between atoms: N2_13  and  C9_15 
REMARK    6  A    between atoms: C9_15  and  C10_16 
REMARK    7  A    between atoms: C9_15  and  N3_20 
REMARK    8  A    between atoms: C10_16  and  C11_17 
REMARK    9  A    between atoms: C11_17  and  S1_18 
REMARK       I    between atoms: N3_20  and  C13_22 
REMARK   10  A    between atoms: C13_22  and  C14_24 
REMARK   11  A    between atoms: C14_24  and  O4_25 
REMARK   12  A    between atoms: C14_24  and  N4_27 
REMARK   13  A    between atoms: N4_27  and  C15_28 
REMARK   14  A    between atoms: C17_32  and  C18_33 
REMARK   15  A    between atoms: C21_37  and  N6_38 
REMARK   16  A    between atoms: C26_47  and  N7_48 
ROOT
HETATM    1  C8  UNL     1      -2.070  -1.830  -0.607  1.00  0.00     0.259 C 
HETATM    2  O2  UNL     1      -2.220  -1.377   0.590  1.00  0.00    -0.267 OA
HETATM    3  N2  UNL     1      -0.821  -2.371  -0.853  1.00  0.00    -0.336 N 
ATOM      4  H2  UNL     1      -0.639  -2.766  -1.776  1.00  0.00     0.164 HD
ENDROOT
BRANCH   3   5
HETATM    5  C9  UNL     1       0.258  -2.407   0.144  1.00  0.00     0.188 C 
BRANCH   5   6
HETATM    6  C10 UNL     1       0.236  -3.719   0.903  1.00  0.00     0.057 C 
BRANCH   6   7
HETATM    7  C11 UNL     1       1.363  -3.678   1.911  1.00  0.00     0.077 C 
BRANCH   7   8
HETATM    8  S1  UNL     1       1.411  -5.222   2.881  1.00  0.00    -0.173 SA
HETATM    9  C12 UNL     1      -0.021  -5.418   3.938  1.00  0.00     0.089 C 
ENDBRANCH   7   8
ENDBRANCH   6   7
ENDBRANCH   5   6
BRANCH   5  10
HETATM   10  N3  UNL     1       1.537  -2.291  -0.468  1.00  0.00    -0.332 N 
HETATM   11  C13 UNL     1       2.575  -1.397  -0.115  1.00  0.00     0.308 C 
HETATM   12  O3  UNL     1       2.453  -0.585   0.825  1.00  0.00    -0.262 OA
ATOM     13  H3  UNL     1       1.726  -2.922  -1.247  1.00  0.00     0.165 HD
BRANCH  11  14
HETATM   14  C14 UNL     1       3.867  -1.386  -0.854  1.00  0.00     0.285 C 
BRANCH  14  15
HETATM   15  O4  UNL     1       3.924  -2.184  -1.884  1.00  0.00    -0.331 OA
ATOM     16  H4  UNL     1       4.749  -2.177  -2.356  1.00  0.00     0.220 HD
ENDBRANCH  14  15
BRANCH  14  17
HETATM   17  N4  UNL     1       4.913  -0.662  -0.548  1.00  0.00    -0.353 NA
BRANCH  17  18
HETATM   18  C15 UNL     1       5.752   0.165  -0.350  1.00  0.00     0.233 A 
HETATM   19  N5  UNL     1       5.629   1.505  -0.647  1.00  0.00    -0.335 N 
HETATM   20  C16 UNL     1       6.649   2.332  -0.408  1.00  0.00     0.124 A 
ATOM     21  H5  UNL     1       4.762   1.863  -1.048  1.00  0.00     0.168 HD
HETATM   22  C17 UNL     1       7.838   1.925   0.128  1.00  0.00     0.074 A 
HETATM   23  O5  UNL     1       7.959   0.631   0.418  1.00  0.00    -0.292 OA
HETATM   24  C21 UNL     1       6.998  -0.196   0.201  1.00  0.00     0.201 A 
BRANCH  22  25
HETATM   25  C18 UNL     1       8.948   2.853   0.378  1.00  0.00     0.036 C 
HETATM   26  C19 UNL     1       8.545   4.174   0.971  1.00  0.00     0.016 C 
HETATM   27  C20 UNL     1       9.647   3.199  -0.953  1.00  0.00     0.016 C 
ENDBRANCH  22  25
BRANCH  24  28
HETATM   28  N6  UNL     1       7.162  -1.461   0.503  1.00  0.00    -0.376 N 
ATOM     29  H62 UNL     1       6.400  -2.117   0.331  1.00  0.00     0.158 HD
ATOM     30  H61 UNL     1       8.064  -1.722   0.902  1.00  0.00     0.158 HD
ENDBRANCH  24  28
ENDBRANCH  17  18
ENDBRANCH  14  17
ENDBRANCH  11  14
ENDBRANCH   5  10
ENDBRANCH   3   5
BRANCH   1  31
HETATM   31  C7  UNL     1      -3.198  -1.710  -1.481  1.00  0.00     0.104 A 
HETATM   32  C6  UNL     1      -4.391  -1.190  -0.964  1.00  0.00     0.065 A 
HETATM   33  C28 UNL     1      -5.550  -1.044  -1.741  1.00  0.00     0.028 A 
HETATM   34  C23 UNL     1      -5.465  -1.441  -3.063  1.00  0.00     0.089 A 
HETATM   35  C27 UNL     1      -6.721  -0.537  -1.228  1.00  0.00     0.052 A 
HETATM   36  O6  UNL     1      -4.375  -1.916  -3.546  1.00  0.00    -0.297 OA
HETATM   37  C24 UNL     1      -6.613  -1.309  -3.870  1.00  0.00     0.041 A 
HETATM   38  C22 UNL     1      -3.262  -2.061  -2.813  1.00  0.00     0.160 A 
HETATM   39  S2  UNL     1      -1.942  -2.675  -3.544  1.00  0.00    -0.051 SA
HETATM   40  C25 UNL     1      -7.793  -0.796  -3.350  1.00  0.00     0.039 A 
HETATM   41  C26 UNL     1      -7.839  -0.408  -2.010  1.00  0.00     0.103 A 
BRANCH  32  42
HETATM   42  N1  UNL     1      -4.502  -0.778   0.357  1.00  0.00    -0.355 N 
ATOM     43  H1  UNL     1      -4.645  -1.484   1.080  1.00  0.00     0.166 HD
BRANCH  42  44
HETATM   44  C5  UNL     1      -4.425   0.580   0.741  1.00  0.00     0.032 A 
HETATM   45  C4  UNL     1      -4.707   0.935   2.080  1.00  0.00     0.032 A 
HETATM   46  C3  UNL     1      -4.647   2.237   2.496  1.00  0.00     0.039 A 
HETATM   47  C2  UNL     1      -4.304   3.266   1.616  1.00  0.00     0.068 A 
HETATM   48  C30 UNL     1      -4.030   2.945   0.330  1.00  0.00     0.039 A 
HETATM   49  C29 UNL     1      -4.095   1.613  -0.089  1.00  0.00     0.032 A 
BRANCH  47  50
HETATM   50  O1  UNL     1      -4.261   4.570   2.103  1.00  0.00    -0.356 OA
HETATM   51  C1  UNL     1      -3.936   5.714   1.389  1.00  0.00     0.210 C 
ENDBRANCH  47  50
ENDBRANCH  42  44
ENDBRANCH  32  42
BRANCH  41  52
HETATM   52  N7  UNL     1      -9.081   0.105  -1.546  1.00  0.00    -0.116 N 
HETATM   53  O7  UNL     1      -9.193   0.468  -0.354  1.00  0.00    -0.532 OA
HETATM   54  O8  UNL     1     -10.182   0.221  -2.343  1.00  0.00    -0.532 OA
ENDBRANCH  41  52
ENDBRANCH   1  31
TORSDOF 16
