REMARK  17 active torsions:
REMARK  status: ('A' for Active; 'I' for Inactive)
REMARK    1  A    between atoms: S1_2  and  C2_3 
REMARK    2  A    between atoms: C7_8  and  N1_9 
REMARK       I    between atoms: N1_9  and  C8_11 
REMARK    3  A    between atoms: C8_11  and  C9_13 
REMARK    4  A    between atoms: C9_13  and  N2_14 
REMARK    5  A    between atoms: C9_13  and  C29_51 
REMARK    6  A    between atoms: N2_14  and  C10_16 
REMARK    7  A    between atoms: C10_16  and  O2_17 
REMARK    8  A    between atoms: C10_16  and  C11_19 
REMARK    9  A    between atoms: C11_19  and  N3_20 
REMARK       I    between atoms: N3_20  and  C12_22 
REMARK   10  A    between atoms: C12_22  and  C13_24 
REMARK   11  A    between atoms: C16_27  and  N4_28 
REMARK   12  A    between atoms: N4_28  and  N5_30 
REMARK   13  A    between atoms: C17_33  and  C18_34 
REMARK   14  A    between atoms: C21_37  and  N7_38 
REMARK   15  A    between atoms: C24_45  and  S2_46 
REMARK   16  A    between atoms: C29_51  and  O6_52 
REMARK   17  A    between atoms: N9_54  and  O7_56 
ROOT
HETATM    1  N3  UNL     1      -0.399  -0.747   0.287  1.00  0.00    -0.329 N 
ATOM      2  H3  UNL     1       0.493  -1.231   0.392  1.00  0.00     0.168 HD
HETATM    3  C12 UNL     1      -0.103   0.168  -0.607  1.00  0.00     0.256 C 
HETATM    4  O3  UNL     1      -0.973   1.021  -1.011  1.00  0.00    -0.267 OA
ENDROOT
BRANCH   3   5
HETATM    5  C13 UNL     1       1.213   0.365  -1.267  1.00  0.00     0.038 A 
HETATM    6  C14 UNL     1       1.418   1.435  -2.108  1.00  0.00     0.020 A 
HETATM    7  C15 UNL     1       2.652   1.634  -2.715  1.00  0.00     0.032 A 
HETATM    8  C16 UNL     1       3.697   0.779  -2.497  1.00  0.00     0.050 A 
HETATM    9  C26 UNL     1       3.505  -0.290  -1.661  1.00  0.00     0.038 A 
HETATM   10  C27 UNL     1       2.275  -0.487  -1.059  1.00  0.00    -0.044 A 
HETATM   11  C28 UNL     1       2.133  -1.690  -0.155  1.00  0.00     0.049 C 
BRANCH   8  12
HETATM   12  N4  UNL     1       4.944   1.013  -3.127  1.00  0.00    -0.278 N 
ATOM     13  H4  UNL     1       4.968   1.258  -4.117  1.00  0.00     0.189 HD
BRANCH  12  14
HETATM   14  N5  UNL     1       6.150   0.913  -2.409  1.00  0.00    -0.171 N 
HETATM   15  N6  UNL     1       6.275   0.628  -1.131  1.00  0.00    -0.261 N 
HETATM   16  C17 UNL     1       7.561   0.593  -0.758  1.00  0.00     0.134 A 
ATOM     17  H6  UNL     1       5.491   0.455  -0.502  1.00  0.00     0.191 HD
HETATM   18  N8  UNL     1       8.280   0.867  -1.839  1.00  0.00    -0.318 N 
HETATM   19  C24 UNL     1       7.397   1.065  -2.862  1.00  0.00     0.184 A 
ATOM     20  H8  UNL     1       9.297   0.920  -1.895  1.00  0.00     0.169 HD
BRANCH  16  21
HETATM   21  C18 UNL     1       8.011   0.300   0.627  1.00  0.00     0.009 A 
HETATM   22  C19 UNL     1       7.076   0.074   1.608  1.00  0.00     0.018 A 
HETATM   23  C20 UNL     1       7.450  -0.203   2.881  1.00  0.00     0.037 A 
HETATM   24  C21 UNL     1       8.794  -0.260   3.201  1.00  0.00     0.102 A 
HETATM   25  C22 UNL     1       9.753  -0.036   2.224  1.00  0.00     0.037 A 
HETATM   26  C23 UNL     1       9.352   0.244   0.934  1.00  0.00     0.018 A 
BRANCH  24  27
HETATM   27  N7  UNL     1       9.144  -0.552   4.538  1.00  0.00    -0.116 N 
HETATM   28  O4  UNL     1      10.340  -0.605   4.851  1.00  0.00    -0.532 OA
HETATM   29  O5  UNL     1       8.184  -0.771   5.470  1.00  0.00    -0.532 OA
ENDBRANCH  24  27
ENDBRANCH  16  21
BRANCH  19  30
HETATM   30  S2  UNL     1       7.856   1.472  -4.549  1.00  0.00    -0.095 SA
HETATM   31  C25 UNL     1       7.954   3.258  -4.787  1.00  0.00     0.099 C 
ENDBRANCH  19  30
ENDBRANCH  12  14
ENDBRANCH   8  12
ENDBRANCH   3   5
BRANCH   1  32
HETATM   32  C11 UNL     1      -1.097  -1.352   1.054  1.00  0.00     0.146 C 
BRANCH  32  33
HETATM   33  C10 UNL     1      -2.482  -1.249   1.451  1.00  0.00     0.152 C 
BRANCH  33  34
HETATM   34  N2  UNL     1      -3.439  -0.333   0.992  1.00  0.00    -0.350 N 
ATOM     35  H2  UNL     1      -3.183   0.368   0.297  1.00  0.00     0.163 HD
BRANCH  34  36
HETATM   36  C9  UNL     1      -4.826  -0.384   1.519  1.00  0.00     0.253 C 
BRANCH  36  37
HETATM   37  C8  UNL     1      -5.717  -0.734   0.350  1.00  0.00     0.253 C 
HETATM   38  N1  UNL     1      -7.090  -0.898   0.612  1.00  0.00    -0.324 N 
ATOM     39  H1  UNL     1      -7.388  -0.770   1.579  1.00  0.00     0.169 HD
HETATM   40  O1  UNL     1      -5.192  -0.856  -0.750  1.00  0.00    -0.270 OA
BRANCH  38  41
HETATM   41  C7  UNL     1      -8.099  -1.221  -0.324  1.00  0.00     0.051 A 
HETATM   42  C2  UNL     1      -9.376  -1.494   0.182  1.00  0.00     0.026 A 
HETATM   43  C3  UNL     1     -10.383  -1.793  -0.674  1.00  0.00     0.021 A 
HETATM   44  C4  UNL     1     -10.193  -1.839  -2.035  1.00  0.00     0.002 A 
HETATM   45  C5  UNL     1      -8.951  -1.574  -2.538  1.00  0.00     0.002 A 
HETATM   46  C6  UNL     1      -7.890  -1.262  -1.697  1.00  0.00     0.031 A 
BRANCH  42  47
HETATM   47  S1  UNL     1      -9.640  -1.470   1.939  1.00  0.00    -0.132 SA
HETATM   48  C1  UNL     1     -10.239   0.125   2.532  1.00  0.00     0.095 C 
ENDBRANCH  42  47
ENDBRANCH  38  41
ENDBRANCH  36  37
BRANCH  36  49
HETATM   49  C29 UNL     1      -5.194   0.954   1.995  1.00  0.00     0.168 C 
HETATM   50  N9  UNL     1      -5.694   1.193   3.108  1.00  0.00    -0.249 N 
ATOM     51  H9  UNL     1      -5.905   2.167   3.325  1.00  0.00     0.196 HD
BRANCH  49  52
HETATM   52  O6  UNL     1      -4.960   2.028   1.118  1.00  0.00    -0.346 OA
ATOM     53  H6  UNL     1      -5.198   2.894   1.426  1.00  0.00     0.219 HD
ENDBRANCH  49  52
BRANCH  50  54
HETATM   54  O7  UNL     1      -5.981   0.273   4.054  1.00  0.00    -0.288 OA
ATOM     55  H7  UNL     1      -6.363   0.456   4.904  1.00  0.00     0.244 HD
ENDBRANCH  50  54
ENDBRANCH  36  49
ENDBRANCH  34  36
ENDBRANCH  33  34
BRANCH  33  56
HETATM   56  O2  UNL     1      -2.906  -2.102   2.336  1.00  0.00    -0.345 OA
ATOM     57  H2  UNL     1      -2.258  -2.723   2.647  1.00  0.00     0.219 HD
ENDBRANCH  33  56
ENDBRANCH  32  33
ENDBRANCH   1  32
TORSDOF 17
