REMARK  4 active torsions:
REMARK  status: ('A' for Active; 'I' for Inactive)
REMARK       I    between atoms: C1_2  and  N1_3 
REMARK    1  A    between atoms: C1_2  and  C13_20 
REMARK    2  A    between atoms: N1_3  and  C2_5 
REMARK    3  A    between atoms: C5_8  and  N2_9 
REMARK       I    between atoms: N2_9  and  C6_11 
REMARK    4  A    between atoms: C6_11  and  C7_13 
ROOT
HETATM    1  C2  UNL     1      -1.380  -0.223  -0.609  1.00  0.00     0.084 C 
HETATM    2  C3  UNL     1      -0.519   0.618  -1.535  1.00  0.00     0.027 C 
HETATM    3  C4  UNL     1       0.649  -0.227  -1.948  1.00  0.00     0.027 C 
HETATM    4  C5  UNL     1       1.445  -0.790  -0.822  1.00  0.00     0.084 C 
HETATM    5  C11 UNL     1       0.669  -1.168   0.393  1.00  0.00     0.027 C 
HETATM    6  C12 UNL     1      -0.550  -0.367   0.654  1.00  0.00     0.027 C 
ENDROOT
BRANCH   1   7
HETATM    7  N1  UNL     1      -2.650   0.417  -0.342  1.00  0.00    -0.356 N 
HETATM    8  C1  UNL     1      -3.898  -0.169  -0.611  1.00  0.00     0.222 C 
HETATM    9  O1  UNL     1      -3.967  -1.323  -1.115  1.00  0.00    -0.273 OA
ATOM     10  H1  UNL     1      -2.638   1.351   0.067  1.00  0.00     0.162 HD
BRANCH   8  11
HETATM   11  C13 UNL     1      -5.141   0.539  -0.314  1.00  0.00     0.089 C 
HETATM   12  C14 UNL     1      -6.414  -0.208  -0.654  1.00  0.00     0.093 C 
HETATM   13  C15 UNL     1      -7.023   0.410   0.612  1.00  0.00     0.245 C 
HETATM   14  F1  UNL     1      -7.854  -0.414   1.306  1.00  0.00    -0.206 F 
HETATM   15  F2  UNL     1      -7.500   1.663   0.312  1.00  0.00    -0.206 F 
HETATM   16  C16 UNL     1      -5.588   0.478   1.153  1.00  0.00     0.093 C 
ENDBRANCH   8  11
ENDBRANCH   1   7
BRANCH   4  17
HETATM   17  N2  UNL     1       2.496   0.148  -0.472  1.00  0.00    -0.354 N 
HETATM   18  C6  UNL     1       3.886  -0.176  -0.624  1.00  0.00     0.247 C 
HETATM   19  O2  UNL     1       4.163  -1.328  -1.082  1.00  0.00    -0.271 OA
ATOM     20  H2  UNL     1       2.239   1.065  -0.107  1.00  0.00     0.162 HD
BRANCH  18  21
HETATM   21  C7  UNL     1       4.933   0.780  -0.266  1.00  0.00     0.213 C 
HETATM   22  C8  UNL     1       4.975   1.056   1.228  1.00  0.00     0.043 C 
HETATM   23  C9  UNL     1       5.674  -0.192   1.735  1.00  0.00     0.029 C 
HETATM   24  C10 UNL     1       6.494  -0.597   0.543  1.00  0.00     0.168 C 
HETATM   25  O3  UNL     1       6.172   0.232  -0.504  1.00  0.00    -0.376 OA
ENDBRANCH  18  21
ENDBRANCH   4  17
TORSDOF 4
