REMARK  6 active torsions:
REMARK  status: ('A' for Active; 'I' for Inactive)
REMARK    1  A    between atoms: C3_3  and  C4_4 
REMARK    2  A    between atoms: C3_3  and  N1_9 
REMARK    3  A    between atoms: C4_4  and  C5_5 
REMARK       I    between atoms: N1_9  and  C6_11 
REMARK       I    between atoms: C6_11  and  N2_13 
REMARK    4  A    between atoms: C11_19  and  C12_20 
REMARK    5  A    between atoms: C12_20  and  N3_21 
REMARK    6  A    between atoms: N3_21  and  C13_24 
ROOT
HETATM    1  C1  UNL     1       5.292  -0.039  -2.950  1.00  0.00     0.014 C 
HETATM    2  C2  UNL     1       4.835   0.050  -1.839  1.00  0.00    -0.092 C 
HETATM    3  C3  UNL     1       4.266   0.185  -0.475  1.00  0.00     0.173 C 
ENDROOT
BRANCH   3   4
HETATM    4  C4  UNL     1       4.577   1.544   0.087  1.00  0.00     0.155 C 
BRANCH   4   5
HETATM    5  C5  UNL     1       4.002   1.673   1.466  1.00  0.00     0.390 C 
HETATM    6  F1  UNL     1       2.636   1.514   1.405  1.00  0.00    -0.171 F 
HETATM    7  F2  UNL     1       4.567   0.682   2.261  1.00  0.00    -0.171 F 
HETATM    8  F3  UNL     1       4.259   2.923   2.012  1.00  0.00    -0.171 F 
ENDBRANCH   4   5
ENDBRANCH   3   4
BRANCH   3   9
HETATM    9  N1  UNL     1       2.822  -0.053  -0.532  1.00  0.00    -0.328 N 
HETATM   10  C6  UNL     1       2.282  -1.230   0.022  1.00  0.00     0.319 C 
HETATM   11  O1  UNL     1       3.039  -2.069   0.561  1.00  0.00    -0.247 OA
HETATM   12  N2  UNL     1       0.861  -1.432  -0.053  1.00  0.00    -0.333 N 
HETATM   13  C7  UNL     1       0.133  -2.587   0.446  1.00  0.00     0.135 C 
HETATM   14  C16 UNL     1      -0.118  -0.544  -0.630  1.00  0.00     0.141 C 
HETATM   15  C8  UNL     1      -1.306  -2.188   0.509  1.00  0.00     0.041 C 
HETATM   16  C9  UNL     1      -1.798  -2.229   1.942  1.00  0.00     0.174 C 
HETATM   17  C11 UNL     1      -1.294  -0.686   0.276  1.00  0.00     0.028 C 
HETATM   18  O2  UNL     1      -1.068  -1.206   2.527  1.00  0.00    -0.390 OA
HETATM   19  C10 UNL     1      -1.023  -0.138   1.631  1.00  0.00     0.181 C 
ATOM     20  H1  UNL     1       2.208   0.633  -0.972  1.00  0.00     0.165 HD
BRANCH  17  21
HETATM   21  C12 UNL     1      -2.600  -0.269  -0.311  1.00  0.00     0.246 C 
BRANCH  21  22
HETATM   22  N3  UNL     1      -2.686   1.148  -0.567  1.00  0.00    -0.070 N 
ATOM     23  H32 UNL     1      -2.485   1.693   0.272  1.00  0.00     0.277 HD
ATOM     24  H31 UNL     1      -1.915   1.470  -1.152  1.00  0.00     0.277 HD
BRANCH  22  25
HETATM   25  C13 UNL     1      -3.963   1.502  -1.134  1.00  0.00     0.186 A 
HETATM   26  C14 UNL     1      -5.179   1.230  -0.238  1.00  0.00     0.035 A 
HETATM   27  C15 UNL     1      -4.773   2.604  -0.550  1.00  0.00     0.035 A 
ENDBRANCH  22  25
ENDBRANCH  21  22
ENDBRANCH  17  21
ENDBRANCH   3   9
TORSDOF 6
