REMARK  5 active torsions:
REMARK  status: ('A' for Active; 'I' for Inactive)
REMARK    1  A    between atoms: C1_4  and  C2_6 
REMARK    2  A    between atoms: C5_9  and  N3_10 
REMARK    3  A    between atoms: C6_11  and  C7_12 
REMARK    4  A    between atoms: C7_12  and  C8_13 
REMARK    5  A    between atoms: C12_21  and  C13_22 
ROOT
HETATM    1  N3  UNL     1       0.162   0.148   0.773  1.00  0.00    -0.314 N 
HETATM    2  C6  UNL     1      -0.307   0.918   1.766  1.00  0.00     0.024 A 
HETATM    3  C11 UNL     1      -1.624   0.529   2.002  1.00  0.00     0.040 A 
HETATM    4  C12 UNL     1      -1.944  -0.489   1.135  1.00  0.00     0.004 A 
HETATM    5  C19 UNL     1      -0.814  -0.703   0.384  1.00  0.00     0.061 A 
HETATM    6  C20 UNL     1      -0.676  -1.686  -0.666  1.00  0.00    -0.008 A 
HETATM    7  C21 UNL     1      -1.454  -1.603  -1.803  1.00  0.00     0.014 A 
HETATM    8  C22 UNL     1      -1.323  -2.541  -2.805  1.00  0.00     0.001 A 
HETATM    9  C23 UNL     1      -0.413  -3.593  -2.707  1.00  0.00     0.000 A 
HETATM   10  C24 UNL     1       0.355  -3.658  -1.563  1.00  0.00     0.001 A 
HETATM   11  C25 UNL     1       0.230  -2.720  -0.553  1.00  0.00     0.014 A 
ENDROOT
BRANCH   1  12
HETATM   12  C5  UNL     1       1.495   0.231   0.229  1.00  0.00     0.040 A 
HETATM   13  C4  UNL     1       1.679   0.591  -1.087  1.00  0.00     0.031 A 
HETATM   14  C3  UNL     1       2.932   0.678  -1.644  1.00  0.00     0.017 A 
HETATM   15  C2  UNL     1       4.084   0.402  -0.893  1.00  0.00     0.005 A 
HETATM   16  C27 UNL     1       3.902   0.042   0.425  1.00  0.00     0.017 A 
HETATM   17  C26 UNL     1       2.623  -0.039   0.965  1.00  0.00     0.031 A 
BRANCH  15  18
HETATM   18  C1  UNL     1       5.400   0.501  -1.504  1.00  0.00     0.120 C 
HETATM   19  N1  UNL     1       6.464   0.268  -0.884  1.00  0.00    -0.387 N 
ATOM     20  H12 UNL     1       7.387   0.337  -1.313  1.00  0.00     0.157 HD
ATOM     21  H11 UNL     1       6.405  -0.003   0.098  1.00  0.00     0.157 HD
HETATM   22  N2  UNL     1       5.482   0.880  -2.877  1.00  0.00    -0.082 NA
ENDBRANCH  15  18
ENDBRANCH   1  12
BRANCH   2  23
HETATM   23  C7  UNL     1       0.431   2.003   2.497  1.00  0.00     0.116 C 
BRANCH  23  24
HETATM   24  C8  UNL     1       0.141   3.275   1.785  1.00  0.00     0.031 A 
HETATM   25  C9  UNL     1       0.815   3.895   0.769  1.00  0.00     0.114 A 
HETATM   26  N4  UNL     1       0.150   5.024   0.469  1.00  0.00    -0.360 N 
HETATM   27  C10 UNL     1      -0.918   5.140   1.256  1.00  0.00     0.180 A 
ATOM     28  H4  UNL     1       0.422   5.691  -0.253  1.00  0.00     0.166 HD
HETATM   29  N5  UNL     1      -0.932   4.070   2.068  1.00  0.00    -0.354 N 
ATOM     30  H5  UNL     1      -1.634   3.881   2.784  1.00  0.00     0.166 HD
ENDBRANCH  23  24
ENDBRANCH   2  23
BRANCH   4  31
HETATM   31  C13 UNL     1      -3.235  -1.165   1.072  1.00  0.00    -0.024 A 
HETATM   32  C14 UNL     1      -3.416  -2.497   1.325  1.00  0.00     0.012 A 
HETATM   33  C15 UNL     1      -4.676  -3.040   1.240  1.00  0.00     0.001 A 
HETATM   34  C16 UNL     1      -5.797  -2.305   0.908  1.00  0.00     0.000 A 
HETATM   35  C17 UNL     1      -5.606  -0.962   0.654  1.00  0.00     0.001 A 
HETATM   36  C18 UNL     1      -4.341  -0.413   0.738  1.00  0.00     0.012 A 
ENDBRANCH   4  31
TORSDOF 5
