REMARK  7 active torsions:
REMARK  status: ('A' for Active; 'I' for Inactive)
REMARK    1  A    between atoms: C1_2  and  C2_3 
REMARK       I    between atoms: C1_2  and  N1_16 
REMARK    2  A    between atoms: C2_3  and  O2_4 
REMARK    3  A    between atoms: O2_4  and  C3_5 
REMARK    4  A    between atoms: C3_5  and  C4_7 
REMARK    5  A    between atoms: C9_12  and  C10_13 
REMARK    6  A    between atoms: N1_16  and  C11_18 
REMARK    7  A    between atoms: C11_18  and  C12_19 
ROOT
HETATM    1  O1  UNL     1       0.862  -0.626   0.939  1.00  0.00    -0.271 OA
HETATM    2  C1  UNL     1       0.418  -0.210  -0.151  1.00  0.00     0.241 C 
HETATM    3  N1  UNL     1      -0.969  -0.019  -0.318  1.00  0.00    -0.358 N 
ATOM      4  H1  UNL     1      -1.333   0.321  -1.208  1.00  0.00     0.162 HD
ENDROOT
BRANCH   2   5
HETATM    5  C2  UNL     1       1.365   0.075  -1.249  1.00  0.00     0.281 C 
BRANCH   5   6
HETATM    6  O2  UNL     1       2.694  -0.193  -0.843  1.00  0.00    -0.312 OA
BRANCH   6   7
HETATM    7  C3  UNL     1       3.773  -0.008  -1.687  1.00  0.00     0.264 C 
HETATM    8  O3  UNL     1       3.529   0.412  -2.846  1.00  0.00    -0.265 OA
BRANCH   7   9
HETATM    9  C4  UNL     1       5.159  -0.296  -1.239  1.00  0.00     0.100 C 
HETATM   10  C5  UNL     1       5.262  -1.752  -0.850  1.00  0.00     0.015 C 
HETATM   11  C6  UNL     1       6.650  -1.966  -0.288  1.00  0.00     0.001 C 
HETATM   12  C7  UNL     1       6.690  -1.302   1.064  1.00  0.00     0.001 C 
HETATM   13  C8  UNL     1       5.849  -0.077   1.162  1.00  0.00     0.016 C 
HETATM   14  C9  UNL     1       5.593   0.622  -0.124  1.00  0.00     0.100 C 
BRANCH  14  15
HETATM   15  C10 UNL     1       4.511   1.616   0.072  1.00  0.00     0.177 C 
HETATM   16  O4  UNL     1       3.931   1.694   1.182  1.00  0.00    -0.648 OA
HETATM   17  O5  UNL     1       4.085   2.491  -0.918  1.00  0.00    -0.648 OA
ENDBRANCH  14  15
ENDBRANCH   7   9
ENDBRANCH   6   7
ENDBRANCH   5   6
ENDBRANCH   2   5
BRANCH   3  18
HETATM   18  C11 UNL     1      -1.864  -0.300   0.756  1.00  0.00     0.132 C 
BRANCH  18  19
HETATM   19  C12 UNL     1      -3.307  -0.044   0.416  1.00  0.00    -0.023 C 
HETATM   20  C13 UNL     1      -4.132  -0.382   1.637  1.00  0.00     0.015 C 
HETATM   21  C14 UNL     1      -5.598  -0.135   1.362  1.00  0.00    -0.013 C 
HETATM   22  C15 UNL     1      -5.764   1.342   1.102  1.00  0.00     0.009 C 
HETATM   23  C19 UNL     1      -5.989  -0.981   0.184  1.00  0.00     0.009 C 
HETATM   24  C16 UNL     1      -4.938   1.736  -0.085  1.00  0.00    -0.013 C 
HETATM   25  C17 UNL     1      -5.436   0.961  -1.281  1.00  0.00     0.009 C 
HETATM   26  C21 UNL     1      -3.474   1.455   0.182  1.00  0.00     0.015 C 
HETATM   27  C18 UNL     1      -5.232  -0.506  -1.015  1.00  0.00    -0.013 C 
HETATM   28  C20 UNL     1      -3.762  -0.758  -0.813  1.00  0.00     0.015 C 
ENDBRANCH  18  19
ENDBRANCH   3  18
TORSDOF 7
