REMARK  6 active torsions:
REMARK  status: ('A' for Active; 'I' for Inactive)
REMARK    1  A    between atoms: C5_9  and  C6_10 
REMARK    2  A    between atoms: C6_10  and  N3_11 
REMARK    3  A    between atoms: C9_14  and  C10_15 
REMARK    4  A    between atoms: N4_18  and  C13_19 
REMARK    5  A    between atoms: C13_19  and  C14_20 
REMARK       I    between atoms: C14_20  and  N5_22 
REMARK    6  A    between atoms: N5_22  and  C15_24 
ROOT
HETATM    1  C1  UNL     1       8.048   0.121   1.338  1.00  0.00     0.104 C 
HETATM    2  C2  UNL     1       7.276   0.992   0.944  1.00  0.00    -0.129 C 
HETATM    3  C3  UNL     1       6.320   2.006   0.425  1.00  0.00     0.101 A 
HETATM    4  N1  UNL     1       6.420   3.310   0.511  1.00  0.00    -0.293 N 
ATOM      5  H1  UNL     1       7.141   3.827   1.015  1.00  0.00     0.187 HD
HETATM    6  N2  UNL     1       5.415   3.835  -0.175  1.00  0.00    -0.310 N 
ATOM      7  H2  UNL     1       5.257   4.838  -0.269  1.00  0.00     0.186 HD
HETATM    8  C4  UNL     1       4.638   2.915  -0.725  1.00  0.00     0.122 A 
HETATM    9  C5  UNL     1       5.226   1.713  -0.323  1.00  0.00     0.033 A 
ENDROOT
BRANCH   9  10
HETATM   10  C6  UNL     1       4.823   0.299  -0.633  1.00  0.00     0.111 C 
BRANCH  10  11
HETATM   11  N3  UNL     1       3.597  -0.093  -0.082  1.00  0.00    -0.350 N 
HETATM   12  C7  UNL     1       3.224  -1.423  -0.232  1.00  0.00     0.069 C 
HETATM   13  C8  UNL     1       2.119  -1.445  -1.258  1.00  0.00     0.052 C 
HETATM   14  C9  UNL     1       0.862  -0.892  -0.618  1.00  0.00     0.028 C 
HETATM   15  C20 UNL     1       1.207   0.326   0.190  1.00  0.00     0.052 C 
HETATM   16  C21 UNL     1       2.596   0.881  -0.101  1.00  0.00     0.069 C 
BRANCH  14  17
HETATM   17  C10 UNL     1       0.325  -1.869   0.396  1.00  0.00     0.230 C 
HETATM   18  C11 UNL     1       0.470  -3.323   0.169  1.00  0.00     0.066 C 
HETATM   19  C12 UNL     1      -0.757  -3.221  -0.665  1.00  0.00     0.275 C 
HETATM   20  N4  UNL     1      -1.151  -2.073   0.208  1.00  0.00     0.102 N 
BRANCH  20  21
HETATM   21  C13 UNL     1      -1.820  -1.048  -0.511  1.00  0.00     0.375 C 
BRANCH  21  22
HETATM   22  C14 UNL     1      -3.119  -0.798   0.232  1.00  0.00     0.246 C 
HETATM   23  O1  UNL     1      -3.433  -1.460   1.246  1.00  0.00    -0.272 OA
HETATM   24  N5  UNL     1      -3.962   0.245  -0.295  1.00  0.00    -0.355 N 
ATOM     25  H5  UNL     1      -3.723   0.742  -1.153  1.00  0.00     0.162 HD
BRANCH  24  26
HETATM   26  C15 UNL     1      -5.169   0.555   0.454  1.00  0.00     0.084 C 
HETATM   27  C16 UNL     1      -5.519   2.003   0.369  1.00  0.00     0.025 C 
HETATM   28  C17 UNL     1      -7.028   1.975   0.306  1.00  0.00     0.002 C 
HETATM   29  C18 UNL     1      -7.282   0.754  -0.542  1.00  0.00     0.002 C 
HETATM   30  C19 UNL     1      -6.352  -0.269   0.052  1.00  0.00     0.025 C 
ENDBRANCH  24  26
ENDBRANCH  21  22
ENDBRANCH  20  21
ENDBRANCH  14  17
ENDBRANCH  10  11
ENDBRANCH   9  10
TORSDOF 6
