REMARK  15 active torsions:
REMARK  status: ('A' for Active; 'I' for Inactive)
REMARK    1  A    between atoms: O1_2  and  C2_3 
REMARK       I    between atoms: C2_3  and  N1_5 
REMARK    2  A    between atoms: C3_6  and  C4_7 
REMARK    3  A    between atoms: C5_10  and  N2_11 
REMARK    4  A    between atoms: C9_20  and  N5_21 
REMARK    5  A    between atoms: C11_28  and  C12_29 
REMARK    6  A    between atoms: C12_29  and  S1_30 
REMARK    7  A    between atoms: S1_30  and  S2_31 
REMARK    8  A    between atoms: S2_31  and  C13_32 
REMARK    9  A    between atoms: C15_39  and  C16_40 
REMARK   10  A    between atoms: C16_40  and  O8_41 
REMARK   11  A    between atoms: C16_40  and  C17_43 
REMARK   12  A    between atoms: C17_43  and  O9_44 
REMARK   13  A    between atoms: O9_44  and  N9_45 
REMARK   14  A    between atoms: N9_45  and  N10_46 
REMARK   15  A    between atoms: N9_45  and  O11_51 
REMARK       I    between atoms: N10_46  and  C18_48 
ROOT
HETATM    1  C2  UNL     1      -4.445  -0.073  -3.419  1.00  0.00     0.369 C 
HETATM    2  O2  UNL     1      -3.343  -0.455  -3.973  1.00  0.00    -0.238 OA
HETATM    3  N1  UNL     1      -4.512  -0.095  -2.021  1.00  0.00    -0.255 N 
HETATM    4  C3  UNL     1      -5.683   0.247  -1.224  1.00  0.00     0.170 C 
HETATM    5  C5  UNL     1      -5.215   0.740  -0.072  1.00  0.00     0.188 C 
HETATM    6  O6  UNL     1      -3.822   0.716  -0.119  1.00  0.00    -0.306 OA
HETATM    7  C11 UNL     1      -3.551  -0.396  -0.987  1.00  0.00     0.252 C 
ENDROOT
BRANCH   7   8
HETATM    8  C12 UNL     1      -2.153  -0.533  -1.352  1.00  0.00     0.141 C 
BRANCH   8   9
HETATM    9  S1  UNL     1      -1.326   0.876  -2.092  1.00  0.00    -0.086 SA
BRANCH   9  10
HETATM   10  S2  UNL     1       0.764   0.472  -2.343  1.00  0.00    -0.036 SA
BRANCH  10  11
HETATM   11  C13 UNL     1       1.672   0.993  -0.896  1.00  0.00     0.133 C 
HETATM   12  N7  UNL     1       1.025   1.646   0.024  1.00  0.00    -0.299 N 
HETATM   13  C14 UNL     1       1.693   2.087   1.197  1.00  0.00     0.321 C 
ATOM     14  H7  UNL     1       0.032   1.843  -0.098  1.00  0.00     0.171 HD
HETATM   15  O7  UNL     1       1.080   2.729   2.112  1.00  0.00    -0.247 OA
HETATM   16  N8  UNL     1       3.060   1.828   1.386  1.00  0.00    -0.328 N 
HETATM   17  C15 UNL     1       3.871   1.231   0.356  1.00  0.00     0.194 C 
ATOM     18  H8  UNL     1       3.491   2.070   2.278  1.00  0.00     0.165 HD
HETATM   19  C21 UNL     1       3.082   0.715  -0.744  1.00  0.00     0.208 C 
HETATM   20  O12 UNL     1       3.659  -0.029  -1.638  1.00  0.00    -0.288 OA
BRANCH  17  21
HETATM   21  C16 UNL     1       4.726   0.192   1.058  1.00  0.00     0.174 C 
BRANCH  21  22
HETATM   22  O8  UNL     1       3.966  -0.776   1.658  1.00  0.00    -0.391 OA
ATOM     23  H8  UNL     1       4.501  -1.426   2.097  1.00  0.00     0.210 HD
ENDBRANCH  21  22
BRANCH  21  24
HETATM   24  C17 UNL     1       5.885  -0.299   0.253  1.00  0.00     0.232 C 
BRANCH  24  25
HETATM   25  O9  UNL     1       6.778  -1.018   1.073  1.00  0.00    -0.258 OA
BRANCH  25  26
HETATM   26  N9  UNL     1       7.840  -1.497   0.442  1.00  0.00     0.040 NA
BRANCH  26  27
HETATM   27  N10 UNL     1       8.201  -0.857  -0.733  1.00  0.00    -0.241 N 
HETATM   28  C18 UNL     1       9.250   0.097  -0.825  1.00  0.00     0.231 C 
HETATM   29  C19 UNL     1       9.609   0.757  -2.095  1.00  0.00     0.118 C 
HETATM   30  O10 UNL     1       9.879   0.363   0.255  1.00  0.00    -0.273 OA
ATOM     31  H10 UNL     1       7.683  -1.084  -1.582  1.00  0.00     0.188 HD
ENDBRANCH  26  27
BRANCH  26  32
HETATM   32  O11 UNL     1       8.899  -1.550   1.265  1.00  0.00    -0.266 OA
HETATM   33  C20 UNL     1       8.535  -1.655   2.600  1.00  0.00     0.234 C 
ENDBRANCH  26  32
ENDBRANCH  25  26
ENDBRANCH  24  25
ENDBRANCH  21  24
ENDBRANCH  17  21
ENDBRANCH  10  11
ENDBRANCH   9  10
ENDBRANCH   8   9
ENDBRANCH   7   8
BRANCH   1  34
HETATM   34  O1  UNL     1      -5.425   0.316  -4.295  1.00  0.00    -0.309 OA
HETATM   35  C1  UNL     1      -5.326   0.330  -5.700  1.00  0.00     0.215 C 
ENDBRANCH   1  34
BRANCH   4  36
HETATM   36  C4  UNL     1      -7.071   0.067  -1.561  1.00  0.00     0.231 C 
HETATM   37  O3  UNL     1      -7.945   0.448  -0.725  1.00  0.00    -0.643 OA
HETATM   38  O4  UNL     1      -7.523  -0.489  -2.724  1.00  0.00    -0.643 OA
ENDBRANCH   4  36
BRANCH   5  39
HETATM   39  N2  UNL     1      -6.046   1.198   0.990  1.00  0.00    -0.269 N 
HETATM   40  C6  UNL     1      -6.553   2.421   1.213  1.00  0.00     0.193 A 
HETATM   41  N3  UNL     1      -7.301   2.433   2.357  1.00  0.00    -0.344 N 
HETATM   42  C7  UNL     1      -7.275   1.200   2.876  1.00  0.00     0.148 A 
ATOM     43  H3  UNL     1      -7.792   3.238   2.746  1.00  0.00     0.167 HD
HETATM   44  C8  UNL     1      -7.858   0.650   4.020  1.00  0.00     0.290 A 
HETATM   45  C10 UNL     1      -6.501   0.437   2.034  1.00  0.00     0.163 A 
HETATM   46  O5  UNL     1      -8.562   1.308   4.800  1.00  0.00    -0.265 OA
HETATM   47  N4  UNL     1      -7.620  -0.644   4.240  1.00  0.00    -0.154 N 
HETATM   48  C9  UNL     1      -6.867  -1.390   3.423  1.00  0.00     0.680 A 
ATOM     49  H4  UNL     1      -8.029  -1.083   5.065  1.00  0.00     0.187 HD
HETATM   50  N6  UNL     1      -6.297  -0.850   2.304  1.00  0.00    -0.174 N 
ATOM     51  H6  UNL     1      -5.724  -1.425   1.686  1.00  0.00     0.186 HD
BRANCH  48  52
HETATM   52  N5  UNL     1      -6.657  -2.633   3.667  1.00  0.00    -0.234 N 
ATOM     53  H52 UNL     1      -7.082  -3.036   4.502  1.00  0.00     0.174 HD
ATOM     54  H51 UNL     1      -6.083  -3.202   3.044  1.00  0.00     0.174 HD
ENDBRANCH  48  52
ENDBRANCH   5  39
TORSDOF 15
