REMARK  4 active torsions:
REMARK  status: ('A' for Active; 'I' for Inactive)
REMARK    1  A    between atoms: C4_5  and  N2_6 
REMARK    2  A    between atoms: N2_6  and  C5_8 
REMARK    3  A    between atoms: C5_8  and  C6_9 
REMARK    4  A    between atoms: C6_9  and  C7_10 
ROOT
HETATM    1  N1  UNL     1       4.512   2.908  -0.629  1.00  0.00    -0.190 NA
HETATM    2  C1  UNL     1       4.164   1.864  -0.288  1.00  0.00     0.117 C 
HETATM    3  C2  UNL     1       3.716   0.578   0.153  1.00  0.00     0.118 A 
HETATM    4  C3  UNL     1       2.346   0.272   0.175  1.00  0.00     0.089 A 
HETATM    5  C4  UNL     1       1.925  -0.956   0.597  1.00  0.00     0.108 A 
HETATM    6  N4  UNL     1       2.887  -1.840   0.982  1.00  0.00    -0.339 N 
ATOM      7  H4  UNL     1       2.599  -2.765   1.300  1.00  0.00     0.168 HD
HETATM    8  C11 UNL     1       4.185  -1.552   0.962  1.00  0.00     0.183 A 
HETATM    9  N5  UNL     1       4.601  -0.348   0.549  1.00  0.00    -0.344 N 
ATOM     10  H5  UNL     1       5.598  -0.134   0.536  1.00  0.00     0.167 HD
ENDROOT
BRANCH   5  11
HETATM   11  N2  UNL     1       0.764  -1.322   0.655  1.00  0.00    -0.355 N 
ATOM     12  H2  UNL     1       0.779  -2.280   1.006  1.00  0.00     0.166 HD
BRANCH  11  13
HETATM   13  C5  UNL     1      -0.553  -1.002   0.452  1.00  0.00     0.068 C 
BRANCH  13  14
HETATM   14  C6  UNL     1      -0.891   0.382  -0.076  1.00  0.00     0.101 C 
BRANCH  14  15
HETATM   15  C7  UNL     1      -2.354   0.541  -0.229  1.00  0.00     0.013 A 
HETATM   16  C8  UNL     1      -3.068   0.242  -1.359  1.00  0.00     0.026 A 
HETATM   17  C9  UNL     1      -4.407   0.539  -1.073  1.00  0.00     0.019 A 
HETATM   18  C10 UNL     1      -4.428   1.000   0.209  1.00  0.00     0.088 A 
HETATM   19  N3  UNL     1      -3.177   0.999   0.718  1.00  0.00    -0.369 N 
ATOM     20  H3  UNL     1      -2.909   1.295   1.657  1.00  0.00     0.165 HD
ENDBRANCH  14  15
ENDBRANCH  13  14
ENDBRANCH  11  13
ENDBRANCH   5  11
TORSDOF 4
