REMARK  4 active torsions:
REMARK  status: ('A' for Active; 'I' for Inactive)
REMARK    1  A    between atoms: C4_6  and  C5_7 
REMARK    2  A    between atoms: C5_7  and  N2_8 
REMARK    3  A    between atoms: C5_7  and  C6_12 
REMARK    4  A    between atoms: C8_19  and  N5_20 
ROOT
HETATM    1  C1  UNL     1      -2.548   2.046  -0.611  1.00  0.00     0.047 C 
HETATM    2  C2  UNL     1      -2.168   0.826  -0.235  1.00  0.00     0.067 A 
HETATM    3  N1  UNL     1      -0.838   0.550  -0.111  1.00  0.00    -0.350 N 
ATOM      4  H1  UNL     1      -0.153   1.280  -0.308  1.00  0.00     0.166 HD
HETATM    5  C3  UNL     1      -0.418  -0.668   0.266  1.00  0.00     0.100 A 
HETATM    6  C4  UNL     1       0.867  -0.914   0.380  1.00  0.00     0.050 C 
HETATM    7  C7  UNL     1      -1.369  -1.628   0.523  1.00  0.00     0.273 A 
HETATM    8  O2  UNL     1      -1.062  -2.793   0.880  1.00  0.00    -0.266 OA
HETATM    9  N4  UNL     1      -2.684  -1.355   0.400  1.00  0.00    -0.306 N 
ATOM     10  H4  UNL     1      -3.372  -2.082   0.595  1.00  0.00     0.170 HD
HETATM   11  C8  UNL     1      -3.096  -0.132   0.022  1.00  0.00     0.128 A 
ENDROOT
BRANCH   6  12
HETATM   12  C5  UNL     1       1.904   0.100   0.109  1.00  0.00     0.297 C 
BRANCH  12  13
HETATM   13  N2  UNL     1       1.959   1.033   1.193  1.00  0.00    -0.064 N 
ATOM     14  H23 UNL     1       1.050   1.454   1.384  1.00  0.00     0.275 HD
ATOM     15  H22 UNL     1       2.099   0.571   2.092  1.00  0.00     0.275 HD
ATOM     16  H21 UNL     1       2.676   1.734   1.006  1.00  0.00     0.275 HD
ENDBRANCH  12  13
BRANCH  12  17
HETATM   17  C6  UNL     1       3.238  -0.507  -0.113  1.00  0.00     0.265 C 
HETATM   18  N3  UNL     1       4.309  -0.107   0.722  1.00  0.00    -0.060 NA
HETATM   19  O1  UNL     1       3.471  -1.357  -1.000  1.00  0.00    -0.274 OA
ENDBRANCH  12  17
ENDBRANCH   6  12
BRANCH  11  20
HETATM   20  N5  UNL     1      -4.381   0.081  -0.082  1.00  0.00    -0.384 N 
ATOM     21  H52 UNL     1      -4.694   1.009  -0.369  1.00  0.00     0.157 HD
ATOM     22  H51 UNL     1      -5.078  -0.638   0.111  1.00  0.00     0.157 HD
ENDBRANCH  11  20
TORSDOF 4
