REMARK  11 active torsions:
REMARK  status: ('A' for Active; 'I' for Inactive)
REMARK    1  A    between atoms: C6_6  and  C7_7 
REMARK    2  A    between atoms: C8_8  and  N1_9 
REMARK    3  A    between atoms: N1_9  and  C9_10 
REMARK    4  A    between atoms: C9_10  and  C10_11 
REMARK    5  A    between atoms: C10_11  and  C11_12 
REMARK    6  A    between atoms: C11_12  and  O1_13 
REMARK    7  A    between atoms: C11_12  and  C12_15 
REMARK    8  A    between atoms: C12_15  and  O2_16 
REMARK    9  A    between atoms: C15_20  and  O3_21 
REMARK   10  A    between atoms: C16_23  and  C17_24 
REMARK   11  A    between atoms: C17_24  and  O4_25 
ROOT
HETATM    1  N1  UNL     1      -0.674  -0.403  -0.027  1.00  0.00    -0.038 N 
HETATM    2  C13 UNL     1      -0.616  -0.494   1.412  1.00  0.00     0.246 C 
HETATM    3  C14 UNL     1      -0.866  -1.946   1.793  1.00  0.00     0.062 C 
HETATM    4  C15 UNL     1      -1.345  -2.561   0.506  1.00  0.00     0.153 C 
HETATM    5  C16 UNL     1      -0.535  -1.730  -0.488  1.00  0.00     0.247 C 
ENDROOT
BRANCH   1   6
HETATM    6  C8  UNL     1       0.101   0.597  -0.590  1.00  0.00     0.204 C 
HETATM    7  C7  UNL     1       1.468   0.625  -1.012  1.00  0.00     0.032 C 
BRANCH   7   8
HETATM    8  C6  UNL     1       2.631   0.430  -0.127  1.00  0.00    -0.053 A 
HETATM    9  C5  UNL     1       3.019  -0.830   0.522  1.00  0.00     0.066 A 
HETATM   10  C4  UNL     1       4.266  -0.831   1.278  1.00  0.00    -0.021 A 
HETATM   11  C3  UNL     1       5.086   0.177   1.446  1.00  0.00     0.007 A 
HETATM   12  C2  UNL     1       4.716   1.426   0.811  1.00  0.00    -0.045 A 
HETATM   13  C1  UNL     1       5.510   2.471   0.951  1.00  0.00     0.023 C 
HETATM   14  C18 UNL     1       3.490   1.462   0.056  1.00  0.00     0.018 A 
ENDBRANCH   7   8
ENDBRANCH   1   6
BRANCH   1  15
HETATM   15  C9  UNL     1      -2.111   0.008  -0.220  1.00  0.00     0.246 C 
BRANCH  15  16
HETATM   16  C10 UNL     1      -2.340   1.442   0.108  1.00  0.00     0.062 C 
BRANCH  16  17
HETATM   17  C11 UNL     1      -3.837   1.745  -0.116  1.00  0.00     0.143 C 
BRANCH  17  18
HETATM   18  O1  UNL     1      -4.033   3.090   0.196  1.00  0.00    -0.393 OA
ATOM     19  H1  UNL     1      -4.954   3.276   0.058  1.00  0.00     0.210 HD
ENDBRANCH  17  18
BRANCH  17  20
HETATM   20  C12 UNL     1      -4.191   1.561  -1.572  1.00  0.00     0.195 C 
BRANCH  20  21
HETATM   21  O2  UNL     1      -3.378   2.360  -2.373  1.00  0.00    -0.398 OA
ATOM     22  H2  UNL     1      -3.601   2.244  -3.289  1.00  0.00     0.209 HD
ENDBRANCH  20  21
ENDBRANCH  17  20
ENDBRANCH  16  17
ENDBRANCH  15  16
ENDBRANCH   1  15
BRANCH   5  23
HETATM   23  C17 UNL     1      -0.998  -2.040  -1.877  1.00  0.00     0.200 C 
BRANCH  23  24
HETATM   24  O4  UNL     1      -0.730  -3.421  -2.067  1.00  0.00    -0.399 OA
ATOM     25  H4  UNL     1      -1.024  -3.618  -2.949  1.00  0.00     0.209 HD
ENDBRANCH  23  24
ENDBRANCH   5  23
BRANCH   4  26
HETATM   26  O3  UNL     1      -0.875  -3.891   0.392  1.00  0.00    -0.393 OA
ATOM     27  H3  UNL     1      -1.177  -4.279  -0.421  1.00  0.00     0.210 HD
ENDBRANCH   4  26
TORSDOF 11
