REMARK  9 active torsions:
REMARK  status: ('A' for Active; 'I' for Inactive)
REMARK    1  A    between atoms: O1_2  and  C2_3 
REMARK    2  A    between atoms: C4_5  and  C5_6 
REMARK    3  A    between atoms: C5_6  and  N1_7 
REMARK    4  A    between atoms: N1_7  and  N2_9 
REMARK    5  A    between atoms: N2_9  and  C6_11 
REMARK    6  A    between atoms: C7_16  and  N5_17 
REMARK    7  A    between atoms: N5_17  and  C8_19 
REMARK    8  A    between atoms: C8_19  and  O2_21 
REMARK    9  A    between atoms: C10_25  and  N7_26 
ROOT
HETATM    1  C6  UNL     1      -0.832  -1.034   0.851  1.00  0.00     0.180 A 
HETATM    2  N3  UNL     1      -2.030  -1.578   1.108  1.00  0.00    -0.267 N 
ATOM      3  H3  UNL     1      -2.081  -2.399   1.711  1.00  0.00     0.189 HD
HETATM    4  N4  UNL     1      -3.152  -1.081   0.602  1.00  0.00    -0.130 N 
ATOM      5  H4  UNL     1      -4.040  -1.529   0.826  1.00  0.00     0.205 HD
HETATM    6  C7  UNL     1      -3.147  -0.008  -0.194  1.00  0.00     0.696 A 
HETATM    7  N6  UNL     1      -1.931   0.558  -0.464  1.00  0.00    -0.172 N 
ATOM      8  H6  UNL     1      -1.896   1.379  -1.068  1.00  0.00     0.186 HD
HETATM    9  C10 UNL     1      -0.787   0.078   0.032  1.00  0.00     0.162 A 
ENDROOT
BRANCH   1  10
HETATM   10  N2  UNL     1       0.247  -1.535   1.355  1.00  0.00    -0.282 N 
ATOM     11  H2  UNL     1       0.148  -2.356   1.952  1.00  0.00     0.188 HD
BRANCH  10  12
HETATM   12  N1  UNL     1       1.517  -1.052   1.153  1.00  0.00    -0.308 N 
ATOM     13  H1  UNL     1       1.882  -1.109   0.202  1.00  0.00     0.186 HD
BRANCH  12  14
HETATM   14  C5  UNL     1       2.281  -0.544   2.023  1.00  0.00     0.138 C 
BRANCH  14  15
HETATM   15  C4  UNL     1       3.617  -0.085   1.589  1.00  0.00     0.070 A 
HETATM   16  C3  UNL     1       3.984  -0.222   0.279  1.00  0.00     0.089 A 
HETATM   17  C2  UNL     1       5.220   0.200  -0.131  1.00  0.00     0.159 A 
HETATM   18  N10 UNL     1       6.050   0.745   0.775  1.00  0.00    -0.265 N 
HETATM   19  N9  UNL     1       5.654   0.860   2.040  1.00  0.00    -0.240 N 
ATOM     20  H10 UNL     1       6.976   1.068   0.495  1.00  0.00     0.190 HD
HETATM   21  N8  UNL     1       4.474   0.463   2.458  1.00  0.00    -0.285 N 
ATOM     22  H9  UNL     1       6.296   1.275   2.715  1.00  0.00     0.208 HD
ATOM     23  H8  UNL     1       4.213   0.572   3.438  1.00  0.00     0.188 HD
BRANCH  17  24
HETATM   24  O1  UNL     1       5.559   0.044  -1.472  1.00  0.00    -0.340 OA
HETATM   25  C1  UNL     1       6.824   0.477  -1.889  1.00  0.00     0.211 C 
ENDBRANCH  17  24
ENDBRANCH  14  15
ENDBRANCH  12  14
ENDBRANCH  10  12
ENDBRANCH   1  10
BRANCH   9  26
HETATM   26  N7  UNL     1       0.326   0.648  -0.254  1.00  0.00    -0.382 N 
ATOM     27  H72 UNL     1       1.199   0.282   0.125  1.00  0.00     0.157 HD
ATOM     28  H71 UNL     1       0.359   1.469  -0.859  1.00  0.00     0.157 HD
ENDBRANCH   9  26
BRANCH   6  29
HETATM   29  N5  UNL     1      -4.200   0.525  -0.718  1.00  0.00    -0.199 N 
ATOM     30  H5  UNL     1      -4.122   1.347  -1.317  1.00  0.00     0.180 HD
BRANCH  29  31
HETATM   31  C8  UNL     1      -5.486  -0.061  -0.442  1.00  0.00     0.231 C 
HETATM   32  C9  UNL     1      -6.477   0.629  -1.373  1.00  0.00     0.063 C 
BRANCH  31  33
HETATM   33  O2  UNL     1      -5.851   0.165   0.888  1.00  0.00    -0.377 OA
ATOM     34  H2  UNL     1      -6.699  -0.222   1.070  1.00  0.00     0.212 HD
ENDBRANCH  31  33
ENDBRANCH  29  31
ENDBRANCH   6  29
TORSDOF 9
