REMARK  19 active torsions:
REMARK  status: ('A' for Active; 'I' for Inactive)
REMARK    1  A    between atoms: C2_2  and  C3_4 
REMARK    2  A    between atoms: C5_6  and  C6_7 
REMARK    3  A    between atoms: C6_7  and  N1_8 
REMARK    4  A    between atoms: N1_8  and  C7_10 
REMARK    5  A    between atoms: C7_10  and  C8_11 
REMARK    6  A    between atoms: C8_11  and  O2_12 
REMARK    7  A    between atoms: C8_11  and  N2_14 
REMARK    8  A    between atoms: N2_14  and  N3_16 
REMARK    9  A    between atoms: N3_16  and  C9_18 
REMARK   10  A    between atoms: C10_19  and  N4_20 
REMARK   11  A    between atoms: C11_24  and  N5_25 
REMARK   12  A    between atoms: C12_30  and  C13_31 
REMARK   13  A    between atoms: C13_31  and  N8_33 
REMARK   14  A    between atoms: N8_33  and  N9_35 
REMARK   15  A    between atoms: N9_35  and  C15_37 
REMARK   16  A    between atoms: N13_44  and  C16_45 
REMARK   17  A    between atoms: C18_57  and  O4_58 
REMARK   18  A    between atoms: C19_60  and  O5_61 
REMARK   19  A    between atoms: C20_63  and  O6_64 
ROOT
HETATM    1  C9  UNL     1       1.109   0.370   0.107  1.00  0.00     0.067 C 
HETATM    2  C10 UNL     1      -0.279   0.129   0.621  1.00  0.00     0.261 C 
HETATM    3  C11 UNL     1      -1.070  -0.799  -0.274  1.00  0.00     0.196 C 
HETATM    4  C18 UNL     1      -1.032  -0.426  -1.728  1.00  0.00     0.178 C 
HETATM    5  C19 UNL     1       0.181   0.388  -2.121  1.00  0.00     0.183 C 
HETATM    6  C20 UNL     1       1.372  -0.121  -1.263  1.00  0.00     0.198 C 
ENDROOT
BRANCH   3   7
HETATM    7  N5  UNL     1      -2.455  -0.695   0.183  1.00  0.00    -0.208 N 
HETATM    8  N6  UNL     1      -3.065  -1.551   0.950  1.00  0.00    -0.224 N 
HETATM    9  N7  UNL     1      -4.301  -1.066   1.109  1.00  0.00    -0.267 N 
ATOM     10  H6  UNL     1      -2.682  -2.409   1.346  1.00  0.00     0.210 HD
HETATM   11  C12 UNL     1      -4.422   0.084   0.430  1.00  0.00     0.161 A 
ATOM     12  H7  UNL     1      -5.038  -1.503   1.662  1.00  0.00     0.190 HD
HETATM   13  N17 UNL     1      -3.223   0.309  -0.162  1.00  0.00    -0.264 N 
ATOM     14  H17 UNL     1      -2.970   1.099  -0.755  1.00  0.00     0.190 HD
BRANCH  11  15
HETATM   15  C13 UNL     1      -5.610   0.945   0.350  1.00  0.00     0.069 C 
HETATM   16  C14 UNL     1      -5.449   2.178  -0.501  1.00  0.00     0.074 C 
BRANCH  15  17
HETATM   17  N8  UNL     1      -6.684   0.658   0.947  1.00  0.00    -0.287 N 
ATOM     18  H8  UNL     1      -7.441   1.331   0.822  1.00  0.00     0.187 HD
BRANCH  17  19
HETATM   19  N9  UNL     1      -6.978  -0.379   1.708  1.00  0.00    -0.129 N 
ATOM     20  H9  UNL     1      -6.310  -0.472   2.473  1.00  0.00     0.205 HD
BRANCH  19  21
HETATM   21  C15 UNL     1      -7.849  -1.286   1.758  1.00  0.00     0.737 A 
HETATM   22  N10 UNL     1      -7.837  -2.229   2.744  1.00  0.00    -0.113 N 
HETATM   23  N11 UNL     1      -8.830  -3.057   2.554  1.00  0.00    -0.213 N 
ATOM     24  H10 UNL     1      -7.162  -2.280   3.507  1.00  0.00     0.207 HD
HETATM   25  N12 UNL     1      -9.460  -2.655   1.479  1.00  0.00    -0.205 N 
ATOM     26  H11 UNL     1      -9.069  -3.862   3.133  1.00  0.00     0.210 HD
HETATM   27  N13 UNL     1      -8.879  -1.557   0.959  1.00  0.00    -0.046 N 
ATOM     28  H12 UNL     1     -10.283  -3.113   1.087  1.00  0.00     0.211 HD
BRANCH  27  29
HETATM   29  C16 UNL     1      -9.343  -0.928  -0.215  1.00  0.00     0.214 A 
HETATM   30  N14 UNL     1      -9.290  -1.435  -1.484  1.00  0.00    -0.220 N 
HETATM   31  O3  UNL     1      -9.837  -0.602  -2.327  1.00  0.00    -0.153 OA
ATOM     32  H14 UNL     1      -8.882  -2.335  -1.736  1.00  0.00     0.198 HD
HETATM   33  N15 UNL     1     -10.246   0.441  -1.651  1.00  0.00    -0.222 N 
HETATM   34  C17 UNL     1      -9.957   0.277  -0.330  1.00  0.00     0.170 A 
ATOM     35  H15 UNL     1     -10.711   1.255  -2.053  1.00  0.00     0.198 HD
HETATM   36  N16 UNL     1     -10.234   1.148   0.590  1.00  0.00    -0.381 N 
ATOM     37 2H16 UNL     1     -10.018   1.025   1.579  1.00  0.00     0.157 HD
ATOM     38 1H16 UNL     1     -10.695   2.054   0.504  1.00  0.00     0.157 HD
ENDBRANCH  27  29
ENDBRANCH  19  21
ENDBRANCH  17  19
ENDBRANCH  15  17
ENDBRANCH  11  15
ENDBRANCH   3   7
BRANCH   2  39
HETATM   39  N4  UNL     1      -0.096  -0.574   1.895  1.00  0.00    -0.068 N 
ATOM     40  H43 UNL     1       0.470  -1.419   1.823  1.00  0.00     0.275 HD
ATOM     41  H42 UNL     1       0.509  -0.084   2.554  1.00  0.00     0.275 HD
ATOM     42  H41 UNL     1      -1.040  -0.738   2.245  1.00  0.00     0.275 HD
ENDBRANCH   2  39
BRANCH   4  43
HETATM   43  O4  UNL     1      -1.055  -1.596  -2.511  1.00  0.00    -0.391 OA
ATOM     44  H4  UNL     1      -1.031  -1.360  -3.431  1.00  0.00     0.210 HD
ENDBRANCH   4  43
BRANCH   1  45
HETATM   45  N3  UNL     1       1.931   1.002   0.854  1.00  0.00    -0.302 N 
ATOM     46  H3  UNL     1       1.648   1.339   1.774  1.00  0.00     0.186 HD
BRANCH  45  47
HETATM   47  N2  UNL     1       3.270   1.227   0.364  1.00  0.00    -0.279 N 
ATOM     48  H2  UNL     1       3.576   2.118  -0.028  1.00  0.00     0.189 HD
BRANCH  47  49
HETATM   49  C8  UNL     1       4.103   0.125   0.474  1.00  0.00     0.170 C 
BRANCH  49  50
HETATM   50  C7  UNL     1       5.456  -0.013   0.062  1.00  0.00     0.141 C 
BRANCH  50  51
HETATM   51  N1  UNL     1       6.298   0.983  -0.442  1.00  0.00    -0.391 N 
ATOM     52  H1  UNL     1       6.585   1.057  -1.418  1.00  0.00     0.159 HD
BRANCH  51  53
HETATM   53  C6  UNL     1       6.718   1.915   0.628  1.00  0.00     0.158 C 
BRANCH  53  54
HETATM   54  C5  UNL     1       8.222   1.610   0.824  1.00  0.00    -0.033 A 
HETATM   55  C4  UNL     1       8.812   0.476   0.367  1.00  0.00     0.032 A 
HETATM   56  C3  UNL     1      10.138   0.288   0.668  1.00  0.00     0.050 A 
HETATM   57  S1  UNL     1      10.531   1.671   1.559  1.00  0.00    -0.098 SA
HETATM   58  C21 UNL     1       9.016   2.464   1.544  1.00  0.00     0.059 A 
BRANCH  56  59
HETATM   59  C2  UNL     1      10.975  -0.867   0.255  1.00  0.00     0.162 C 
HETATM   60  C1  UNL     1      10.417  -1.914  -0.613  1.00  0.00     0.097 C 
HETATM   61  O1  UNL     1      12.142  -0.911   0.655  1.00  0.00    -0.292 OA
ENDBRANCH  56  59
ENDBRANCH  53  54
ENDBRANCH  51  53
ENDBRANCH  50  51
ENDBRANCH  49  50
BRANCH  49  62
HETATM   62  O2  UNL     1       3.594  -0.958   1.027  1.00  0.00    -0.344 OA
ATOM     63  H2  UNL     1       2.689  -0.866   1.302  1.00  0.00     0.219 HD
ENDBRANCH  49  62
ENDBRANCH  47  49
ENDBRANCH  45  47
ENDBRANCH   1  45
BRANCH   5  64
HETATM   64  O5  UNL     1      -0.033   1.730  -1.882  1.00  0.00    -0.390 OA
ATOM     65  H5  UNL     1       0.729   2.241  -2.129  1.00  0.00     0.210 HD
ENDBRANCH   5  64
BRANCH   6  66
HETATM   66  O6  UNL     1       1.325  -1.480  -1.395  1.00  0.00    -0.387 OA
ATOM     67  H6  UNL     1       1.494  -1.795  -2.275  1.00  0.00     0.210 HD
ENDBRANCH   6  66
TORSDOF 19
