REMARK  6 active torsions:
REMARK  status: ('A' for Active; 'I' for Inactive)
REMARK    1  A    between atoms: C3_8  and  C4_9 
REMARK       I    between atoms: C4_9  and  N3_11 
REMARK    2  A    between atoms: N3_11  and  N4_13 
REMARK    3  A    between atoms: C5_16  and  N5_17 
REMARK    4  A    between atoms: N5_17  and  C6_19 
REMARK    5  A    between atoms: C6_19  and  C7_20 
REMARK       I    between atoms: C7_20  and  N6_22 
REMARK    6  A    between atoms: N6_22  and  C8_24 
ROOT
HETATM    1  N1  UNL     1      -3.648   4.106  -0.730  1.00  0.00    -0.234 N 
ATOM      2  H11 UNL     1      -2.871   4.727  -0.505  1.00  0.00     0.174 HD
ATOM      3  H12 UNL     1      -4.555   4.467  -1.026  1.00  0.00     0.174 HD
HETATM    4  C1  UNL     1      -3.471   2.837  -0.640  1.00  0.00     0.677 A 
HETATM    5  N2  UNL     1      -4.512   2.005  -0.942  1.00  0.00    -0.201 N 
ATOM      6  H2  UNL     1      -5.419   2.364  -1.241  1.00  0.00     0.183 HD
HETATM    7  C2  UNL     1      -4.276   0.696  -0.824  1.00  0.00     0.127 A 
HETATM    8  C3  UNL     1      -3.046   0.159  -0.418  1.00  0.00     0.094 A 
HETATM    9  C5  UNL     1      -2.017   1.017  -0.127  1.00  0.00     0.138 A 
HETATM   10  N8  UNL     1      -2.299   2.371  -0.258  1.00  0.00    -0.176 N 
ATOM     11  H8  UNL     1      -1.559   3.041  -0.047  1.00  0.00     0.186 HD
ENDROOT
BRANCH   9  12
HETATM   12  N5  UNL     1      -0.871   0.667   0.114  1.00  0.00    -0.346 N 
ATOM     13  H5  UNL     1      -0.335   1.516   0.295  1.00  0.00     0.167 HD
BRANCH  12  14
HETATM   14  C6  UNL     1       0.002  -0.390   0.244  1.00  0.00     0.164 C 
BRANCH  14  15
HETATM   15  C7  UNL     1       1.446   0.098   0.181  1.00  0.00     0.261 C 
HETATM   16  O2  UNL     1       1.549   1.331   0.086  1.00  0.00    -0.267 OA
HETATM   17  N6  UNL     1       2.516  -0.782   0.226  1.00  0.00    -0.316 N 
ATOM     18  H6  UNL     1       2.294  -1.775   0.299  1.00  0.00     0.169 HD
BRANCH  17  19
HETATM   19  C8  UNL     1       3.888  -0.434   0.180  1.00  0.00     0.126 A 
HETATM   20  C9  UNL     1       4.356   0.850   0.250  1.00  0.00     0.182 A 
HETATM   21  O3  UNL     1       5.675   1.082   0.224  1.00  0.00    -0.271 OA
HETATM   22  C10 UNL     1       6.553   0.134   0.134  1.00  0.00     0.372 A 
HETATM   23  O4  UNL     1       7.806   0.351   0.107  1.00  0.00    -0.238 OA
HETATM   24  N7  UNL     1       6.182  -1.164   0.060  1.00  0.00    -0.267 N 
HETATM   25  C11 UNL     1       4.852  -1.456   0.083  1.00  0.00     0.278 A 
ATOM     26  H7  UNL     1       6.880  -1.905  -0.011  1.00  0.00     0.174 HD
HETATM   27  O5  UNL     1       4.411  -2.627   0.018  1.00  0.00    -0.265 OA
ENDBRANCH  17  19
ENDBRANCH  14  15
ENDBRANCH  12  14
ENDBRANCH   9  12
BRANCH   8  28
HETATM   28  C4  UNL     1      -2.965  -1.298  -0.206  1.00  0.00     0.274 C 
HETATM   29  O1  UNL     1      -2.930  -2.099  -1.170  1.00  0.00    -0.266 OA
HETATM   30  N3  UNL     1      -2.943  -1.800   1.108  1.00  0.00    -0.272 N 
ATOM     31  H3  UNL     1      -2.961  -1.129   1.876  1.00  0.00     0.189 HD
BRANCH  30  32
HETATM   32  N4  UNL     1      -2.897  -3.172   1.429  1.00  0.00    -0.342 N 
ATOM     33  H42 UNL     1      -2.879  -3.828   0.648  1.00  0.00     0.176 HD
ATOM     34  H41 UNL     1      -2.881  -3.536   2.382  1.00  0.00     0.176 HD
ENDBRANCH  30  32
ENDBRANCH   8  28
TORSDOF 6
