REMARK  6 active torsions:
REMARK  status: ('A' for Active; 'I' for Inactive)
REMARK    1  A    between atoms: O1_1  and  N1_3 
REMARK    2  A    between atoms: C1_5  and  O2_6 
REMARK    3  A    between atoms: C1_5  and  C2_8 
REMARK    4  A    between atoms: N2_10  and  C3_11 
REMARK    5  A    between atoms: C3_11  and  C4_12 
REMARK    6  A    between atoms: C12_21  and  O5_22 
ROOT
HETATM    1  C2  UNL     1      -2.915  -0.914   0.100  1.00  0.00     0.253 C 
HETATM    2  O3  UNL     1      -1.719  -0.842  -0.566  1.00  0.00    -0.284 OA
HETATM    3  N2  UNL     1      -0.697  -0.358   0.217  1.00  0.00    -0.164 NA
HETATM    4  C10 UNL     1      -1.141   0.737   0.931  1.00  0.00     0.253 C 
HETATM    5  O4  UNL     1      -2.049   0.267   1.922  1.00  0.00    -0.355 OA
HETATM    6  C11 UNL     1      -3.035   0.316   0.971  1.00  0.00     0.195 C 
HETATM    7  C12 UNL     1      -2.333   1.448   0.309  1.00  0.00     0.195 C 
ENDROOT
BRANCH   1   8
HETATM    8  C1  UNL     1      -4.030  -1.010  -0.855  1.00  0.00     0.170 C 
HETATM    9  N1  UNL     1      -4.953  -0.123  -0.882  1.00  0.00    -0.249 N 
ATOM     10  H1  UNL     1      -4.892   0.652  -0.222  1.00  0.00     0.196 HD
BRANCH   9  11
HETATM   11  O1  UNL     1      -6.017  -0.151  -1.743  1.00  0.00    -0.288 OA
ATOM     12  H1  UNL     1      -6.702   0.507  -1.763  1.00  0.00     0.244 HD
ENDBRANCH   9  11
BRANCH   8  13
HETATM   13  O2  UNL     1      -4.087  -2.066  -1.733  1.00  0.00    -0.346 OA
ATOM     14  H2  UNL     1      -3.402  -2.724  -1.713  1.00  0.00     0.219 HD
ENDBRANCH   8  13
ENDBRANCH   1   8
BRANCH   3  15
HETATM   15  C3  UNL     1       0.475  -0.450  -0.500  1.00  0.00     0.128 C 
BRANCH  15  16
HETATM   16  C4  UNL     1       1.804  -0.482   0.141  1.00  0.00     0.001 C 
HETATM   17  C5  UNL     1       2.112   0.721   0.935  1.00  0.00     0.006 C 
HETATM   18  C6  UNL     1       3.550   1.076   1.085  1.00  0.00     0.000 C 
HETATM   19  C7  UNL     1       4.571   0.158   0.560  1.00  0.00     0.000 C 
HETATM   20  C8  UNL     1       4.105  -1.108  -0.072  1.00  0.00     0.000 C 
HETATM   21  C9  UNL     1       2.895  -0.758  -0.913  1.00  0.00     0.006 C 
ENDBRANCH  15  16
ENDBRANCH   3  15
BRANCH   7  22
HETATM   22  O5  UNL     1      -2.241   1.425  -1.058  1.00  0.00    -0.389 OA
ATOM     23  H5  UNL     1      -2.986   1.869  -1.447  1.00  0.00     0.210 HD
ENDBRANCH   7  22
TORSDOF 6
