REMARK  5 active torsions:
REMARK  status: ('A' for Active; 'I' for Inactive)
REMARK    1  A    between atoms: N1_1  and  C1_5 
REMARK    2  A    between atoms: C1_5  and  C2_6 
REMARK    3  A    between atoms: C2_6  and  N2_7 
REMARK    4  A    between atoms: N2_7  and  C3_9 
REMARK    5  A    between atoms: C5_11  and  C6_12 
ROOT
HETATM    1  C3  UNL     1      -1.357  -0.235   0.629  1.00  0.00     0.103 A 
HETATM    2  C4  UNL     1      -0.039  -0.515   0.293  1.00  0.00     0.078 A 
HETATM    3  C5  UNL     1       0.965   0.446   0.325  1.00  0.00     0.046 A 
HETATM    4  N3  UNL     1       0.632   1.700   0.702  1.00  0.00    -0.352 N 
ATOM      5  H3  UNL     1       1.340   2.433   0.740  1.00  0.00     0.166 HD
HETATM    6  C12 UNL     1      -0.645   1.970   1.027  1.00  0.00     0.182 A 
HETATM    7  N4  UNL     1      -1.617   1.031   0.994  1.00  0.00    -0.339 N 
ATOM      8  H4  UNL     1      -2.569   1.290   1.252  1.00  0.00     0.168 HD
ENDROOT
BRANCH   1   9
HETATM    9  N2  UNL     1      -2.266  -1.144   0.591  1.00  0.00    -0.375 N 
ATOM     10  H2  UNL     1      -1.985  -2.082   0.304  1.00  0.00     0.161 HD
BRANCH   9  11
HETATM   11  C2  UNL     1      -3.638  -0.938   0.920  1.00  0.00     0.148 C 
BRANCH  11  12
HETATM   12  C1  UNL     1      -4.358  -0.010  -0.038  1.00  0.00     0.249 C 
BRANCH  12  13
HETATM   13  N1  UNL     1      -4.340  -0.520  -1.386  1.00  0.00    -0.078 N 
ATOM     14  H13 UNL     1      -3.388  -0.713  -1.699  1.00  0.00     0.274 HD
ATOM     15  H12 UNL     1      -4.717  -1.467  -1.431  1.00  0.00     0.274 HD
ATOM     16  H11 UNL     1      -4.825   0.105  -2.031  1.00  0.00     0.274 HD
ENDBRANCH  12  13
ENDBRANCH  11  12
ENDBRANCH   9  11
ENDBRANCH   1   9
BRANCH   3  17
HETATM   17  C6  UNL     1       2.331   0.121  -0.033  1.00  0.00    -0.009 A 
HETATM   18  C7  UNL     1       3.350   1.031  -0.016  1.00  0.00     0.013 A 
HETATM   19  C8  UNL     1       4.663   0.692  -0.366  1.00  0.00     0.001 A 
HETATM   20  C9  UNL     1       4.967  -0.590  -0.743  1.00  0.00     0.000 A 
HETATM   21  C10 UNL     1       3.973  -1.521  -0.770  1.00  0.00     0.001 A 
HETATM   22  C11 UNL     1       2.662  -1.160  -0.415  1.00  0.00     0.013 A 
ENDBRANCH   3  17
TORSDOF 5
