REMARK  8 active torsions:
REMARK  status: ('A' for Active; 'I' for Inactive)
REMARK    1  A    between atoms: N1_1  and  C1_5 
REMARK    2  A    between atoms: C1_5  and  N2_6 
REMARK    3  A    between atoms: C1_5  and  C2_10 
REMARK    4  A    between atoms: C2_10  and  C3_11 
REMARK    5  A    between atoms: C3_11  and  N3_12 
REMARK    6  A    between atoms: C4_13  and  N4_14 
REMARK    7  A    between atoms: N4_14  and  C5_16 
REMARK    8  A    between atoms: C9_33  and  O2_34 
ROOT
HETATM    1  N3  UNL     1       0.374  -0.273   0.433  1.00  0.00    -0.145 N 
HETATM    2  C4  UNL     1      -0.286   0.597  -0.380  1.00  0.00     0.702 A 
HETATM    3  N9  UNL     1      -1.576   0.449  -0.705  1.00  0.00    -0.192 N 
ATOM      4  H9  UNL     1      -2.046   1.116  -1.317  1.00  0.00     0.184 HD
HETATM    5  C6  UNL     1      -2.237  -0.620  -0.191  1.00  0.00     0.063 A 
HETATM    6  C7  UNL     1      -1.580  -1.511   0.635  1.00  0.00     0.137 A 
HETATM    7  C8  UNL     1      -0.248  -1.346   0.962  1.00  0.00     0.291 A 
HETATM    8  O1  UNL     1       0.345  -2.163   1.717  1.00  0.00    -0.265 OA
HETATM    9  N10 UNL     1      -2.276  -2.627   1.170  1.00  0.00    -0.295 N 
ATOM     10  H10 UNL     1      -1.742  -3.333   1.676  1.00  0.00     0.182 HD
HETATM   11  N11 UNL     1      -3.642  -2.806   1.040  1.00  0.00    -0.108 NA
HETATM   12  C9  UNL     1      -4.339  -1.613   0.632  1.00  0.00     0.236 C 
HETATM   13  C10 UNL     1      -3.663  -0.880  -0.484  1.00  0.00     0.111 C 
ENDROOT
BRANCH   1  14
HETATM   14  C3  UNL     1       1.750  -0.062   0.742  1.00  0.00     0.155 C 
BRANCH  14  15
HETATM   15  C2  UNL     1       2.702  -0.724  -0.226  1.00  0.00     0.083 C 
BRANCH  15  16
HETATM   16  C1  UNL     1       4.114  -0.385   0.271  1.00  0.00     0.379 C 
BRANCH  16  17
HETATM   17  N1  UNL     1       5.042  -1.004  -0.633  1.00  0.00    -0.050 N 
ATOM     18  H13 UNL     1       4.945  -0.661  -1.589  1.00  0.00     0.276 HD
ATOM     19  H12 UNL     1       6.004  -0.703  -0.473  1.00  0.00     0.276 HD
ATOM     20  H11 UNL     1       4.933  -2.016  -0.568  1.00  0.00     0.276 HD
ENDBRANCH  16  17
BRANCH  16  21
HETATM   21  N2  UNL     1       4.270   1.057   0.178  1.00  0.00    -0.050 N 
ATOM     22  H23 UNL     1       5.232   1.358   0.338  1.00  0.00     0.276 HD
ATOM     23  H22 UNL     1       4.173   1.400  -0.778  1.00  0.00     0.276 HD
ATOM     24  H21 UNL     1       3.611   1.497   0.820  1.00  0.00     0.276 HD
ENDBRANCH  16  21
ENDBRANCH  15  16
ENDBRANCH  14  15
ENDBRANCH   1  14
BRANCH   2  25
HETATM   25  N4  UNL     1       0.431   1.710  -0.905  1.00  0.00    -0.019 N 
ATOM     26  H4  UNL     1       1.204   1.533  -1.547  1.00  0.00     0.203 HD
BRANCH  25  27
HETATM   27  C5  UNL     1       0.151   2.914  -0.609  1.00  0.00     0.725 A 
HETATM   28  N5  UNL     1       0.830   3.974  -1.106  1.00  0.00    -0.117 N 
HETATM   29  N6  UNL     1       0.300   5.066  -0.611  1.00  0.00    -0.212 N 
ATOM     30  H5  UNL     1       1.617   3.931  -1.753  1.00  0.00     0.207 HD
HETATM   31  N7  UNL     1      -0.698   4.713   0.186  1.00  0.00     0.009 NA
ATOM     32  H6  UNL     1       0.603   6.020  -0.805  1.00  0.00     0.206 HD
HETATM   33  N8  UNL     1      -0.802   3.393   0.198  1.00  0.00    -0.113 N 
ATOM     34  H8  UNL     1      -1.482   2.844   0.724  1.00  0.00     0.203 HD
ENDBRANCH  25  27
ENDBRANCH   2  25
BRANCH  12  35
HETATM   35  O2  UNL     1      -5.617  -2.002   0.215  1.00  0.00    -0.378 OA
ATOM     36  H2  UNL     1      -6.077  -1.215  -0.054  1.00  0.00     0.211 HD
ENDBRANCH  12  35
TORSDOF 8
