REMARK  10 active torsions:
REMARK  status: ('A' for Active; 'I' for Inactive)
REMARK       I    between atoms: C1_2  and  N7_29 
REMARK    1  A    between atoms: N2_3  and  N3_5 
REMARK    2  A    between atoms: N4_9  and  O1_10 
REMARK    3  A    between atoms: C4_12  and  C5_13 
REMARK    4  A    between atoms: C5_13  and  C6_14 
REMARK    5  A    between atoms: N6_20  and  O3_21 
REMARK    6  A    between atoms: C9_23  and  O4_24 
REMARK    7  A    between atoms: C10_26  and  O5_27 
REMARK    8  A    between atoms: N7_29  and  N8_31 
REMARK    9  A    between atoms: N8_31  and  N9_32 
REMARK   10  A    between atoms: N8_31  and  O6_35 
ROOT
HETATM    1  N3  UNL     1       2.102   0.451   1.099  1.00  0.00    -0.303 N 
ATOM      2  H3  UNL     1       2.605   1.312   1.314  1.00  0.00     0.186 HD
HETATM    3  C2  UNL     1       0.988   0.542   0.472  1.00  0.00     0.050 C 
HETATM    4  C3  UNL     1       0.244  -0.661   0.148  1.00  0.00     0.177 C 
HETATM    5  N4  UNL     1      -1.178  -0.541   0.197  1.00  0.00    -0.187 NA
HETATM    6  C4  UNL     1      -1.693   0.776   0.037  1.00  0.00     0.123 C 
HETATM    7  C9  UNL     1      -0.745   1.611  -0.816  1.00  0.00     0.173 C 
HETATM    8  C10 UNL     1       0.472   1.872   0.083  1.00  0.00     0.196 C 
ENDROOT
BRANCH   1   9
HETATM    9  N2  UNL     1       2.665  -0.757   1.504  1.00  0.00    -0.273 N 
HETATM   10  C1  UNL     1       3.767  -1.216   1.013  1.00  0.00     0.221 C 
HETATM   11  N1  UNL     1       4.336  -2.451   1.432  1.00  0.00    -0.061 NA
HETATM   12  N7  UNL     1       4.462  -0.487   0.018  1.00  0.00    -0.250 N 
ATOM     13  H7  UNL     1       3.946  -0.048  -0.744  1.00  0.00     0.187 HD
ATOM     14  H2  UNL     1       2.185  -1.303   2.220  1.00  0.00     0.189 HD
BRANCH  12  15
HETATM   15  N8  UNL     1       5.839  -0.368   0.076  1.00  0.00    -0.009 NA
BRANCH  15  16
HETATM   16  N9  UNL     1       6.297   0.380  -0.989  1.00  0.00    -0.322 NA
ATOM     17  H92 UNL     1       5.818   1.280  -0.991  1.00  0.00     0.175 HD
ATOM     18  H91 UNL     1       7.312   0.468  -0.946  1.00  0.00     0.175 HD
ENDBRANCH  15  16
BRANCH  15  19
HETATM   19  O6  UNL     1       6.475  -1.563   0.079  1.00  0.00    -0.276 OA
ATOM     20  H6  UNL     1       7.421  -1.481   0.119  1.00  0.00     0.241 HD
ENDBRANCH  15  19
ENDBRANCH  12  15
ENDBRANCH   1   9
BRANCH   8  21
HETATM   21  O5  UNL     1      -0.047   2.561   1.201  1.00  0.00    -0.387 OA
ATOM     22  H5  UNL     1      -0.379   3.415   0.951  1.00  0.00     0.210 HD
ENDBRANCH   8  21
BRANCH   5  23
HETATM   23  O1  UNL     1      -1.685  -1.426  -0.694  1.00  0.00    -0.312 OA
ATOM     24  H1  UNL     1      -2.631  -1.346  -0.661  1.00  0.00     0.237 HD
ENDBRANCH   5  23
BRANCH   7  25
HETATM   25  O4  UNL     1      -1.321   2.782  -1.254  1.00  0.00    -0.391 OA
ATOM     26  H4  UNL     1      -0.730   3.302  -1.786  1.00  0.00     0.210 HD
ENDBRANCH   7  25
BRANCH   6  27
HETATM   27  C5  UNL     1      -3.013   0.749  -0.651  1.00  0.00     0.086 C 
BRANCH  27  28
HETATM   28  C6  UNL     1      -4.040  -0.027   0.088  1.00  0.00     0.062 A 
HETATM   29  C7  UNL     1      -3.977  -0.699   1.262  1.00  0.00     0.120 A 
HETATM   30  N5  UNL     1      -5.180  -1.234   1.494  1.00  0.00    -0.315 N 
HETATM   31  C8  UNL     1      -6.024  -0.911   0.473  1.00  0.00     0.350 A 
ATOM     32  H5  UNL     1      -5.428  -1.796   2.308  1.00  0.00     0.170 HD
HETATM   33  O2  UNL     1      -7.239  -1.250   0.367  1.00  0.00    -0.244 OA
HETATM   34  N6  UNL     1      -5.296  -0.167  -0.379  1.00  0.00    -0.176 N 
BRANCH  34  35
HETATM   35  O3  UNL     1      -5.833   0.348  -1.552  1.00  0.00    -0.279 OA
ATOM     36  H3  UNL     1      -6.719   0.249  -1.881  1.00  0.00     0.245 HD
ENDBRANCH  34  35
ENDBRANCH  27  28
ENDBRANCH   6  27
TORSDOF 10
