REMARK  10 active torsions:
REMARK  status: ('A' for Active; 'I' for Inactive)
REMARK    1  A    between atoms: C2_2  and  C3_3 
REMARK    2  A    between atoms: C5_7  and  C6_8 
REMARK    3  A    between atoms: C9_13  and  C10_14 
REMARK    4  A    between atoms: C10_14  and  N3_15 
REMARK    5  A    between atoms: C19_27  and  C20_28 
REMARK    6  A    between atoms: C20_28  and  C21_29 
REMARK    7  A    between atoms: C21_29  and  C22_30 
REMARK    8  A    between atoms: C22_30  and  C23_31 
REMARK    9  A    between atoms: C23_31  and  N5_32 
REMARK       I    between atoms: N5_32  and  C24_34 
REMARK   10  A    between atoms: N6_39  and  O4_40 
ROOT
HETATM    1  C6  UNL     1      -2.735  -0.737  -0.234  1.00  0.00     0.012 A 
HETATM    2  C7  UNL     1      -1.413  -0.342  -0.447  1.00  0.00     0.060 A 
HETATM    3  C8  UNL     1      -0.632  -1.421  -0.050  1.00  0.00     0.099 A 
HETATM    4  N2  UNL     1      -1.425  -2.398   0.373  1.00  0.00    -0.350 N 
ATOM      5  H2  UNL     1      -1.090  -3.298   0.717  1.00  0.00     0.166 HD
HETATM    6  C9  UNL     1      -2.706  -2.061   0.293  1.00  0.00     0.067 A 
HETATM    7  C14 UNL     1       0.819  -1.323  -0.150  1.00  0.00     0.212 A 
HETATM    8  O1  UNL     1       1.519  -2.310   0.212  1.00  0.00    -0.285 OA
HETATM    9  C15 UNL     1       1.444  -0.113  -0.658  1.00  0.00     0.055 A 
HETATM   10  C16 UNL     1       0.694   0.965  -1.058  1.00  0.00     0.099 A 
HETATM   11  N4  UNL     1       1.517   1.919  -1.482  1.00  0.00    -0.355 N 
ATOM     12  H4  UNL     1       1.223   2.829  -1.836  1.00  0.00     0.166 HD
HETATM   13  C17 UNL     1       2.797   1.509  -1.377  1.00  0.00     0.013 A 
HETATM   14  C18 UNL     1       4.005   2.297  -1.752  1.00  0.00     0.068 C 
HETATM   15  C19 UNL     1       2.763   0.229  -0.857  1.00  0.00    -0.019 A 
HETATM   16  C26 UNL     1      -0.775   0.859  -0.954  1.00  0.00     0.213 A 
HETATM   17  O3  UNL     1      -1.416   1.838  -1.318  1.00  0.00    -0.285 OA
ENDROOT
BRANCH   1  18
HETATM   18  C5  UNL     1      -3.833  -0.113  -0.436  1.00  0.00     0.065 C 
HETATM   19  C4  UNL     1      -4.221   1.181  -0.936  1.00  0.00     0.134 A 
HETATM   20  N1  UNL     1      -4.528   1.523  -2.196  1.00  0.00    -0.339 N 
HETATM   21  N6  UNL     1      -4.440   2.313  -0.201  1.00  0.00    -0.210 N 
HETATM   22  C3  UNL     1      -4.928   2.822  -2.263  1.00  0.00     0.058 A 
ATOM     23  H1  UNL     1      -4.470   0.894  -2.997  1.00  0.00     0.167 HD
HETATM   24  C27 UNL     1      -4.870   3.321  -0.992  1.00  0.00     0.065 A 
HETATM   25  C28 UNL     1      -5.189   4.698  -0.498  1.00  0.00     0.073 C 
BRANCH  22  26
HETATM   26  C2  UNL     1      -5.321   3.520  -3.470  1.00  0.00     0.021 C 
HETATM   27  C1  UNL     1      -5.901   4.673  -3.565  1.00  0.00     0.013 C 
ENDBRANCH  22  26
BRANCH  21  28
HETATM   28  O4  UNL     1      -4.252   2.413   1.148  1.00  0.00    -0.281 OA
ATOM     29  H4  UNL     1      -4.404   3.199   1.659  1.00  0.00     0.245 HD
ENDBRANCH  21  28
ENDBRANCH   1  18
BRANCH   6  30
HETATM   30  C10 UNL     1      -3.754  -2.790   0.629  1.00  0.00     0.231 C 
BRANCH  30  31
HETATM   31  N3  UNL     1      -3.621  -4.109   1.149  1.00  0.00    -0.057 N 
HETATM   32  C11 UNL     1      -2.975  -4.023   2.430  1.00  0.00     0.277 C 
HETATM   33  C12 UNL     1      -4.977  -4.616   1.420  1.00  0.00     0.277 C 
HETATM   34  C13 UNL     1      -3.032  -5.039   0.235  1.00  0.00     0.277 C 
ENDBRANCH  30  31
ENDBRANCH   6  30
BRANCH  15  35
HETATM   35  C20 UNL     1       3.971  -0.548  -0.557  1.00  0.00     0.042 C 
BRANCH  35  36
HETATM   36  C21 UNL     1       4.314  -0.411   0.890  1.00  0.00     0.006 C 
BRANCH  36  37
HETATM   37  C22 UNL     1       5.546  -1.194   1.282  1.00  0.00     0.020 C 
BRANCH  37  38
HETATM   38  C23 UNL     1       6.774  -0.772   0.533  1.00  0.00     0.122 C 
BRANCH  38  39
HETATM   39  N5  UNL     1       7.117   0.610   0.734  1.00  0.00    -0.361 N 
HETATM   40  C24 UNL     1       8.249   1.145   0.092  1.00  0.00     0.213 C 
HETATM   41  C25 UNL     1       8.595   2.569   0.305  1.00  0.00     0.117 C 
HETATM   42  O2  UNL     1       8.973   0.413  -0.667  1.00  0.00    -0.274 OA
ATOM     43  H5  UNL     1       6.543   1.199   1.338  1.00  0.00     0.162 HD
ENDBRANCH  38  39
ENDBRANCH  37  38
ENDBRANCH  36  37
ENDBRANCH  35  36
ENDBRANCH  15  35
TORSDOF 10
