REMARK  14 active torsions:
REMARK  status: ('A' for Active; 'I' for Inactive)
REMARK    1  A    between atoms: C2_2  and  C3_3 
REMARK    2  A    between atoms: C3_3  and  C4_4 
REMARK    3  A    between atoms: C4_4  and  O1_5 
REMARK    4  A    between atoms: C4_4  and  C5_7 
REMARK    5  A    between atoms: C5_7  and  C6_8 
REMARK    6  A    between atoms: C6_8  and  C7_9 
REMARK    7  A    between atoms: C7_9  and  C8_10 
REMARK    8  A    between atoms: C8_10  and  C9_11 
REMARK    9  A    between atoms: C9_11  and  C10_12 
REMARK   10  A    between atoms: N3_24  and  N4_26 
REMARK   11  A    between atoms: C18_35  and  C19_36 
REMARK   12  A    between atoms: C19_36  and  C20_37 
REMARK   13  A    between atoms: C24_44  and  C25_45 
REMARK   14  A    between atoms: C25_45  and  C27_47 
ROOT
HETATM    1  C10 UNL     1       1.817  -1.391   0.161  1.00  0.00     0.176 C 
HETATM    2  N1  UNL     1       0.753  -2.087  -0.530  1.00  0.00    -0.346 N 
ATOM      3  H1  UNL     1       0.677  -1.937  -1.536  1.00  0.00     0.163 HD
HETATM    4  C11 UNL     1      -0.190  -2.956   0.064  1.00  0.00     0.241 C 
HETATM    5  O2  UNL     1      -0.343  -4.154  -0.371  1.00  0.00    -0.271 OA
HETATM    6  C12 UNL     1      -1.057  -2.573   1.204  1.00  0.00     0.175 C 
HETATM    7  C13 UNL     1      -0.873  -3.524   2.375  1.00  0.00     0.042 C 
HETATM    8  N2  UNL     1      -2.455  -2.545   0.779  1.00  0.00    -0.337 N 
HETATM    9  C14 UNL     1      -2.711  -2.726  -0.659  1.00  0.00     0.154 C 
HETATM   10  C15 UNL     1      -3.560  -2.370   1.621  1.00  0.00     0.289 C 
HETATM   11  O3  UNL     1      -4.615  -3.025   1.263  1.00  0.00    -0.264 OA
HETATM   12  C16 UNL     1      -3.687  -1.567   2.825  1.00  0.00     0.193 C 
HETATM   13  N3  UNL     1      -4.120  -2.299   3.867  1.00  0.00    -0.267 N 
ATOM     14  H3  UNL     1      -4.308  -3.291   3.722  1.00  0.00     0.190 HD
HETATM   15  N6  UNL     1      -3.409  -0.197   2.976  1.00  0.00    -0.306 N 
ATOM     16  H6  UNL     1      -2.886   0.024   3.823  1.00  0.00     0.170 HD
HETATM   17  C17 UNL     1      -3.709   0.923   2.193  1.00  0.00     0.246 C 
HETATM   18  O4  UNL     1      -4.253   1.986   2.701  1.00  0.00    -0.271 OA
HETATM   19  C18 UNL     1      -3.486   1.116   0.738  1.00  0.00     0.177 C 
HETATM   20  N7  UNL     1      -2.337   2.022   0.654  1.00  0.00    -0.346 N 
ATOM     21  H7  UNL     1      -2.530   3.010   0.819  1.00  0.00     0.163 HD
HETATM   22  C23 UNL     1      -1.021   1.696   0.377  1.00  0.00     0.241 C 
HETATM   23  O5  UNL     1      -0.119   2.114   1.195  1.00  0.00    -0.271 OA
HETATM   24  C24 UNL     1      -0.506   0.907  -0.776  1.00  0.00     0.180 C 
HETATM   25  N8  UNL     1       0.944   0.853  -0.786  1.00  0.00    -0.346 N 
ATOM     26  H8  UNL     1       1.416   1.452  -1.464  1.00  0.00     0.163 HD
HETATM   27  C29 UNL     1       1.766   0.070   0.032  1.00  0.00     0.241 C 
HETATM   28  O6  UNL     1       2.603   0.697   0.787  1.00  0.00    -0.271 OA
ENDROOT
BRANCH   1  29
HETATM   29  C9  UNL     1       3.106  -2.038  -0.271  1.00  0.00     0.035 C 
BRANCH  29  30
HETATM   30  C8  UNL     1       4.330  -1.458   0.335  1.00  0.00     0.002 C 
BRANCH  30  31
HETATM   31  C7  UNL     1       5.591  -2.197  -0.108  1.00  0.00     0.000 C 
BRANCH  31  32
HETATM   32  C6  UNL     1       6.821  -1.629   0.494  1.00  0.00     0.006 C 
BRANCH  32  33
HETATM   33  C5  UNL     1       7.088  -0.167   0.164  1.00  0.00     0.064 C 
BRANCH  33  34
HETATM   34  C4  UNL     1       7.291   0.107  -1.246  1.00  0.00     0.043 C 
BRANCH  34  35
HETATM   35  C3  UNL     1       7.432   1.360  -1.885  1.00  0.00     0.027 C 
BRANCH  35  36
HETATM   36  C2  UNL     1       7.403   2.545  -1.379  1.00  0.00    -0.029 C 
HETATM   37  C1  UNL     1       7.210   2.898   0.033  1.00  0.00     0.036 C 
ENDBRANCH  35  36
ENDBRANCH  34  35
BRANCH  34  38
HETATM   38  O1  UNL     1       7.355  -0.935  -2.029  1.00  0.00    -0.365 OA
ATOM     39  H1  UNL     1       7.260  -1.777  -1.600  1.00  0.00     0.217 HD
ENDBRANCH  34  38
ENDBRANCH  33  34
ENDBRANCH  32  33
ENDBRANCH  31  32
ENDBRANCH  30  31
ENDBRANCH  29  30
ENDBRANCH   1  29
BRANCH  24  40
HETATM   40  C25 UNL     1      -0.992   1.534  -2.089  1.00  0.00     0.013 C 
HETATM   41  C26 UNL     1      -0.474   0.748  -3.241  1.00  0.00     0.012 C 
BRANCH  40  42
HETATM   42  C27 UNL     1      -0.644   2.989  -2.102  1.00  0.00     0.002 C 
HETATM   43  C28 UNL     1      -1.097   3.669  -3.372  1.00  0.00     0.005 C 
ENDBRANCH  40  42
ENDBRANCH  24  40
BRANCH  19  44
HETATM   44  C19 UNL     1      -4.648   1.909   0.145  1.00  0.00     0.038 C 
BRANCH  44  45
HETATM   45  C20 UNL     1      -5.976   1.232   0.311  1.00  0.00    -0.020 C 
HETATM   46  C21 UNL     1      -6.051  -0.105  -0.343  1.00  0.00     0.009 C 
HETATM   47  C22 UNL     1      -7.010   2.146  -0.339  1.00  0.00     0.009 C 
ENDBRANCH  44  45
ENDBRANCH  19  44
BRANCH  13  48
HETATM   48  N4  UNL     1      -4.319  -1.769   5.114  1.00  0.00    -0.248 N 
HETATM   49  N5  UNL     1      -5.010  -0.721   5.260  1.00  0.00    -0.331 N 
ATOM     50  H52 UNL     1      -5.415  -0.280   4.434  1.00  0.00     0.178 HD
ATOM     51  H51 UNL     1      -5.158  -0.326   6.189  1.00  0.00     0.178 HD
ATOM     52  H4  UNL     1      -3.907  -2.223   5.929  1.00  0.00     0.207 HD
ENDBRANCH  13  48
TORSDOF 14
