REMARK  13 active torsions:
REMARK  status: ('A' for Active; 'I' for Inactive)
REMARK    1  A    between atoms: C3_3  and  N1_4 
REMARK    2  A    between atoms: N1_4  and  C6_7 
REMARK    3  A    between atoms: C6_7  and  C7_8 
REMARK    4  A    between atoms: C7_8  and  C8_9 
REMARK    5  A    between atoms: C8_9  and  C9_10 
REMARK       I    between atoms: C9_10  and  N2_12 
REMARK    6  A    between atoms: N2_12  and  N3_14 
REMARK    7  A    between atoms: N3_14  and  C10_15 
REMARK    8  A    between atoms: N3_14  and  N7_37 
REMARK    9  A    between atoms: C10_15  and  C11_16 
REMARK   10  A    between atoms: C11_16  and  N4_17 
REMARK   11  A    between atoms: C11_16  and  C15_28 
REMARK       I    between atoms: N4_17  and  C12_18 
REMARK       I    between atoms: C12_18  and  N5_20 
REMARK   12  A    between atoms: C14_23  and  N6_24 
REMARK   13  A    between atoms: C20_33  and  C21_34 
ROOT
HETATM    1  C1  UNL     1       7.936  -1.394   0.175  1.00  0.00     0.013 C 
HETATM    2  C2  UNL     1       7.062  -0.610   0.480  1.00  0.00    -0.089 C 
HETATM    3  C3  UNL     1       6.002   0.320   0.851  1.00  0.00     0.328 C 
ENDROOT
BRANCH   3   4
HETATM    4  N1  UNL     1       5.123   0.616  -0.273  1.00  0.00    -0.065 N 
HETATM    5  C4  UNL     1       5.995   0.713  -1.448  1.00  0.00     0.273 C 
HETATM    6  C5  UNL     1       4.561   1.902  -0.020  1.00  0.00     0.273 C 
BRANCH   4   7
HETATM    7  C6  UNL     1       4.226  -0.475  -0.389  1.00  0.00     0.238 C 
BRANCH   7   8
HETATM    8  C7  UNL     1       3.031  -0.382  -1.222  1.00  0.00     0.037 C 
BRANCH   8   9
HETATM    9  C8  UNL     1       1.911   0.505  -0.928  1.00  0.00     0.106 C 
BRANCH   9  10
HETATM   10  C9  UNL     1       1.215   0.106   0.338  1.00  0.00     0.237 C 
HETATM   11  O1  UNL     1       1.623  -0.831   1.026  1.00  0.00    -0.272 OA
HETATM   12  N2  UNL     1       0.032   0.833   0.771  1.00  0.00    -0.252 N 
ATOM     13  H2  UNL     1      -0.313   1.613   0.211  1.00  0.00     0.191 HD
BRANCH  12  14
HETATM   14  N3  UNL     1      -0.634   0.478   1.939  1.00  0.00    -0.214 N 
BRANCH  14  15
HETATM   15  C10 UNL     1      -1.810  -0.302   1.815  1.00  0.00     0.215 C 
BRANCH  15  16
HETATM   16  C11 UNL     1      -2.252  -0.729   0.459  1.00  0.00     0.224 C 
BRANCH  16  17
HETATM   17  N4  UNL     1      -2.618   0.411  -0.287  1.00  0.00    -0.384 NA
HETATM   18  C12 UNL     1      -2.974   1.507  -1.043  1.00  0.00     0.400 C 
HETATM   19  O2  UNL     1      -3.114   1.516  -2.306  1.00  0.00    -0.230 OA
HETATM   20  N5  UNL     1      -3.246   2.795  -0.467  1.00  0.00    -0.216 N 
HETATM   21  C13 UNL     1      -3.282   3.540   0.814  1.00  0.00     0.281 A 
HETATM   22  C14 UNL     1      -3.611   4.183  -0.399  1.00  0.00     0.389 A 
HETATM   23  O3  UNL     1      -3.129   3.539   2.059  1.00  0.00    -0.268 OA
BRANCH  22  24
HETATM   24  N6  UNL     1      -2.771   5.238  -0.935  1.00  0.00    -0.049 N 
ATOM     25  H63 UNL     1      -1.848   5.141  -0.512  1.00  0.00     0.277 HD
ATOM     26  H62 UNL     1      -2.585   5.016  -1.913  1.00  0.00     0.277 HD
ATOM     27  H61 UNL     1      -3.030   6.223  -0.887  1.00  0.00     0.277 HD
ENDBRANCH  22  24
ENDBRANCH  16  17
BRANCH  16  28
HETATM   28  C15 UNL     1      -3.552  -1.497   0.481  1.00  0.00    -0.010 A 
HETATM   29  C16 UNL     1      -4.640  -0.782   1.013  1.00  0.00     0.011 A 
HETATM   30  C17 UNL     1      -5.947  -1.294   0.769  1.00  0.00     0.001 A 
HETATM   31  C18 UNL     1      -6.131  -2.435   0.057  1.00  0.00     0.001 A 
HETATM   32  C19 UNL     1      -5.033  -3.158  -0.478  1.00  0.00     0.012 A 
HETATM   33  C20 UNL     1      -3.781  -2.628  -0.222  1.00  0.00    -0.022 A 
BRANCH  33  34
HETATM   34  C21 UNL     1      -2.634  -3.412  -0.685  1.00  0.00    -0.060 C 
HETATM   35  C22 UNL     1      -2.176  -4.347   0.123  1.00  0.00     0.019 C 
HETATM   36  C23 UNL     1      -2.020  -3.176  -1.974  1.00  0.00     0.048 C 
ENDBRANCH  33  34
ENDBRANCH  16  28
ENDBRANCH  15  16
ENDBRANCH  14  15
BRANCH  14  37
HETATM   37  N7  UNL     1      -0.594   1.441   2.918  1.00  0.00    -0.232 N 
HETATM   38  N8  UNL     1      -0.900   1.245   4.086  1.00  0.00    -0.330 N 
ATOM     39  H82 UNL     1      -1.202   0.302   4.332  1.00  0.00     0.178 HD
ATOM     40  H81 UNL     1      -0.870   1.960   4.813  1.00  0.00     0.178 HD
ATOM     41  H7  UNL     1      -0.290   2.378   2.654  1.00  0.00     0.209 HD
ENDBRANCH  14  37
ENDBRANCH  12  14
ENDBRANCH   9  10
ENDBRANCH   8   9
ENDBRANCH   7   8
ENDBRANCH   4   7
ENDBRANCH   3   4
TORSDOF 13
