REMARK  6 active torsions:
REMARK  status: ('A' for Active; 'I' for Inactive)
REMARK       I    between atoms: C2_5  and  N3_6 
REMARK       I    between atoms: C2_5  and  N5_17 
REMARK    1  A    between atoms: N3_6  and  N4_8 
REMARK       I    between atoms: N4_8  and  C3_10 
REMARK    2  A    between atoms: C3_10  and  O2_12 
REMARK    3  A    between atoms: O2_12  and  C4_13 
REMARK    4  A    between atoms: C4_13  and  C5_14 
REMARK    5  A    between atoms: C5_14  and  O3_15 
REMARK       I    between atoms: N5_17  and  C6_19 
REMARK    6  A    between atoms: C6_19  and  C7_21 
ROOT
HETATM    1  N1  UNL     1       2.198  -3.121  -2.173  1.00  0.00    -0.171 NA
HETATM    2  C1  UNL     1       1.367  -2.317  -2.291  1.00  0.00     0.196 C 
HETATM    3  N2  UNL     1       0.392  -1.338  -2.447  1.00  0.00    -0.124 N 
ATOM      4  H2  UNL     1       0.187  -1.017  -3.393  1.00  0.00     0.197 HD
HETATM    5  C2  UNL     1      -0.272  -0.807  -1.473  1.00  0.00     0.708 C 
HETATM    6  N3  UNL     1      -0.028  -1.220  -0.124  1.00  0.00    -0.127 N 
ATOM      7  H3  UNL     1      -0.619  -1.917   0.330  1.00  0.00     0.206 HD
HETATM    8  N5  UNL     1      -1.224   0.205  -1.715  1.00  0.00    -0.153 N 
ATOM      9  H5  UNL     1      -1.382   0.533  -2.668  1.00  0.00     0.187 HD
HETATM   10  C6  UNL     1      -1.962   0.769  -0.649  1.00  0.00     0.269 C 
HETATM   11  O4  UNL     1      -1.780   0.359   0.527  1.00  0.00    -0.267 OA
ENDROOT
BRANCH   6  12
HETATM   12  N4  UNL     1       1.035  -0.642   0.541  1.00  0.00    -0.231 N 
HETATM   13  C3  UNL     1       1.964  -1.438   1.260  1.00  0.00     0.379 C 
HETATM   14  O1  UNL     1       1.845  -2.686   1.318  1.00  0.00    -0.237 OA
ATOM     15  H4  UNL     1       1.154   0.371   0.515  1.00  0.00     0.193 HD
BRANCH  13  16
HETATM   16  O2  UNL     1       3.037  -0.868   1.922  1.00  0.00    -0.301 OA
BRANCH  16  17
HETATM   17  C4  UNL     1       3.976  -1.574   2.625  1.00  0.00     0.206 C 
BRANCH  17  18
HETATM   18  C5  UNL     1       4.780  -2.595   1.876  1.00  0.00     0.191 C 
BRANCH  18  19
HETATM   19  O3  UNL     1       5.671  -3.156   2.828  1.00  0.00    -0.399 OA
ATOM     20  H3  UNL     1       6.180  -3.803   2.354  1.00  0.00     0.209 HD
ENDBRANCH  18  19
ENDBRANCH  17  18
ENDBRANCH  16  17
ENDBRANCH  13  16
ENDBRANCH   6  12
BRANCH  10  21
HETATM   21  C7  UNL     1      -2.947   1.838  -0.885  1.00  0.00     0.032 A 
HETATM   22  C8  UNL     1      -2.558   3.112  -1.237  1.00  0.00     0.017 A 
HETATM   23  C9  UNL     1      -3.480   4.114  -1.469  1.00  0.00     0.001 A 
HETATM   24  C10 UNL     1      -4.826   3.810  -1.338  1.00  0.00     0.000 A 
HETATM   25  C11 UNL     1      -5.246   2.546  -0.987  1.00  0.00     0.001 A 
HETATM   26  C12 UNL     1      -4.290   1.561  -0.762  1.00  0.00     0.017 A 
ENDBRANCH  10  21
TORSDOF 6
