REMARK  17 active torsions:
REMARK  status: ('A' for Active; 'I' for Inactive)
REMARK    1  A    between atoms: C2_2  and  C3_3 
REMARK    2  A    between atoms: C3_3  and  C4_4 
REMARK    3  A    between atoms: C4_4  and  C5_5 
REMARK    4  A    between atoms: C11_11  and  O1_12 
REMARK    5  A    between atoms: N1_15  and  C13_16 
REMARK    6  A    between atoms: C13_16  and  C14_17 
REMARK    7  A    between atoms: C14_17  and  N2_18 
REMARK    8  A    between atoms: C15_22  and  O2_23 
REMARK    9  A    between atoms: C16_25  and  C17_26 
REMARK   10  A    between atoms: C17_26  and  C18_27 
REMARK   11  A    between atoms: C18_27  and  C19_28 
REMARK   12  A    between atoms: C19_28  and  C20_29 
REMARK   13  A    between atoms: C20_29  and  N3_30 
REMARK       I    between atoms: N3_30  and  C21_32 
REMARK       I    between atoms: N5_34  and  C22_36 
REMARK   14  A    between atoms: C25_41  and  O4_42 
REMARK   15  A    between atoms: C26_44  and  C27_45 
REMARK   16  A    between atoms: C27_45  and  C28_46 
REMARK   17  A    between atoms: C31_51  and  O5_52 
ROOT
HETATM    1  C5  UNL     1      -3.976  -2.033   0.827  1.00  0.00     0.001 A 
HETATM    2  C6  UNL     1      -3.389  -1.013   0.094  1.00  0.00    -0.043 A 
HETATM    3  C7  UNL     1      -2.144  -1.118  -0.522  1.00  0.00     0.021 A 
HETATM    4  C8  UNL     1      -1.411  -2.277  -0.398  1.00  0.00    -0.011 A 
HETATM    5  C9  UNL     1      -2.007  -3.322   0.368  1.00  0.00    -0.016 A 
HETATM    6  C10 UNL     1      -1.275  -4.642   0.551  1.00  0.00     0.052 C 
HETATM    7  C11 UNL     1      -3.221  -3.257   0.967  1.00  0.00     0.083 A 
HETATM    8  C12 UNL     1      -0.215  -2.626  -0.834  1.00  0.00     0.105 C 
HETATM    9  N1  UNL     1       0.814  -1.952  -1.617  1.00  0.00    -0.337 N 
HETATM   10  C15 UNL     1       0.902  -0.579  -1.867  1.00  0.00     0.141 C 
HETATM   11  C16 UNL     1       1.032   0.601  -0.942  1.00  0.00     0.160 C 
HETATM   12  N6  UNL     1       0.526   1.782  -1.671  1.00  0.00    -0.352 N 
HETATM   13  C24 UNL     1       1.457   2.180  -2.765  1.00  0.00     0.152 C 
HETATM   14  C25 UNL     1      -0.658   2.505  -1.495  1.00  0.00     0.161 C 
HETATM   15  C26 UNL     1      -1.248   3.434  -0.545  1.00  0.00     0.062 C 
HETATM   16  N7  UNL     1      -2.301   3.140   0.332  1.00  0.00    -0.340 N 
ATOM     17  H7  UNL     1      -3.046   3.815   0.159  1.00  0.00     0.167 HD
HETATM   18  C31 UNL     1      -2.726   2.297   1.337  1.00  0.00     0.124 C 
HETATM   19  C32 UNL     1      -3.423   1.027   1.533  1.00  0.00     0.021 C 
HETATM   20  C33 UNL     1      -2.473   0.145   2.330  1.00  0.00     0.024 C 
HETATM   21  C34 UNL     1      -4.525   1.324   2.604  1.00  0.00     0.024 C 
HETATM   22  C35 UNL     1      -4.063   0.319   0.371  1.00  0.00     0.056 C 
ENDROOT
BRANCH  11  23
HETATM   23  C17 UNL     1       2.390   0.939  -0.477  1.00  0.00     0.034 C 
BRANCH  23  24
HETATM   24  C18 UNL     1       3.144  -0.090   0.304  1.00  0.00     0.004 C 
BRANCH  24  25
HETATM   25  C19 UNL     1       4.486   0.503   0.681  1.00  0.00     0.020 C 
BRANCH  25  26
HETATM   26  C20 UNL     1       5.338   0.910  -0.467  1.00  0.00     0.122 C 
BRANCH  26  27
HETATM   27  N3  UNL     1       5.603  -0.234  -1.318  1.00  0.00    -0.364 N 
HETATM   28  C21 UNL     1       6.409  -1.332  -0.918  1.00  0.00     0.190 C 
HETATM   29  N4  UNL     1       6.304  -2.615  -1.508  1.00  0.00    -0.063 NA
HETATM   30  N5  UNL     1       7.269  -1.133   0.028  1.00  0.00    -0.302 N 
HETATM   31  C22 UNL     1       8.117  -2.172   0.494  1.00  0.00     0.220 C 
ATOM     32  H5  UNL     1       7.339  -0.207   0.449  1.00  0.00     0.171 HD
HETATM   33  C23 UNL     1       8.510  -2.189   1.922  1.00  0.00     0.117 C 
HETATM   34  O3  UNL     1       8.535  -3.068  -0.277  1.00  0.00    -0.274 OA
ATOM     35  H3  UNL     1       5.190  -0.251  -2.250  1.00  0.00     0.162 HD
ENDBRANCH  26  27
ENDBRANCH  25  26
ENDBRANCH  24  25
ENDBRANCH  23  24
ENDBRANCH  11  23
BRANCH  10  36
HETATM   36  O2  UNL     1       0.860  -0.264  -3.135  1.00  0.00    -0.348 OA
ATOM     37  H2  UNL     1       0.920   0.669  -3.305  1.00  0.00     0.219 HD
ENDBRANCH  10  36
BRANCH   9  38
HETATM   38  C13 UNL     1       1.827  -2.811  -2.270  1.00  0.00     0.157 C 
BRANCH  38  39
HETATM   39  C14 UNL     1       1.403  -3.428  -3.545  1.00  0.00     0.249 C 
BRANCH  39  40
HETATM   40  N2  UNL     1       1.049  -2.623  -4.641  1.00  0.00    -0.078 N 
ATOM     41  H23 UNL     1       0.320  -1.975  -4.341  1.00  0.00     0.274 HD
ATOM     42  H22 UNL     1       1.823  -1.987  -4.835  1.00  0.00     0.274 HD
ATOM     43  H21 UNL     1       0.756  -3.049  -5.521  1.00  0.00     0.274 HD
ENDBRANCH  39  40
ENDBRANCH  38  39
ENDBRANCH   9  38
BRANCH  14  44
HETATM   44  O4  UNL     1      -1.480   2.270  -2.509  1.00  0.00    -0.345 OA
ATOM     45  H4  UNL     1      -2.284   2.761  -2.389  1.00  0.00     0.219 HD
ENDBRANCH  14  44
BRANCH  15  46
HETATM   46  C27 UNL     1      -0.170   4.344   0.091  1.00  0.00     0.065 C 
BRANCH  46  47
HETATM   47  C28 UNL     1      -0.672   5.354   1.037  1.00  0.00    -0.017 C 
HETATM   48  C29 UNL     1      -1.664   6.324   0.428  1.00  0.00     0.010 C 
HETATM   49  C30 UNL     1       0.567   6.238   1.367  1.00  0.00     0.010 C 
ENDBRANCH  46  47
ENDBRANCH  15  46
BRANCH  18  50
HETATM   50  O5  UNL     1      -2.442   2.717   2.589  1.00  0.00    -0.349 OA
ATOM     51  H5  UNL     1      -2.735   2.136   3.281  1.00  0.00     0.219 HD
ENDBRANCH  18  50
BRANCH   7  52
HETATM   52  O1  UNL     1      -3.752  -4.283   1.688  1.00  0.00    -0.359 OA
ATOM     53  H1  UNL     1      -3.256  -5.088   1.780  1.00  0.00     0.217 HD
ENDBRANCH   7  52
BRANCH   1  54
HETATM   54  C4  UNL     1      -5.202  -2.218   1.224  1.00  0.00    -0.008 C 
BRANCH  54  55
HETATM   55  C3  UNL     1      -6.491  -1.557   1.121  1.00  0.00     0.054 C 
BRANCH  55  56
HETATM   56  C2  UNL     1      -7.625  -2.578   1.257  1.00  0.00    -0.033 C 
HETATM   57  C1  UNL     1      -8.512  -2.502   2.217  1.00  0.00     0.007 C 
ENDBRANCH  55  56
ENDBRANCH  54  55
ENDBRANCH   1  54
TORSDOF 17
