REMARK  5 active torsions:
REMARK  status: ('A' for Active; 'I' for Inactive)
REMARK    1  A    between atoms: C4_7  and  N2_8 
REMARK    2  A    between atoms: N2_8  and  N3_10 
REMARK    3  A    between atoms: N3_10  and  C5_12 
REMARK    4  A    between atoms: C5_12  and  C6_13 
REMARK    5  A    between atoms: C10_24  and  N7_25 
ROOT
HETATM    1  C1  UNL     1      -3.509   2.484  -2.197  1.00  0.00     0.089 C 
HETATM    2  C2  UNL     1      -2.658   1.250  -2.163  1.00  0.00     0.096 C 
HETATM    3  N1  UNL     1      -1.374   1.407  -1.737  1.00  0.00    -0.310 N 
ATOM      4  H1  UNL     1      -1.035   2.365  -1.644  1.00  0.00     0.170 HD
HETATM    5  C3  UNL     1      -0.492   0.409  -1.421  1.00  0.00     0.292 C 
HETATM    6  O1  UNL     1       0.723   0.716  -1.370  1.00  0.00    -0.264 OA
HETATM    7  C4  UNL     1      -0.769  -0.911  -1.147  1.00  0.00     0.204 C 
HETATM    8  N6  UNL     1      -1.705  -1.639  -1.848  1.00  0.00    -0.170 N 
ATOM      9  H6  UNL     1      -1.553  -2.647  -1.872  1.00  0.00     0.186 HD
HETATM   10  C10 UNL     1      -2.806  -1.192  -2.514  1.00  0.00     0.678 C 
HETATM   11  N8  UNL     1      -3.240   0.104  -2.550  1.00  0.00    -0.181 N 
ATOM     12  H8  UNL     1      -4.175   0.221  -2.942  1.00  0.00     0.185 HD
ENDROOT
BRANCH   7  13
HETATM   13  N2  UNL     1      -0.174  -1.505  -0.212  1.00  0.00    -0.281 N 
ATOM     14  H2  UNL     1      -0.439  -2.481  -0.080  1.00  0.00     0.188 HD
BRANCH  13  15
HETATM   15  N3  UNL     1       0.763  -1.044   0.644  1.00  0.00    -0.309 N 
ATOM     16  H3  UNL     1       1.669  -1.508   0.577  1.00  0.00     0.186 HD
BRANCH  15  17
HETATM   17  C5  UNL     1       0.698  -0.125   1.519  1.00  0.00     0.126 C 
BRANCH  17  18
HETATM   18  C6  UNL     1       1.891   0.164   2.307  1.00  0.00     0.074 A 
HETATM   19  C7  UNL     1       3.134  -0.429   2.247  1.00  0.00     0.039 A 
HETATM   20  C8  UNL     1       3.542  -1.531   1.322  1.00  0.00     0.071 C 
HETATM   21  N4  UNL     1       3.930   0.166   3.173  1.00  0.00    -0.301 N 
HETATM   22  N5  UNL     1       3.258   1.104   3.815  1.00  0.00    -0.266 N 
ATOM     23  H4  UNL     1       4.905  -0.077   3.347  1.00  0.00     0.186 HD
HETATM   24  C9  UNL     1       2.013   1.130   3.314  1.00  0.00     0.273 A 
ATOM     25  H5  UNL     1       3.620   1.702   4.558  1.00  0.00     0.190 HD
HETATM   26  O2  UNL     1       1.049   1.880   3.648  1.00  0.00    -0.266 OA
ENDBRANCH  17  18
ENDBRANCH  15  17
ENDBRANCH  13  15
ENDBRANCH   7  13
BRANCH  10  27
HETATM   27  N7  UNL     1      -3.498  -2.058  -3.160  1.00  0.00    -0.234 N 
ATOM     28  H72 UNL     1      -3.174  -3.025  -3.133  1.00  0.00     0.174 HD
ATOM     29  H71 UNL     1      -4.322  -1.723  -3.659  1.00  0.00     0.174 HD
ENDBRANCH  10  27
TORSDOF 5
