REMARK  1 active torsions:
REMARK  status: ('A' for Active; 'I' for Inactive)
REMARK       I    between atoms: C2_2  and  N1_4 
REMARK    1  A    between atoms: N1_4  and  C3_6 
ROOT
HETATM    1  C3  UNL     1       3.191   0.435   0.387  1.00  0.00     0.152 A 
HETATM    2  N2  UNL     1       2.774  -0.740  -0.087  1.00  0.00    -0.335 N 
ATOM      3  H2  UNL     1       3.444  -1.463  -0.351  1.00  0.00     0.168 HD
HETATM    4  C4  UNL     1       1.484  -0.946  -0.206  1.00  0.00     0.052 A 
HETATM    5  C5  UNL     1       0.856  -2.111  -0.683  1.00  0.00     0.032 A 
HETATM    6  C6  UNL     1      -0.496  -2.208  -0.759  1.00  0.00     0.014 A 
HETATM    7  C7  UNL     1      -1.337  -1.194  -0.384  1.00  0.00    -0.024 A 
HETATM    8  C8  UNL     1      -2.686  -1.324  -0.473  1.00  0.00     0.024 A 
HETATM    9  C9  UNL     1      -3.500  -0.253  -0.075  1.00  0.00    -0.025 A 
HETATM   10  C10 UNL     1      -4.874  -0.393  -0.169  1.00  0.00     0.012 A 
HETATM   11  C11 UNL     1      -5.697   0.650   0.218  1.00  0.00     0.001 A 
HETATM   12  C12 UNL     1      -5.131   1.815   0.693  1.00  0.00     0.001 A 
HETATM   13  C13 UNL     1      -3.744   1.931   0.778  1.00  0.00     0.012 A 
HETATM   14  C14 UNL     1      -2.926   0.898   0.395  1.00  0.00    -0.025 A 
HETATM   15  C15 UNL     1      -1.542   0.994   0.472  1.00  0.00     0.026 A 
HETATM   16  C16 UNL     1      -0.735  -0.046   0.086  1.00  0.00    -0.006 A 
HETATM   17  C17 UNL     1       0.641   0.062   0.167  1.00  0.00     0.046 A 
HETATM   18  S1  UNL     1       1.737   1.271   0.675  1.00  0.00    -0.051 SA
ENDROOT
BRANCH   1  19
HETATM   19  N1  UNL     1       4.371   0.905   0.606  1.00  0.00    -0.307 N 
HETATM   20  C2  UNL     1       5.560   0.213   0.368  1.00  0.00     0.219 C 
HETATM   21  C1  UNL     1       6.695   0.904  -0.301  1.00  0.00     0.117 C 
HETATM   22  O1  UNL     1       5.733  -0.989   0.693  1.00  0.00    -0.274 OA
ATOM     23  H1  UNL     1       4.441   1.851   0.980  1.00  0.00     0.171 HD
ENDBRANCH   1  19
TORSDOF 1
