REMARK  3 active torsions:
REMARK  status: ('A' for Active; 'I' for Inactive)
REMARK    1  A    between atoms: O1_1  and  C1_3 
REMARK    2  A    between atoms: C12_14  and  C13_15 
REMARK    3  A    between atoms: C14_16  and  C15_17 
ROOT
HETATM    1  C1  UNL     1      -5.034  -0.735  -0.854  1.00  0.00     0.076 A 
HETATM    2  C2  UNL     1      -4.772  -0.802  -2.229  1.00  0.00     0.037 A 
HETATM    3  C3  UNL     1      -3.467  -0.656  -2.628  1.00  0.00     0.004 A 
HETATM    4  C4  UNL     1      -2.442  -0.450  -1.736  1.00  0.00     0.013 A 
HETATM    5  C5  UNL     1      -2.732  -0.390  -0.401  1.00  0.00    -0.012 A 
HETATM    6  C6  UNL     1      -4.025  -0.529   0.077  1.00  0.00     0.008 A 
HETATM    7  C7  UNL     1      -4.306  -0.467   1.423  1.00  0.00     0.016 A 
HETATM    8  C8  UNL     1      -3.315  -0.264   2.347  1.00  0.00     0.013 A 
HETATM    9  C9  UNL     1      -2.004  -0.119   1.915  1.00  0.00    -0.025 A 
HETATM   10  C10 UNL     1      -0.993   0.086   2.830  1.00  0.00     0.014 A 
HETATM   11  C11 UNL     1       0.291   0.225   2.361  1.00  0.00     0.021 A 
HETATM   12  C12 UNL     1       0.617   0.171   1.044  1.00  0.00     0.019 A 
HETATM   13  C20 UNL     1      -0.425  -0.039   0.129  1.00  0.00     0.033 A 
HETATM   14  C21 UNL     1      -1.726  -0.182   0.562  1.00  0.00    -0.013 A 
ENDROOT
BRANCH  12  15
HETATM   15  C13 UNL     1       1.961   0.315   0.542  1.00  0.00    -0.060 C 
HETATM   16  C14 UNL     1       3.100   0.427   0.136  1.00  0.00    -0.043 C 
BRANCH  16  17
HETATM   17  C15 UNL     1       4.463   0.546  -0.329  1.00  0.00     0.086 A 
HETATM   18  C16 UNL     1       5.484   0.911   0.556  1.00  0.00     0.039 A 
HETATM   19  C17 UNL     1       6.794   1.034   0.143  1.00  0.00     0.004 A 
HETATM   20  C18 UNL     1       7.057   0.780  -1.189  1.00  0.00     0.017 A 
HETATM   21  C19 UNL     1       6.024   0.422  -2.032  1.00  0.00     0.089 A 
HETATM   22  N1  UNL     1       4.755   0.310  -1.602  1.00  0.00    -0.359 N 
ATOM     23  H1  UNL     1       4.017   0.044  -2.254  1.00  0.00     0.166 HD
ENDBRANCH  16  17
ENDBRANCH  12  15
BRANCH   1  24
HETATM   24  O1  UNL     1      -6.333  -0.879  -0.434  1.00  0.00    -0.360 OA
ATOM     25  H1  UNL     1      -6.511  -0.834   0.498  1.00  0.00     0.217 HD
ENDBRANCH   1  24
TORSDOF 3
