REMARK  0 active torsions:
REMARK  status: ('A' for Active; 'I' for Inactive)
ROOT
HETATM    1  C1  UNL     1      -0.269  -3.367  -0.115  1.00  0.00     0.158 C 
HETATM    2  N1  UNL     1      -0.133  -1.937  -0.067  1.00  0.00    -0.328 N 
HETATM    3  C2  UNL     1      -1.241  -1.169  -0.035  1.00  0.00     0.136 A 
HETATM    4  N2  UNL     1      -2.559  -1.387  -0.037  1.00  0.00    -0.340 N 
ATOM      5  H2  UNL     1      -2.995  -2.309  -0.067  1.00  0.00     0.167 HD
HETATM    6  C3  UNL     1      -3.230  -0.228   0.006  1.00  0.00     0.046 A 
HETATM    7  C4  UNL     1      -4.570   0.121   0.025  1.00  0.00     0.030 A 
HETATM    8  C5  UNL     1      -4.971   1.441   0.072  1.00  0.00     0.002 A 
HETATM    9  C6  UNL     1      -4.023   2.443   0.102  1.00  0.00     0.001 A 
HETATM   10  C7  UNL     1      -2.709   2.092   0.084  1.00  0.00     0.016 A 
HETATM   11  C8  UNL     1      -2.292   0.770   0.036  1.00  0.00     0.021 A 
HETATM   12  C9  UNL     1      -1.038   0.180   0.010  1.00  0.00     0.090 A 
HETATM   13  N3  UNL     1       0.171   0.721   0.023  1.00  0.00    -0.349 N 
ATOM     14  H3  UNL     1       0.258   1.737   0.058  1.00  0.00     0.166 HD
HETATM   15  C10 UNL     1       1.312  -0.045  -0.009  1.00  0.00     0.079 A 
HETATM   16  C11 UNL     1       2.599   0.394  -0.000  1.00  0.00     0.011 A 
HETATM   17  C12 UNL     1       3.094   1.717   0.043  1.00  0.00     0.015 A 
HETATM   18  C13 UNL     1       4.417   2.012   0.047  1.00  0.00     0.001 A 
HETATM   19  C14 UNL     1       5.381   1.019   0.008  1.00  0.00     0.001 A 
HETATM   20  C15 UNL     1       4.940  -0.284  -0.034  1.00  0.00     0.020 A 
HETATM   21  C16 UNL     1       3.574  -0.563  -0.038  1.00  0.00     0.019 A 
HETATM   22  S1  UNL     1       2.681  -2.020  -0.083  1.00  0.00    -0.069 SA
HETATM   23  C17 UNL     1       1.105  -1.387  -0.054  1.00  0.00     0.106 A 
ENDROOT
TORSDOF 0
