REMARK  1 active torsions:
REMARK  status: ('A' for Active; 'I' for Inactive)
REMARK    1  A    between atoms: O1_1  and  N1_3 
ROOT
HETATM    1  N1  UNL     1       3.031   1.681  -0.622  1.00  0.00    -0.234 N 
HETATM    2  C1  UNL     1       4.373   1.729  -0.650  1.00  0.00     0.123 A 
HETATM    3  C2  UNL     1       5.099   0.625  -0.255  1.00  0.00     0.022 A 
HETATM    4  C3  UNL     1       4.413  -0.515   0.164  1.00  0.00     0.033 A 
HETATM    5  C4  UNL     1       3.026  -0.530   0.180  1.00  0.00     0.062 A 
HETATM    6  N2  UNL     1       2.362  -1.628   0.583  1.00  0.00    -0.354 N 
ATOM      7  H2  UNL     1       2.896  -2.446   0.876  1.00  0.00     0.166 HD
HETATM    8  C5  UNL     1       1.022  -1.686   0.614  1.00  0.00     0.044 A 
HETATM    9  C6  UNL     1       0.380  -2.828   1.033  1.00  0.00     0.033 A 
HETATM   10  C7  UNL     1      -0.986  -2.889   1.065  1.00  0.00     0.033 A 
HETATM   11  C8  UNL     1      -1.726  -1.799   0.675  1.00  0.00     0.044 A 
HETATM   12  N3  UNL     1      -3.043  -1.573   0.603  1.00  0.00    -0.355 N 
ATOM     13  H3  UNL     1      -3.769  -2.245   0.852  1.00  0.00     0.166 HD
HETATM   14  C9  UNL     1      -3.261  -0.337   0.156  1.00  0.00     0.043 A 
HETATM   15  C10 UNL     1      -4.460   0.346  -0.082  1.00  0.00     0.030 A 
HETATM   16  C11 UNL     1      -4.499   1.635  -0.550  1.00  0.00     0.002 A 
HETATM   17  C12 UNL     1      -3.301   2.257  -0.784  1.00  0.00     0.001 A 
HETATM   18  C13 UNL     1      -2.101   1.575  -0.546  1.00  0.00     0.014 A 
HETATM   19  C14 UNL     1      -2.041   0.289  -0.080  1.00  0.00     0.004 A 
HETATM   20  C15 UNL     1      -1.075  -0.637   0.249  1.00  0.00     0.016 A 
HETATM   21  C16 UNL     1       0.300  -0.575   0.216  1.00  0.00     0.006 A 
HETATM   22  C17 UNL     1       0.938   0.564  -0.201  1.00  0.00     0.049 A 
HETATM   23  C18 UNL     1       2.345   0.595  -0.223  1.00  0.00     0.089 A 
ENDROOT
BRANCH   1  24
HETATM   24  O1  UNL     1       2.350   2.804  -1.024  1.00  0.00    -0.283 OA
ATOM     25  H1  UNL     1       1.401   2.770  -1.004  1.00  0.00     0.245 HD
ENDBRANCH   1  24
TORSDOF 1
