REMARK  3 active torsions:
REMARK  status: ('A' for Active; 'I' for Inactive)
REMARK    1  A    between atoms: O1_2  and  C2_3 
REMARK    2  A    between atoms: C7_10  and  C8_11 
REMARK    3  A    between atoms: C9_12  and  C10_13 
ROOT
HETATM    1  C8  UNL     1      -0.352   0.434   0.123  1.00  0.00    -0.042 C 
HETATM    2  C9  UNL     1      -1.461   0.767  -0.221  1.00  0.00    -0.041 C 
ENDROOT
BRANCH   1   3
HETATM    3  C7  UNL     1       0.977   0.055   0.517  1.00  0.00     0.088 A 
HETATM    4  N1  UNL     1       1.450  -0.367   1.685  1.00  0.00    -0.348 N 
HETATM    5  C6  UNL     1       2.765  -0.623   1.646  1.00  0.00     0.046 A 
ATOM      6  H1  UNL     1       0.875  -0.483   2.520  1.00  0.00     0.167 HD
HETATM    7  C5  UNL     1       3.662  -1.073   2.605  1.00  0.00     0.030 A 
HETATM    8  C20 UNL     1       3.176  -0.348   0.359  1.00  0.00     0.027 A 
HETATM    9  C4  UNL     1       4.988  -1.229   2.200  1.00  0.00     0.005 A 
HETATM   10  C3  UNL     1       5.407  -0.960   0.929  1.00  0.00     0.038 A 
HETATM   11  C2  UNL     1       4.492  -0.510  -0.018  1.00  0.00     0.080 A 
HETATM   12  C19 UNL     1       2.074   0.075  -0.353  1.00  0.00     0.055 A 
BRANCH  11  13
HETATM   13  O1  UNL     1       4.895  -0.233  -1.303  1.00  0.00    -0.355 OA
HETATM   14  C1  UNL     1       6.233  -0.393  -1.706  1.00  0.00     0.210 C 
ENDBRANCH  11  13
ENDBRANCH   1   3
BRANCH   2  15
HETATM   15  C10 UNL     1      -2.769   1.180  -0.644  1.00  0.00     0.098 A 
HETATM   16  N2  UNL     1      -2.996   2.359  -1.252  1.00  0.00    -0.358 N 
HETATM   17  C11 UNL     1      -4.221   2.746  -1.648  1.00  0.00     0.090 A 
ATOM     18  H2  UNL     1      -2.207   2.984  -1.419  1.00  0.00     0.166 HD
HETATM   19  C12 UNL     1      -5.298   1.920  -1.431  1.00  0.00     0.029 A 
HETATM   20  C13 UNL     1      -5.106   0.714  -0.815  1.00  0.00    -0.022 A 
HETATM   21  C14 UNL     1      -6.172  -0.133  -0.587  1.00  0.00     0.012 A 
HETATM   22  C18 UNL     1      -3.834   0.348  -0.422  1.00  0.00     0.010 A 
HETATM   23  C15 UNL     1      -5.978  -1.342   0.031  1.00  0.00     0.001 A 
HETATM   24  C16 UNL     1      -4.690  -1.690   0.418  1.00  0.00     0.001 A 
HETATM   25  C17 UNL     1      -3.622  -0.867   0.202  1.00  0.00     0.015 A 
ENDBRANCH   2  15
TORSDOF 3
