REMARK  4 active torsions:
REMARK  status: ('A' for Active; 'I' for Inactive)
REMARK    1  A    between atoms: C2_2  and  C3_3 
REMARK    2  A    between atoms: C3_3  and  C4_4 
REMARK    3  A    between atoms: C9_9  and  C10_10 
REMARK    4  A    between atoms: C10_10  and  O1_11 
ROOT
HETATM    1  C4  UNL     1      -0.381   0.345  -0.042  1.00  0.00    -0.004 C 
HETATM    2  C5  UNL     1       0.230   0.699  -1.314  1.00  0.00     0.019 C 
HETATM    3  C6  UNL     1       1.514   0.194  -1.784  1.00  0.00    -0.013 C 
HETATM    4  C7  UNL     1       2.675   1.165  -1.484  1.00  0.00     0.005 C 
HETATM    5  C8  UNL     1       3.282   0.619  -0.234  1.00  0.00     0.012 C 
HETATM    6  C9  UNL     1       2.622  -0.743   0.031  1.00  0.00    -0.015 C 
HETATM    7  C11 UNL     1       2.095  -1.068  -1.327  1.00  0.00     0.016 C 
HETATM    8  C12 UNL     1       1.664  -0.581   1.115  1.00  0.00     0.053 C 
HETATM    9  C13 UNL     1       0.224  -0.709   0.813  1.00  0.00     0.005 C 
HETATM   10  C14 UNL     1      -0.211  -2.102   0.502  1.00  0.00     0.286 C 
HETATM   11  O2  UNL     1       0.305  -3.017   1.190  1.00  0.00    -0.260 OA
HETATM   12  O3  UNL     1      -1.111  -2.438  -0.459  1.00  0.00    -0.310 OA
HETATM   13  C15 UNL     1      -1.753  -1.407  -1.172  1.00  0.00     0.163 C 
HETATM   14  C16 UNL     1      -3.233  -1.798  -1.331  1.00  0.00     0.265 C 
HETATM   15  N1  UNL     1      -3.546  -2.409  -0.069  1.00  0.00    -0.073 N 
ATOM     16  H11 UNL     1      -2.971  -3.239   0.075  1.00  0.00     0.277 HD
ATOM     17  H12 UNL     1      -4.470  -2.839  -0.103  1.00  0.00     0.277 HD
HETATM   18  C17 UNL     1      -3.448  -1.545   1.046  1.00  0.00     0.233 C 
HETATM   19  C18 UNL     1      -2.686  -0.265   0.854  1.00  0.00     0.036 C 
HETATM   20  C19 UNL     1      -1.822  -0.140  -0.308  1.00  0.00     0.031 C 
ENDROOT
BRANCH   1  21
HETATM   21  C3  UNL     1      -0.495   1.578   0.839  1.00  0.00     0.014 C 
BRANCH  21  22
HETATM   22  C2  UNL     1      -1.316   2.685   0.279  1.00  0.00    -0.004 C 
HETATM   23  C1  UNL     1      -1.363   3.866   1.271  1.00  0.00     0.005 C 
ENDBRANCH  21  22
ENDBRANCH   1  21
BRANCH   6  24
HETATM   24  C10 UNL     1       3.747  -1.695   0.398  1.00  0.00     0.173 C 
BRANCH  24  25
HETATM   25  O1  UNL     1       4.364  -1.175   1.540  1.00  0.00    -0.400 OA
ATOM     26  H1  UNL     1       5.068  -1.770   1.770  1.00  0.00     0.209 HD
ENDBRANCH  24  25
ENDBRANCH   6  24
TORSDOF 4
