REMARK  8 active torsions:
REMARK  status: ('A' for Active; 'I' for Inactive)
REMARK    1  A    between atoms: C2_2  and  O1_3 
REMARK    2  A    between atoms: C2_2  and  C3_5 
REMARK    3  A    between atoms: C3_5  and  O2_6 
REMARK    4  A    between atoms: O2_6  and  N1_7 
REMARK    5  A    between atoms: N1_7  and  C4_9 
REMARK    6  A    between atoms: C10_23  and  N6_24 
REMARK    7  A    between atoms: N6_24  and  N7_26 
REMARK    8  A    between atoms: N7_26  and  N8_27 
ROOT
HETATM    1  C4  UNL     1       0.291   1.018   1.221  1.00  0.00     0.127 C 
HETATM    2  S1  UNL     1      -1.329   0.977   2.185  1.00  0.00    -0.062 SA
HETATM    3  C5  UNL     1      -2.175  -0.194   1.089  1.00  0.00     0.079 C 
HETATM    4  C6  UNL     1      -3.107  -1.167   1.561  1.00  0.00     0.138 C 
HETATM    5  N2  UNL     1      -3.386  -1.488   2.907  1.00  0.00    -0.081 NA
HETATM    6  N3  UNL     1      -3.784  -1.795   0.657  1.00  0.00    -0.318 N 
ATOM      7  H3  UNL     1      -4.420  -2.525   0.978  1.00  0.00     0.169 HD
HETATM    8  C7  UNL     1      -3.725  -1.564  -0.729  1.00  0.00     0.194 C 
HETATM    9  N4  UNL     1      -4.451  -2.387  -1.689  1.00  0.00    -0.063 NA
HETATM   10  N5  UNL     1      -2.999  -0.599  -1.156  1.00  0.00    -0.326 N 
ATOM     11  H5  UNL     1      -2.928  -0.454  -2.163  1.00  0.00     0.169 HD
HETATM   12  C8  UNL     1      -2.274   0.297  -0.278  1.00  0.00     0.108 C 
HETATM   13  C9  UNL     1      -1.084   0.903  -0.922  1.00  0.00     0.230 C 
HETATM   14  O3  UNL     1      -0.990   0.856  -2.203  1.00  0.00    -0.283 OA
HETATM   15  C10 UNL     1      -0.047   1.522  -0.145  1.00  0.00     0.134 C 
ENDROOT
BRANCH   1  16
HETATM   16  N1  UNL     1       1.385   0.717   1.709  1.00  0.00    -0.257 N 
ATOM     17  H1  UNL     1       1.495   0.463   2.691  1.00  0.00     0.195 HD
BRANCH  16  18
HETATM   18  O2  UNL     1       2.509   0.751   0.778  1.00  0.00    -0.277 OA
BRANCH  18  19
HETATM   19  C3  UNL     1       3.586  -0.096   1.267  1.00  0.00     0.232 C 
BRANCH  19  20
HETATM   20  C2  UNL     1       3.887  -1.269   0.360  1.00  0.00     0.140 C 
HETATM   21  C1  UNL     1       4.129  -0.999  -1.069  1.00  0.00     0.041 C 
BRANCH  20  22
HETATM   22  O1  UNL     1       4.940  -1.994   0.876  1.00  0.00    -0.394 OA
ATOM     23  H1  UNL     1       4.784  -2.168   1.797  1.00  0.00     0.210 HD
ENDBRANCH  20  22
ENDBRANCH  19  20
ENDBRANCH  18  19
ENDBRANCH  16  18
ENDBRANCH   1  16
BRANCH  15  24
HETATM   24  N6  UNL     1       0.636   2.547  -0.510  1.00  0.00    -0.278 N 
ATOM     25  H6  UNL     1       1.332   2.931   0.129  1.00  0.00     0.184 HD
BRANCH  24  26
HETATM   26  N7  UNL     1       0.456   3.142  -1.736  1.00  0.00    -0.029 NA
BRANCH  26  27
HETATM   27  N8  UNL     1      -0.492   4.211  -1.734  1.00  0.00    -0.329 N 
ATOM     28  H82 UNL     1      -0.984   4.496  -0.887  1.00  0.00     0.174 HD
ATOM     29  H81 UNL     1      -0.626   4.653  -2.644  1.00  0.00     0.174 HD
ENDBRANCH  26  27
ENDBRANCH  24  26
ENDBRANCH  15  24
TORSDOF 8
