REMARK  3 active torsions:
REMARK  status: ('A' for Active; 'I' for Inactive)
REMARK    1  A    between atoms: C2_2  and  C3_3 
REMARK    2  A    between atoms: C3_3  and  O1_4 
REMARK    3  A    between atoms: C7_9  and  C8_10 
ROOT
HETATM    1  C3  UNL     1       1.716   0.409  -0.802  1.00  0.00     0.242 C 
HETATM    2  C4  UNL     1       2.300  -0.626   0.141  1.00  0.00     0.073 C 
HETATM    3  C5  UNL     1       1.454  -1.876  -0.036  1.00  0.00     0.007 C 
HETATM    4  C6  UNL     1       0.060  -1.502   0.452  1.00  0.00     0.034 C 
HETATM    5  C7  UNL     1      -0.513  -0.432  -0.457  1.00  0.00     0.197 C 
HETATM    6  N1  UNL     1       0.361   0.707  -0.409  1.00  0.00    -0.035 N 
ATOM      7  H11 UNL     1      -0.016   1.475  -0.965  1.00  0.00     0.281 HD
ATOM      8  H12 UNL     1       0.340   1.140   0.514  1.00  0.00     0.281 HD
ENDROOT
BRANCH   1   9
HETATM    9  C2  UNL     1       2.533   1.636  -0.665  1.00  0.00     0.030 C 
HETATM   10  C1  UNL     1       2.502   2.274   0.500  1.00  0.00     0.012 C 
ENDBRANCH   1   9
BRANCH   1  11
HETATM   11  O1  UNL     1       1.740  -0.113  -2.077  1.00  0.00    -0.362 OA
ATOM     12  H1  UNL     1       1.216  -0.900  -2.165  1.00  0.00     0.213 HD
ENDBRANCH   1  11
BRANCH   5  13
HETATM   13  C8  UNL     1      -1.843  -0.031   0.143  1.00  0.00    -0.023 C 
HETATM   14  C9  UNL     1      -1.646   0.499   1.524  1.00  0.00     0.016 C 
HETATM   15  C10 UNL     1      -2.752  -1.259   0.204  1.00  0.00     0.016 C 
HETATM   16  C11 UNL     1      -2.556   0.993  -0.708  1.00  0.00     0.016 C 
ENDBRANCH   5  13
TORSDOF 3
