REMARK  2 active torsions:
REMARK  status: ('A' for Active; 'I' for Inactive)
REMARK    1  A    between atoms: C2_2  and  N1_4 
REMARK    2  A    between atoms: N1_4  and  C5_6 
ROOT
HETATM    1  C5  UNL     1       2.395  -0.223  -0.294  1.00  0.00     0.148 A 
HETATM    2  N2  UNL     1       1.339  -0.994  -0.376  1.00  0.00    -0.321 N 
ATOM      3  H2  UNL     1       1.436  -1.943  -0.737  1.00  0.00     0.169 HD
HETATM    4  C6  UNL     1       0.152  -0.561   0.001  1.00  0.00     0.134 A 
HETATM    5  C7  UNL     1       0.098   0.726   0.475  1.00  0.00     0.057 A 
HETATM    6  S1  UNL     1       1.733   1.214   0.347  1.00  0.00    -0.053 SA
HETATM    7  C8  UNL     1      -1.124   1.429   0.952  1.00  0.00     0.282 C 
HETATM    8  N3  UNL     1      -1.787   1.966  -0.207  1.00  0.00    -0.070 N 
ATOM      9  H31 UNL     1      -1.525   1.444  -1.043  1.00  0.00     0.277 HD
ATOM     10  H32 UNL     1      -1.404   2.880  -0.447  1.00  0.00     0.277 HD
HETATM   11  C9  UNL     1      -3.213   2.035  -0.084  1.00  0.00     0.242 C 
HETATM   12  C10 UNL     1      -3.833   1.723  -1.429  1.00  0.00     0.101 C 
HETATM   13  S2  UNL     1      -5.353   0.777  -1.309  1.00  0.00    -0.167 SA
HETATM   14  C11 UNL     1      -5.116  -0.834  -0.565  1.00  0.00     0.075 C 
HETATM   15  C12 UNL     1      -3.687  -1.342  -0.649  1.00  0.00     0.028 C 
HETATM   16  C13 UNL     1      -3.258  -1.732   0.721  1.00  0.00     0.136 C 
HETATM   17  N4  UNL     1      -1.884  -1.603   1.031  1.00  0.00    -0.140 NA
HETATM   18  N5  UNL     1      -1.059  -1.372  -0.072  1.00  0.00    -0.288 N 
ATOM     19  H5  UNL     1      -1.314  -1.788  -0.968  1.00  0.00     0.184 HD
ENDROOT
BRANCH   1  20
HETATM   20  N1  UNL     1       3.763  -0.473  -0.632  1.00  0.00    -0.362 N 
HETATM   21  C4  UNL     1       4.100  -0.803  -1.989  1.00  0.00     0.152 C 
BRANCH  20  22
HETATM   22  C2  UNL     1       4.776  -0.400   0.370  1.00  0.00     0.077 C 
HETATM   23  C1  UNL     1       5.824   0.656   0.003  1.00  0.00     0.032 C 
HETATM   24  C3  UNL     1       4.242   0.011   1.723  1.00  0.00     0.032 C 
ENDBRANCH  20  22
ENDBRANCH   1  20
TORSDOF 2
