REMARK  9 active torsions:
REMARK  status: ('A' for Active; 'I' for Inactive)
REMARK    1  A    between atoms: S1_2  and  C2_3 
REMARK    2  A    between atoms: C3_5  and  C4_6 
REMARK    3  A    between atoms: C4_6  and  S2_7 
REMARK    4  A    between atoms: S2_7  and  C5_8 
REMARK    5  A    between atoms: C8_11  and  O2_12 
REMARK    6  A    between atoms: C9_14  and  C10_15 
REMARK    7  A    between atoms: C11_19  and  O5_20 
REMARK    8  A    between atoms: C12_22  and  O6_23 
REMARK    9  A    between atoms: C13_25  and  O7_26 
ROOT
HETATM    1  C2  UNL     1       3.944   0.524  -0.601  1.00  0.00     0.214 C 
HETATM    2  O1  UNL     1       2.582   0.590  -0.325  1.00  0.00    -0.364 OA
HETATM    3  C3  UNL     1       1.997  -0.611  -0.692  1.00  0.00     0.163 C 
HETATM    4  C11 UNL     1       2.313  -1.629   0.376  1.00  0.00     0.179 C 
HETATM    5  C12 UNL     1       3.821  -1.758   0.443  1.00  0.00     0.181 C 
HETATM    6  C13 UNL     1       4.485  -0.872  -0.592  1.00  0.00     0.188 C 
ENDROOT
BRANCH   3   7
HETATM    7  C4  UNL     1       0.513  -0.478  -0.930  1.00  0.00     0.111 C 
BRANCH   7   8
HETATM    8  S2  UNL     1      -0.368   0.096   0.540  1.00  0.00    -0.135 SA
BRANCH   8   9
HETATM    9  C5  UNL     1      -2.154   0.189   0.107  1.00  0.00     0.184 C 
HETATM   10  C6  UNL     1      -2.692  -1.175  -0.154  1.00  0.00     0.045 C 
HETATM   11  C7  UNL     1      -3.911  -1.511   0.662  1.00  0.00     0.038 C 
HETATM   12  C8  UNL     1      -4.832  -0.334   0.841  1.00  0.00     0.156 C 
HETATM   13  C9  UNL     1      -4.145   0.980   0.993  1.00  0.00     0.240 C 
HETATM   14  O4  UNL     1      -2.776   0.922   1.072  1.00  0.00    -0.359 OA
BRANCH  12  15
HETATM   15  O2  UNL     1      -5.746  -0.347  -0.239  1.00  0.00    -0.393 OA
ATOM     16  H2  UNL     1      -6.327   0.396  -0.126  1.00  0.00     0.210 HD
ENDBRANCH  12  15
BRANCH  13  17
HETATM   17  C10 UNL     1      -4.616   1.945  -0.049  1.00  0.00     0.262 C 
HETATM   18  N1  UNL     1      -5.995   2.156  -0.311  1.00  0.00    -0.060 NA
HETATM   19  O3  UNL     1      -3.802   2.608  -0.734  1.00  0.00    -0.274 OA
ENDBRANCH  13  17
ENDBRANCH   8   9
ENDBRANCH   7   8
ENDBRANCH   3   7
BRANCH   4  20
HETATM   20  O5  UNL     1       1.874  -1.225   1.633  1.00  0.00    -0.390 OA
ATOM     21  H5  UNL     1       2.073  -1.866   2.305  1.00  0.00     0.210 HD
ENDBRANCH   4  20
BRANCH   1  22
HETATM   22  S1  UNL     1       4.890   1.620   0.497  1.00  0.00    -0.139 SA
HETATM   23  C1  UNL     1       4.417   3.329   0.083  1.00  0.00     0.092 C 
ENDBRANCH   1  22
BRANCH   5  24
HETATM   24  O6  UNL     1       4.313  -1.377   1.687  1.00  0.00    -0.390 OA
ATOM     25  H6  UNL     1       5.259  -1.458   1.729  1.00  0.00     0.210 HD
ENDBRANCH   5  24
BRANCH   6  26
HETATM   26  O7  UNL     1       5.843  -0.781  -0.243  1.00  0.00    -0.389 OA
ATOM     27  H7  UNL     1       6.186  -1.667  -0.237  1.00  0.00     0.210 HD
ENDBRANCH   6  26
TORSDOF 9
