REMARK  6 active torsions:
REMARK  status: ('A' for Active; 'I' for Inactive)
REMARK    1  A    between atoms: O1_1  and  C1_3 
REMARK    2  A    between atoms: C4_6  and  S1_7 
REMARK    3  A    between atoms: S1_7  and  C5_8 
REMARK    4  A    between atoms: C5_8  and  C6_9 
REMARK    5  A    between atoms: C6_9  and  N1_10 
REMARK    6  A    between atoms: N2_13  and  C9_14 
ROOT
HETATM    1  N1  UNL     1       0.241  -0.548   0.205  1.00  0.00     0.126 N 
HETATM    2  C7  UNL     1       0.084   0.862   0.320  1.00  0.00     0.295 C 
HETATM    3  C8  UNL     1      -1.426   1.139   0.367  1.00  0.00     0.147 C 
HETATM    4  N2  UNL     1      -2.007   0.793  -0.878  1.00  0.00    -0.402 N 
HETATM    5  C14 UNL     1      -1.214  -0.051  -1.708  1.00  0.00     0.187 C 
HETATM    6  C15 UNL     1      -0.440  -1.091  -0.930  1.00  0.00     0.422 C 
HETATM    7  F1  UNL     1       0.424  -1.714  -1.841  1.00  0.00    -0.214 F 
ENDROOT
BRANCH   1   8
HETATM    8  C6  UNL     1       1.541  -1.082   0.373  1.00  0.00     0.286 C 
BRANCH   8   9
HETATM    9  C5  UNL     1       2.111  -0.989   1.746  1.00  0.00     0.111 C 
BRANCH   9  10
HETATM   10  S1  UNL     1       3.766  -1.715   1.781  1.00  0.00    -0.111 SA
BRANCH  10  11
HETATM   11  C4  UNL     1       4.954  -0.796   0.871  1.00  0.00     0.071 A 
HETATM   12  C3  UNL     1       6.278  -1.133   0.684  1.00  0.00     0.041 A 
HETATM   13  C2  UNL     1       6.907  -0.173  -0.071  1.00  0.00     0.059 A 
HETATM   14  C1  UNL     1       5.931   0.758  -0.340  1.00  0.00     0.140 A 
HETATM   15  N3  UNL     1       4.772   0.366   0.233  1.00  0.00    -0.332 N 
ATOM     16  H3  UNL     1       3.891   0.878   0.186  1.00  0.00     0.168 HD
BRANCH  14  17
HETATM   17  O1  UNL     1       6.113   1.920  -1.085  1.00  0.00    -0.346 OA
ATOM     18  H1  UNL     1       5.439   2.563  -1.271  1.00  0.00     0.219 HD
ENDBRANCH  14  17
ENDBRANCH  10  11
ENDBRANCH   9  10
ENDBRANCH   8   9
ENDBRANCH   1   8
BRANCH   4  19
HETATM   19  C9  UNL     1      -3.373   0.420  -0.870  1.00  0.00     0.079 C 
HETATM   20  C10 UNL     1      -4.310   1.506  -0.417  1.00  0.00     0.025 C 
HETATM   21  C11 UNL     1      -5.630   0.762  -0.382  1.00  0.00     0.002 C 
HETATM   22  C12 UNL     1      -5.280  -0.659  -0.045  1.00  0.00     0.002 C 
HETATM   23  C13 UNL     1      -3.750  -0.723   0.013  1.00  0.00     0.025 C 
ENDBRANCH   4  19
TORSDOF 6
