REMARK  0 active torsions:
REMARK  status: ('A' for Active; 'I' for Inactive)
ROOT
HETATM    1  C1  UNL     1      -0.677   1.511  -0.475  1.00  0.00     0.015 C 
HETATM    2  C2  UNL     1      -0.313   0.138   0.004  1.00  0.00    -0.048 A 
HETATM    3  C3  UNL     1      -1.545  -0.612   0.475  1.00  0.00     0.015 C 
HETATM    4  C4  UNL     1       0.493  -0.709  -0.932  1.00  0.00     0.008 A 
HETATM    5  C5  UNL     1       1.697  -0.670  -0.014  1.00  0.00     0.001 A 
HETATM    6  C6  UNL     1       0.847   0.129   0.961  1.00  0.00     0.008 A 
ENDROOT
TORSDOF 0
