REMARK  12 active torsions:
REMARK  status: ('A' for Active; 'I' for Inactive)
REMARK    1  A    between atoms: N1_1  and  C1_4 
REMARK    2  A    between atoms: C2_7  and  N3_8 
REMARK    3  A    between atoms: N3_8  and  C3_10 
REMARK    4  A    between atoms: C3_10  and  C4_11 
REMARK    5  A    between atoms: C4_11  and  N4_12 
REMARK       I    between atoms: N4_12  and  C5_14 
REMARK    6  A    between atoms: C5_14  and  C6_16 
REMARK    7  A    between atoms: C9_20  and  O3_21 
REMARK    8  A    between atoms: C12_31  and  N8_32 
REMARK    9  A    between atoms: C13_35  and  C14_36 
REMARK   10  A    between atoms: C15_41  and  C16_42 
REMARK   11  A    between atoms: C19_45  and  C20_46 
REMARK   12  A    between atoms: C20_46  and  N12_47 
ROOT
HETATM    1  C1  UNL     1      -0.307  -0.810  -0.852  1.00  0.00     0.727 A 
HETATM    2  N2  UNL     1      -1.369  -0.424  -0.132  1.00  0.00    -0.020 N 
ATOM      3  H2  UNL     1      -2.236  -0.191  -0.617  1.00  0.00     0.203 HD
HETATM    4  C2  UNL     1      -1.330  -0.334   1.199  1.00  0.00     0.707 A 
HETATM    5  N6  UNL     1      -0.191  -0.638   1.845  1.00  0.00    -0.019 N 
ATOM      6  H6  UNL     1      -0.155  -0.570   2.862  1.00  0.00     0.203 HD
HETATM    7  C11 UNL     1       0.905  -1.032   1.165  1.00  0.00     0.748 A 
HETATM    8  N7  UNL     1       2.156  -1.395   1.524  1.00  0.00    -0.016 N 
ATOM      9  H7  UNL     1       2.512  -1.433   2.479  1.00  0.00     0.203 HD
HETATM   10  C12 UNL     1       2.858  -1.699   0.409  1.00  0.00     0.736 A 
HETATM   11  N13 UNL     1       1.999  -1.510  -0.609  1.00  0.00    -0.093 N 
ATOM     12  H13 UNL     1       2.227  -1.658  -1.592  1.00  0.00     0.207 HD
HETATM   13  N14 UNL     1       0.839  -1.114  -0.173  1.00  0.00     0.106 N 
ENDROOT
BRANCH  10  14
HETATM   14  N8  UNL     1       4.200  -2.163   0.311  1.00  0.00    -0.065 N 
HETATM   15  N9  UNL     1       4.438  -3.494   0.437  1.00  0.00    -0.258 N 
HETATM   16  C13 UNL     1       5.740  -3.748   0.307  1.00  0.00     0.189 A 
ATOM     17  H9  UNL     1       3.722  -4.200   0.607  1.00  0.00     0.190 HD
HETATM   18  N11 UNL     1       6.315  -2.567   0.099  1.00  0.00    -0.321 N 
HETATM   19  C15 UNL     1       5.346  -1.578   0.102  1.00  0.00     0.157 A 
ATOM     20  H11 UNL     1       7.314  -2.414  -0.041  1.00  0.00     0.169 HD
BRANCH  16  21
HETATM   21  C14 UNL     1       6.380  -5.062   0.382  1.00  0.00     0.300 C 
HETATM   22  N10 UNL     1       5.576  -6.205   0.612  1.00  0.00    -0.054 NA
HETATM   23  O4  UNL     1       7.642  -5.155   0.240  1.00  0.00    -0.268 OA
ENDBRANCH  16  21
BRANCH  19  24
HETATM   24  C16 UNL     1       5.636  -0.179  -0.113  1.00  0.00     0.011 A 
HETATM   25  C17 UNL     1       4.760   0.832  -0.041  1.00  0.00     0.016 A 
HETATM   26  C18 UNL     1       5.159   2.161  -0.296  1.00  0.00     0.010 A 
HETATM   27  C19 UNL     1       6.453   2.466  -0.626  1.00  0.00    -0.033 A 
HETATM   28  C21 UNL     1       7.344   1.440  -0.700  1.00  0.00     0.010 A 
HETATM   29  C22 UNL     1       6.949   0.144  -0.450  1.00  0.00     0.016 A 
BRANCH  27  30
HETATM   30  C20 UNL     1       6.873   3.882  -0.897  1.00  0.00     0.268 C 
BRANCH  30  31
HETATM   31  N12 UNL     1       8.288   3.934  -1.202  1.00  0.00    -0.075 N 
ATOM     32 3H12 UNL     1       8.852   3.503  -0.470  1.00  0.00     0.274 HD
ATOM     33 2H12 UNL     1       8.536   3.309  -1.969  1.00  0.00     0.274 HD
ATOM     34 1H12 UNL     1       8.573   4.896  -1.386  1.00  0.00     0.274 HD
ENDBRANCH  30  31
ENDBRANCH  27  30
ENDBRANCH  19  24
ENDBRANCH  10  14
BRANCH   1  35
HETATM   35  N1  UNL     1      -0.367  -0.890  -2.144  1.00  0.00    -0.232 N 
ATOM     36  H12 UNL     1      -1.223  -0.663  -2.651  1.00  0.00     0.174 HD
ATOM     37  H11 UNL     1       0.441  -1.184  -2.692  1.00  0.00     0.174 HD
ENDBRANCH   1  35
BRANCH   4  38
HETATM   38  N3  UNL     1      -2.378   0.040   1.844  1.00  0.00    -0.224 N 
ATOM     39  H3  UNL     1      -2.344   0.108   2.861  1.00  0.00     0.177 HD
BRANCH  38  40
HETATM   40  C3  UNL     1      -3.604   0.366   1.150  1.00  0.00     0.157 C 
BRANCH  40  41
HETATM   41  C4  UNL     1      -4.683   0.818   2.074  1.00  0.00     0.143 C 
BRANCH  41  42
HETATM   42  N4  UNL     1      -5.925   1.159   1.462  1.00  0.00    -0.354 N 
HETATM   43  C5  UNL     1      -6.735   0.295   0.713  1.00  0.00     0.268 C 
HETATM   44  O1  UNL     1      -6.340  -0.905   0.559  1.00  0.00    -0.266 OA
ATOM     45  H4  UNL     1      -6.253   2.118   1.580  1.00  0.00     0.162 HD
BRANCH  43  46
HETATM   46  C6  UNL     1      -7.999   0.647   0.088  1.00  0.00     0.104 A 
HETATM   47  C7  UNL     1      -8.500   1.906   0.196  1.00  0.00     0.093 A 
HETATM   48  C8  UNL     1      -9.704   2.254  -0.395  1.00  0.00     0.208 A 
HETATM   49  O2  UNL     1     -10.164   3.435  -0.288  1.00  0.00    -0.285 OA
HETATM   50  C9  UNL     1     -10.400   1.306  -1.101  1.00  0.00     0.131 A 
HETATM   51  C10 UNL     1      -9.888   0.034  -1.207  1.00  0.00     0.129 A 
HETATM   52  N5  UNL     1      -8.719  -0.254  -0.618  1.00  0.00    -0.359 N 
ATOM     53  H5  UNL     1      -8.353  -1.202  -0.707  1.00  0.00     0.165 HD
BRANCH  50  54
HETATM   54  O3  UNL     1     -11.610   1.619  -1.707  1.00  0.00    -0.356 OA
ATOM     55  H3  UNL     1     -12.092   0.962  -2.196  1.00  0.00     0.218 HD
ENDBRANCH  50  54
ENDBRANCH  43  46
ENDBRANCH  41  42
ENDBRANCH  40  41
ENDBRANCH  38  40
ENDBRANCH   4  38
TORSDOF 12
