REMARK  5 active torsions:
REMARK  status: ('A' for Active; 'I' for Inactive)
REMARK    1  A    between atoms: C2_2  and  O2_4 
REMARK    2  A    between atoms: O2_4  and  C3_5 
REMARK    3  A    between atoms: N1_13  and  C11_14 
REMARK    4  A    between atoms: C11_14  and  C12_15 
REMARK    5  A    between atoms: N5_34  and  C23_35 
ROOT
HETATM    1  C3  UNL     1      -3.505  -0.691   0.183  1.00  0.00     0.367 C 
HETATM    2  C4  UNL     1      -2.022  -0.913   0.426  1.00  0.00     0.065 C 
HETATM    3  C5  UNL     1      -1.425  -1.938  -0.518  1.00  0.00     0.004 C 
HETATM    4  C6  UNL     1      -0.936  -3.171   0.166  1.00  0.00     0.000 C 
HETATM    5  C7  UNL     1       0.292  -3.763  -0.481  1.00  0.00     0.000 C 
HETATM    6  C8  UNL     1       1.496  -2.989   0.074  1.00  0.00     0.002 C 
HETATM    7  C9  UNL     1       2.767  -3.445  -0.609  1.00  0.00     0.030 C 
HETATM    8  C10 UNL     1       3.718  -2.337  -0.904  1.00  0.00     0.273 C 
HETATM    9  N1  UNL     1       4.614  -2.003   0.191  1.00  0.00     0.096 N 
HETATM   10  C13 UNL     1       4.175  -0.758   0.790  1.00  0.00     0.303 C 
HETATM   11  C14 UNL     1       5.003   0.434   0.361  1.00  0.00     0.302 C 
HETATM   12  N2  UNL     1       4.325   1.229  -0.624  1.00  0.00     0.087 N 
HETATM   13  C15 UNL     1       5.024   1.167  -1.902  1.00  0.00     0.310 C 
HETATM   14  C16 UNL     1       4.121   2.592  -0.268  1.00  0.00     0.299 C 
HETATM   15  C17 UNL     1       2.966   2.837   0.643  1.00  0.00     0.262 C 
HETATM   16  N3  UNL     1       1.729   3.116  -0.099  1.00  0.00    -0.073 N 
ATOM     17  H31 UNL     1       0.981   2.472   0.159  1.00  0.00     0.277 HD
ATOM     18  H32 UNL     1       1.815   2.865  -1.084  1.00  0.00     0.277 HD
HETATM   19  C18 UNL     1       1.327   4.498   0.068  1.00  0.00     0.234 C 
HETATM   20  C19 UNL     1      -0.104   4.536   0.553  1.00  0.00     0.055 C 
HETATM   21  C20 UNL     1      -1.011   4.216  -0.618  1.00  0.00     0.234 C 
HETATM   22  N4  UNL     1      -1.212   2.803  -0.794  1.00  0.00    -0.073 N 
ATOM     23  H41 UNL     1      -0.880   2.260   0.003  1.00  0.00     0.277 HD
ATOM     24  H42 UNL     1      -0.595   2.407  -1.503  1.00  0.00     0.277 HD
HETATM   25  C21 UNL     1      -2.602   2.566  -1.080  1.00  0.00     0.262 C 
HETATM   26  C22 UNL     1      -2.908   1.085  -1.247  1.00  0.00     0.303 C 
HETATM   27  N5  UNL     1      -3.757   0.647  -0.183  1.00  0.00     0.123 N 
ENDROOT
BRANCH   1  28
HETATM   28  O2  UNL     1      -4.218  -1.217   1.252  1.00  0.00    -0.285 OA
BRANCH  28  29
HETATM   29  C2  UNL     1      -5.039  -2.309   1.215  1.00  0.00     0.256 C 
HETATM   30  C1  UNL     1      -5.744  -2.769   2.427  1.00  0.00     0.126 C 
HETATM   31  O1  UNL     1      -5.192  -2.923   0.142  1.00  0.00    -0.266 OA
ENDBRANCH  28  29
ENDBRANCH   1  28
BRANCH  27  32
HETATM   32  C23 UNL     1      -5.088   1.077  -0.348  1.00  0.00     0.218 C 
HETATM   33  C24 UNL     1      -5.863   0.376  -1.434  1.00  0.00     0.042 C 
HETATM   34  C25 UNL     1      -5.945   1.088   0.895  1.00  0.00     0.042 C 
ENDBRANCH  27  32
BRANCH   9  35
HETATM   35  C11 UNL     1       4.780  -3.076   1.117  1.00  0.00     0.341 C 
BRANCH  35  36
HETATM   36  C12 UNL     1       5.745  -2.682   2.168  1.00  0.00     0.261 C 
HETATM   37  O3  UNL     1       6.345  -1.630   2.234  1.00  0.00    -0.305 OA
ENDBRANCH  35  36
ENDBRANCH   9  35
TORSDOF 5
