REMARK  15 active torsions:
REMARK  status: ('A' for Active; 'I' for Inactive)
REMARK    1  A    between atoms: N1_1  and  C1_4 
REMARK    2  A    between atoms: C2_7  and  N3_8 
REMARK    3  A    between atoms: N3_8  and  N4_10 
REMARK    4  A    between atoms: C4_16  and  N6_17 
REMARK    5  A    between atoms: N6_17  and  C5_19 
REMARK    6  A    between atoms: C5_19  and  C6_20 
REMARK    7  A    between atoms: C6_20  and  C7_21 
REMARK    8  A    between atoms: C7_21  and  N7_22 
REMARK    9  A    between atoms: N7_22  and  C8_24 
REMARK   10  A    between atoms: C8_24  and  C9_25 
REMARK   11  A    between atoms: C9_25  and  S1_26 
REMARK   12  A    between atoms: S1_26  and  C10_27 
REMARK   13  A    between atoms: C10_27  and  C11_28 
REMARK   14  A    between atoms: C11_28  and  C12_29 
REMARK   15  A    between atoms: C12_29  and  O1_30 
ROOT
HETATM    1  C1  UNL     1      -7.567   0.671   0.356  1.00  0.00     0.679 A 
HETATM    2  N2  UNL     1      -6.913  -0.320   0.982  1.00  0.00    -0.173 N 
ATOM      3  H2  UNL     1      -7.452  -0.951   1.575  1.00  0.00     0.186 HD
HETATM    4  C2  UNL     1      -5.595  -0.530   0.875  1.00  0.00     0.166 A 
HETATM    5  C3  UNL     1      -4.861   0.318   0.078  1.00  0.00     0.125 A 
HETATM    6  N5  UNL     1      -3.537   0.147  -0.060  1.00  0.00    -0.335 N 
ATOM      7  H5  UNL     1      -3.067  -0.616   0.427  1.00  0.00     0.168 HD
HETATM    8  C4  UNL     1      -2.830   0.983  -0.842  1.00  0.00     0.117 A 
HETATM    9  C13 UNL     1      -3.517   2.009  -1.489  1.00  0.00     0.138 A 
HETATM   10  N8  UNL     1      -4.836   2.196  -1.365  1.00  0.00    -0.346 N 
ATOM     11  H8  UNL     1      -5.307   2.958  -1.853  1.00  0.00     0.167 HD
HETATM   12  C14 UNL     1      -5.524   1.346  -0.575  1.00  0.00     0.151 A 
HETATM   13  N9  UNL     1      -6.862   1.508  -0.428  1.00  0.00    -0.174 N 
ATOM     14  H9  UNL     1      -7.337   2.268  -0.914  1.00  0.00     0.186 HD
ENDROOT
BRANCH   8  15
HETATM   15  N6  UNL     1      -1.559   0.836  -0.986  1.00  0.00    -0.375 N 
ATOM     16  H6  UNL     1      -1.060   1.490  -1.589  1.00  0.00     0.161 HD
BRANCH  15  17
HETATM   17  C5  UNL     1      -0.807  -0.211  -0.335  1.00  0.00     0.123 C 
BRANCH  17  18
HETATM   18  C6  UNL     1       0.595  -0.264  -0.957  1.00  0.00     0.039 C 
BRANCH  18  19
HETATM   19  C7  UNL     1       1.201   1.104  -0.710  1.00  0.00     0.115 C 
BRANCH  19  20
HETATM   20  N7  UNL     1       2.526   1.253  -1.224  1.00  0.00    -0.420 N 
ATOM     21  H7  UNL     1       2.741   1.870  -2.007  1.00  0.00     0.153 HD
BRANCH  20  22
HETATM   22  C8  UNL     1       3.526   0.481  -0.567  1.00  0.00     0.124 C 
BRANCH  22  23
HETATM   23  C9  UNL     1       3.822   0.903   0.844  1.00  0.00     0.093 C 
BRANCH  23  24
HETATM   24  S1  UNL     1       5.128  -0.230   1.463  1.00  0.00    -0.167 SA
BRANCH  24  25
HETATM   25  C10 UNL     1       6.611   0.141   0.456  1.00  0.00     0.076 C 
BRANCH  25  26
HETATM   26  C11 UNL     1       7.742  -0.760   0.912  1.00  0.00     0.036 C 
BRANCH  26  27
HETATM   27  C12 UNL     1       7.394  -2.214   0.747  1.00  0.00     0.165 C 
BRANCH  27  28
HETATM   28  O1  UNL     1       7.138  -2.454  -0.615  1.00  0.00    -0.401 OA
ATOM     29  H1  UNL     1       6.918  -3.372  -0.719  1.00  0.00     0.209 HD
ENDBRANCH  27  28
ENDBRANCH  26  27
ENDBRANCH  25  26
ENDBRANCH  24  25
ENDBRANCH  23  24
ENDBRANCH  22  23
ENDBRANCH  20  22
ENDBRANCH  19  20
ENDBRANCH  18  19
ENDBRANCH  17  18
ENDBRANCH  15  17
ENDBRANCH   8  15
BRANCH   4  30
HETATM   30  N3  UNL     1      -4.968  -1.478   1.472  1.00  0.00    -0.290 N 
ATOM     31  H3  UNL     1      -3.962  -1.546   1.320  1.00  0.00     0.188 HD
BRANCH  30  32
HETATM   32  N4  UNL     1      -5.555  -2.417   2.308  1.00  0.00    -0.344 N 
ATOM     33  H42 UNL     1      -6.562  -2.333   2.448  1.00  0.00     0.176 HD
ATOM     34  H41 UNL     1      -5.057  -3.170   2.782  1.00  0.00     0.176 HD
ENDBRANCH  30  32
ENDBRANCH   4  30
BRANCH   1  35
HETATM   35  N1  UNL     1      -8.858   0.816   0.507  1.00  0.00    -0.234 N 
ATOM     36  H12 UNL     1      -9.392   0.182   1.101  1.00  0.00     0.174 HD
ATOM     37  H11 UNL     1      -9.355   1.569   0.031  1.00  0.00     0.174 HD
ENDBRANCH   1  35
TORSDOF 15
