REMARK  11 active torsions:
REMARK  status: ('A' for Active; 'I' for Inactive)
REMARK    1  A    between atoms: C2_2  and  C3_3 
REMARK    2  A    between atoms: C2_2  and  C4_8 
REMARK    3  A    between atoms: C3_3  and  N1_4 
REMARK    4  A    between atoms: C4_8  and  C5_9 
REMARK    5  A    between atoms: C5_9  and  N2_10 
REMARK    6  A    between atoms: C5_9  and  N3_14 
REMARK    7  A    between atoms: N3_14  and  C6_16 
REMARK    8  A    between atoms: C6_16  and  C7_17 
REMARK    9  A    between atoms: C6_16  and  C9_22 
REMARK   10  A    between atoms: C7_17  and  C8_18 
REMARK   11  A    between atoms: C9_22  and  N5_23 
REMARK       I    between atoms: C10_25  and  N7_27 
REMARK       I    between atoms: N7_27  and  C11_28 
REMARK       I    between atoms: C11_28  and  N9_30 
ROOT
HETATM    1  C6  UNL     1       0.151   0.670   0.617  1.00  0.00     0.006 C 
ENDROOT
BRANCH   1   2
HETATM    2  N3  UNL     1       1.513   0.995   0.424  1.00  0.00    -0.368 N 
ATOM      3  H3  UNL     1       1.853   1.926   0.666  1.00  0.00     0.161 HD
BRANCH   2   4
HETATM    4  C5  UNL     1       2.402   0.038  -0.102  1.00  0.00     0.282 C 
BRANCH   4   5
HETATM    5  C4  UNL     1       3.355   0.675  -1.089  1.00  0.00     0.060 C 
BRANCH   5   6
HETATM    6  C2  UNL     1       4.454  -0.295  -1.538  1.00  0.00     0.010 C 
HETATM    7  C1  UNL     1       5.370   0.411  -2.527  1.00  0.00     0.011 C 
BRANCH   6   8
HETATM    8  C3  UNL     1       5.244  -0.760  -0.323  1.00  0.00     0.234 C 
BRANCH   8   9
HETATM    9  N1  UNL     1       5.842   0.319   0.383  1.00  0.00    -0.079 N 
ATOM     10  H13 UNL     1       6.421   0.887  -0.236  1.00  0.00     0.274 HD
ATOM     11  H12 UNL     1       5.146   1.018   0.643  1.00  0.00     0.274 HD
ATOM     12  H11 UNL     1       6.371   0.007   1.197  1.00  0.00     0.274 HD
ENDBRANCH   8   9
ENDBRANCH   6   8
ENDBRANCH   5   6
ENDBRANCH   4   5
BRANCH   4  13
HETATM   13  N2  UNL     1       1.801  -1.094  -0.776  1.00  0.00    -0.058 N 
ATOM     14  H23 UNL     1       1.358  -0.847  -1.661  1.00  0.00     0.276 HD
ATOM     15  H22 UNL     1       2.486  -1.748  -1.154  1.00  0.00     0.276 HD
ATOM     16  H21 UNL     1       1.158  -1.524  -0.110  1.00  0.00     0.276 HD
ENDBRANCH   4  13
ENDBRANCH   2   4
ENDBRANCH   1   2
BRANCH   1  17
HETATM   17  C7  UNL     1      -0.157  -0.465   1.533  1.00  0.00     0.098 C 
BRANCH  17  18
HETATM   18  C8  UNL     1       0.385  -0.139   2.858  1.00  0.00     0.058 C 
HETATM   19  N4  UNL     1       1.453  -0.555   3.372  1.00  0.00    -0.411 N 
ATOM     20  H42 UNL     1       1.994  -1.192   2.788  1.00  0.00     0.155 HD
ATOM     21  H41 UNL     1       1.830  -0.329   4.293  1.00  0.00     0.155 HD
ENDBRANCH  17  18
ENDBRANCH   1  17
BRANCH   1  22
HETATM   22  C9  UNL     1      -0.767   0.674  -0.557  1.00  0.00     0.175 C 
BRANCH  22  23
HETATM   23  N5  UNL     1      -2.079   0.283  -0.119  1.00  0.00    -0.348 N 
HETATM   24  C10 UNL     1      -3.086   1.011   0.169  1.00  0.00     0.266 C 
HETATM   25  N6  UNL     1      -2.905   2.430   0.044  1.00  0.00    -0.049 NA
HETATM   26  N7  UNL     1      -4.253   0.511   0.544  1.00  0.00    -0.341 NA
HETATM   27  C11 UNL     1      -5.272   0.079   0.945  1.00  0.00     0.268 C 
HETATM   28  N8  UNL     1      -5.643   0.032   2.333  1.00  0.00    -0.049 NA
HETATM   29  N9  UNL     1      -6.265  -0.453   0.050  1.00  0.00    -0.341 N 
HETATM   30  C12 UNL     1      -6.846  -0.470  -1.341  1.00  0.00     0.146 A 
HETATM   31  C13 UNL     1      -7.383  -1.284  -0.303  1.00  0.00     0.146 A 
ATOM     32  H5  UNL     1      -2.226  -0.722  -0.025  1.00  0.00     0.163 HD
ENDBRANCH  22  23
ENDBRANCH   1  22
TORSDOF 11
