REMARK  8 active torsions:
REMARK  status: ('A' for Active; 'I' for Inactive)
REMARK    1  A    between atoms: N3_4  and  C2_6 
REMARK    2  A    between atoms: C2_6  and  C3_7 
REMARK    3  A    between atoms: C3_7  and  C4_8 
REMARK    4  A    between atoms: C4_8  and  C5_9 
REMARK    5  A    between atoms: C7_14  and  C8_15 
REMARK    6  A    between atoms: C8_15  and  C9_16 
REMARK    7  A    between atoms: C9_16  and  C10_17 
REMARK    8  A    between atoms: C10_17  and  N5_18 
ROOT
HETATM    1  C5  UNL     1      -1.396   1.033   1.434  1.00  0.00     0.176 C 
HETATM    2  N4  UNL     1      -0.538   2.201   1.553  1.00  0.00    -0.346 N 
ATOM      3  H4  UNL     1      -0.965   3.124   1.628  1.00  0.00     0.163 HD
HETATM    4  C6  UNL     1       0.871   2.093   1.567  1.00  0.00     0.241 C 
HETATM    5  O1  UNL     1       1.555   3.127   1.387  1.00  0.00    -0.271 OA
HETATM    6  C7  UNL     1       1.545   0.815   1.785  1.00  0.00     0.176 C 
HETATM    7  N8  UNL     1       0.674  -0.334   1.769  1.00  0.00    -0.346 N 
ATOM      8  H8  UNL     1       1.065  -1.264   1.620  1.00  0.00     0.163 HD
HETATM    9  C12 UNL     1      -0.721  -0.179   1.959  1.00  0.00     0.241 C 
HETATM   10  O2  UNL     1      -1.400  -1.058   2.570  1.00  0.00    -0.271 OA
ENDROOT
BRANCH   1  11
HETATM   11  C4  UNL     1      -1.725   0.893  -0.020  1.00  0.00     0.036 C 
BRANCH  11  12
HETATM   12  C3  UNL     1      -2.612  -0.259  -0.364  1.00  0.00     0.022 C 
BRANCH  12  13
HETATM   13  C2  UNL     1      -3.948  -0.116   0.352  1.00  0.00     0.122 C 
BRANCH  13  14
HETATM   14  N3  UNL     1      -4.747  -1.261  -0.029  1.00  0.00    -0.367 N 
HETATM   15  C1  UNL     1      -5.948  -1.093  -0.439  1.00  0.00     0.196 C 
HETATM   16  N1  UNL     1      -6.691  -2.255  -0.802  1.00  0.00    -0.067 NA
HETATM   17  N2  UNL     1      -6.479   0.220  -0.511  1.00  0.00    -0.067 NA
ATOM     18  H3  UNL     1      -4.354  -2.200   0.029  1.00  0.00     0.161 HD
ENDBRANCH  13  14
ENDBRANCH  12  13
ENDBRANCH  11  12
ENDBRANCH   1  11
BRANCH   6  19
HETATM   19  C8  UNL     1       2.765   0.598   0.929  1.00  0.00     0.036 C 
BRANCH  19  20
HETATM   20  C9  UNL     1       2.460   0.627  -0.554  1.00  0.00     0.022 C 
BRANCH  20  21
HETATM   21  C10 UNL     1       3.755   0.384  -1.351  1.00  0.00     0.122 C 
BRANCH  21  22
HETATM   22  N5  UNL     1       4.305  -0.905  -0.997  1.00  0.00    -0.367 N 
HETATM   23  C11 UNL     1       5.518  -1.265  -1.195  1.00  0.00     0.196 C 
HETATM   24  N6  UNL     1       5.914  -2.565  -0.794  1.00  0.00    -0.067 NA
HETATM   25  N7  UNL     1       6.471  -0.409  -1.800  1.00  0.00    -0.067 NA
ATOM     26  H5  UNL     1       3.679  -1.579  -0.556  1.00  0.00     0.161 HD
ENDBRANCH  21  22
ENDBRANCH  20  21
ENDBRANCH  19  20
ENDBRANCH   6  19
TORSDOF 8
