REMARK  3 active torsions:
REMARK  status: ('A' for Active; 'I' for Inactive)
REMARK       I    between atoms: C2_2  and  N1_4 
REMARK    1  A    between atoms: N1_4  and  C3_6 
REMARK    2  A    between atoms: C3_6  and  N2_8 
REMARK    3  A    between atoms: C12_21  and  C13_22 
ROOT
HETATM    1  N2  UNL     1      -2.485   0.778   1.793  1.00  0.00    -0.166 N 
ATOM      2  H2  UNL     1      -2.241   1.537   2.429  1.00  0.00     0.186 HD
HETATM    3  C4  UNL     1      -1.546   0.092   1.250  1.00  0.00     0.686 C 
HETATM    4  N3  UNL     1      -2.042  -0.941   0.381  1.00  0.00    -0.191 N 
ATOM      5  H3  UNL     1      -3.049  -1.104   0.398  1.00  0.00     0.184 HD
HETATM    6  C5  UNL     1      -1.294  -1.747  -0.486  1.00  0.00     0.060 A 
HETATM    7  C6  UNL     1      -2.046  -2.701  -1.131  1.00  0.00     0.031 A 
HETATM    8  C7  UNL     1      -1.451  -3.584  -2.029  1.00  0.00     0.002 A 
HETATM    9  C8  UNL     1      -0.086  -3.515  -2.288  1.00  0.00     0.001 A 
HETATM   10  C9  UNL     1       0.649  -2.543  -1.623  1.00  0.00     0.015 A 
HETATM   11  C10 UNL     1       0.046  -1.675  -0.736  1.00  0.00     0.012 A 
HETATM   12  C11 UNL     1       1.068  -0.764  -0.191  1.00  0.00     0.064 A 
HETATM   13  S2  UNL     1       2.714  -0.618  -0.698  1.00  0.00    -0.066 SA
HETATM   14  C12 UNL     1       3.202   0.606   0.390  1.00  0.00     0.103 A 
HETATM   15  N5  UNL     1       2.102   0.835   1.071  1.00  0.00    -0.333 N 
ATOM     16  H5  UNL     1       2.098   1.538   1.810  1.00  0.00     0.168 HD
HETATM   17  C18 UNL     1       1.018   0.166   0.804  1.00  0.00     0.140 A 
HETATM   18  N6  UNL     1      -0.197   0.421   1.560  1.00  0.00    -0.175 N 
ATOM     19  H6  UNL     1      -0.062   0.909   2.446  1.00  0.00     0.186 HD
ENDROOT
BRANCH   1  20
HETATM   20  C3  UNL     1      -3.857   0.507   1.531  1.00  0.00     0.193 C 
HETATM   21  S1  UNL     1      -4.741  -0.519   2.423  1.00  0.00    -0.040 SA
BRANCH  20  22
HETATM   22  N1  UNL     1      -4.457   1.174   0.439  1.00  0.00    -0.304 N 
HETATM   23  C2  UNL     1      -5.811   0.951   0.126  1.00  0.00     0.219 C 
HETATM   24  C1  UNL     1      -6.416   1.664  -1.025  1.00  0.00     0.117 C 
HETATM   25  O1  UNL     1      -6.525   0.170   0.786  1.00  0.00    -0.274 OA
ATOM     26  H1  UNL     1      -3.906   1.821  -0.125  1.00  0.00     0.171 HD
ENDBRANCH  20  22
ENDBRANCH   1  20
BRANCH  14  27
HETATM   27  C13 UNL     1       4.522   1.209   0.494  1.00  0.00     0.066 A 
HETATM   28  C14 UNL     1       5.538   0.800  -0.343  1.00  0.00     0.032 A 
HETATM   29  C15 UNL     1       6.807   1.339  -0.285  1.00  0.00     0.004 A 
HETATM   30  C16 UNL     1       7.066   2.322   0.642  1.00  0.00     0.017 A 
HETATM   31  C17 UNL     1       6.045   2.728   1.477  1.00  0.00     0.088 A 
HETATM   32  N4  UNL     1       4.805   2.169   1.387  1.00  0.00    -0.364 N 
ATOM     33  H4  UNL     1       4.070   2.490   2.018  1.00  0.00     0.165 HD
ENDBRANCH  14  27
TORSDOF 3
