REMARK  10 active torsions:
REMARK  status: ('A' for Active; 'I' for Inactive)
REMARK    1  A    between atoms: C2_2  and  C3_3 
REMARK    2  A    between atoms: C3_3  and  C4_4 
REMARK    3  A    between atoms: C4_4  and  C5_5 
REMARK    4  A    between atoms: C5_5  and  C6_6 
REMARK    5  A    between atoms: C6_6  and  C7_7 
REMARK    6  A    between atoms: C7_7  and  C8_8 
REMARK    7  A    between atoms: C8_8  and  C9_9 
REMARK    8  A    between atoms: N4_31  and  C23_33 
REMARK    9  A    between atoms: C23_33  and  C24_34 
REMARK   10  A    between atoms: C27_37  and  C28_38 
ROOT
HETATM    1  C9  UNL     1       1.982  -0.710  -0.846  1.00  0.00     0.277 C 
HETATM    2  N1  UNL     1       1.882   0.688  -1.238  1.00  0.00    -0.062 N 
ATOM      3  H11 UNL     1       1.676   0.805  -2.230  1.00  0.00     0.278 HD
ATOM      4  H12 UNL     1       2.783   1.165  -1.228  1.00  0.00     0.278 HD
HETATM    5  C10 UNL     1       0.905   1.325  -0.387  1.00  0.00     0.233 C 
HETATM    6  C11 UNL     1       1.482   2.525   0.324  1.00  0.00     0.028 C 
HETATM    7  C12 UNL     1       0.395   3.583   0.565  1.00  0.00     0.011 C 
HETATM    8  C13 UNL     1      -0.738   2.861   1.259  1.00  0.00     0.103 C 
HETATM    9  C14 UNL     1      -1.810   3.769   1.710  1.00  0.00     0.218 C 
HETATM   10  O1  UNL     1      -1.413   4.807   2.347  1.00  0.00    -0.274 OA
HETATM   11  N2  UNL     1      -3.195   3.631   1.527  1.00  0.00    -0.344 N 
ATOM     12  H2  UNL     1      -3.759   3.605   2.377  1.00  0.00     0.163 HD
HETATM   13  C15 UNL     1      -3.922   3.521   0.277  1.00  0.00     0.106 C 
HETATM   14  C16 UNL     1      -3.104   3.727  -0.947  1.00  0.00     0.048 C 
HETATM   15  C17 UNL     1      -4.841   4.783   0.279  1.00  0.00     0.048 C 
HETATM   16  C18 UNL     1      -4.789   2.312   0.256  1.00  0.00     0.245 C 
HETATM   17  O2  UNL     1      -5.688   2.320   1.181  1.00  0.00    -0.271 OA
HETATM   18  N3  UNL     1      -4.764   1.222  -0.587  1.00  0.00    -0.353 N 
ATOM     19  H3  UNL     1      -5.636   1.016  -1.074  1.00  0.00     0.163 HD
HETATM   20  C19 UNL     1      -3.632   0.313  -0.875  1.00  0.00     0.107 C 
HETATM   21  C20 UNL     1      -3.592   0.267  -2.392  1.00  0.00     0.034 C 
HETATM   22  C21 UNL     1      -3.988  -0.934  -0.202  1.00  0.00     0.267 C 
HETATM   23  N4  UNL     1      -3.055  -2.043  -0.136  1.00  0.00    -0.047 N 
HETATM   24  C22 UNL     1      -2.955  -2.637  -1.411  1.00  0.00     0.278 C 
HETATM   25  C26 UNL     1      -1.833  -1.630   0.473  1.00  0.00     0.227 C 
HETATM   26  C27 UNL     1      -0.587  -2.357   0.382  1.00  0.00     0.039 C 
HETATM   27  N5  UNL     1       0.038  -2.400  -0.942  1.00  0.00    -0.327 N 
ATOM     28  H5  UNL     1      -0.132  -3.233  -1.506  1.00  0.00     0.168 HD
HETATM   29  C31 UNL     1       0.841  -1.412  -1.502  1.00  0.00     0.252 C 
HETATM   30  O3  UNL     1       0.598  -1.050  -2.703  1.00  0.00    -0.271 OA
ENDROOT
BRANCH   1  31
HETATM   31  C8  UNL     1       3.226  -1.359  -1.359  1.00  0.00     0.043 C 
BRANCH  31  32
HETATM   32  C7  UNL     1       4.510  -0.689  -0.860  1.00  0.00     0.006 C 
BRANCH  32  33
HETATM   33  C6  UNL     1       4.592  -0.729   0.623  1.00  0.00     0.027 C 
BRANCH  33  34
HETATM   34  C5  UNL     1       5.798  -0.138   1.231  1.00  0.00    -0.031 C 
BRANCH  34  35
HETATM   35  C4  UNL     1       6.123   1.277   1.126  1.00  0.00    -0.031 C 
BRANCH  35  36
HETATM   36  C3  UNL     1       6.406   1.920  -0.167  1.00  0.00     0.026 C 
BRANCH  36  37
HETATM   37  C2  UNL     1       7.565   1.348  -0.934  1.00  0.00    -0.001 C 
HETATM   38  C1  UNL     1       8.845   1.473  -0.119  1.00  0.00     0.005 C 
ENDBRANCH  36  37
ENDBRANCH  35  36
ENDBRANCH  34  35
ENDBRANCH  33  34
ENDBRANCH  32  33
ENDBRANCH  31  32
ENDBRANCH   1  31
BRANCH  26  39
HETATM   39  C28 UNL     1      -0.378  -3.650   1.073  1.00  0.00     0.029 C 
HETATM   40  C29 UNL     1      -0.529  -3.539   2.578  1.00  0.00     0.016 C 
HETATM   41  C30 UNL     1       1.119  -3.986   0.876  1.00  0.00     0.016 C 
ENDBRANCH  26  39
BRANCH  23  42
HETATM   42  C23 UNL     1      -3.688  -2.944   0.807  1.00  0.00     0.242 C 
BRANCH  42  43
HETATM   43  C24 UNL     1      -5.110  -3.242   0.709  1.00  0.00     0.024 C 
HETATM   44  C25 UNL     1      -5.615  -3.933  -0.527  1.00  0.00     0.007 C 
ENDBRANCH  42  43
ENDBRANCH  23  42
TORSDOF 10
