REMARK  9 active torsions:
REMARK  status: ('A' for Active; 'I' for Inactive)
REMARK    1  A    between atoms: C3_3  and  C5_6 
REMARK    2  A    between atoms: C8_12  and  C9_13 
REMARK    3  A    between atoms: N2_19  and  C14_21 
REMARK    4  A    between atoms: C14_21  and  N3_23 
REMARK    5  A    between atoms: N3_23  and  C15_25 
REMARK    6  A    between atoms: C15_25  and  C16_26 
REMARK    7  A    between atoms: C16_26  and  C17_27 
REMARK    8  A    between atoms: C17_27  and  C18_28 
REMARK    9  A    between atoms: C18_28  and  C19_29 
ROOT
HETATM    1  C1  UNL     1      -5.622   3.148  -2.085  1.00  0.00     0.016 C 
HETATM    2  C2  UNL     1      -4.981   3.314  -1.075  1.00  0.00    -0.070 C 
HETATM    3  C3  UNL     1      -4.170   3.505   0.154  1.00  0.00     0.183 C 
HETATM    4  C4  UNL     1      -4.989   3.222   1.375  1.00  0.00     0.071 C 
HETATM    5  F1  UNL     1      -3.874   4.880   0.220  1.00  0.00    -0.225 F 
ENDROOT
BRANCH   3   6
HETATM    6  C5  UNL     1      -2.903   2.777   0.070  1.00  0.00     0.077 C 
HETATM    7  C6  UNL     1      -2.690   1.503  -0.024  1.00  0.00     0.109 C 
HETATM    8  N1  UNL     1      -3.764   0.584  -0.061  1.00  0.00    -0.309 N 
HETATM    9  N4  UNL     1      -1.295   1.126  -0.082  1.00  0.00    -0.328 N 
HETATM   10  C7  UNL     1      -3.729  -0.860  -0.237  1.00  0.00     0.255 C 
ATOM     11  H1  UNL     1      -4.693   0.990   0.051  1.00  0.00     0.170 HD
HETATM   12  O1  UNL     1      -4.776  -1.368  -0.659  1.00  0.00    -0.268 OA
HETATM   13  C8  UNL     1      -2.618  -1.758   0.021  1.00  0.00     0.034 C 
HETATM   14  C12 UNL     1      -1.358  -1.435   0.221  1.00  0.00     0.067 C 
HETATM   15 BR1  UNL     1      -0.188  -2.911   0.531  1.00  0.00    -0.046 Br
HETATM   16  C13 UNL     1      -0.670  -0.122   0.260  1.00  0.00     0.127 C 
HETATM   17  N2  UNL     1       0.529  -0.119   0.617  1.00  0.00    -0.318 N 
ATOM     18  H2  UNL     1       0.873  -1.054   0.837  1.00  0.00     0.170 HD
ATOM     19  H4  UNL     1      -0.661   1.853  -0.415  1.00  0.00     0.169 HD
BRANCH  13  20
HETATM   20  C9  UNL     1      -2.906  -3.208   0.070  1.00  0.00     0.017 C 
HETATM   21  C10 UNL     1      -3.365  -3.758  -1.248  1.00  0.00     0.015 C 
HETATM   22  C11 UNL     1      -3.900  -3.430   1.187  1.00  0.00     0.015 C 
ENDBRANCH  13  20
BRANCH  17  23
HETATM   23  C14 UNL     1       1.482   0.839   0.781  1.00  0.00     0.173 C 
HETATM   24  S1  UNL     1       1.291   2.040   1.867  1.00  0.00    -0.041 SA
BRANCH  23  25
HETATM   25  N3  UNL     1       2.702   0.829   0.003  1.00  0.00    -0.367 N 
ATOM     26  H3  UNL     1       3.432   1.528   0.142  1.00  0.00     0.161 HD
BRANCH  25  27
HETATM   27  C15 UNL     1       2.832  -0.200  -0.961  1.00  0.00     0.122 C 
BRANCH  27  28
HETATM   28  C16 UNL     1       4.158  -0.566  -1.494  1.00  0.00     0.020 C 
BRANCH  28  29
HETATM   29  C17 UNL     1       5.137  -1.175  -0.563  1.00  0.00     0.002 C 
BRANCH  29  30
HETATM   30  C18 UNL     1       5.585  -0.377   0.596  1.00  0.00    -0.000 C 
BRANCH  30  31
HETATM   31  C19 UNL     1       6.322   0.900   0.254  1.00  0.00    -0.005 C 
HETATM   32  C20 UNL     1       7.577   0.586  -0.541  1.00  0.00     0.005 C 
ENDBRANCH  30  31
ENDBRANCH  29  30
ENDBRANCH  28  29
ENDBRANCH  27  28
ENDBRANCH  25  27
ENDBRANCH  23  25
ENDBRANCH  17  23
ENDBRANCH   3   6
TORSDOF 9
