REMARK  8 active torsions:
REMARK  status: ('A' for Active; 'I' for Inactive)
REMARK    1  A    between atoms: O1_2  and  C2_3 
REMARK    2  A    between atoms: C2_3  and  C3_5 
REMARK    3  A    between atoms: C4_6  and  O3_7 
REMARK    4  A    between atoms: C4_6  and  C10_21 
REMARK    5  A    between atoms: O3_7  and  C5_8 
REMARK    6  A    between atoms: C7_15  and  C8_16 
REMARK    7  A    between atoms: C8_16  and  O5_18 
REMARK    8  A    between atoms: C10_21  and  O7_22 
ROOT
HETATM    1  C5  UNL     1      -0.616  -0.809  -0.560  1.00  0.00     0.378 C 
HETATM    2  N1  UNL     1      -0.876  -0.083   0.667  1.00  0.00    -0.329 N 
ATOM      3  H1  UNL     1      -0.330   0.683   1.061  1.00  0.00     0.165 HD
HETATM    4  C6  UNL     1      -2.054  -0.666   1.204  1.00  0.00     0.114 C 
HETATM    5  N2  UNL     1      -2.434  -0.613   2.422  1.00  0.00    -0.386 N 
ATOM      6  H21 UNL     1      -3.280  -1.032   2.808  1.00  0.00     0.157 HD
ATOM      7  H22 UNL     1      -1.985  -0.162   3.219  1.00  0.00     0.157 HD
HETATM    8  C7  UNL     1      -2.708  -1.323   0.044  1.00  0.00     0.292 C 
HETATM    9  O6  UNL     1      -1.648  -1.702  -0.728  1.00  0.00    -0.321 OA
ENDROOT
BRANCH   1  10
HETATM   10  O3  UNL     1       0.572  -1.523  -0.389  1.00  0.00    -0.303 OA
BRANCH  10  11
HETATM   11  C4  UNL     1       1.809  -0.910  -0.106  1.00  0.00     0.096 C 
HETATM   12  C3  UNL     1       2.092   0.217  -0.670  1.00  0.00     0.118 C 
BRANCH  12  13
HETATM   13  C2  UNL     1       3.266   1.039  -0.554  1.00  0.00     0.284 C 
HETATM   14  O2  UNL     1       4.272   0.770   0.165  1.00  0.00    -0.260 OA
BRANCH  13  15
HETATM   15  O1  UNL     1       3.340   2.248  -1.284  1.00  0.00    -0.323 OA
HETATM   16  C1  UNL     1       4.511   3.018  -1.137  1.00  0.00     0.213 C 
ENDBRANCH  13  15
ENDBRANCH  12  13
BRANCH  11  17
HETATM   17  C10 UNL     1       2.658  -1.651   0.828  1.00  0.00     0.247 C 
HETATM   18  S1  UNL     1       2.913  -3.375   0.273  1.00  0.00    -0.056 SA
BRANCH  17  19
HETATM   19  O7  UNL     1       1.983  -1.798   2.076  1.00  0.00    -0.378 OA
ATOM     20  H7  UNL     1       2.534  -2.279   2.682  1.00  0.00     0.211 HD
ENDBRANCH  17  19
ENDBRANCH  11  17
ENDBRANCH  10  11
ENDBRANCH   1  10
BRANCH   8  21
HETATM   21  C8  UNL     1      -3.529  -0.297  -0.670  1.00  0.00     0.295 C 
HETATM   22  O4  UNL     1      -3.199   0.093  -1.822  1.00  0.00    -0.262 OA
BRANCH  21  23
HETATM   23  O5  UNL     1      -4.665   0.258  -0.112  1.00  0.00    -0.324 OA
HETATM   24  C9  UNL     1      -5.452   1.231  -0.779  1.00  0.00     0.213 C 
ENDBRANCH  21  23
ENDBRANCH   8  21
TORSDOF 8
