REMARK  9 active torsions:
REMARK  status: ('A' for Active; 'I' for Inactive)
REMARK    1  A    between atoms: N1_1  and  C1_4 
REMARK    2  A    between atoms: C3_10  and  S1_11 
REMARK    3  A    between atoms: S1_11  and  C4_12 
REMARK    4  A    between atoms: C4_12  and  C5_13 
REMARK    5  A    between atoms: C5_13  and  N4_14 
REMARK    6  A    between atoms: C5_13  and  C6_18 
REMARK       I    between atoms: C6_18  and  N5_20 
REMARK    7  A    between atoms: N5_20  and  N6_22 
REMARK    8  A    between atoms: C7_27  and  N8_28 
REMARK    9  A    between atoms: N8_28  and  C8_30 
ROOT
HETATM    1  C1  UNL     1      -1.598  -4.430   0.638  1.00  0.00     0.127 A 
HETATM    2  N2  UNL     1      -0.468  -3.715   0.795  1.00  0.00    -0.327 N 
ATOM      3  H2  UNL     1       0.398  -4.208   1.015  1.00  0.00     0.169 HD
HETATM    4  C2  UNL     1      -0.437  -2.387   0.674  1.00  0.00     0.124 A 
HETATM    5  N3  UNL     1       0.679  -1.677   0.859  1.00  0.00    -0.322 N 
ATOM      6  H3  UNL     1       1.553  -2.153   1.082  1.00  0.00     0.169 HD
HETATM    7  C3  UNL     1       0.654  -0.351   0.753  1.00  0.00     0.147 A 
HETATM    8  N7  UNL     1      -0.477   0.314   0.459  1.00  0.00    -0.322 N 
ATOM      9  H7  UNL     1      -0.439   1.331   0.390  1.00  0.00     0.169 HD
HETATM   10  C7  UNL     1      -1.679  -0.310   0.248  1.00  0.00     0.123 A 
HETATM   11  C14 UNL     1      -1.692  -1.672   0.354  1.00  0.00     0.078 A 
HETATM   12  C15 UNL     1      -2.813  -2.433   0.206  1.00  0.00     0.092 A 
HETATM   13  N9  UNL     1      -4.085  -1.880  -0.016  1.00  0.00    -0.099 NA
HETATM   14  C16 UNL     1      -2.786  -3.824   0.344  1.00  0.00     0.115 A 
HETATM   15  N10 UNL     1      -4.000  -4.551   0.171  1.00  0.00    -0.096 NA
ENDROOT
BRANCH   7  16
HETATM   16  S1  UNL     1       2.173   0.590   1.010  1.00  0.00    -0.091 SA
BRANCH  16  17
HETATM   17  C4  UNL     1       2.976   0.732  -0.609  1.00  0.00     0.125 C 
BRANCH  17  18
HETATM   18  C5  UNL     1       4.275   1.513  -0.507  1.00  0.00     0.285 C 
BRANCH  18  19
HETATM   19  N4  UNL     1       4.830   1.567  -1.850  1.00  0.00    -0.066 N 
ATOM     20  H43 UNL     1       4.944   0.648  -2.277  1.00  0.00     0.275 HD
ATOM     21  H42 UNL     1       4.182   1.948  -2.540  1.00  0.00     0.275 HD
ATOM     22  H41 UNL     1       5.702   2.091  -1.782  1.00  0.00     0.275 HD
ENDBRANCH  18  19
BRANCH  18  23
HETATM   23  C6  UNL     1       5.259   0.810   0.356  1.00  0.00     0.267 C 
HETATM   24  O1  UNL     1       4.962   0.661   1.565  1.00  0.00    -0.269 OA
HETATM   25  N5  UNL     1       6.477   0.323  -0.131  1.00  0.00    -0.275 N 
ATOM     26  H5  UNL     1       6.717   0.446  -1.115  1.00  0.00     0.189 HD
BRANCH  25  27
HETATM   27  N6  UNL     1       7.362  -0.328   0.721  1.00  0.00    -0.343 N 
ATOM     28  H62 UNL     1       7.107  -0.443   1.702  1.00  0.00     0.176 HD
ATOM     29  H61 UNL     1       8.250  -0.683   0.366  1.00  0.00     0.176 HD
ENDBRANCH  25  27
ENDBRANCH  18  23
ENDBRANCH  17  18
ENDBRANCH  16  17
ENDBRANCH   7  16
BRANCH  10  30
HETATM   30  N8  UNL     1      -2.766   0.446  -0.217  1.00  0.00    -0.342 N 
ATOM     31  H8  UNL     1      -3.561  -0.063  -0.602  1.00  0.00     0.167 HD
BRANCH  30  32
HETATM   32  C8  UNL     1      -2.848   1.873  -0.194  1.00  0.00     0.033 A 
HETATM   33  C9  UNL     1      -2.501   2.622   0.894  1.00  0.00     0.029 A 
HETATM   34  C10 UNL     1      -2.579   4.010   0.897  1.00  0.00     0.002 A 
HETATM   35  C11 UNL     1      -3.022   4.649  -0.239  1.00  0.00     0.000 A 
HETATM   36  C12 UNL     1      -3.379   3.924  -1.352  1.00  0.00     0.002 A 
HETATM   37  C13 UNL     1      -3.287   2.538  -1.315  1.00  0.00     0.029 A 
ENDBRANCH  30  32
ENDBRANCH  10  30
BRANCH   1  38
HETATM   38  N1  UNL     1      -1.577  -5.728   0.765  1.00  0.00    -0.384 N 
ATOM     39  H12 UNL     1      -0.690  -6.181   0.985  1.00  0.00     0.157 HD
ATOM     40  H11 UNL     1      -2.433  -6.270   0.646  1.00  0.00     0.157 HD
ENDBRANCH   1  38
TORSDOF 9
