REMARK  3 active torsions:
REMARK  status: ('A' for Active; 'I' for Inactive)
REMARK    1  A    between atoms: N1_1  and  C1_4 
REMARK    2  A    between atoms: C3_8  and  N3_9 
REMARK    3  A    between atoms: N3_9  and  N4_11 
ROOT
HETATM    1  C1  UNL     1      -2.823  -0.004   0.657  1.00  0.00     0.677 A 
HETATM    2  N2  UNL     1      -2.219   1.176   0.883  1.00  0.00    -0.198 N 
ATOM      3  H2  UNL     1      -2.670   2.035   1.196  1.00  0.00     0.183 HD
HETATM    4  C2  UNL     1      -0.880   1.010   0.614  1.00  0.00     0.156 A 
HETATM    5  C3  UNL     1      -0.700  -0.295   0.225  1.00  0.00     0.153 A 
HETATM    6  N7  UNL     1      -1.914  -0.908   0.257  1.00  0.00    -0.174 N 
ATOM      7  H7  UNL     1      -2.101  -1.882   0.019  1.00  0.00     0.186 HD
ENDROOT
BRANCH   5   8
HETATM    8  N3  UNL     1       0.524  -0.877  -0.139  1.00  0.00    -0.262 N 
ATOM      9  H3  UNL     1       0.504  -1.861  -0.407  1.00  0.00     0.191 HD
BRANCH   8  10
HETATM   10  N4  UNL     1       1.767  -0.241  -0.170  1.00  0.00    -0.190 N 
HETATM   11  C4  UNL     1       2.914  -0.886  -0.538  1.00  0.00     0.228 A 
HETATM   12  N5  UNL     1       3.919  -0.010  -0.463  1.00  0.00    -0.345 N 
HETATM   13  C5  UNL     1       3.408   1.182  -0.049  1.00  0.00     0.200 A 
ATOM     14  H5  UNL     1       4.898  -0.200  -0.678  1.00  0.00     0.167 HD
HETATM   15  N6  UNL     1       2.089   1.007   0.121  1.00  0.00    -0.274 N 
ATOM     16  H6  UNL     1       1.435   1.727   0.428  1.00  0.00     0.190 HD
ENDBRANCH   8  10
ENDBRANCH   5   8
BRANCH   1  17
HETATM   17  N1  UNL     1      -4.102  -0.194   0.817  1.00  0.00    -0.234 N 
ATOM     18  H12 UNL     1      -4.792   0.493   1.121  1.00  0.00     0.174 HD
ATOM     19  H11 UNL     1      -4.560  -1.089   0.646  1.00  0.00     0.174 HD
ENDBRANCH   1  17
TORSDOF 3
