REMARK  2 active torsions:
REMARK  status: ('A' for Active; 'I' for Inactive)
REMARK    1  A    between atoms: C2_2  and  C3_3 
REMARK    2  A    between atoms: C5_5  and  O1_6 
ROOT
HETATM    1  C3  UNL     1       0.219   0.624   0.128  1.00  0.00     0.061 C 
HETATM    2  C4  UNL     1       1.237   0.962  -0.972  1.00  0.00     0.096 C 
HETATM    3  C5  UNL     1       2.449   0.054  -0.856  1.00  0.00     0.360 C 
HETATM    4  N1  UNL     1       2.929   0.038   0.504  1.00  0.00     0.130 N 
HETATM    5  C6  UNL     1       4.229  -0.553   0.540  1.00  0.00     0.315 C 
HETATM    6  C7  UNL     1       1.994  -0.559   1.434  1.00  0.00     0.418 C 
HETATM    7  N2  UNL     1       0.683  -0.584   0.766  1.00  0.00    -0.178 N 
HETATM    8  C8  UNL     1      -0.059  -1.794   0.784  1.00  0.00     0.716 A 
HETATM    9  N3  UNL     1      -0.120  -2.873   1.576  1.00  0.00    -0.115 N 
ATOM     10  H3  UNL     1       0.430  -3.035   2.420  1.00  0.00     0.207 HD
HETATM   11  N4  UNL     1      -1.022  -3.686   1.063  1.00  0.00    -0.213 N 
ATOM     12  H4  UNL     1      -1.281  -4.589   1.459  1.00  0.00     0.210 HD
HETATM   13  N5  UNL     1      -1.543  -3.171  -0.032  1.00  0.00    -0.211 N 
ATOM     14  H5  UNL     1      -2.259  -3.588  -0.626  1.00  0.00     0.210 HD
HETATM   15  N6  UNL     1      -0.947  -2.002  -0.203  1.00  0.00    -0.102 N 
HETATM   16  C9  UNL     1      -1.069  -0.963  -1.203  1.00  0.00     0.134 C 
HETATM   17  C10 UNL     1      -2.321  -1.046  -2.010  1.00  0.00     0.028 C 
HETATM   18  C11 UNL     1      -3.530  -1.006  -1.157  1.00  0.00     0.002 C 
HETATM   19  C12 UNL     1      -3.428  -0.288   0.129  1.00  0.00     0.001 C 
HETATM   20  C13 UNL     1      -2.292   0.642   0.299  1.00  0.00     0.009 C 
HETATM   21  C14 UNL     1      -1.096   0.418  -0.539  1.00  0.00     0.040 C 
ENDROOT
BRANCH   1  22
HETATM   22  C2  UNL     1       0.246   1.752   1.126  1.00  0.00     0.028 C 
HETATM   23  C1  UNL     1      -0.118   3.073   0.512  1.00  0.00     0.007 C 
ENDBRANCH   1  22
BRANCH   3  24
HETATM   24  O1  UNL     1       3.461   0.602  -1.643  1.00  0.00    -0.368 OA
ATOM     25  H1  UNL     1       4.219   0.034  -1.570  1.00  0.00     0.212 HD
ENDBRANCH   3  24
TORSDOF 2
