REMARK  3 active torsions:
REMARK  status: ('A' for Active; 'I' for Inactive)
REMARK    1  A    between atoms: N1_14  and  O3_16 
REMARK    2  A    between atoms: C13_19  and  O4_20 
REMARK    3  A    between atoms: O4_20  and  O5_21 
ROOT
HETATM    1  C1  UNL     1      -2.142   2.044   0.295  1.00  0.00     0.012 C 
HETATM    2  C2  UNL     1      -0.881   1.245   0.692  1.00  0.00     0.017 C 
HETATM    3  C3  UNL     1      -1.280  -0.008   1.279  1.00  0.00     0.044 C 
HETATM    4  C4  UNL     1      -1.484  -1.242   0.501  1.00  0.00     0.054 C 
HETATM    5  C5  UNL     1      -2.229  -2.187   1.494  1.00  0.00     0.045 C 
HETATM    6  C6  UNL     1      -2.475  -1.114  -0.627  1.00  0.00     0.045 C 
HETATM    7  O1  UNL     1      -0.381  -1.994   0.208  1.00  0.00    -0.376 OA
HETATM    8  C7  UNL     1       0.522  -1.505  -0.687  1.00  0.00     0.125 C 
HETATM    9  C8  UNL     1       1.216  -2.610  -1.488  1.00  0.00     0.040 C 
HETATM   10  C9  UNL     1       1.459  -0.655   0.053  1.00  0.00     0.053 C 
HETATM   11  C10 UNL     1       2.939  -0.835  -0.323  1.00  0.00     0.185 C 
HETATM   12  O2  UNL     1       3.449   0.384   0.255  1.00  0.00    -0.337 OA
HETATM   13  C11 UNL     1       2.458   1.357   0.242  1.00  0.00     0.144 C 
HETATM   14  N1  UNL     1       2.529   2.532   0.749  1.00  0.00    -0.251 N 
ATOM     15  H1  UNL     1       1.711   3.135   0.657  1.00  0.00     0.196 HD
HETATM   16  C12 UNL     1       1.333   0.760  -0.465  1.00  0.00     0.103 C 
HETATM   17  C13 UNL     1       0.039   1.381  -0.443  1.00  0.00     0.176 C 
ENDROOT
BRANCH  14  18
HETATM   18  O3  UNL     1       3.611   3.037   1.401  1.00  0.00    -0.288 OA
ATOM     19  H3  UNL     1       3.664   3.908   1.777  1.00  0.00     0.244 HD
ENDBRANCH  14  18
BRANCH  17  20
HETATM   20  O4  UNL     1       0.219   2.759  -0.646  1.00  0.00    -0.237 OA
BRANCH  20  21
HETATM   21  O5  UNL     1      -0.304   3.180  -1.763  1.00  0.00    -0.250 OA
ATOM     22  H5  UNL     1      -0.182   4.112  -1.900  1.00  0.00     0.253 HD
ENDBRANCH  20  21
ENDBRANCH  17  20
TORSDOF 3
