REMARK  4 active torsions:
REMARK  status: ('A' for Active; 'I' for Inactive)
REMARK    1  A    between atoms: C4_9  and  N4_10 
REMARK    2  A    between atoms: N4_10  and  C5_12 
REMARK    3  A    between atoms: C5_12  and  C6_13 
REMARK    4  A    between atoms: C6_13  and  C7_14 
ROOT
HETATM    1  N1  UNL     1       1.582   3.619   1.251  1.00  0.00    -0.191 NA
HETATM    2  C1  UNL     1       2.089   2.601   1.063  1.00  0.00     0.104 C 
HETATM    3  C2  UNL     1       2.706   1.329   0.828  1.00  0.00     0.106 A 
HETATM    4  C3  UNL     1       4.027   0.982   1.029  1.00  0.00     0.133 A 
HETATM    5  N2  UNL     1       4.203  -0.288   0.693  1.00  0.00    -0.309 N 
ATOM      6  H2  UNL     1       5.077  -0.811   0.739  1.00  0.00     0.186 HD
HETATM    7  N3  UNL     1       3.034  -0.748   0.288  1.00  0.00    -0.285 N 
ATOM      8  H3  UNL     1       2.878  -1.704  -0.031  1.00  0.00     0.188 HD
HETATM    9  C4  UNL     1       2.077   0.186   0.345  1.00  0.00     0.138 A 
ENDROOT
BRANCH   9  10
HETATM   10  N4  UNL     1       0.824   0.105   0.033  1.00  0.00    -0.374 N 
ATOM     11  H4  UNL     1       0.201   0.907   0.127  1.00  0.00     0.161 HD
BRANCH  10  12
HETATM   12  C5  UNL     1       0.341  -1.170  -0.455  1.00  0.00     0.126 C 
BRANCH  12  13
HETATM   13  C6  UNL     1      -0.879  -1.001  -1.337  1.00  0.00     0.059 C 
BRANCH  13  14
HETATM   14  C7  UNL     1      -2.005  -0.357  -0.613  1.00  0.00    -0.041 A 
HETATM   15  C8  UNL     1      -2.945  -1.102   0.078  1.00  0.00     0.010 A 
HETATM   16  C9  UNL     1      -3.992  -0.492   0.750  1.00  0.00     0.018 A 
HETATM   17  C10 UNL     1      -4.114   0.886   0.741  1.00  0.00     0.087 A 
HETATM   18  N5  UNL     1      -3.204   1.587   0.073  1.00  0.00    -0.375 N 
HETATM   19  C11 UNL     1      -2.168   1.014  -0.594  1.00  0.00     0.094 A 
ATOM     20  H5  UNL     1      -3.287   2.604   0.060  1.00  0.00     0.164 HD
ENDBRANCH  13  14
ENDBRANCH  12  13
ENDBRANCH  10  12
ENDBRANCH   9  10
TORSDOF 4
