REMARK  5 active torsions:
REMARK  status: ('A' for Active; 'I' for Inactive)
REMARK    1  A    between atoms: N1_1  and  C1_4 
REMARK    2  A    between atoms: C2_7  and  N3_8 
REMARK    3  A    between atoms: C6_15  and  N5_16 
REMARK       I    between atoms: N5_16  and  C7_18 
REMARK    4  A    between atoms: C7_18  and  C8_20 
REMARK    5  A    between atoms: C8_20  and  N6_21 
ROOT
HETATM    1  C1  UNL     1       0.919   3.248  -0.297  1.00  0.00     0.680 A 
HETATM    2  N2  UNL     1       1.416   2.037  -0.005  1.00  0.00    -0.174 N 
ATOM      3  H2  UNL     1       2.357   1.985   0.385  1.00  0.00     0.186 HD
HETATM    4  C2  UNL     1       0.740   0.880  -0.199  1.00  0.00     0.153 A 
HETATM    5  C6  UNL     1      -0.522   1.012  -0.726  1.00  0.00     0.149 A 
HETATM    6  C9  UNL     1      -1.022   2.240  -1.021  1.00  0.00     0.290 A 
HETATM    7  O2  UNL     1      -2.179   2.318  -1.502  1.00  0.00    -0.265 OA
HETATM    8  N7  UNL     1      -0.334   3.360  -0.820  1.00  0.00    -0.154 N 
ATOM      9  H7  UNL     1      -0.731   4.271  -1.049  1.00  0.00     0.187 HD
ENDROOT
BRANCH   5  10
HETATM   10  N5  UNL     1      -1.331  -0.141  -0.956  1.00  0.00    -0.318 N 
HETATM   11  C7  UNL     1      -2.213  -0.570   0.053  1.00  0.00     0.247 C 
HETATM   12  O1  UNL     1      -2.284   0.055   1.127  1.00  0.00    -0.271 OA
ATOM     13  H5  UNL     1      -1.271  -0.647  -1.840  1.00  0.00     0.169 HD
BRANCH  11  14
HETATM   14  C8  UNL     1      -3.050  -1.762  -0.171  1.00  0.00     0.332 C 
BRANCH  14  15
HETATM   15  N6  UNL     1      -3.861  -1.974   1.015  1.00  0.00    -0.071 N 
ATOM     16  H63 UNL     1      -3.304  -2.039   1.867  1.00  0.00     0.274 HD
ATOM     17  H62 UNL     1      -4.407  -1.152   1.271  1.00  0.00     0.274 HD
ATOM     18  H61 UNL     1      -4.440  -2.799   0.860  1.00  0.00     0.274 HD
ENDBRANCH  14  15
ENDBRANCH  11  14
ENDBRANCH   5  10
BRANCH   4  19
HETATM   19  N3  UNL     1       1.304  -0.384   0.100  1.00  0.00    -0.340 N 
HETATM   20  C3  UNL     1       1.390  -1.130   1.340  1.00  0.00     0.154 C 
HETATM   21  C4  UNL     1       2.830  -1.611   1.290  1.00  0.00     0.254 C 
HETATM   22  N4  UNL     1       2.967  -1.982  -0.105  1.00  0.00    -0.058 N 
HETATM   23  C5  UNL     1       1.972  -1.280  -0.863  1.00  0.00     0.358 C 
ATOM     24  H42 UNL     1       3.911  -1.828  -0.460  1.00  0.00     0.279 HD
ATOM     25  H41 UNL     1       2.927  -2.991  -0.247  1.00  0.00     0.279 HD
ENDBRANCH   4  19
BRANCH   1  26
HETATM   26  N1  UNL     1       1.573   4.332  -0.103  1.00  0.00    -0.234 N 
ATOM     27  H12 UNL     1       2.511   4.248   0.289  1.00  0.00     0.174 HD
ATOM     28  H11 UNL     1       1.195   5.253  -0.325  1.00  0.00     0.174 HD
ENDBRANCH   1  26
TORSDOF 5
