REMARK  9 active torsions:
REMARK  status: ('A' for Active; 'I' for Inactive)
REMARK    1  A    between atoms: N1_1  and  C1_4 
REMARK    2  A    between atoms: C6_12  and  C7_13 
REMARK    3  A    between atoms: C7_13  and  C8_14 
REMARK    4  A    between atoms: C8_14  and  C9_16 
REMARK       I    between atoms: C9_16  and  N3_18 
REMARK    5  A    between atoms: C12_21  and  N4_22 
REMARK    6  A    between atoms: N4_22  and  C13_25 
REMARK    7  A    between atoms: C13_25  and  C14_26 
REMARK    8  A    between atoms: N8_33  and  C15_34 
REMARK    9  A    between atoms: C16_40  and  N11_41 
ROOT
HETATM    1  C9  UNL     1      -0.702   0.030  -0.744  1.00  0.00     0.297 C 
HETATM    2  O3  UNL     1      -0.789   1.241  -1.119  1.00  0.00    -0.264 OA
HETATM    3  N3  UNL     1       0.323  -0.352   0.123  1.00  0.00    -0.263 N 
HETATM    4  C10 UNL     1       0.486  -1.708   0.570  1.00  0.00     0.141 C 
HETATM    5  C11 UNL     1       1.587  -1.941   1.549  1.00  0.00     0.075 C 
HETATM    6  C12 UNL     1       2.765  -1.016   1.443  1.00  0.00     0.289 C 
HETATM    7  N12 UNL     1       2.267   0.340   1.511  1.00  0.00    -0.314 N 
ATOM      8  H12 UNL     1       2.629   1.016   2.184  1.00  0.00     0.166 HD
HETATM    9  C17 UNL     1       1.243   0.675   0.584  1.00  0.00     0.327 C 
HETATM   10  O5  UNL     1       1.088   1.830   0.136  1.00  0.00    -0.247 OA
ENDROOT
BRANCH   6  11
HETATM   11  N4  UNL     1       3.484  -1.156   0.200  1.00  0.00    -0.047 N 
ATOM     12  H42 UNL     1       3.888  -2.088   0.111  1.00  0.00     0.280 HD
ATOM     13  H41 UNL     1       2.845  -1.179  -0.594  1.00  0.00     0.280 HD
BRANCH  11  14
HETATM   14  C13 UNL     1       4.484  -0.140   0.031  1.00  0.00     0.314 C 
BRANCH  14  15
HETATM   15  C14 UNL     1       5.266  -0.226  -1.202  1.00  0.00     0.148 A 
HETATM   16  N5  UNL     1       5.269  -1.098  -2.206  1.00  0.00    -0.270 N 
HETATM   17  N6  UNL     1       6.167  -0.744  -3.102  1.00  0.00    -0.226 N 
ATOM     18  H5  UNL     1       4.666  -1.918  -2.272  1.00  0.00     0.190 HD
HETATM   19  N7  UNL     1       6.741   0.354  -2.676  1.00  0.00    -0.218 N 
ATOM     20  H6  UNL     1       6.378  -1.236  -3.970  1.00  0.00     0.210 HD
HETATM   21  N8  UNL     1       6.222   0.696  -1.533  1.00  0.00    -0.203 N 
ATOM     22  H7  UNL     1       7.479   0.861  -3.164  1.00  0.00     0.210 HD
BRANCH  21  23
HETATM   23  C15 UNL     1       6.572   1.828  -0.746  1.00  0.00     0.197 A 
HETATM   24  N9  UNL     1       6.051   3.073  -0.730  1.00  0.00    -0.220 N 
HETATM   25  O4  UNL     1       6.689   3.786   0.157  1.00  0.00    -0.153 OA
ATOM     26  H9  UNL     1       5.284   3.403  -1.316  1.00  0.00     0.198 HD
HETATM   27  N10 UNL     1       7.613   3.093   0.741  1.00  0.00    -0.222 N 
HETATM   28  C16 UNL     1       7.570   1.865   0.203  1.00  0.00     0.169 A 
ATOM     29  H10 UNL     1       8.250   3.417   1.469  1.00  0.00     0.198 HD
BRANCH  28  30
HETATM   30  N11 UNL     1       8.339   0.871   0.520  1.00  0.00    -0.381 N 
ATOM     31 2H11 UNL     1       8.306  -0.063   0.111  1.00  0.00     0.157 HD
ATOM     32 1H11 UNL     1       9.078   0.898   1.223  1.00  0.00     0.157 HD
ENDBRANCH  28  30
ENDBRANCH  21  23
ENDBRANCH  14  15
ENDBRANCH  11  14
ENDBRANCH   6  11
BRANCH   1  33
HETATM   33  C8  UNL     1      -1.697  -0.867  -1.261  1.00  0.00     0.221 C 
HETATM   34  O2  UNL     1      -1.699  -2.076  -0.931  1.00  0.00    -0.287 OA
BRANCH  33  35
HETATM   35  C7  UNL     1      -2.766  -0.398  -2.207  1.00  0.00     0.127 C 
BRANCH  35  36
HETATM   36  C6  UNL     1      -4.079  -0.594  -1.561  1.00  0.00    -0.049 A 
HETATM   37  C5  UNL     1      -4.812  -1.751  -1.706  1.00  0.00     0.009 A 
HETATM   38  C4  UNL     1      -6.020  -1.881  -1.096  1.00  0.00     0.020 A 
HETATM   39  C3  UNL     1      -6.509  -0.827  -0.318  1.00  0.00     0.060 A 
HETATM   40  C2  UNL     1      -7.720  -0.898   0.322  1.00  0.00     0.272 A 
HETATM   41  C19 UNL     1      -5.758   0.339  -0.178  1.00  0.00     0.065 A 
HETATM   42  N2  UNL     1      -8.216   0.102   1.076  1.00  0.00    -0.156 N 
HETATM   43  O1  UNL     1      -8.398  -1.954   0.194  1.00  0.00    -0.267 OA
HETATM   44  C1  UNL     1      -7.464   1.213   1.190  1.00  0.00     0.679 A 
ATOM     45  H2  UNL     1      -9.121   0.021   1.540  1.00  0.00     0.187 HD
HETATM   46  N13 UNL     1      -6.274   1.329   0.583  1.00  0.00    -0.191 N 
ATOM     47  H13 UNL     1      -5.742   2.191   0.699  1.00  0.00     0.184 HD
HETATM   48  C18 UNL     1      -4.537   0.474  -0.794  1.00  0.00     0.038 A 
BRANCH  44  49
HETATM   49  N1  UNL     1      -7.933   2.192   1.918  1.00  0.00    -0.234 N 
ATOM     50  H12 UNL     1      -8.838   2.104   2.380  1.00  0.00     0.174 HD
ATOM     51  H11 UNL     1      -7.363   3.034   2.004  1.00  0.00     0.174 HD
ENDBRANCH  44  49
ENDBRANCH  35  36
ENDBRANCH  33  35
ENDBRANCH   1  33
TORSDOF 9
