REMARK  8 active torsions:
REMARK  status: ('A' for Active; 'I' for Inactive)
REMARK    1  A    between atoms: N1_4  and  C4_5 
REMARK    2  A    between atoms: C4_5  and  C5_6 
REMARK    3  A    between atoms: C5_6  and  C6_7 
REMARK    4  A    between atoms: C6_7  and  O1_8 
REMARK    5  A    between atoms: C6_7  and  C7_10 
REMARK    6  A    between atoms: C7_10  and  N2_11 
REMARK    7  A    between atoms: C11_18  and  N4_19 
REMARK    8  A    between atoms: N4_19  and  N5_21 
ROOT
HETATM    1  C6  UNL     1      -0.800  -1.228  -0.267  1.00  0.00     0.138 C 
ENDROOT
BRANCH   1   2
HETATM    2  C5  UNL     1       0.682  -1.058  -0.069  1.00  0.00     0.053 C 
BRANCH   2   3
HETATM    3  C4  UNL     1       1.235   0.225  -0.637  1.00  0.00     0.135 C 
BRANCH   3   4
HETATM    4  N1  UNL     1       2.680   0.247  -0.380  1.00  0.00    -0.309 N 
HETATM    5  C3  UNL     1       3.180   0.789   0.761  1.00  0.00     0.108 A 
HETATM    6  C2  UNL     1       4.542   0.806   0.994  1.00  0.00     0.022 A 
HETATM    7  C1  UNL     1       5.118   1.395   2.240  1.00  0.00     0.056 C 
HETATM    8  C13 UNL     1       5.352   0.252   0.024  1.00  0.00     0.256 A 
HETATM    9  N6  UNL     1       4.814  -0.281  -1.103  1.00  0.00    -0.275 N 
HETATM   10  O4  UNL     1       6.591   0.264   0.232  1.00  0.00    -0.267 OA
HETATM   11  C12 UNL     1       3.485  -0.290  -1.316  1.00  0.00     0.329 A 
ATOM     12  H6  UNL     1       5.433  -0.685  -1.806  1.00  0.00     0.173 HD
HETATM   13  O3  UNL     1       2.989  -0.786  -2.366  1.00  0.00    -0.246 OA
ENDBRANCH   3   4
ENDBRANCH   2   3
ENDBRANCH   1   2
BRANCH   1  14
HETATM   14  O1  UNL     1      -1.119  -2.474   0.324  1.00  0.00    -0.394 OA
ATOM     15  H1  UNL     1      -2.055  -2.581   0.199  1.00  0.00     0.210 HD
ENDBRANCH   1  14
BRANCH   1  16
HETATM   16  C7  UNL     1      -1.517  -0.113   0.424  1.00  0.00     0.178 C 
BRANCH  16  17
HETATM   17  N2  UNL     1      -2.963  -0.207   0.285  1.00  0.00    -0.189 N 
HETATM   18  C8  UNL     1      -3.689  -0.879   1.186  1.00  0.00     0.114 A 
HETATM   19  C9  UNL     1      -5.055  -0.966   1.051  1.00  0.00     0.092 A 
HETATM   20  C10 UNL     1      -5.649  -0.346  -0.029  1.00  0.00     0.260 A 
HETATM   21  O2  UNL     1      -6.905  -0.430  -0.147  1.00  0.00    -0.268 OA
HETATM   22  N3  UNL     1      -4.907   0.325  -0.925  1.00  0.00    -0.154 N 
HETATM   23  C11 UNL     1      -3.570   0.387  -0.758  1.00  0.00     0.701 A 
ATOM     24  H3  UNL     1      -5.349   0.782  -1.722  1.00  0.00     0.187 HD
BRANCH  23  25
HETATM   25  N4  UNL     1      -2.881   1.048  -1.649  1.00  0.00    -0.138 N 
ATOM     26  H4  UNL     1      -1.867   1.117  -1.558  1.00  0.00     0.205 HD
BRANCH  25  27
HETATM   27  N5  UNL     1      -3.523   1.658  -2.722  1.00  0.00    -0.331 N 
ATOM     28  H52 UNL     1      -4.537   1.579  -2.798  1.00  0.00     0.177 HD
ATOM     29  H51 UNL     1      -2.985   2.174  -3.418  1.00  0.00     0.177 HD
ENDBRANCH  25  27
ENDBRANCH  23  25
ENDBRANCH  16  17
ENDBRANCH   1  16
TORSDOF 8
