REMARK  12 active torsions:
REMARK  status: ('A' for Active; 'I' for Inactive)
REMARK    1  A    between atoms: C2_2  and  C3_3 
REMARK    2  A    between atoms: C3_3  and  N1_4 
REMARK    3  A    between atoms: N1_4  and  C4_5 
REMARK       I    between atoms: N1_4  and  C23_31 
REMARK    4  A    between atoms: C4_5  and  C5_6 
REMARK    5  A    between atoms: C5_6  and  C6_7 
REMARK    6  A    between atoms: C5_6  and  N2_14 
REMARK    7  A    between atoms: C6_7  and  C7_8 
REMARK       I    between atoms: N2_14  and  C13_16 
REMARK    8  A    between atoms: C13_16  and  C14_18 
REMARK       I    between atoms: N3_22  and  C18_23 
REMARK       I    between atoms: C18_23  and  N4_25 
REMARK    9  A    between atoms: N4_25  and  C19_27 
REMARK   10  A    between atoms: C23_31  and  C24_33 
REMARK   11  A    between atoms: C24_33  and  N5_35 
REMARK       I    between atoms: N5_35  and  C26_37 
REMARK       I    between atoms: C26_37  and  N6_39 
REMARK   12  A    between atoms: N6_39  and  C27_41 
ROOT
HETATM    1  C5  UNL     1      -0.735   0.395  -0.268  1.00  0.00     0.147 C 
ENDROOT
BRANCH   1   2
HETATM    2  C4  UNL     1       0.033  -0.380  -1.212  1.00  0.00     0.101 C 
BRANCH   2   3
HETATM    3  N1  UNL     1       1.187  -0.012  -1.932  1.00  0.00    -0.307 N 
HETATM    4  C23 UNL     1       2.426   0.156  -1.254  1.00  0.00     0.249 C 
HETATM    5  O3  UNL     1       2.311   0.286   0.027  1.00  0.00    -0.270 OA
BRANCH   3   6
HETATM    6  C3  UNL     1       1.171  -0.074  -3.365  1.00  0.00     0.071 C 
BRANCH   6   7
HETATM    7  C2  UNL     1       0.897   1.079  -4.213  1.00  0.00     0.041 C 
HETATM    8  C1  UNL     1       1.011   0.711  -5.693  1.00  0.00     0.010 C 
ENDBRANCH   6   7
ENDBRANCH   3   6
BRANCH   4   9
HETATM    9  C24 UNL     1       3.774   0.191  -1.805  1.00  0.00     0.175 C 
HETATM   10  C25 UNL     1       4.114   1.282  -2.749  1.00  0.00     0.042 C 
BRANCH   9  11
HETATM   11  N5  UNL     1       4.731   0.340  -0.681  1.00  0.00    -0.330 N 
HETATM   12  C26 UNL     1       5.487  -0.734  -0.210  1.00  0.00     0.317 C 
HETATM   13  O4  UNL     1       5.312  -1.869  -0.759  1.00  0.00    -0.247 OA
HETATM   14  N6  UNL     1       6.439  -0.661   0.834  1.00  0.00    -0.335 N 
ATOM     15  H6  UNL     1       6.612   0.246   1.267  1.00  0.00     0.165 HD
ATOM     16  H5  UNL     1       4.839   1.253  -0.240  1.00  0.00     0.165 HD
BRANCH  14  17
HETATM   17  C27 UNL     1       7.177  -1.797   1.319  1.00  0.00     0.023 C 
HETATM   18  C28 UNL     1       7.946  -2.540   0.276  1.00  0.00     0.037 C 
HETATM   19  C29 UNL     1       6.288  -2.755   2.082  1.00  0.00     0.037 C 
HETATM   20  C30 UNL     1       8.198  -1.291   2.343  1.00  0.00     0.037 C 
ENDBRANCH  14  17
ENDBRANCH   9  11
ENDBRANCH   4   9
ENDBRANCH   2   3
ENDBRANCH   1   2
BRANCH   1  21
HETATM   21  C6  UNL     1      -1.394   1.660  -0.354  1.00  0.00     0.006 C 
BRANCH  21  22
HETATM   22  C7  UNL     1      -0.784   2.968  -0.520  1.00  0.00    -0.081 C 
HETATM   23  C8  UNL     1       0.192   3.315   0.625  1.00  0.00     0.034 C 
HETATM   24  C9  UNL     1       0.139   4.813   0.802  1.00  0.00     0.004 C 
HETATM   25  C10 UNL     1      -0.457   5.560  -0.342  1.00  0.00     0.001 C 
HETATM   26  C11 UNL     1      -0.142   5.004  -1.685  1.00  0.00     0.004 C 
HETATM   27  C12 UNL     1      -0.202   3.478  -1.748  1.00  0.00     0.034 C 
ENDBRANCH  21  22
ENDBRANCH   1  21
BRANCH   1  28
HETATM   28  N2  UNL     1      -1.759  -0.588   0.264  1.00  0.00    -0.347 N 
HETATM   29  C13 UNL     1      -1.431  -1.562   1.207  1.00  0.00     0.241 C 
HETATM   30  O1  UNL     1      -0.227  -1.604   1.592  1.00  0.00    -0.271 OA
ATOM     31  H2  UNL     1      -2.718  -0.536  -0.078  1.00  0.00     0.163 HD
BRANCH  29  32
HETATM   32  C14 UNL     1      -2.356  -2.520   1.768  1.00  0.00     0.181 C 
HETATM   33  C15 UNL     1      -1.887  -3.151   3.059  1.00  0.00     0.037 C 
HETATM   34  C16 UNL     1      -2.528  -2.327   4.110  1.00  0.00     0.022 C 
HETATM   35  C17 UNL     1      -3.660  -1.601   3.464  1.00  0.00     0.129 C 
HETATM   36  N3  UNL     1      -3.681  -2.060   2.063  1.00  0.00    -0.321 N 
HETATM   37  C18 UNL     1      -4.841  -2.015   1.269  1.00  0.00     0.319 C 
HETATM   38  O2  UNL     1      -4.829  -2.414   0.092  1.00  0.00    -0.247 OA
HETATM   39  N4  UNL     1      -6.089  -1.506   1.786  1.00  0.00    -0.335 N 
ATOM     40  H4  UNL     1      -6.108  -1.174   2.750  1.00  0.00     0.165 HD
BRANCH  39  41
HETATM   41  C19 UNL     1      -7.299  -1.439   1.030  1.00  0.00     0.023 C 
HETATM   42  C20 UNL     1      -7.166  -0.575  -0.203  1.00  0.00     0.037 C 
HETATM   43  C21 UNL     1      -7.758  -2.815   0.595  1.00  0.00     0.037 C 
HETATM   44  C22 UNL     1      -8.382  -0.779   1.896  1.00  0.00     0.037 C 
ENDBRANCH  39  41
ENDBRANCH  29  32
ENDBRANCH   1  28
TORSDOF 12
