REMARK  11 active torsions:
REMARK  status: ('A' for Active; 'I' for Inactive)
REMARK    1  A    between atoms: O1_2  and  C2_3 
REMARK       I    between atoms: C2_3  and  N1_5 
REMARK    2  A    between atoms: N1_5  and  C3_6 
REMARK    3  A    between atoms: C3_6  and  C4_7 
REMARK    4  A    between atoms: C3_6  and  C25_36 
REMARK       I    between atoms: C4_7  and  N2_9 
REMARK    5  A    between atoms: N2_9  and  C5_11 
REMARK    6  A    between atoms: C5_11  and  C6_12 
REMARK    7  A    between atoms: C5_11  and  C10_16 
REMARK    8  A    between atoms: C6_12  and  C7_13 
REMARK       I    between atoms: C10_16  and  N3_18 
REMARK    9  A    between atoms: N3_18  and  C11_20 
REMARK   10  A    between atoms: C15_24  and  C16_25 
REMARK       I    between atoms: C16_25  and  N4_27 
REMARK   11  A    between atoms: N4_27  and  C17_28 
ROOT
HETATM    1  C5  UNL     1      -1.280  -1.053   0.417  1.00  0.00     0.081 C 
ENDROOT
BRANCH   1   2
HETATM    2  N2  UNL     1      -2.609  -0.861   0.107  1.00  0.00    -0.320 N 
HETATM    3  C4  UNL     1      -3.030   0.498  -0.007  1.00  0.00     0.283 C 
HETATM    4  O3  UNL     1      -2.285   1.408  -0.099  1.00  0.00    -0.265 OA
ATOM      5  H2  UNL     1      -3.251  -1.641  -0.032  1.00  0.00     0.169 HD
BRANCH   3   6
HETATM    6  C3  UNL     1      -4.562   0.779   0.078  1.00  0.00     0.163 C 
BRANCH   6   7
HETATM    7  N1  UNL     1      -4.549   1.606   1.145  1.00  0.00    -0.344 NA
HETATM    8  C2  UNL     1      -4.575   2.470   2.226  1.00  0.00     0.439 C 
HETATM    9  O2  UNL     1      -5.521   3.281   2.576  1.00  0.00    -0.221 OA
BRANCH   8  10
HETATM   10  O1  UNL     1      -3.539   2.513   3.053  1.00  0.00    -0.298 OA
HETATM   11  C1  UNL     1      -2.692   2.741   3.993  1.00  0.00     0.216 C 
ENDBRANCH   8  10
ENDBRANCH   6   7
BRANCH   6  12
HETATM   12  C25 UNL     1      -5.340   0.357  -0.987  1.00  0.00     0.064 C 
HETATM   13  C26 UNL     1      -5.667   1.448  -1.995  1.00  0.00     0.013 C 
HETATM   14  C27 UNL     1      -6.300   0.749  -3.203  1.00  0.00     0.001 C 
HETATM   15  C28 UNL     1      -7.650   0.253  -2.838  1.00  0.00     0.001 C 
HETATM   16  C29 UNL     1      -7.827   0.280  -1.367  1.00  0.00     0.009 C 
HETATM   17  C30 UNL     1      -6.642  -0.340  -0.674  1.00  0.00    -0.037 C 
HETATM   18  C31 UNL     1      -6.588  -1.832  -1.032  1.00  0.00     0.015 C 
HETATM   19  C32 UNL     1      -6.973  -0.323   0.839  1.00  0.00     0.015 C 
ENDBRANCH   6  12
ENDBRANCH   3   6
ENDBRANCH   1   2
BRANCH   1  20
HETATM   20  C6  UNL     1      -0.876  -0.419   1.785  1.00  0.00     0.067 C 
BRANCH  20  21
HETATM   21  C7  UNL     1      -1.554  -1.081   2.954  1.00  0.00    -0.017 C 
HETATM   22  C8  UNL     1      -2.969  -1.029   3.234  1.00  0.00     0.010 C 
HETATM   23  C9  UNL     1      -0.756  -0.790   4.220  1.00  0.00     0.010 C 
ENDBRANCH  20  21
ENDBRANCH   1  20
BRANCH   1  24
HETATM   24  C10 UNL     1      -0.180  -1.222  -0.428  1.00  0.00     0.268 C 
HETATM   25  O4  UNL     1      -0.079  -2.025  -1.334  1.00  0.00    -0.266 OA
HETATM   26  N3  UNL     1       1.034  -0.386  -0.178  1.00  0.00    -0.329 N 
ATOM     27  H3  UNL     1       0.941   0.376   0.494  1.00  0.00     0.168 HD
BRANCH  26  28
HETATM   28  C11 UNL     1       2.279  -0.552  -0.778  1.00  0.00    -0.005 C 
HETATM   29  C12 UNL     1       2.721  -1.960  -1.059  1.00  0.00     0.057 C 
HETATM   30  C13 UNL     1       3.529  -1.823  -2.387  1.00  0.00    -0.008 C 
HETATM   31  C14 UNL     1       4.712  -1.009  -2.027  1.00  0.00     0.021 C 
HETATM   32  C24 UNL     1       2.640  -0.789  -3.058  1.00  0.00     0.016 C 
HETATM   33  C15 UNL     1       4.190   0.466  -1.973  1.00  0.00     0.102 C 
HETATM   34  C23 UNL     1       2.722   0.291  -1.888  1.00  0.00     0.046 C 
BRANCH  33  35
HETATM   35  C16 UNL     1       4.847   1.144  -0.760  1.00  0.00     0.291 C 
HETATM   36  O5  UNL     1       4.022   1.893  -0.109  1.00  0.00    -0.257 OA
HETATM   37  N4  UNL     1       6.090   0.895  -0.540  1.00  0.00    -0.409 NA
BRANCH  37  38
HETATM   38  C17 UNL     1       7.468   0.623  -0.289  1.00  0.00     0.166 C 
HETATM   39  C18 UNL     1       8.325   1.156  -1.396  1.00  0.00     0.039 C 
HETATM   40  C19 UNL     1       9.636   0.470  -1.448  1.00  0.00     0.003 C 
HETATM   41  C20 UNL     1       9.895  -0.352  -0.170  1.00  0.00     0.000 C 
HETATM   42  C21 UNL     1       9.452   0.319   1.083  1.00  0.00     0.003 C 
HETATM   43  C22 UNL     1       8.113   0.965   1.023  1.00  0.00     0.039 C 
ENDBRANCH  37  38
ENDBRANCH  33  35
ENDBRANCH  26  28
ENDBRANCH   1  24
TORSDOF 11
