REMARK  11 active torsions:
REMARK  status: ('A' for Active; 'I' for Inactive)
REMARK    1  A    between atoms: N1_1  and  C1_4 
REMARK    2  A    between atoms: N2_7  and  C4_8 
REMARK    3  A    between atoms: C4_8  and  C5_9 
REMARK    4  A    between atoms: C5_9  and  C6_10 
REMARK    5  A    between atoms: C6_10  and  C7_11 
REMARK    6  A    between atoms: N4_16  and  C9_17 
REMARK    7  A    between atoms: C10_19  and  C11_20 
REMARK    8  A    between atoms: C11_20  and  N5_21 
REMARK    9  A    between atoms: C14_31  and  N9_32 
REMARK   10  A    between atoms: C16_38  and  O4_39 
REMARK   11  A    between atoms: C17_41  and  N11_42 
ROOT
HETATM    1  C9  UNL     1       0.984  -0.422  -0.360  1.00  0.00     0.262 C 
HETATM    2  O2  UNL     1       1.725   0.738  -0.557  1.00  0.00    -0.354 OA
HETATM    3  C10 UNL     1       2.817   0.765   0.322  1.00  0.00     0.175 C 
HETATM    4  C16 UNL     1       3.031  -0.731   0.613  1.00  0.00     0.175 C 
HETATM    5  C17 UNL     1       1.499  -0.900   0.912  1.00  0.00     0.155 C 
ENDROOT
BRANCH   1   6
HETATM    6  N4  UNL     1      -0.366  -0.123  -0.559  1.00  0.00    -0.221 N 
HETATM    7  C8  UNL     1      -1.331  -1.036  -0.409  1.00  0.00     0.334 A 
HETATM    8  N3  UNL     1      -2.637  -0.773  -0.595  1.00  0.00    -0.297 N 
HETATM    9  O1  UNL     1      -1.005  -2.178  -0.085  1.00  0.00    -0.246 OA
HETATM   10  C7  UNL     1      -3.006   0.452  -0.945  1.00  0.00     0.088 A 
ATOM     11  H3  UNL     1      -3.335  -1.506  -0.469  1.00  0.00     0.172 HD
HETATM   12  N12 UNL     1      -2.084   1.396  -1.107  1.00  0.00    -0.297 N 
HETATM   13  C18 UNL     1      -0.767   1.110  -0.914  1.00  0.00     0.334 A 
ATOM     14  H12 UNL     1      -2.365   2.339  -1.377  1.00  0.00     0.172 HD
HETATM   15  O5  UNL     1       0.018   2.076  -1.094  1.00  0.00    -0.246 OA
BRANCH  10  16
HETATM   16  C6  UNL     1      -4.479   0.706  -1.143  1.00  0.00     0.078 C 
BRANCH  16  17
HETATM   17  C5  UNL     1      -5.132   1.144   0.127  1.00  0.00     0.029 C 
BRANCH  17  18
HETATM   18  C4  UNL     1      -6.587   1.401  -0.076  1.00  0.00     0.148 C 
BRANCH  18  19
HETATM   19  N2  UNL     1      -7.346   0.278  -0.527  1.00  0.00    -0.302 N 
HETATM   20  C3  UNL     1      -7.597  -0.085  -1.795  1.00  0.00     0.114 A 
HETATM   21  C2  UNL     1      -8.367  -1.228  -1.788  1.00  0.00     0.068 A 
HETATM   22  C1  UNL     1      -8.571  -1.540  -0.452  1.00  0.00     0.114 A 
HETATM   23  N13 UNL     1      -7.940  -0.607   0.243  1.00  0.00    -0.284 N 
ATOM     24  H13 UNL     1      -7.917  -0.578   1.262  1.00  0.00     0.188 HD
BRANCH  22  25
HETATM   25  N1  UNL     1      -9.250  -2.551   0.005  1.00  0.00    -0.384 N 
ATOM     26  H12 UNL     1      -9.736  -3.270  -0.531  1.00  0.00     0.157 HD
ATOM     27  H11 UNL     1      -9.400  -2.780   0.987  1.00  0.00     0.157 HD
ENDBRANCH  22  25
ENDBRANCH  18  19
ENDBRANCH  17  18
ENDBRANCH  16  17
ENDBRANCH  10  16
ENDBRANCH   1   6
BRANCH   5  28
HETATM   28  N11 UNL     1       1.091  -0.423   2.134  1.00  0.00    -0.420 N 
ATOM     29 2H11 UNL     1       0.096  -0.533   2.328  1.00  0.00     0.150 HD
ATOM     30 1H11 UNL     1       1.452  -0.759   3.027  1.00  0.00     0.150 HD
ENDBRANCH   5  28
BRANCH   3  31
HETATM   31  C11 UNL     1       3.994   1.330  -0.394  1.00  0.00     0.187 C 
BRANCH  31  32
HETATM   32  N5  UNL     1       5.189   1.475   0.380  1.00  0.00    -0.257 N 
HETATM   33  N6  UNL     1       5.416   2.494   1.233  1.00  0.00    -0.238 N 
HETATM   34  N7  UNL     1       6.569   2.348   1.841  1.00  0.00    -0.278 N 
ATOM     35  H6  UNL     1       4.777   3.274   1.385  1.00  0.00     0.208 HD
HETATM   36  C12 UNL     1       7.119   1.204   1.379  1.00  0.00     0.164 A 
ATOM     37  H7  UNL     1       6.974   2.979   2.532  1.00  0.00     0.189 HD
HETATM   38  C13 UNL     1       8.308   0.556   1.640  1.00  0.00     0.291 A 
HETATM   39  C15 UNL     1       6.230   0.672   0.457  1.00  0.00     0.173 A 
HETATM   40  O3  UNL     1       9.089   1.080   2.492  1.00  0.00    -0.265 OA
HETATM   41  N8  UNL     1       8.669  -0.587   1.042  1.00  0.00    -0.154 N 
HETATM   42  C14 UNL     1       7.791  -1.090   0.146  1.00  0.00     0.680 A 
ATOM     43  H8  UNL     1       9.554  -1.050   1.250  1.00  0.00     0.187 HD
HETATM   44  N10 UNL     1       6.628  -0.479  -0.126  1.00  0.00    -0.173 N 
ATOM     45  H10 UNL     1       6.009  -0.909  -0.813  1.00  0.00     0.186 HD
BRANCH  42  46
HETATM   46  N9  UNL     1       8.117  -2.199  -0.450  1.00  0.00    -0.234 N 
ATOM     47  H92 UNL     1       9.001  -2.664  -0.243  1.00  0.00     0.174 HD
ATOM     48  H91 UNL     1       7.454  -2.579  -1.126  1.00  0.00     0.174 HD
ENDBRANCH  42  46
ENDBRANCH  31  32
ENDBRANCH   3  31
BRANCH   4  49
HETATM   49  O4  UNL     1       3.312  -1.458  -0.521  1.00  0.00    -0.391 OA
ATOM     50  H4  UNL     1       3.444  -2.381  -0.341  1.00  0.00     0.210 HD
ENDBRANCH   4  49
TORSDOF 11
