REMARK  16 active torsions:
REMARK  status: ('A' for Active; 'I' for Inactive)
REMARK    1  A    between atoms: C2_2  and  N2_6 
REMARK    2  A    between atoms: N2_6  and  C3_8 
REMARK    3  A    between atoms: C3_8  and  C4_9 
REMARK    4  A    between atoms: C4_9  and  C5_10 
REMARK    5  A    between atoms: C5_10  and  C6_11 
REMARK    6  A    between atoms: C6_11  and  C7_12 
REMARK    7  A    between atoms: C6_11  and  N4_32 
REMARK    8  A    between atoms: C7_12  and  C8_13 
REMARK    9  A    between atoms: C8_13  and  C9_15 
REMARK   10  A    between atoms: C10_16  and  C12_18 
REMARK   11  A    between atoms: C13_19  and  C14_20 
REMARK   12  A    between atoms: C14_20  and  O2_21 
REMARK   13  A    between atoms: C14_20  and  C15_23 
REMARK   14  A    between atoms: C15_23  and  C16_24 
REMARK   15  A    between atoms: C15_23  and  S1_27 
REMARK   16  A    between atoms: S1_27  and  S2_29 
ROOT
HETATM    1  S2  UNL     1      -5.812   2.961  -1.499  1.00  0.00     0.055 SA
HETATM    2  C19 UNL     1      -5.270   2.336  -3.032  1.00  0.00     0.147 C 
HETATM    3  N3  UNL     1      -4.918   1.903  -4.044  1.00  0.00    -0.183 NA
ENDROOT
BRANCH   1   4
HETATM    4  S1  UNL     1      -6.693   1.609  -0.253  1.00  0.00     0.099 S 
HETATM    5  O3  UNL     1      -8.094   0.917  -0.769  1.00  0.00    -0.245 OA
BRANCH   4   6
HETATM    6  C15 UNL     1      -5.575   0.492   0.558  1.00  0.00     0.127 C 
BRANCH   6   7
HETATM    7  C14 UNL     1      -5.235  -0.580  -0.424  1.00  0.00     0.158 C 
BRANCH   7   8
HETATM    8  C13 UNL     1      -4.256  -1.555   0.026  1.00  0.00     0.006 C 
HETATM    9  C12 UNL     1      -2.981  -1.516   0.011  1.00  0.00     0.005 C 
BRANCH   9  10
HETATM   10  C10 UNL     1      -1.961  -0.604  -0.403  1.00  0.00    -0.059 C 
HETATM   11  C9  UNL     1      -0.694  -1.013  -0.219  1.00  0.00     0.056 C 
HETATM   12  C11 UNL     1      -2.093   0.731  -1.009  1.00  0.00     0.048 C 
BRANCH  11  13
HETATM   13  C8  UNL     1       0.487  -0.291  -0.548  1.00  0.00     0.151 C 
HETATM   14  O1  UNL     1       0.566   0.837  -1.062  1.00  0.00    -0.293 OA
BRANCH  13  15
HETATM   15  C7  UNL     1       1.831  -0.931  -0.255  1.00  0.00     0.108 C 
BRANCH  15  16
HETATM   16  C6  UNL     1       2.976  -0.060  -0.642  1.00  0.00     0.091 C 
BRANCH  16  17
HETATM   17  C5  UNL     1       4.257  -0.814  -0.297  1.00  0.00     0.027 C 
BRANCH  17  18
HETATM   18  C4  UNL     1       5.489  -0.017  -0.649  1.00  0.00     0.022 C 
BRANCH  18  19
HETATM   19  C3  UNL     1       6.682  -0.859  -0.270  1.00  0.00     0.121 C 
BRANCH  19  20
HETATM   20  N2  UNL     1       6.640  -1.117   1.153  1.00  0.00    -0.380 N 
ATOM     21  H2  UNL     1       6.451  -2.072   1.456  1.00  0.00     0.160 HD
BRANCH  20  22
HETATM   22  C2  UNL     1       6.843  -0.138   2.152  1.00  0.00     0.066 C 
HETATM   23  C1  UNL     1       8.234   0.064   2.652  1.00  0.00     0.088 C 
HETATM   24  N1  UNL     1       5.921   0.587   2.661  1.00  0.00    -0.389 N 
ATOM     25  H12 UNL     1       6.067   1.294   3.382  1.00  0.00     0.157 HD
ATOM     26  H11 UNL     1       4.970   0.449   2.319  1.00  0.00     0.157 HD
ENDBRANCH  20  22
ENDBRANCH  19  20
ENDBRANCH  18  19
ENDBRANCH  17  18
ENDBRANCH  16  17
BRANCH  16  27
HETATM   27  N4  UNL     1       2.950   0.312  -2.029  1.00  0.00    -0.362 N 
HETATM   28  C20 UNL     1       3.237   1.481  -2.474  1.00  0.00     0.197 C 
HETATM   29  N5  UNL     1       3.162   1.688  -3.899  1.00  0.00    -0.067 NA
HETATM   30  N6  UNL     1       3.622   2.585  -1.675  1.00  0.00    -0.067 NA
ATOM     31  H4  UNL     1       2.685  -0.402  -2.707  1.00  0.00     0.162 HD
ENDBRANCH  16  27
ENDBRANCH  15  16
ENDBRANCH  13  15
ENDBRANCH  11  13
ENDBRANCH   9  10
ENDBRANCH   7   8
BRANCH   7  32
HETATM   32  O2  UNL     1      -6.428  -1.227  -0.873  1.00  0.00    -0.390 OA
ATOM     33  H2  UNL     1      -7.068  -0.590  -1.167  1.00  0.00     0.210 HD
ENDBRANCH   7  32
ENDBRANCH   6   7
BRANCH   6  34
HETATM   34  C16 UNL     1      -6.145   0.093   1.855  1.00  0.00    -0.003 C 
HETATM   35  C17 UNL     1      -5.321  -0.799   2.723  1.00  0.00     0.011 C 
HETATM   36  C18 UNL     1      -7.544  -0.483   1.805  1.00  0.00     0.011 C 
ENDBRANCH   6  34
ENDBRANCH   4   6
ENDBRANCH   1   4
TORSDOF 16
