REMARK  4 active torsions:
REMARK  status: ('A' for Active; 'I' for Inactive)
REMARK    1  A    between atoms: O1_1  and  N1_3 
REMARK    2  A    between atoms: C1_8  and  N4_9 
REMARK    3  A    between atoms: N4_9  and  N5_11 
REMARK    4  A    between atoms: N5_11  and  C2_13 
ROOT
HETATM    1  N4  UNL     1      -0.551   0.207   1.062  1.00  0.00    -0.113 N 
ATOM      2  H4  UNL     1      -0.373  -0.176   1.991  1.00  0.00     0.206 HD
ENDROOT
BRANCH   1   3
HETATM    3  C1  UNL     1      -1.709  -0.191   0.360  1.00  0.00     0.756 A 
HETATM    4  N1  UNL     1      -2.346   0.055  -0.792  1.00  0.00     0.034 N 
HETATM    5  N2  UNL     1      -3.311  -0.811  -0.517  1.00  0.00    -0.186 N 
HETATM    6  N3  UNL     1      -2.707  -1.070   0.617  1.00  0.00    -0.110 N 
ATOM      7  H2  UNL     1      -4.157  -1.135  -0.985  1.00  0.00     0.212 HD
ATOM      8  H3  UNL     1      -2.911  -1.695   1.396  1.00  0.00     0.207 HD
BRANCH   4   9
HETATM    9  O1  UNL     1      -2.043   0.919  -1.847  1.00  0.00    -0.253 OA
ATOM     10  H1  UNL     1      -1.351   1.540  -2.044  1.00  0.00     0.247 HD
ENDBRANCH   4   9
ENDBRANCH   1   3
BRANCH   1  11
HETATM   11  N5  UNL     1       0.367   1.125   0.504  1.00  0.00    -0.116 N 
ATOM     12  H5  UNL     1       0.189   2.127   0.577  1.00  0.00     0.206 HD
BRANCH  11  13
HETATM   13  C2  UNL     1       1.532   0.665  -0.156  1.00  0.00     0.712 A 
HETATM   14  N6  UNL     1       1.750   0.697  -1.464  1.00  0.00    -0.130 N 
HETATM   15  N7  UNL     1       2.944   0.164  -1.707  1.00  0.00    -0.281 N 
ATOM     16  H6  UNL     1       1.109   1.068  -2.166  1.00  0.00     0.205 HD
HETATM   17  C3  UNL     1       3.513  -0.221  -0.541  1.00  0.00     0.215 A 
ATOM     18  H7  UNL     1       3.366   0.061  -2.630  1.00  0.00     0.188 HD
HETATM   19  N8  UNL     1       2.612   0.104   0.402  1.00  0.00    -0.184 N 
ATOM     20  H8  UNL     1       2.734  -0.055   1.402  1.00  0.00     0.185 HD
ENDBRANCH  11  13
ENDBRANCH   1  11
TORSDOF 4
