REMARK  10 active torsions:
REMARK  status: ('A' for Active; 'I' for Inactive)
REMARK    1  A    between atoms: C2_2  and  C3_3 
REMARK    2  A    between atoms: C2_2  and  C6_8 
REMARK    3  A    between atoms: C3_3  and  C4_4 
REMARK    4  A    between atoms: C4_4  and  C5_5 
REMARK    5  A    between atoms: C5_5  and  O1_6 
REMARK    6  A    between atoms: C12_14  and  C13_15 
REMARK    7  A    between atoms: C13_15  and  O2_16 
REMARK    8  A    between atoms: C22_26  and  O3_27 
REMARK    9  A    between atoms: C25_31  and  O4_32 
REMARK   10  A    between atoms: C27_34  and  O5_35 
ROOT
HETATM    1  C6  UNL     1       1.592   0.815   0.191  1.00  0.00     0.025 C 
HETATM    2  C7  UNL     1       1.565   0.808  -1.260  1.00  0.00    -0.009 C 
HETATM    3  C8  UNL     1       2.761   0.374  -2.041  1.00  0.00     0.011 C 
HETATM    4  C9  UNL     1       0.367  -0.039  -1.625  1.00  0.00     0.022 C 
HETATM    5  C10 UNL     1      -0.543  -0.176  -0.439  1.00  0.00     0.023 C 
HETATM    6  C11 UNL     1      -1.357   1.048  -0.256  1.00  0.00    -0.055 C 
HETATM    7  C12 UNL     1      -2.027   1.841  -1.266  1.00  0.00    -0.035 C 
HETATM    8  C14 UNL     1      -2.712   2.767  -0.529  1.00  0.00    -0.012 C 
HETATM    9  C15 UNL     1      -2.533   2.632   0.928  1.00  0.00     0.013 C 
HETATM   10  C16 UNL     1      -3.747   3.039   1.654  1.00  0.00     0.015 C 
HETATM   11  C17 UNL     1      -2.180   1.160   1.010  1.00  0.00     0.023 C 
HETATM   12  C18 UNL     1      -3.409   0.391   1.144  1.00  0.00     0.010 C 
HETATM   13  C19 UNL     1      -3.469  -0.937   0.527  1.00  0.00     0.015 C 
HETATM   14  C20 UNL     1      -2.280  -1.778   0.549  1.00  0.00     0.015 C 
HETATM   15  C21 UNL     1      -2.825  -3.184   0.197  1.00  0.00     0.021 C 
HETATM   16  C22 UNL     1      -1.504  -1.967   1.783  1.00  0.00     0.136 C 
HETATM   17  C23 UNL     1      -0.178  -2.420   1.288  1.00  0.00     0.047 C 
HETATM   18  C24 UNL     1      -0.341  -2.648  -0.162  1.00  0.00     0.050 C 
HETATM   19  C25 UNL     1      -1.246  -1.459  -0.554  1.00  0.00     0.082 C 
HETATM   20  C27 UNL     1       0.882  -1.313   1.396  1.00  0.00     0.130 C 
HETATM   21  C28 UNL     1       0.522  -0.092   0.688  1.00  0.00     0.039 C 
ENDROOT
BRANCH   1  22
HETATM   22  C2  UNL     1       2.934   0.807   0.751  1.00  0.00    -0.084 C 
HETATM   23  C1  UNL     1       3.297   2.017   1.237  1.00  0.00     0.015 C 
BRANCH  22  24
HETATM   24  C3  UNL     1       3.921  -0.255   0.887  1.00  0.00     0.036 C 
BRANCH  24  25
HETATM   25  C4  UNL     1       5.346   0.124   1.213  1.00  0.00     0.030 C 
BRANCH  25  26
HETATM   26  C5  UNL     1       6.016   0.927   0.141  1.00  0.00     0.164 C 
BRANCH  26  27
HETATM   27  O1  UNL     1       7.316   1.243   0.545  1.00  0.00    -0.401 OA
ATOM     28  H1  UNL     1       7.741   1.752  -0.135  1.00  0.00     0.209 HD
ENDBRANCH  26  27
ENDBRANCH  25  26
ENDBRANCH  24  25
ENDBRANCH  22  24
ENDBRANCH   1  22
BRANCH  20  29
HETATM   29  O5  UNL     1       1.028  -1.228   2.777  1.00  0.00    -0.395 OA
ATOM     30  H5  UNL     1       1.683  -0.544   2.844  1.00  0.00     0.210 HD
ENDBRANCH  20  29
BRANCH  19  31
HETATM   31  O4  UNL     1      -1.850  -1.829  -1.662  1.00  0.00    -0.383 OA
HETATM   32  C26 UNL     1      -1.465  -2.179  -2.850  1.00  0.00     0.202 C 
ENDBRANCH  19  31
BRANCH   7  33
HETATM   33  C13 UNL     1      -2.152   1.983  -2.732  1.00  0.00     0.202 C 
BRANCH  33  34
HETATM   34  O2  UNL     1      -2.700   0.937  -3.429  1.00  0.00    -0.396 OA
ATOM     35  H2  UNL     1      -2.780   1.028  -4.371  1.00  0.00     0.209 HD
ENDBRANCH  33  34
ENDBRANCH   7  33
BRANCH  16  36
HETATM   36  O3  UNL     1      -2.008  -3.009   2.600  1.00  0.00    -0.394 OA
ATOM     37  H3  UNL     1      -1.506  -3.131   3.398  1.00  0.00     0.210 HD
ENDBRANCH  16  36
TORSDOF 10
