REMARK  8 active torsions:
REMARK  status: ('A' for Active; 'I' for Inactive)
REMARK    1  A    between atoms: C3_3  and  C4_4 
REMARK    2  A    between atoms: C4_4  and  N1_5 
REMARK    3  A    between atoms: N1_5  and  C5_6 
REMARK    4  A    between atoms: N1_5  and  C13_15 
REMARK    5  A    between atoms: C5_6  and  C6_7 
REMARK    6  A    between atoms: C9_10  and  O1_11 
REMARK    7  A    between atoms: N2_20  and  C18_22 
REMARK    8  A    between atoms: C21_27  and  N4_28 
REMARK       I    between atoms: N4_28  and  C22_30 
ROOT
HETATM    1  C1  UNL     1      -4.784  -5.366  -1.726  1.00  0.00     0.112 C 
HETATM    2  C2  UNL     1      -4.256  -4.003  -1.665  1.00  0.00    -0.109 C 
HETATM    3  C3  UNL     1      -3.834  -2.874  -1.624  1.00  0.00    -0.087 C 
ENDROOT
BRANCH   3   4
HETATM    4  C4  UNL     1      -3.337  -1.488  -1.584  1.00  0.00     0.217 C 
BRANCH   4   5
HETATM    5  N1  UNL     1      -2.756  -1.189  -0.291  1.00  0.00    -0.366 N 
BRANCH   5   6
HETATM    6  C5  UNL     1      -3.721  -1.129   0.798  1.00  0.00     0.162 C 
BRANCH   6   7
HETATM    7  C6  UNL     1      -4.704  -0.036   0.588  1.00  0.00    -0.040 A 
HETATM    8  C7  UNL     1      -6.001  -0.290   0.206  1.00  0.00     0.011 A 
HETATM    9  C8  UNL     1      -6.877   0.751   0.014  1.00  0.00     0.037 A 
HETATM   10  C9  UNL     1      -6.500   2.066   0.193  1.00  0.00     0.068 A 
HETATM   11  C11 UNL     1      -5.213   2.326   0.573  1.00  0.00     0.037 A 
HETATM   12  C12 UNL     1      -4.334   1.278   0.765  1.00  0.00     0.011 A 
BRANCH  10  13
HETATM   13  O1  UNL     1      -7.453   3.048  -0.024  1.00  0.00    -0.356 OA
HETATM   14  C10 UNL     1      -7.181   4.427   0.127  1.00  0.00     0.210 C 
ENDBRANCH  10  13
ENDBRANCH   6   7
ENDBRANCH   5   6
BRANCH   5  15
HETATM   15  C13 UNL     1      -1.375  -0.984  -0.116  1.00  0.00     0.033 A 
HETATM   16  C14 UNL     1      -0.475  -1.120  -1.135  1.00  0.00     0.030 A 
HETATM   17  C15 UNL     1       0.883  -0.900  -0.959  1.00  0.00     0.020 A 
HETATM   18  C16 UNL     1       1.390  -0.534   0.250  1.00  0.00     0.035 A 
HETATM   19  C17 UNL     1       2.751  -0.308   0.433  1.00  0.00     0.119 A 
HETATM   20  C25 UNL     1       0.506  -0.390   1.292  1.00  0.00     0.049 A 
HETATM   21  N2  UNL     1       3.495  -0.467  -0.603  1.00  0.00    -0.342 N 
HETATM   22  N7  UNL     1       3.204   0.053   1.643  1.00  0.00    -0.338 N 
ATOM     23  H2  UNL     1       3.039  -0.744  -1.472  1.00  0.00     0.167 HD
HETATM   24  C24 UNL     1       2.321   0.187   2.646  1.00  0.00     0.182 A 
ATOM     25  H7  UNL     1       4.198   0.222   1.798  1.00  0.00     0.168 HD
HETATM   26  N8  UNL     1       1.003  -0.026   2.489  1.00  0.00    -0.351 N 
ATOM     27  H8  UNL     1       0.374   0.089   3.284  1.00  0.00     0.166 HD
HETATM   28  C26 UNL     1      -0.856  -0.613   1.108  1.00  0.00     0.059 A 
BRANCH  21  29
HETATM   29  C18 UNL     1       4.902  -0.287  -0.630  1.00  0.00     0.038 A 
HETATM   30  C19 UNL     1       5.718  -1.247  -1.163  1.00  0.00     0.046 A 
HETATM   31  C20 UNL     1       7.091  -1.029  -1.173  1.00  0.00     0.092 A 
HETATM   32  N3  UNL     1       7.669   0.082  -0.686  1.00  0.00    -0.352 N 
HETATM   33  C21 UNL     1       6.866   1.034  -0.159  1.00  0.00     0.109 A 
ATOM     34  H3  UNL     1       8.681   0.203  -0.713  1.00  0.00     0.166 HD
HETATM   35  C23 UNL     1       5.484   0.855  -0.128  1.00  0.00     0.078 A 
BRANCH  33  36
HETATM   36  N4  UNL     1       7.331   2.132   0.330  1.00  0.00    -0.317 N 
HETATM   37  C22 UNL     1       8.686   2.480   0.380  1.00  0.00     0.187 C 
HETATM   38  N5  UNL     1       9.102   3.446  -0.367  1.00  0.00    -0.373 N 
HETATM   39  N6  UNL     1       9.592   1.813   1.215  1.00  0.00    -0.064 NA
ATOM     40  H52 UNL     1       8.442   3.932  -0.975  1.00  0.00     0.158 HD
ATOM     41  H51 UNL     1      10.089   3.700  -0.331  1.00  0.00     0.158 HD
ATOM     42  H4  UNL     1       6.660   2.799   0.710  1.00  0.00     0.170 HD
ENDBRANCH  33  36
ENDBRANCH  21  29
ENDBRANCH   5  15
ENDBRANCH   4   5
ENDBRANCH   3   4
TORSDOF 8
