REMARK  6 active torsions:
REMARK  status: ('A' for Active; 'I' for Inactive)
REMARK    1  A    between atoms: N1_1  and  N2_4 
REMARK       I    between atoms: N2_4  and  C1_6 
REMARK    2  A    between atoms: C1_6  and  C2_8 
REMARK    3  A    between atoms: C2_8  and  O2_9 
REMARK    4  A    between atoms: C2_8  and  N3_11 
REMARK       I    between atoms: N3_11  and  C3_13 
REMARK       I    between atoms: C3_13  and  N4_15 
REMARK    5  A    between atoms: N4_15  and  N5_17 
REMARK    6  A    between atoms: N5_17  and  C4_19 
ROOT
HETATM    1  N3  UNL     1       1.366  -0.491  -1.033  1.00  0.00    -0.307 N 
ATOM      2  H3  UNL     1       1.671  -1.441  -0.824  1.00  0.00     0.167 HD
HETATM    3  C3  UNL     1      -0.003  -0.219  -1.254  1.00  0.00     0.337 C 
HETATM    4  O3  UNL     1      -0.382   0.942  -1.510  1.00  0.00    -0.246 OA
HETATM    5  N4  UNL     1      -0.951  -1.256  -1.187  1.00  0.00    -0.250 N 
ATOM      6  H4  UNL     1      -0.651  -2.208  -0.978  1.00  0.00     0.192 HD
ENDROOT
BRANCH   1   7
HETATM    7  C2  UNL     1       2.334   0.584  -1.104  1.00  0.00     0.317 C 
BRANCH   7   8
HETATM    8  C1  UNL     1       3.061   0.610   0.201  1.00  0.00     0.284 C 
HETATM    9  N2  UNL     1       4.456   0.398   0.294  1.00  0.00    -0.273 N 
ATOM     10  H2  UNL     1       5.006   0.220  -0.546  1.00  0.00     0.189 HD
HETATM   11  O1  UNL     1       2.353   0.833   1.224  1.00  0.00    -0.267 OA
BRANCH   9  12
HETATM   12  N1  UNL     1       5.067   0.434   1.533  1.00  0.00    -0.342 N 
ATOM     13  H12 UNL     1       4.502   0.613   2.363  1.00  0.00     0.176 HD
ATOM     14  H11 UNL     1       6.073   0.281   1.600  1.00  0.00     0.176 HD
ENDBRANCH   9  12
ENDBRANCH   7   8
BRANCH   7  15
HETATM   15  O2  UNL     1       3.296   0.323  -2.102  1.00  0.00    -0.368 OA
ATOM     16  H2  UNL     1       2.834   0.306  -2.932  1.00  0.00     0.212 HD
ENDBRANCH   7  15
ENDBRANCH   1   7
BRANCH   5  17
HETATM   17  N5  UNL     1      -2.295  -0.985  -1.405  1.00  0.00    -0.280 N 
ATOM     18  H5  UNL     1      -2.699  -1.095  -2.335  1.00  0.00     0.188 HD
BRANCH  17  19
HETATM   19  C4  UNL     1      -3.020  -0.596  -0.426  1.00  0.00     0.141 A 
HETATM   20  C5  UNL     1      -2.445  -0.458   0.814  1.00  0.00     0.157 A 
HETATM   21  N6  UNL     1      -3.240  -0.042   1.841  1.00  0.00    -0.304 N 
HETATM   22  N7  UNL     1      -4.509   0.205   1.595  1.00  0.00    -0.252 N 
ATOM     23  H6  UNL     1      -2.859   0.075   2.780  1.00  0.00     0.186 HD
HETATM   24  C6  UNL     1      -5.080   0.073   0.386  1.00  0.00     0.340 A 
ATOM     25  H7  UNL     1      -5.095   0.516   2.370  1.00  0.00     0.191 HD
HETATM   26  O4  UNL     1      -6.287   0.313   0.174  1.00  0.00    -0.245 OA
HETATM   27  N8  UNL     1      -4.322  -0.339  -0.662  1.00  0.00    -0.291 N 
ATOM     28  H8  UNL     1      -4.723  -0.450  -1.593  1.00  0.00     0.172 HD
ENDBRANCH  17  19
ENDBRANCH   5  17
TORSDOF 6
