REMARK  7 active torsions:
REMARK  status: ('A' for Active; 'I' for Inactive)
REMARK    1  A    between atoms: C2_2  and  C3_3 
REMARK    2  A    between atoms: C3_3  and  N1_4 
REMARK       I    between atoms: N1_4  and  C4_6 
REMARK    3  A    between atoms: C4_6  and  C5_8 
REMARK    4  A    between atoms: C5_8  and  C6_9 
REMARK    5  A    between atoms: C5_8  and  C25_36 
REMARK    6  A    between atoms: C6_9  and  C7_10 
REMARK    7  A    between atoms: C21_28  and  N3_29 
ROOT
HETATM    1  C7  UNL     1      -1.883  -0.094  -2.021  1.00  0.00     0.095 C 
HETATM    2  C8  UNL     1      -0.660  -0.865  -1.633  1.00  0.00     0.099 C 
HETATM    3  S1  UNL     1       0.565  -0.972  -2.975  1.00  0.00    -0.167 SA
HETATM    4  C9  UNL     1       1.374  -2.591  -2.997  1.00  0.00     0.074 C 
HETATM    5  C10 UNL     1       2.339  -2.744  -1.831  1.00  0.00     0.012 C 
HETATM    6  C11 UNL     1       3.686  -2.158  -2.144  1.00  0.00     0.020 C 
HETATM    7  C12 UNL     1       4.800  -2.992  -1.602  1.00  0.00     0.122 C 
HETATM    8  N2  UNL     1       4.612  -3.474  -0.267  1.00  0.00    -0.361 N 
ATOM      9  H2  UNL     1       4.123  -4.362  -0.157  1.00  0.00     0.162 HD
HETATM   10  C13 UNL     1       5.049  -2.821   0.918  1.00  0.00     0.217 C 
HETATM   11  O2  UNL     1       5.612  -3.476   1.837  1.00  0.00    -0.274 OA
HETATM   12  C14 UNL     1       4.889  -1.362   1.172  1.00  0.00     0.103 C 
HETATM   13  C15 UNL     1       4.521  -1.220   2.633  1.00  0.00     0.009 C 
HETATM   14  C16 UNL     1       3.642  -0.039   2.912  1.00  0.00     0.000 C 
HETATM   15  C17 UNL     1       4.007   1.199   2.157  1.00  0.00     0.000 C 
HETATM   16  C18 UNL     1       2.812   2.085   2.042  1.00  0.00     0.000 C 
HETATM   17  C19 UNL     1       2.224   1.906   0.634  1.00  0.00     0.003 C 
HETATM   18  C20 UNL     1       0.784   2.336   0.762  1.00  0.00     0.045 C 
HETATM   19  C21 UNL     1       0.013   2.304  -0.522  1.00  0.00     0.313 C 
HETATM   20  C24 UNL     1      -1.336   1.706  -0.291  1.00  0.00     0.251 C 
HETATM   21  O3  UNL     1      -1.784   1.781   0.912  1.00  0.00    -0.271 OA
HETATM   22  N4  UNL     1      -2.150   1.083  -1.236  1.00  0.00    -0.354 N 
ATOM     23  H4  UNL     1      -3.058   1.520  -1.392  1.00  0.00     0.162 HD
ENDROOT
BRANCH   1  24
HETATM   24  C6  UNL     1      -3.086  -0.939  -2.244  1.00  0.00     0.051 C 
BRANCH  24  25
HETATM   25  C5  UNL     1      -3.550  -1.777  -1.101  1.00  0.00     0.180 C 
BRANCH  25  26
HETATM   26  C4  UNL     1      -3.939  -1.051   0.115  1.00  0.00     0.232 C 
HETATM   27  N1  UNL     1      -4.989  -0.101   0.187  1.00  0.00    -0.360 N 
ATOM     28  H1  UNL     1      -5.503   0.098  -0.671  1.00  0.00     0.162 HD
HETATM   29  O1  UNL     1      -3.310  -1.269   1.199  1.00  0.00    -0.273 OA
BRANCH  27  30
HETATM   30  C3  UNL     1      -5.387   0.607   1.380  1.00  0.00     0.122 C 
BRANCH  30  31
HETATM   31  C2  UNL     1      -5.860  -0.332   2.432  1.00  0.00     0.015 C 
HETATM   32  C1  UNL     1      -6.281   0.447   3.684  1.00  0.00     0.006 C 
ENDBRANCH  30  31
ENDBRANCH  27  30
ENDBRANCH  25  26
BRANCH  25  33
HETATM   33  C25 UNL     1      -4.737  -2.542  -1.596  1.00  0.00     0.186 C 
HETATM   34  O4  UNL     1      -4.751  -3.797  -1.653  1.00  0.00    -0.647 OA
HETATM   35  O5  UNL     1      -5.850  -1.849  -2.003  1.00  0.00    -0.647 OA
ENDBRANCH  25  33
ENDBRANCH  24  25
ENDBRANCH   1  24
BRANCH  19  36
HETATM   36  N3  UNL     1      -0.109   3.616  -1.129  1.00  0.00     0.093 N 
HETATM   37  C22 UNL     1      -0.818   4.575  -0.351  1.00  0.00     0.310 C 
HETATM   38  C23 UNL     1       1.148   4.161  -1.551  1.00  0.00     0.310 C 
ENDBRANCH  19  36
TORSDOF 7
