REMARK  10 active torsions:
REMARK  status: ('A' for Active; 'I' for Inactive)
REMARK    1  A    between atoms: C2_2  and  C3_3 
REMARK    2  A    between atoms: C3_3  and  C5_5 
REMARK    3  A    between atoms: C7_10  and  C8_11 
REMARK    4  A    between atoms: C8_11  and  C9_12 
REMARK    5  A    between atoms: C8_11  and  C14_20 
REMARK    6  A    between atoms: C9_12  and  C10_13 
REMARK    7  A    between atoms: C17_25  and  O3_26 
REMARK    8  A    between atoms: C18_28  and  C19_29 
REMARK    9  A    between atoms: C24_36  and  C25_37 
REMARK   10  A    between atoms: C28_40  and  C29_41 
ROOT
HETATM    1  C5  UNL     1       0.082   1.961   1.237  1.00  0.00     0.169 C 
HETATM    2  N1  UNL     1       1.027   0.925   1.580  1.00  0.00    -0.347 N 
ATOM      3  H1  UNL     1       1.653   1.163   2.349  1.00  0.00     0.163 HD
HETATM    4  C6  UNL     1       1.229  -0.329   1.048  1.00  0.00     0.241 C 
HETATM    5  O1  UNL     1       1.196  -1.345   1.828  1.00  0.00    -0.271 OA
HETATM    6  C7  UNL     1       1.498  -0.630  -0.423  1.00  0.00     0.180 C 
HETATM    7  N3  UNL     1       0.653  -1.762  -0.764  1.00  0.00    -0.359 N 
ATOM      8  H3  UNL     1       1.180  -2.504  -1.224  1.00  0.00     0.162 HD
HETATM    9  C17 UNL     1      -0.671  -2.087  -0.625  1.00  0.00     0.136 C 
HETATM   10  C18 UNL     1      -1.980  -1.490  -0.932  1.00  0.00     0.163 C 
HETATM   11  N4  UNL     1      -2.188  -0.343  -0.138  1.00  0.00    -0.380 N 
ATOM     12  H4  UNL     1      -1.393   0.248   0.105  1.00  0.00     0.160 HD
HETATM   13  C23 UNL     1      -3.482   0.004   0.329  1.00  0.00     0.016 C 
HETATM   14  C24 UNL     1      -4.319  -0.885   1.086  1.00  0.00     0.003 C 
HETATM   15  C28 UNL     1      -3.522   1.500   0.593  1.00  0.00     0.104 C 
HETATM   16  S1  UNL     1      -2.723   2.200   1.949  1.00  0.00    -0.079 SA
HETATM   17  C31 UNL     1      -1.029   1.817   2.239  1.00  0.00     0.209 C 
HETATM   18  O4  UNL     1      -0.712   1.402   3.337  1.00  0.00    -0.283 OA
ENDROOT
BRANCH   6  19
HETATM   19  C8  UNL     1       2.997  -1.103  -0.467  1.00  0.00     0.022 C 
BRANCH  19  20
HETATM   20  C9  UNL     1       3.778   0.013   0.241  1.00  0.00     0.021 C 
BRANCH  20  21
HETATM   21  C10 UNL     1       5.223  -0.241   0.459  1.00  0.00     0.080 C 
HETATM   22  C11 UNL     1       5.330  -1.484   1.367  1.00  0.00     0.034 C 
HETATM   23  C12 UNL     1       6.548  -1.250   2.240  1.00  0.00     0.123 C 
HETATM   24  N2  UNL     1       6.757   0.169   2.207  1.00  0.00    -0.361 N 
HETATM   25  C13 UNL     1       5.714   0.787   1.491  1.00  0.00     0.221 C 
ATOM     26  H2  UNL     1       7.543   0.657   2.637  1.00  0.00     0.162 HD
HETATM   27  O2  UNL     1       5.253   1.927   1.631  1.00  0.00    -0.273 OA
ENDBRANCH  20  21
ENDBRANCH  19  20
BRANCH  19  28
HETATM   28  C14 UNL     1       3.461  -1.140  -1.877  1.00  0.00    -0.016 C 
HETATM   29  C15 UNL     1       4.841  -1.638  -2.186  1.00  0.00     0.010 C 
HETATM   30  C16 UNL     1       2.579  -1.607  -2.974  1.00  0.00     0.010 C 
ENDBRANCH  19  28
ENDBRANCH   6  19
BRANCH   9  31
HETATM   31  O3  UNL     1      -0.796  -3.297  -0.046  1.00  0.00    -0.348 OA
ATOM     32  H3  UNL     1      -1.714  -3.522   0.050  1.00  0.00     0.219 HD
ENDBRANCH   9  31
BRANCH   1  33
HETATM   33  C3  UNL     1       0.691   3.354   1.386  1.00  0.00     0.012 C 
HETATM   34  C4  UNL     1      -0.329   4.423   1.062  1.00  0.00     0.012 C 
BRANCH  33  35
HETATM   35  C2  UNL     1       1.881   3.584   0.522  1.00  0.00     0.002 C 
HETATM   36  C1  UNL     1       1.593   3.512  -0.945  1.00  0.00     0.005 C 
ENDBRANCH  33  35
ENDBRANCH   1  33
BRANCH  10  37
HETATM   37  C19 UNL     1      -2.178  -1.417  -2.402  1.00  0.00    -0.023 C 
HETATM   38  C20 UNL     1      -2.019  -2.886  -2.876  1.00  0.00     0.017 C 
HETATM   39  C21 UNL     1      -3.597  -1.105  -2.856  1.00  0.00     0.017 C 
HETATM   40  C22 UNL     1      -1.271  -0.585  -3.202  1.00  0.00     0.017 C 
ENDBRANCH  10  37
BRANCH  15  41
HETATM   41  C29 UNL     1      -4.968   2.005   0.532  1.00  0.00     0.017 C 
HETATM   42  C30 UNL     1      -5.567   1.750  -0.809  1.00  0.00     0.006 C 
ENDBRANCH  15  41
BRANCH  14  43
HETATM   43  C25 UNL     1      -4.143  -1.523   2.356  1.00  0.00     0.002 C 
HETATM   44  C26 UNL     1      -3.975  -0.598   3.542  1.00  0.00     0.013 C 
HETATM   45  C27 UNL     1      -3.175  -2.637   2.549  1.00  0.00     0.013 C 
ENDBRANCH  14  43
TORSDOF 10
