REMARK  13 active torsions:
REMARK  status: ('A' for Active; 'I' for Inactive)
REMARK    1  A    between atoms: C1_4  and  N2_5 
REMARK    2  A    between atoms: C1_4  and  C10_15 
REMARK    3  A    between atoms: N2_5  and  C2_7 
REMARK    4  A    between atoms: C2_7  and  C3_8 
REMARK    5  A    between atoms: C3_8  and  C4_9 
REMARK    6  A    between atoms: C19_25  and  O2_26 
REMARK    7  A    between atoms: C20_30  and  C21_31 
REMARK    8  A    between atoms: C21_31  and  C22_32 
REMARK    9  A    between atoms: C22_32  and  C23_33 
REMARK   10  A    between atoms: C23_33  and  C24_34 
REMARK   11  A    between atoms: C24_34  and  C25_35 
REMARK   12  A    between atoms: C25_35  and  C26_36 
REMARK   13  A    between atoms: C32_46  and  O5_47 
ROOT
HETATM    1  C10 UNL     1       2.535  -0.988   1.856  1.00  0.00     0.093 A 
HETATM    2  C11 UNL     1       2.510  -2.027   3.011  1.00  0.00     0.047 A 
HETATM    3  C12 UNL     1       2.470  -2.331   1.522  1.00  0.00     0.026 A 
HETATM    4  C13 UNL     1       1.479  -3.284   1.146  1.00  0.00     0.034 C 
HETATM    5  C14 UNL     1       0.158  -3.489   1.751  1.00  0.00     0.168 C 
HETATM    6  O1  UNL     1      -0.958  -3.182   0.997  1.00  0.00    -0.391 OA
HETATM    7  C15 UNL     1      -1.292  -3.947  -0.059  1.00  0.00     0.167 C 
HETATM    8  C16 UNL     1      -2.713  -3.998  -0.460  1.00  0.00     0.027 C 
HETATM    9  C17 UNL     1      -3.127  -3.214  -1.677  1.00  0.00     0.010 C 
HETATM   10  C18 UNL     1      -4.433  -2.478  -1.505  1.00  0.00     0.083 C 
HETATM   11  C19 UNL     1      -4.585  -1.200  -2.209  1.00  0.00     0.111 C 
HETATM   12  N3  UNL     1      -3.983   0.023  -2.114  1.00  0.00    -0.361 N 
ATOM     13  H3  UNL     1      -3.723   0.433  -3.011  1.00  0.00     0.162 HD
HETATM   14  C20 UNL     1      -3.642   0.857  -0.943  1.00  0.00     0.175 C 
HETATM   15  C27 UNL     1      -2.509   0.222  -0.211  1.00  0.00     0.243 C 
HETATM   16  O4  UNL     1      -3.007  -0.580   0.672  1.00  0.00    -0.271 OA
HETATM   17  N5  UNL     1      -1.123   0.340  -0.321  1.00  0.00    -0.338 N 
HETATM   18  C28 UNL     1      -0.141  -0.394  -1.096  1.00  0.00     0.127 C 
HETATM   19  C29 UNL     1       0.453   0.813  -1.871  1.00  0.00     0.022 C 
HETATM   20  C30 UNL     1       0.686   1.738  -0.697  1.00  0.00     0.035 C 
HETATM   21  C31 UNL     1      -0.186   1.242   0.365  1.00  0.00     0.161 C 
HETATM   22  C32 UNL     1       0.403   0.507   1.502  1.00  0.00     0.136 C 
HETATM   23  N6  UNL     1       1.529  -0.009   2.022  1.00  0.00    -0.356 N 
ATOM     24  H6  UNL     1       1.742   0.511   2.873  1.00  0.00     0.162 HD
ENDROOT
BRANCH   1  25
HETATM   25  C1  UNL     1       3.878  -0.301   1.802  1.00  0.00     0.100 C 
HETATM   26  N1  UNL     1       4.776  -0.682   2.631  1.00  0.00    -0.387 N 
ATOM     27  H12 UNL     1       5.684  -0.218   2.595  1.00  0.00     0.157 HD
ATOM     28  H11 UNL     1       4.551  -1.430   3.287  1.00  0.00     0.157 HD
BRANCH  25  29
HETATM   29  N2  UNL     1       4.188   0.729   0.899  1.00  0.00    -0.378 N 
ATOM     30  H2  UNL     1       4.003   1.679   1.222  1.00  0.00     0.160 HD
BRANCH  29  31
HETATM   31  C2  UNL     1       4.728   0.608  -0.409  1.00  0.00     0.121 C 
BRANCH  31  32
HETATM   32  C3  UNL     1       6.157   0.145  -0.483  1.00  0.00     0.024 C 
BRANCH  32  33
HETATM   33  C4  UNL     1       7.100   1.098   0.216  1.00  0.00    -0.013 C 
HETATM   34  C5  UNL     1       8.502   0.554   0.087  1.00  0.00     0.005 C 
HETATM   35  C6  UNL     1       9.344   1.331  -0.901  1.00  0.00     0.000 C 
HETATM   36  C7  UNL     1       9.550   2.760  -0.454  1.00  0.00     0.000 C 
HETATM   37  C8  UNL     1       8.240   3.265   0.117  1.00  0.00     0.000 C 
HETATM   38  C9  UNL     1       7.089   2.465  -0.461  1.00  0.00     0.005 C 
ENDBRANCH  32  33
ENDBRANCH  31  32
ENDBRANCH  29  31
ENDBRANCH  25  29
ENDBRANCH   1  25
BRANCH  22  39
HETATM   39  O5  UNL     1      -0.642   0.297   2.308  1.00  0.00    -0.348 OA
ATOM     40  H5  UNL     1      -0.263  -0.176   3.040  1.00  0.00     0.219 HD
ENDBRANCH  22  39
BRANCH  14  41
HETATM   41  C21 UNL     1      -4.823   1.097  -0.050  1.00  0.00     0.035 C 
BRANCH  41  42
HETATM   42  C22 UNL     1      -5.888   1.812  -0.861  1.00  0.00     0.002 C 
BRANCH  42  43
HETATM   43  C23 UNL     1      -7.138   2.102  -0.024  1.00  0.00     0.001 C 
BRANCH  43  44
HETATM   44  C24 UNL     1      -7.764   0.861   0.503  1.00  0.00     0.009 C 
BRANCH  44  45
HETATM   45  C25 UNL     1      -8.974   1.168   1.308  1.00  0.00     0.099 C 
BRANCH  45  46
HETATM   46  C26 UNL     1     -10.073   1.826   0.598  1.00  0.00     0.231 C 
HETATM   47  N4  UNL     1     -11.179   2.362   1.364  1.00  0.00    -0.062 NA
HETATM   48  O3  UNL     1     -10.099   1.943  -0.637  1.00  0.00    -0.277 OA
ENDBRANCH  45  46
ENDBRANCH  44  45
ENDBRANCH  43  44
ENDBRANCH  42  43
ENDBRANCH  41  42
ENDBRANCH  14  41
BRANCH  11  49
HETATM   49  O2  UNL     1      -5.502  -1.229  -3.141  1.00  0.00    -0.350 OA
ATOM     50  H2  UNL     1      -5.600  -0.401  -3.597  1.00  0.00     0.219 HD
ENDBRANCH  11  49
TORSDOF 13
