REMARK  8 active torsions:
REMARK  status: ('A' for Active; 'I' for Inactive)
REMARK    1  A    between atoms: N1_1  and  C1_4 
REMARK    2  A    between atoms: C3_8  and  N3_9 
REMARK    3  A    between atoms: N3_9  and  C4_10 
REMARK    4  A    between atoms: C4_10  and  C5_11 
REMARK    5  A    between atoms: C5_11  and  C6_12 
REMARK    6  A    between atoms: C6_12  and  C7_13 
REMARK    7  A    between atoms: C7_13  and  O1_14 
REMARK    8  A    between atoms: N5_22  and  C10_23 
ROOT
HETATM    1  C1  UNL     1      -2.640   1.045   2.345  1.00  0.00     0.678 A 
HETATM    2  N2  UNL     1      -1.449   0.632   1.886  1.00  0.00    -0.185 N 
ATOM      3  H2  UNL     1      -0.571   0.695   2.401  1.00  0.00     0.184 HD
HETATM    4  C2  UNL     1      -1.581   0.126   0.655  1.00  0.00     0.140 A 
HETATM    5  C3  UNL     1      -0.474  -0.378  -0.070  1.00  0.00     0.204 C 
HETATM    6  C8  UNL     1      -0.666  -1.160  -1.220  1.00  0.00     0.292 C 
HETATM    7  O2  UNL     1       0.177  -2.064  -1.366  1.00  0.00    -0.264 OA
HETATM    8  N4  UNL     1      -1.636  -1.048  -2.161  1.00  0.00    -0.272 N 
ATOM      9  H4  UNL     1      -1.412  -1.403  -3.091  1.00  0.00     0.174 HD
HETATM   10  C9  UNL     1      -2.863  -0.518  -1.999  1.00  0.00     0.337 C 
HETATM   11  O3  UNL     1      -3.530  -0.305  -3.026  1.00  0.00    -0.246 OA
HETATM   12  N5  UNL     1      -3.491  -0.177  -0.846  1.00  0.00    -0.223 N 
HETATM   13  C11 UNL     1      -2.912   0.218   0.307  1.00  0.00     0.164 A 
HETATM   14  N6  UNL     1      -3.523   0.778   1.350  1.00  0.00    -0.174 N 
ATOM     15  H6  UNL     1      -4.522   0.979   1.395  1.00  0.00     0.186 HD
ENDROOT
BRANCH   5  16
HETATM   16  N3  UNL     1       0.606  -0.092   0.354  1.00  0.00    -0.414 NA
BRANCH  16  17
HETATM   17  C4  UNL     1       1.943   0.002   0.500  1.00  0.00     0.156 C 
BRANCH  17  18
HETATM   18  C5  UNL     1       2.849  -0.907  -0.322  1.00  0.00     0.061 C 
BRANCH  18  19
HETATM   19  C6  UNL     1       4.276  -0.591   0.060  1.00  0.00     0.032 C 
BRANCH  19  20
HETATM   20  C7  UNL     1       4.707   0.811  -0.193  1.00  0.00     0.164 C 
BRANCH  20  21
HETATM   21  O1  UNL     1       4.600   1.179  -1.538  1.00  0.00    -0.401 OA
ATOM     22  H1  UNL     1       4.875   2.074  -1.699  1.00  0.00     0.209 HD
ENDBRANCH  20  21
ENDBRANCH  19  20
ENDBRANCH  18  19
ENDBRANCH  17  18
ENDBRANCH  16  17
ENDBRANCH   5  16
BRANCH   1  23
HETATM   23  N1  UNL     1      -2.923   1.592   3.498  1.00  0.00    -0.234 N 
ATOM     24  H12 UNL     1      -2.259   1.793   4.246  1.00  0.00     0.174 HD
ATOM     25  H11 UNL     1      -3.829   1.906   3.847  1.00  0.00     0.174 HD
ENDBRANCH   1  23
BRANCH  12  26
HETATM   26  C10 UNL     1      -4.901  -0.236  -0.828  1.00  0.00     0.365 C 
HETATM   27  O4  UNL     1      -5.528  -0.599  -1.884  1.00  0.00    -0.283 OA
ENDBRANCH  12  26
TORSDOF 8
