REMARK  7 active torsions:
REMARK  status: ('A' for Active; 'I' for Inactive)
REMARK    1  A    between atoms: N1_2  and  C3_5 
REMARK    2  A    between atoms: C4_8  and  N4_9 
REMARK    3  A    between atoms: C6_16  and  O2_17 
REMARK    4  A    between atoms: O2_17  and  C7_18 
REMARK    5  A    between atoms: C7_18  and  C8_19 
REMARK    6  A    between atoms: C8_19  and  C9_21 
REMARK    7  A    between atoms: C9_21  and  N7_22 
ROOT
HETATM    1  C1  UNL     1      -1.921   2.286  -0.003  1.00  0.00     0.170 C 
HETATM    2  N1  UNL     1      -2.109   0.975   0.585  1.00  0.00    -0.272 N 
HETATM    3  C2  UNL     1      -2.016   0.823   1.959  1.00  0.00     0.185 C 
HETATM    4  N2  UNL     1      -1.953   0.708   3.119  1.00  0.00    -0.172 NA
ENDROOT
BRANCH   2   5
HETATM    5  C3  UNL     1      -2.426  -0.175  -0.230  1.00  0.00     0.171 A 
HETATM    6  N3  UNL     1      -3.631  -0.791   0.002  1.00  0.00    -0.173 N 
HETATM    7  C4  UNL     1      -4.044  -1.824  -0.740  1.00  0.00     0.680 A 
ATOM      8  H3  UNL     1      -4.225  -0.452   0.759  1.00  0.00     0.186 HD
HETATM    9  N5  UNL     1      -3.241  -2.251  -1.731  1.00  0.00    -0.154 N 
HETATM   10  C5  UNL     1      -2.076  -1.717  -2.017  1.00  0.00     0.297 A 
ATOM     11  H5  UNL     1      -3.557  -3.039  -2.296  1.00  0.00     0.187 HD
HETATM   12  O1  UNL     1      -1.307  -2.098  -2.939  1.00  0.00    -0.264 OA
HETATM   13  C6  UNL     1      -1.631  -0.631  -1.243  1.00  0.00     0.189 A 
BRANCH   7  14
HETATM   14  N4  UNL     1      -5.191  -2.372  -0.478  1.00  0.00    -0.234 N 
ATOM     15  H42 UNL     1      -5.800  -2.048   0.273  1.00  0.00     0.174 HD
ATOM     16  H41 UNL     1      -5.506  -3.160  -1.044  1.00  0.00     0.174 HD
ENDBRANCH   7  14
BRANCH  13  17
HETATM   17  O2  UNL     1      -0.415  -0.064  -1.517  1.00  0.00    -0.312 OA
BRANCH  17  18
HETATM   18  C7  UNL     1       0.866  -0.354  -1.222  1.00  0.00     0.166 C 
BRANCH  18  19
HETATM   19  C8  UNL     1       1.414  -0.471   0.133  1.00  0.00     0.064 C 
HETATM   20  N6  UNL     1       0.820  -1.421   1.001  1.00  0.00    -0.103 NA
BRANCH  19  21
HETATM   21  C9  UNL     1       1.745   0.808   0.854  1.00  0.00     0.177 C 
BRANCH  21  22
HETATM   22  N7  UNL     1       2.733   1.598   0.152  1.00  0.00    -0.362 N 
HETATM   23  C10 UNL     1       3.984   1.368   0.093  1.00  0.00     0.197 C 
HETATM   24  N8  UNL     1       4.644   0.294   0.706  1.00  0.00    -0.067 NA
HETATM   25  N9  UNL     1       4.773   2.276  -0.655  1.00  0.00    -0.067 NA
ATOM     26  H7  UNL     1       2.394   2.421  -0.345  1.00  0.00     0.162 HD
ENDBRANCH  21  22
ENDBRANCH  19  21
ENDBRANCH  18  19
ENDBRANCH  17  18
ENDBRANCH  13  17
ENDBRANCH   2   5
TORSDOF 7
