REMARK  6 active torsions:
REMARK  status: ('A' for Active; 'I' for Inactive)
REMARK    1  A    between atoms: O1_2  and  C2_3 
REMARK    2  A    between atoms: C2_3  and  C3_5 
REMARK    3  A    between atoms: C7_9  and  N1_10 
REMARK       I    between atoms: N1_10  and  C8_12 
REMARK       I    between atoms: C8_12  and  N2_14 
REMARK    4  A    between atoms: N2_14  and  C9_16 
REMARK    5  A    between atoms: C17_25  and  C18_26 
REMARK    6  A    between atoms: C18_26  and  O6_28 
ROOT
HETATM    1  N1  UNL     1       1.087   0.236  -0.091  1.00  0.00    -0.308 N 
ATOM      2  H1  UNL     1       1.168  -0.740  -0.375  1.00  0.00     0.170 HD
HETATM    3  C8  UNL     1      -0.184   0.745   0.165  1.00  0.00     0.322 C 
HETATM    4  O3  UNL     1      -0.404   1.917   0.539  1.00  0.00    -0.247 OA
HETATM    5  N2  UNL     1      -1.347  -0.107  -0.001  1.00  0.00    -0.316 N 
ATOM      6  H2  UNL     1      -1.215  -1.072  -0.305  1.00  0.00     0.166 HD
ENDROOT
BRANCH   1   7
HETATM    7  C7  UNL     1       2.270   0.999   0.021  1.00  0.00     0.053 A 
HETATM    8  C6  UNL     1       2.281   2.343  -0.258  1.00  0.00     0.030 A 
HETATM    9  C5  UNL     1       3.462   3.047  -0.324  1.00  0.00     0.003 A 
HETATM   10  C4  UNL     1       4.635   2.390  -0.111  1.00  0.00     0.019 A 
HETATM   11  C3  UNL     1       4.710   0.998   0.184  1.00  0.00     0.058 A 
HETATM   12  C17 UNL     1       3.504   0.330   0.248  1.00  0.00     0.082 A 
BRANCH  11  13
HETATM   13  C2  UNL     1       6.024   0.420   0.306  1.00  0.00     0.294 C 
HETATM   14  O2  UNL     1       6.363  -0.745   0.416  1.00  0.00    -0.259 OA
BRANCH  13  15
HETATM   15  O1  UNL     1       7.116   1.321   0.303  1.00  0.00    -0.322 OA
HETATM   16  C1  UNL     1       8.440   0.851   0.420  1.00  0.00     0.213 C 
ENDBRANCH  13  15
ENDBRANCH  11  13
BRANCH  12  17
HETATM   17  C18 UNL     1       3.434  -1.019   0.753  1.00  0.00     0.296 C 
HETATM   18  O5  UNL     1       2.265  -1.524   1.012  1.00  0.00    -0.259 OA
BRANCH  17  19
HETATM   19  O6  UNL     1       4.416  -1.926   1.031  1.00  0.00    -0.322 OA
HETATM   20  C19 UNL     1       4.149  -3.237   1.535  1.00  0.00     0.213 C 
ENDBRANCH  17  19
ENDBRANCH  12  17
ENDBRANCH   1   7
BRANCH   5  21
HETATM   21  C9  UNL     1      -2.691   0.373   0.252  1.00  0.00     0.224 C 
HETATM   22  C10 UNL     1      -3.297  -0.426   1.355  1.00  0.00     0.054 C 
HETATM   23  C11 UNL     1      -4.614  -0.036   1.853  1.00  0.00     0.004 C 
HETATM   24  C12 UNL     1      -5.457   0.882   1.066  1.00  0.00     0.000 C 
HETATM   25  C13 UNL     1      -6.087   0.397  -0.179  1.00  0.00     0.000 C 
HETATM   26  C14 UNL     1      -5.898  -1.023  -0.549  1.00  0.00     0.002 C 
HETATM   27  C15 UNL     1      -4.983  -1.244  -1.733  1.00  0.00     0.026 C 
HETATM   28  C16 UNL     1      -3.583  -0.824  -1.522  1.00  0.00     0.170 C 
HETATM   29  O4  UNL     1      -3.383   0.372  -0.924  1.00  0.00    -0.367 OA
ENDBRANCH   5  21
TORSDOF 6
