REMARK  11 active torsions:
REMARK  status: ('A' for Active; 'I' for Inactive)
REMARK    1  A    between atoms: C2_2  and  C3_3 
REMARK    2  A    between atoms: C3_3  and  N1_4 
REMARK    3  A    between atoms: N1_4  and  N2_5 
REMARK       I    between atoms: N1_4  and  C11_17 
REMARK    4  A    between atoms: N2_5  and  C4_7 
REMARK    5  A    between atoms: C4_7  and  N3_9 
REMARK    6  A    between atoms: N3_9  and  C5_11 
REMARK    7  A    between atoms: C5_11  and  C6_12 
REMARK    8  A    between atoms: C6_12  and  C7_13 
REMARK    9  A    between atoms: C11_17  and  C12_19 
REMARK   10  A    between atoms: C12_19  and  C13_20 
REMARK   11  A    between atoms: C15_22  and  C16_23 
ROOT
HETATM    1  N1  UNL     1       0.149   2.074   1.147  1.00  0.00    -0.259 N 
HETATM    2  C11 UNL     1      -0.993   1.588   0.466  1.00  0.00     0.238 C 
HETATM    3  O1  UNL     1      -1.973   2.391   0.325  1.00  0.00    -0.272 OA
ENDROOT
BRANCH   1   4
HETATM    4  C3  UNL     1       0.177   3.437   1.652  1.00  0.00     0.152 C 
BRANCH   4   5
HETATM    5  C2  UNL     1       0.722   4.426   0.667  1.00  0.00     0.017 C 
HETATM    6  C1  UNL     1       0.720   5.842   1.261  1.00  0.00     0.007 C 
ENDBRANCH   4   5
ENDBRANCH   1   4
BRANCH   1   7
HETATM    7  N2  UNL     1       1.293   1.329   1.403  1.00  0.00    -0.272 N 
ATOM      8  H2  UNL     1       1.459   1.014   2.359  1.00  0.00     0.189 HD
BRANCH   7   9
HETATM    9  C4  UNL     1       2.237   0.985   0.414  1.00  0.00     0.186 C 
HETATM   10  S1  UNL     1       2.021   1.441  -1.134  1.00  0.00    -0.040 SA
BRANCH   9  11
HETATM   11  N3  UNL     1       3.406   0.224   0.713  1.00  0.00    -0.366 N 
ATOM     12  H3  UNL     1       3.547  -0.075   1.678  1.00  0.00     0.161 HD
BRANCH  11  13
HETATM   13  C5  UNL     1       4.394  -0.147  -0.253  1.00  0.00     0.123 C 
BRANCH  13  14
HETATM   14  C6  UNL     1       5.505  -0.924   0.406  1.00  0.00     0.028 C 
BRANCH  14  15
HETATM   15  C7  UNL     1       6.572  -1.323  -0.590  1.00  0.00    -0.050 C 
HETATM   16  C8  UNL     1       5.931  -2.187  -1.646  1.00  0.00     0.014 C 
HETATM   17  C9  UNL     1       7.186  -0.104  -1.251  1.00  0.00     0.014 C 
HETATM   18  C10 UNL     1       7.700  -2.075   0.078  1.00  0.00     0.014 C 
ENDBRANCH  14  15
ENDBRANCH  13  14
ENDBRANCH  11  13
ENDBRANCH   9  11
ENDBRANCH   7   9
ENDBRANCH   1   7
BRANCH   2  19
HETATM   19  C12 UNL     1      -1.140   0.242  -0.085  1.00  0.00     0.109 C 
BRANCH  19  20
HETATM   20  C13 UNL     1      -2.373  -0.477   0.371  1.00  0.00    -0.001 C 
HETATM   21  C14 UNL     1      -3.666   0.187   0.042  1.00  0.00     0.015 C 
HETATM   22  C15 UNL     1      -4.828  -0.770   0.186  1.00  0.00    -0.040 C 
HETATM   23  C18 UNL     1      -5.249  -1.425  -1.089  1.00  0.00     0.014 C 
HETATM   24  C22 UNL     1      -4.431  -1.850   1.167  1.00  0.00     0.014 C 
HETATM   25  C19 UNL     1      -4.259  -2.442  -1.603  1.00  0.00    -0.013 C 
HETATM   26  C20 UNL     1      -4.022  -3.529  -0.561  1.00  0.00     0.010 C 
HETATM   27  C24 UNL     1      -2.882  -1.803  -1.654  1.00  0.00     0.010 C 
HETATM   28  C21 UNL     1      -3.357  -2.706   0.541  1.00  0.00    -0.009 C 
HETATM   29  C23 UNL     1      -2.382  -1.871  -0.237  1.00  0.00    -0.005 C 
BRANCH  22  30
HETATM   30  C16 UNL     1      -6.023   0.010   0.726  1.00  0.00     0.005 C 
HETATM   31  C17 UNL     1      -6.336   1.103  -0.269  1.00  0.00     0.006 C 
ENDBRANCH  22  30
ENDBRANCH  19  20
ENDBRANCH   2  19
TORSDOF 11
