REMARK  9 active torsions:
REMARK  status: ('A' for Active; 'I' for Inactive)
REMARK    1  A    between atoms: C2_2  and  N1_3 
REMARK    2  A    between atoms: C2_2  and  C22_29 
REMARK    3  A    between atoms: C3_5  and  N2_6 
REMARK    4  A    between atoms: C3_5  and  C18_23 
REMARK    5  A    between atoms: N2_6  and  C4_8 
REMARK    6  A    between atoms: N3_11  and  C7_12 
REMARK    7  A    between atoms: C7_12  and  C8_13 
REMARK    8  A    between atoms: C8_13  and  C9_14 
REMARK    9  A    between atoms: C9_14  and  C10_15 
ROOT
HETATM    1  N2  UNL     1       2.093  -1.610   0.846  1.00  0.00    -0.369 N 
ATOM      2  H2  UNL     1       2.305  -2.051   1.741  1.00  0.00     0.161 HD
ENDROOT
BRANCH   1   3
HETATM    3  C3  UNL     1       3.162  -0.968   0.105  1.00  0.00     0.124 C 
HETATM    4  N1  UNL     1       3.145   0.237  -0.247  1.00  0.00    -0.370 N 
ATOM      5  H1  UNL     1       2.299   0.728   0.043  1.00  0.00     0.161 HD
BRANCH   4   6
HETATM    6  C2  UNL     1       4.034   1.046  -0.949  1.00  0.00     0.083 C 
HETATM    7  C1  UNL     1       3.243   2.129  -1.761  1.00  0.00     0.032 C 
BRANCH   6   8
HETATM    8  C22 UNL     1       5.129   1.762  -0.278  1.00  0.00     0.008 C 
HETATM    9  C23 UNL     1       4.707   2.844   0.690  1.00  0.00     0.007 C 
HETATM   10  C24 UNL     1       6.038   3.249   1.321  1.00  0.00     0.000 C 
HETATM   11  C25 UNL     1       6.978   2.078   1.123  1.00  0.00     0.000 C 
HETATM   12  C26 UNL     1       6.082   0.971   0.566  1.00  0.00     0.007 C 
ENDBRANCH   6   8
ENDBRANCH   4   6
BRANCH   3  13
HETATM   13  C18 UNL     1       4.287  -1.860  -0.222  1.00  0.00     0.076 A 
HETATM   14  C19 UNL     1       4.824  -2.174  -1.447  1.00  0.00     0.035 A 
HETATM   15  C20 UNL     1       5.838  -3.080  -1.167  1.00  0.00     0.019 A 
HETATM   16  C21 UNL     1       5.888  -3.288   0.185  1.00  0.00     0.088 A 
HETATM   17  N4  UNL     1       4.929  -2.532   0.762  1.00  0.00    -0.363 N 
ATOM     18  H4  UNL     1       4.725  -2.477   1.760  1.00  0.00     0.165 HD
ENDBRANCH   3  13
ENDBRANCH   1   3
BRANCH   1  19
HETATM   19  C4  UNL     1       0.761  -1.642   0.360  1.00  0.00     0.092 C 
HETATM   20  C5  UNL     1       0.061  -0.328   0.568  1.00  0.00     0.070 C 
HETATM   21  C6  UNL     1      -1.280  -0.268  -0.092  1.00  0.00     0.065 C 
HETATM   22  N3  UNL     1      -1.986  -1.472  -0.117  1.00  0.00    -0.374 N 
HETATM   23  C16 UNL     1      -1.397  -2.716   0.181  1.00  0.00     0.065 C 
HETATM   24  C17 UNL     1      -0.129  -2.703   0.994  1.00  0.00     0.070 C 
BRANCH  22  25
HETATM   25  C7  UNL     1      -2.816  -1.609  -1.321  1.00  0.00     0.127 C 
BRANCH  25  26
HETATM   26  C8  UNL     1      -3.956  -0.675  -1.402  1.00  0.00     0.021 C 
BRANCH  26  27
HETATM   27  C9  UNL     1      -4.914  -0.851  -0.263  1.00  0.00     0.006 C 
BRANCH  27  28
HETATM   28  C10 UNL     1      -6.119   0.050  -0.304  1.00  0.00    -0.014 C 
HETATM   29  C11 UNL     1      -6.967  -0.275   0.903  1.00  0.00     0.004 C 
HETATM   30  C12 UNL     1      -8.021   0.772   1.168  1.00  0.00     0.000 C 
HETATM   31  C13 UNL     1      -7.518   2.183   1.076  1.00  0.00     0.000 C 
HETATM   32  C14 UNL     1      -6.946   2.366  -0.325  1.00  0.00     0.000 C 
HETATM   33  C15 UNL     1      -5.687   1.476  -0.361  1.00  0.00     0.004 C 
ENDBRANCH  27  28
ENDBRANCH  26  27
ENDBRANCH  25  26
ENDBRANCH  22  25
ENDBRANCH   1  19
TORSDOF 9
