REMARK  8 active torsions:
REMARK  status: ('A' for Active; 'I' for Inactive)
REMARK    1  A    between atoms: C3_3  and  C4_4 
REMARK    2  A    between atoms: C5_5  and  C7_7 
REMARK    3  A    between atoms: C7_7  and  C8_8 
REMARK    4  A    between atoms: C8_8  and  C9_9 
REMARK    5  A    between atoms: C9_9  and  C10_10 
REMARK    6  A    between atoms: C10_10  and  C12_12 
REMARK    7  A    between atoms: C18_20  and  C19_21 
REMARK    8  A    between atoms: C21_23  and  C22_24 
REMARK       I    between atoms: C22_24  and  N1_26 
ROOT
HETATM    1  C1  UNL     1       9.372  -0.481   1.584  1.00  0.00     0.112 C 
HETATM    2  C2  UNL     1       8.265   0.152   0.839  1.00  0.00    -0.106 C 
HETATM    3  C3  UNL     1       7.365   0.654   0.217  1.00  0.00    -0.079 C 
ENDROOT
BRANCH   3   4
HETATM    4  C4  UNL     1       6.304   1.244  -0.545  1.00  0.00     0.067 C 
HETATM    5  C5  UNL     1       5.535   0.450  -1.264  1.00  0.00    -0.076 C 
HETATM    6  C6  UNL     1       5.759  -1.013  -1.286  1.00  0.00     0.044 C 
BRANCH   5   7
HETATM    7  C7  UNL     1       4.447   1.021  -2.052  1.00  0.00     0.034 C 
BRANCH   7   8
HETATM    8  C8  UNL     1       3.065   0.462  -1.629  1.00  0.00     0.005 C 
BRANCH   8   9
HETATM    9  C9  UNL     1       2.903   0.818  -0.214  1.00  0.00     0.011 C 
BRANCH   9  10
HETATM   10  C10 UNL     1       1.653   0.387   0.503  1.00  0.00     0.039 C 
HETATM   11  C11 UNL     1       1.780   0.893   1.874  1.00  0.00     0.017 C 
BRANCH  10  12
HETATM   12  C12 UNL     1       0.423   0.602  -0.279  1.00  0.00     0.064 C 
HETATM   13  O1  UNL     1       0.528  -0.167  -1.460  1.00  0.00    -0.279 OA
HETATM   14  C13 UNL     1       0.003  -1.408  -1.717  1.00  0.00     0.287 C 
HETATM   15  O2  UNL     1       0.704  -2.383  -2.110  1.00  0.00    -0.260 OA
HETATM   16  C14 UNL     1      -1.415  -1.743  -1.570  1.00  0.00     0.079 C 
HETATM   17  C15 UNL     1      -2.353  -0.977  -1.046  1.00  0.00    -0.006 C 
HETATM   18  C16 UNL     1      -2.154   0.369  -0.503  1.00  0.00     0.007 C 
HETATM   19  C17 UNL     1      -2.313   1.379  -1.601  1.00  0.00     0.025 C 
HETATM   20  C18 UNL     1      -3.147   0.692   0.592  1.00  0.00     0.031 C 
HETATM   21  C26 UNL     1      -0.880   0.599   0.288  1.00  0.00    -0.037 C 
HETATM   22  C24 UNL     1      -2.679  -0.293   1.643  1.00  0.00     0.015 C 
HETATM   23  C25 UNL     1      -1.164  -0.017   1.631  1.00  0.00     0.038 C 
BRANCH  20  24
HETATM   24  C19 UNL     1      -4.567   0.556   0.281  1.00  0.00    -0.073 C 
HETATM   25  C20 UNL     1      -5.314   1.430  -0.634  1.00  0.00     0.044 C 
HETATM   26  C21 UNL     1      -5.218  -0.386   0.901  1.00  0.00     0.076 C 
BRANCH  26  27
HETATM   27  C22 UNL     1      -6.623  -0.659   0.709  1.00  0.00     0.241 C 
HETATM   28  O3  UNL     1      -7.406  -0.055  -0.064  1.00  0.00    -0.269 OA
HETATM   29  N1  UNL     1      -7.265  -1.732   1.457  1.00  0.00    -0.362 N 
HETATM   30  C23 UNL     1      -8.651  -1.994   1.261  1.00  0.00     0.149 C 
ATOM     31  H1  UNL     1      -6.725  -2.292   2.117  1.00  0.00     0.162 HD
ENDBRANCH  26  27
ENDBRANCH  20  24
ENDBRANCH  10  12
ENDBRANCH   9  10
ENDBRANCH   8   9
ENDBRANCH   7   8
ENDBRANCH   5   7
ENDBRANCH   3   4
TORSDOF 8
