REMARK  13 active torsions:
REMARK  status: ('A' for Active; 'I' for Inactive)
REMARK    1  A    between atoms: C2_2  and  C3_3 
REMARK    2  A    between atoms: C3_3  and  C4_4 
REMARK    3  A    between atoms: C4_4  and  C5_5 
REMARK    4  A    between atoms: C5_5  and  C6_7 
REMARK    5  A    between atoms: C6_7  and  C7_8 
REMARK    6  A    between atoms: C7_8  and  N1_10 
REMARK    7  A    between atoms: N1_10  and  C9_12 
REMARK    8  A    between atoms: C9_12  and  C10_13 
REMARK    9  A    between atoms: C10_13  and  O3_15 
REMARK   10  A    between atoms: O3_15  and  C11_16 
REMARK   11  A    between atoms: C13_20  and  O6_21 
REMARK   12  A    between atoms: C24_33  and  C26_35 
REMARK   13  A    between atoms: C26_35  and  O7_36 
ROOT
HETATM    1  C11 UNL     1      -0.785  -0.474   0.655  1.00  0.00     0.286 C 
HETATM    2  O4  UNL     1      -0.922   0.327   1.827  1.00  0.00    -0.307 OA
HETATM    3  C12 UNL     1      -2.259   0.174   2.255  1.00  0.00     0.418 C 
HETATM    4  O5  UNL     1      -2.593   1.346   2.812  1.00  0.00    -0.307 OA
HETATM    5  C13 UNL     1      -3.349   2.213   2.061  1.00  0.00     0.273 C 
HETATM    6  C14 UNL     1      -4.075   1.636   0.901  1.00  0.00     0.038 C 
HETATM    7  C15 UNL     1      -4.490   2.716  -0.027  1.00  0.00     0.024 C 
HETATM    8  C16 UNL     1      -5.415   1.177   1.558  1.00  0.00     0.018 C 
HETATM    9  C17 UNL     1      -6.002   0.448   0.427  1.00  0.00     0.009 C 
HETATM   10  C18 UNL     1      -4.834  -0.322  -0.088  1.00  0.00     0.025 C 
HETATM   11  C19 UNL     1      -5.098  -0.500  -1.538  1.00  0.00    -0.012 C 
HETATM   12  C20 UNL     1      -6.412  -1.223  -1.685  1.00  0.00     0.010 C 
HETATM   13  C21 UNL     1      -3.950  -1.333  -1.975  1.00  0.00     0.005 C 
HETATM   14  C22 UNL     1      -2.810  -0.315  -2.063  1.00  0.00     0.009 C 
HETATM   15  C23 UNL     1      -2.574   0.518  -0.851  1.00  0.00     0.037 C 
HETATM   16  C24 UNL     1      -1.100   0.418  -0.490  1.00  0.00     0.034 C 
HETATM   17  C25 UNL     1      -0.565   1.838  -0.125  1.00  0.00     0.023 C 
HETATM   18  C27 UNL     1      -3.540   0.372   0.282  1.00  0.00     0.086 C 
HETATM   19  O8  UNL     1      -2.997  -0.372   1.301  1.00  0.00    -0.326 OA
ENDROOT
BRANCH   1  20
HETATM   20  O3  UNL     1       0.561  -0.896   0.761  1.00  0.00    -0.284 OA
BRANCH  20  21
HETATM   21  C10 UNL     1       0.914  -2.251   0.971  1.00  0.00     0.300 C 
HETATM   22  O2  UNL     1       0.006  -3.079   1.060  1.00  0.00    -0.259 OA
BRANCH  21  23
HETATM   23  C9  UNL     1       2.402  -2.518   1.038  1.00  0.00     0.166 C 
BRANCH  23  24
HETATM   24  N1  UNL     1       2.972  -1.954  -0.096  1.00  0.00    -0.389 N 
ATOM     25  H1  UNL     1       2.388  -1.604  -0.855  1.00  0.00     0.159 HD
BRANCH  24  26
HETATM   26  C7  UNL     1       4.418  -1.876  -0.173  1.00  0.00     0.084 C 
HETATM   27  C8  UNL     1       4.640  -0.883  -1.354  1.00  0.00     0.032 C 
BRANCH  26  28
HETATM   28  C6  UNL     1       5.011  -1.165   1.030  1.00  0.00     0.103 C 
BRANCH  28  29
HETATM   29  C5  UNL     1       6.454  -0.844   0.855  1.00  0.00     0.129 C 
HETATM   30  O1  UNL     1       7.298  -1.709   0.931  1.00  0.00    -0.298 OA
BRANCH  29  31
HETATM   31  C4  UNL     1       6.829   0.591   0.584  1.00  0.00     0.082 C 
BRANCH  31  32
HETATM   32  C3  UNL     1       8.252   0.910   0.731  1.00  0.00     0.033 C 
BRANCH  32  33
HETATM   33  C2  UNL     1       9.153   0.142  -0.113  1.00  0.00    -0.037 C 
HETATM   34  C1  UNL     1      10.162  -0.537   0.501  1.00  0.00     0.007 C 
ENDBRANCH  32  33
ENDBRANCH  31  32
ENDBRANCH  29  31
ENDBRANCH  28  29
ENDBRANCH  26  28
ENDBRANCH  24  26
ENDBRANCH  23  24
ENDBRANCH  21  23
ENDBRANCH  20  21
ENDBRANCH   1  20
BRANCH  16  35
HETATM   35  C26 UNL     1      -0.203   0.005  -1.643  1.00  0.00     0.178 C 
BRANCH  35  36
HETATM   36  O7  UNL     1      -0.425   0.788  -2.781  1.00  0.00    -0.400 OA
ATOM     37  H7  UNL     1       0.136   0.530  -3.503  1.00  0.00     0.209 HD
ENDBRANCH  35  36
ENDBRANCH  16  35
BRANCH   5  38
HETATM   38  O6  UNL     1      -4.245   2.738   3.053  1.00  0.00    -0.370 OA
ATOM     39  H6  UNL     1      -4.768   3.338   2.534  1.00  0.00     0.212 HD
ENDBRANCH   5  38
TORSDOF 13
