REMARK  12 active torsions:
REMARK  status: ('A' for Active; 'I' for Inactive)
REMARK    1  A    between atoms: C2_2  and  N1_3 
REMARK    2  A    between atoms: N1_3  and  C3_5 
REMARK    3  A    between atoms: C4_8  and  C5_9 
REMARK    4  A    between atoms: C6_10  and  C7_11 
REMARK    5  A    between atoms: C9_13  and  O1_14 
REMARK    6  A    between atoms: C11_16  and  O2_17 
REMARK    7  A    between atoms: C13_19  and  O3_20 
REMARK    8  A    between atoms: C17_24  and  N3_25 
REMARK    9  A    between atoms: N3_25  and  C18_27 
REMARK   10  A    between atoms: C20_29  and  O4_30 
REMARK   11  A    between atoms: C22_32  and  O5_33 
REMARK   12  A    between atoms: C24_35  and  O6_36 
ROOT
HETATM    1  C3  UNL     1       0.361   4.302   0.794  1.00  0.00     0.680 A 
HETATM    2  N2  UNL     1      -0.676   3.428   0.708  1.00  0.00    -0.192 N 
ATOM      3  H2  UNL     1      -1.626   3.782   0.824  1.00  0.00     0.184 HD
HETATM    4  C4  UNL     1      -0.499   2.114   0.476  1.00  0.00     0.052 A 
HETATM    5  C16 UNL     1       0.781   1.648   0.322  1.00  0.00     0.079 A 
HETATM    6  C17 UNL     1       1.864   2.528   0.405  1.00  0.00     0.123 A 
HETATM    7  N4  UNL     1       1.611   3.849   0.643  1.00  0.00    -0.177 N 
ATOM      8  H4  UNL     1       2.391   4.503   0.707  1.00  0.00     0.186 HD
ENDROOT
BRANCH   4   9
HETATM    9  C5  UNL     1      -1.667   1.214   0.394  1.00  0.00     0.031 C 
HETATM   10  C6  UNL     1      -1.582  -0.064   0.175  1.00  0.00     0.014 C 
BRANCH  10  11
HETATM   11  C7  UNL     1      -2.739  -0.925   0.097  1.00  0.00    -0.031 A 
HETATM   12  C8  UNL     1      -2.603  -2.304  -0.133  1.00  0.00     0.051 A 
HETATM   13  C9  UNL     1      -3.701  -3.126  -0.217  1.00  0.00     0.105 A 
HETATM   14  C11 UNL     1      -4.952  -2.556  -0.069  1.00  0.00     0.135 A 
HETATM   15  C13 UNL     1      -5.143  -1.221   0.157  1.00  0.00     0.105 A 
HETATM   16  C15 UNL     1      -4.002  -0.408   0.238  1.00  0.00     0.051 A 
BRANCH  13  17
HETATM   17  O1  UNL     1      -3.545  -4.461  -0.439  1.00  0.00    -0.353 OA
HETATM   18  C10 UNL     1      -2.398  -5.210  -0.601  1.00  0.00     0.210 C 
ENDBRANCH  13  17
BRANCH  14  19
HETATM   19  O2  UNL     1      -6.051  -3.386  -0.157  1.00  0.00    -0.351 OA
HETATM   20  C12 UNL     1      -6.535  -3.995   1.025  1.00  0.00     0.210 C 
ENDBRANCH  14  19
BRANCH  15  21
HETATM   21  O3  UNL     1      -6.401  -0.693   0.302  1.00  0.00    -0.353 OA
HETATM   22  C14 UNL     1      -6.652   0.678   0.531  1.00  0.00     0.210 C 
ENDBRANCH  15  21
ENDBRANCH  10  11
ENDBRANCH   4   9
BRANCH   1  23
HETATM   23  N1  UNL     1       0.092   5.543   1.021  1.00  0.00    -0.226 N 
ATOM     24  H1  UNL     1      -0.887   5.810   1.125  1.00  0.00     0.177 HD
BRANCH  23  25
HETATM   25  C2  UNL     1       1.082   6.567   1.135  1.00  0.00     0.133 C 
HETATM   26  C1  UNL     1       1.435   7.095  -0.239  1.00  0.00     0.027 C 
ENDBRANCH  23  25
ENDBRANCH   1  23
BRANCH   6  27
HETATM   27  N3  UNL     1       3.051   2.189   0.275  1.00  0.00    -0.342 N 
ATOM     28  H3  UNL     1       3.752   2.925   0.357  1.00  0.00     0.167 HD
BRANCH  27  29
HETATM   29  C18 UNL     1       3.518   0.899   0.028  1.00  0.00     0.039 A 
HETATM   30  C19 UNL     1       4.064   0.580  -1.196  1.00  0.00     0.069 A 
HETATM   31  C20 UNL     1       4.577  -0.654  -1.523  1.00  0.00     0.106 A 
HETATM   32  C22 UNL     1       4.530  -1.637  -0.529  1.00  0.00     0.135 A 
HETATM   33  C24 UNL     1       3.994  -1.371   0.711  1.00  0.00     0.106 A 
HETATM   34  C26 UNL     1       3.497  -0.123   0.981  1.00  0.00     0.069 A 
BRANCH  31  35
HETATM   35  O4  UNL     1       5.109  -0.920  -2.760  1.00  0.00    -0.353 OA
HETATM   36  C21 UNL     1       5.126   0.027  -3.775  1.00  0.00     0.210 C 
ENDBRANCH  31  35
BRANCH  32  37
HETATM   37  O5  UNL     1       5.037  -2.883  -0.833  1.00  0.00    -0.351 OA
HETATM   38  C23 UNL     1       4.202  -3.878  -1.446  1.00  0.00     0.210 C 
ENDBRANCH  32  37
BRANCH  33  39
HETATM   39  O6  UNL     1       3.956  -2.384   1.699  1.00  0.00    -0.353 OA
HETATM   40  C25 UNL     1       3.387  -2.035   2.941  1.00  0.00     0.210 C 
ENDBRANCH  33  39
ENDBRANCH  27  29
ENDBRANCH   6  27
TORSDOF 12
