REMARK  13 active torsions:
REMARK  status: ('A' for Active; 'I' for Inactive)
REMARK    1  A    between atoms: C2_2  and  C4_4 
REMARK    2  A    between atoms: C4_4  and  N1_5 
REMARK    3  A    between atoms: C4_4  and  C11_25 
REMARK    4  A    between atoms: N1_5  and  C5_7 
REMARK    5  A    between atoms: N3_13  and  O1_15 
REMARK    6  A    between atoms: O1_15  and  C9_16 
REMARK    7  A    between atoms: C10_19  and  O2_20 
REMARK    8  A    between atoms: C11_25  and  C12_30 
REMARK    9  A    between atoms: N7_26  and  O4_28 
REMARK       I    between atoms: C12_30  and  N8_32 
REMARK   10  A    between atoms: C14_34  and  O6_35 
REMARK   11  A    between atoms: C14_34  and  C15_37 
REMARK   12  A    between atoms: C15_37  and  O7_38 
REMARK   13  A    between atoms: C15_37  and  C16_40 
ROOT
HETATM    1  C4  UNL     1       0.665  -1.038   0.444  1.00  0.00     0.144 C 
ENDROOT
BRANCH   1   2
HETATM    2  C2  UNL     1       0.763  -2.468   0.927  1.00  0.00     0.006 C 
HETATM    3  C1  UNL     1       0.084  -3.408  -0.065  1.00  0.00     0.012 C 
HETATM    4  C3  UNL     1       2.210  -2.904   0.990  1.00  0.00     0.012 C 
ENDBRANCH   1   2
BRANCH   1   5
HETATM    5  N1  UNL     1       1.269  -0.793  -0.815  1.00  0.00    -0.365 N 
ATOM      6  H1  UNL     1       0.713  -1.085  -1.619  1.00  0.00     0.161 HD
BRANCH   5   7
HETATM    7  C5  UNL     1       2.390  -0.269  -1.107  1.00  0.00     0.118 A 
HETATM    8  C6  UNL     1       2.730  -0.153  -2.466  1.00  0.00     0.066 A 
HETATM    9  C7  UNL     1       3.936   0.410  -2.800  1.00  0.00     0.110 A 
HETATM   10  N2  UNL     1       4.768   0.839  -1.822  1.00  0.00    -0.200 N 
HETATM   11  C8  UNL     1       4.412   0.713  -0.545  1.00  0.00     0.703 A 
ATOM     12  H2  UNL     1       5.666   1.258  -2.063  1.00  0.00     0.183 HD
HETATM   13  N3  UNL     1       5.202   1.115   0.384  1.00  0.00    -0.092 N 
HETATM   14  N6  UNL     1       3.218   0.158  -0.149  1.00  0.00    -0.175 N 
ATOM     15  H3  UNL     1       4.935   1.019   1.364  1.00  0.00     0.213 HD
ATOM     16  H6  UNL     1       2.974   0.075   0.838  1.00  0.00     0.186 HD
BRANCH  13  17
HETATM   17  O1  UNL     1       6.406   1.673   0.048  1.00  0.00    -0.214 OA
BRANCH  17  18
HETATM   18  C9  UNL     1       7.586   0.958   0.417  1.00  0.00     0.406 C 
HETATM   19  N4  UNL     1       8.384   0.790  -0.780  1.00  0.00    -0.082 NA
HETATM   20  N5  UNL     1       8.910   2.105  -0.905  1.00  0.00    -0.084 NA
HETATM   21  C10 UNL     1       9.358   2.334   0.467  1.00  0.00     0.378 C 
HETATM   22  O3  UNL     1       8.364   1.790   1.252  1.00  0.00    -0.298 OA
BRANCH  21  23
HETATM   23  O2  UNL     1       9.574   3.685   0.722  1.00  0.00    -0.357 OA
ATOM     24  H2  UNL     1       9.865   3.834   1.614  1.00  0.00     0.214 HD
ENDBRANCH  21  23
ENDBRANCH  17  18
ENDBRANCH  13  17
ENDBRANCH   5   7
ENDBRANCH   1   5
BRANCH   1  25
HETATM   25  C11 UNL     1      -0.760  -0.542   0.477  1.00  0.00     0.124 C 
HETATM   26  N7  UNL     1      -1.368  -0.274  -0.609  1.00  0.00    -0.266 N 
ATOM     27  H7  UNL     1      -2.328   0.057  -0.518  1.00  0.00     0.194 HD
BRANCH  26  28
HETATM   28  O4  UNL     1      -0.886  -0.378  -1.876  1.00  0.00    -0.290 OA
ATOM     29  H4  UNL     1      -1.340  -0.178  -2.686  1.00  0.00     0.244 HD
ENDBRANCH  26  28
BRANCH  25  30
HETATM   30  C12 UNL     1      -1.401  -0.403   1.764  1.00  0.00     0.288 C 
HETATM   31  O5  UNL     1      -0.798  -0.657   2.824  1.00  0.00    -0.264 OA
HETATM   32  N8  UNL     1      -2.768   0.039   1.838  1.00  0.00    -0.253 N 
HETATM   33  C13 UNL     1      -3.665   0.368   0.748  1.00  0.00     0.199 A 
HETATM   34  N9  UNL     1      -3.460   0.242   3.016  1.00  0.00    -0.307 N 
HETATM   35  C14 UNL     1      -4.965   0.682   1.407  1.00  0.00     0.139 A 
HETATM   36  C22 UNL     1      -4.662   0.594   2.889  1.00  0.00     0.122 A 
ATOM     37  H9  UNL     1      -3.025   0.115   3.930  1.00  0.00     0.186 HD
BRANCH  35  38
HETATM   38  O6  UNL     1      -5.377   2.009   1.235  1.00  0.00    -0.380 OA
ATOM     39  H6  UNL     1      -6.205   2.209   1.655  1.00  0.00     0.211 HD
ENDBRANCH  35  38
BRANCH  35  40
HETATM   40  C15 UNL     1      -6.078  -0.286   1.090  1.00  0.00     0.192 C 
BRANCH  40  41
HETATM   41  O7  UNL     1      -7.085  -0.017   2.047  1.00  0.00    -0.387 OA
ATOM     42  H7  UNL     1      -7.786  -0.627   1.847  1.00  0.00     0.210 HD
ENDBRANCH  40  41
BRANCH  40  43
HETATM   43  C16 UNL     1      -6.735   0.005  -0.222  1.00  0.00    -0.026 A 
HETATM   44  C17 UNL     1      -8.008  -0.543  -0.467  1.00  0.00     0.010 A 
HETATM   45  C18 UNL     1      -8.672  -0.317  -1.644  1.00  0.00     0.001 A 
HETATM   46  C19 UNL     1      -8.094   0.462  -2.618  1.00  0.00     0.000 A 
HETATM   47  C20 UNL     1      -6.856   1.023  -2.439  1.00  0.00     0.001 A 
HETATM   48  C21 UNL     1      -6.206   0.769  -1.220  1.00  0.00     0.010 A 
ENDBRANCH  40  43
ENDBRANCH  35  40
ENDBRANCH  25  30
ENDBRANCH   1  25
TORSDOF 13
