REMARK  5 active torsions:
REMARK  status: ('A' for Active; 'I' for Inactive)
REMARK    1  A    between atoms: C2_2  and  C3_3 
REMARK    2  A    between atoms: C5_9  and  N3_10 
REMARK    3  A    between atoms: C7_18  and  N6_19 
REMARK    4  A    between atoms: N6_19  and  C9_21 
REMARK    5  A    between atoms: C9_21  and  C10_22 
ROOT
HETATM    1  C3  UNL     1      -0.031   0.827  -0.271  1.00  0.00     0.055 A 
HETATM    2  N1  UNL     1       1.290   1.154  -0.405  1.00  0.00    -0.339 N 
ATOM      3  H1  UNL     1       1.528   2.121  -0.625  1.00  0.00     0.167 HD
HETATM    4  C4  UNL     1       2.274   0.283  -0.264  1.00  0.00     0.166 A 
HETATM    5  N2  UNL     1       3.634   0.340  -0.345  1.00  0.00    -0.173 N 
ATOM      6  H2  UNL     1       4.181   1.175  -0.553  1.00  0.00     0.186 HD
HETATM    7  C5  UNL     1       4.138  -0.887  -0.106  1.00  0.00     0.679 A 
HETATM    8  N4  UNL     1       3.096  -1.693   0.121  1.00  0.00    -0.173 N 
ATOM      9  H4  UNL     1       3.168  -2.688   0.333  1.00  0.00     0.186 HD
HETATM   10  C6  UNL     1       1.942  -1.012   0.032  1.00  0.00     0.167 A 
HETATM   11  N5  UNL     1       0.658  -1.355   0.168  1.00  0.00    -0.324 N 
ATOM     12  H5  UNL     1       0.430  -2.324   0.389  1.00  0.00     0.169 HD
HETATM   13  C7  UNL     1      -0.376  -0.444   0.020  1.00  0.00     0.128 A 
ENDROOT
BRANCH  13  14
HETATM   14  N6  UNL     1      -1.679  -0.915   0.134  1.00  0.00    -0.365 N 
HETATM   15  C8  UNL     1      -1.854  -2.174   0.940  1.00  0.00     0.151 C 
BRANCH  14  16
HETATM   16  C9  UNL     1      -2.922  -0.485  -0.420  1.00  0.00     0.167 C 
BRANCH  16  17
HETATM   17  C10 UNL     1      -3.808  -0.089   0.739  1.00  0.00     0.072 C 
HETATM   18  N7  UNL     1      -4.895  -0.679   0.997  1.00  0.00    -0.410 N 
ATOM     19  H72 UNL     1      -5.171  -1.451   0.390  1.00  0.00     0.155 HD
ATOM     20  H71 UNL     1      -5.493  -0.412   1.779  1.00  0.00     0.155 HD
ENDBRANCH  16  17
ENDBRANCH  14  16
ENDBRANCH  13  14
BRANCH   1  21
HETATM   21  C2  UNL     1      -0.979   1.923  -0.452  1.00  0.00     0.056 C 
HETATM   22  C1  UNL     1      -0.208   3.271  -0.489  1.00  0.00     0.011 C 
ENDBRANCH   1  21
BRANCH   7  23
HETATM   23  N3  UNL     1       5.395  -1.206  -0.099  1.00  0.00    -0.234 N 
ATOM     24  H32 UNL     1       6.190  -0.591  -0.272  1.00  0.00     0.174 HD
ATOM     25  H31 UNL     1       5.776  -2.135   0.082  1.00  0.00     0.174 HD
ENDBRANCH   7  23
TORSDOF 5
