REMARK  6 active torsions:
REMARK  status: ('A' for Active; 'I' for Inactive)
REMARK    1  A    between atoms: C2_2  and  C3_3 
REMARK    2  A    between atoms: C3_3  and  C4_4 
REMARK    3  A    between atoms: C4_4  and  N1_5 
REMARK    4  A    between atoms: N1_5  and  C5_7 
REMARK    5  A    between atoms: C6_10  and  N3_11 
REMARK    6  A    between atoms: C10_17  and  N5_18 
ROOT
HETATM    1  C5  UNL     1      -0.139  -1.625   0.019  1.00  0.00     0.707 A 
HETATM    2  N2  UNL     1       0.631  -0.526  -0.071  1.00  0.00    -0.021 N 
ATOM      3  H2  UNL     1       0.185   0.388  -0.150  1.00  0.00     0.203 HD
HETATM    4  C6  UNL     1       1.985  -0.601  -0.060  1.00  0.00     0.709 A 
HETATM    5  N4  UNL     1       2.518  -1.832   0.046  1.00  0.00    -0.022 N 
ATOM      6  H4  UNL     1       3.534  -1.917   0.056  1.00  0.00     0.203 HD
HETATM    7  C10 UNL     1       1.786  -2.956   0.139  1.00  0.00     0.705 A 
HETATM    8  N6  UNL     1       0.452  -2.838   0.124  1.00  0.00    -0.022 N 
ATOM      9  H6  UNL     1      -0.127  -3.675   0.193  1.00  0.00     0.203 HD
ENDROOT
BRANCH   1  10
HETATM   10  N1  UNL     1      -1.422  -1.602   0.013  1.00  0.00    -0.225 N 
ATOM     11  H1  UNL     1      -1.935  -2.481   0.086  1.00  0.00     0.177 HD
BRANCH  10  12
HETATM   12  C4  UNL     1      -2.159  -0.364  -0.095  1.00  0.00     0.138 C 
BRANCH  12  13
HETATM   13  C3  UNL     1      -3.599  -0.577  -0.468  1.00  0.00     0.020 C 
BRANCH  13  14
HETATM   14  C2  UNL     1      -4.239   0.815  -0.542  1.00  0.00    -0.003 C 
HETATM   15  C1  UNL     1      -4.141   1.526   0.789  1.00  0.00     0.005 C 
ENDBRANCH  13  14
ENDBRANCH  12  13
ENDBRANCH  10  12
ENDBRANCH   1  10
BRANCH   4  16
HETATM   16  N3  UNL     1       2.784   0.571  -0.157  1.00  0.00    -0.217 N 
HETATM   17  C7  UNL     1       2.562   1.991  -0.278  1.00  0.00     0.143 C 
HETATM   18  C8  UNL     1       3.981   2.263   0.174  1.00  0.00     0.041 C 
HETATM   19  C9  UNL     1       4.207   0.826  -0.173  1.00  0.00     0.143 C 
ENDBRANCH   4  16
BRANCH   7  20
HETATM   20  N5  UNL     1       2.324  -4.128   0.240  1.00  0.00    -0.234 N 
ATOM     21  H52 UNL     1       3.340  -4.218   0.251  1.00  0.00     0.174 HD
ATOM     22  H51 UNL     1       1.769  -4.981   0.311  1.00  0.00     0.174 HD
ENDBRANCH   7  20
TORSDOF 6
