REMARK  7 active torsions:
REMARK  status: ('A' for Active; 'I' for Inactive)
REMARK    1  A    between atoms: C3_3  and  C4_4 
REMARK       I    between atoms: C4_4  and  N1_6 
REMARK    2  A    between atoms: N1_6  and  C5_8 
REMARK    3  A    between atoms: C11_15  and  S1_16 
REMARK    4  A    between atoms: S1_16  and  C12_17 
REMARK    5  A    between atoms: C12_17  and  C13_18 
REMARK       I    between atoms: C13_18  and  N3_20 
REMARK    6  A    between atoms: N4_23  and  C16_24 
REMARK    7  A    between atoms: C16_24  and  C17_26 
ROOT
HETATM    1  S1  UNL     1       0.625  -2.096   1.434  1.00  0.00    -0.102 SA
ENDROOT
BRANCH   1   2
HETATM    2  C11 UNL     1       2.295  -1.520   1.124  1.00  0.00     0.079 A 
HETATM    3  C2  UNL     1       2.766  -0.990  -0.052  1.00  0.00    -0.011 A 
HETATM    4  C1  UNL     1       1.976  -0.817  -1.301  1.00  0.00     0.052 C 
HETATM    5  C3  UNL     1       4.122  -0.639   0.105  1.00  0.00     0.062 A 
HETATM    6  C8  UNL     1       4.433  -0.978   1.395  1.00  0.00     0.024 A 
HETATM    7  C9  UNL     1       5.767  -0.809   2.037  1.00  0.00     0.069 C 
HETATM    8  N2  UNL     1       3.325  -1.494   1.959  1.00  0.00    -0.348 N 
HETATM    9  C10 UNL     1       3.253  -1.970   3.328  1.00  0.00     0.156 C 
BRANCH   5  10
HETATM   10  C4  UNL     1       4.884  -0.064  -0.971  1.00  0.00     0.254 C 
HETATM   11  O1  UNL     1       4.377   0.006  -2.130  1.00  0.00    -0.268 OA
HETATM   12  N1  UNL     1       6.184   0.444  -0.834  1.00  0.00    -0.352 N 
ATOM     13  H1  UNL     1       6.638   0.416   0.079  1.00  0.00     0.163 HD
BRANCH  12  14
HETATM   14  C5  UNL     1       6.906   1.017  -1.983  1.00  0.00     0.084 A 
HETATM   15  C6  UNL     1       8.368   1.050  -1.973  1.00  0.00     0.027 A 
HETATM   16  C7  UNL     1       7.611   2.314  -1.777  1.00  0.00     0.027 A 
ENDBRANCH  12  14
ENDBRANCH   5  10
ENDBRANCH   1   2
BRANCH   1  17
HETATM   17  C12 UNL     1      -0.418  -0.782   2.086  1.00  0.00     0.183 C 
BRANCH  17  18
HETATM   18  C13 UNL     1      -0.611   0.294   1.095  1.00  0.00     0.229 C 
HETATM   19  O2  UNL     1       0.211   1.250   1.120  1.00  0.00    -0.273 OA
HETATM   20  N3  UNL     1      -1.647   0.320   0.131  1.00  0.00    -0.345 N 
HETATM   21  C14 UNL     1      -2.574  -0.817   0.153  1.00  0.00     0.170 C 
HETATM   22  C22 UNL     1      -1.740   1.413  -0.783  1.00  0.00     0.146 C 
HETATM   23  C15 UNL     1      -3.472  -0.626  -1.058  1.00  0.00     0.081 C 
HETATM   24  N4  UNL     1      -4.064   0.642  -0.971  1.00  0.00    -0.360 N 
HETATM   25  C21 UNL     1      -3.145   1.729  -1.219  1.00  0.00     0.145 C 
BRANCH  24  26
HETATM   26  C16 UNL     1      -5.096   0.922  -0.076  1.00  0.00     0.278 C 
HETATM   27  F1  UNL     1      -5.390   2.304  -0.118  1.00  0.00    -0.226 F 
BRANCH  26  28
HETATM   28  C17 UNL     1      -6.410   0.231  -0.223  1.00  0.00    -0.002 C 
HETATM   29  C18 UNL     1      -7.366   0.748   0.882  1.00  0.00     0.019 C 
HETATM   30  C19 UNL     1      -7.099   0.557  -1.537  1.00  0.00     0.019 C 
HETATM   31  C20 UNL     1      -6.385  -1.262  -0.019  1.00  0.00     0.019 C 
ENDBRANCH  26  28
ENDBRANCH  24  26
ENDBRANCH  17  18
ENDBRANCH   1  17
TORSDOF 7
