REMARK  9 active torsions:
REMARK  status: ('A' for Active; 'I' for Inactive)
REMARK    1  A    between atoms: C2_2  and  C3_3 
REMARK    2  A    between atoms: C3_3  and  C4_4 
REMARK    3  A    between atoms: C3_3  and  N3_20 
REMARK    4  A    between atoms: C4_4  and  N1_5 
REMARK    5  A    between atoms: C6_8  and  N2_9 
REMARK    6  A    between atoms: C6_8  and  C7_13 
REMARK    7  A    between atoms: C7_13  and  C8_14 
REMARK    8  A    between atoms: C18_25  and  C19_26 
REMARK    9  A    between atoms: C23_32  and  C24_33 
ROOT
HETATM    1  C3  UNL     1      -0.824   0.981   0.356  1.00  0.00     0.118 C 
ENDROOT
BRANCH   1   2
HETATM    2  C2  UNL     1      -1.582   1.184   1.701  1.00  0.00     0.026 C 
HETATM    3  C1  UNL     1      -0.742   2.119   2.593  1.00  0.00     0.007 C 
ENDBRANCH   1   2
BRANCH   1   4
HETATM    4  C4  UNL     1       0.456   0.385   0.743  1.00  0.00     0.092 C 
BRANCH   4   5
HETATM    5  N1  UNL     1       1.507   0.056  -0.120  1.00  0.00    -0.323 N 
HETATM    6  C5  UNL     1       2.610   0.891  -0.580  1.00  0.00     0.260 C 
HETATM    7  O1  UNL     1       2.447   2.101  -0.828  1.00  0.00    -0.270 OA
HETATM    8  C6  UNL     1       3.851   0.071  -0.681  1.00  0.00     0.205 C 
HETATM    9  C11 UNL     1       3.340  -1.283  -0.256  1.00  0.00     0.074 C 
HETATM   10  C12 UNL     1       1.862  -1.216  -0.720  1.00  0.00     0.090 C 
HETATM   11  C13 UNL     1       1.878  -1.095  -2.216  1.00  0.00     0.033 C 
BRANCH   8  12
HETATM   12  N2  UNL     1       4.455   0.103  -1.974  1.00  0.00    -0.061 N 
ATOM     13  H23 UNL     1       3.784  -0.170  -2.692  1.00  0.00     0.275 HD
ATOM     14  H22 UNL     1       4.634   1.064  -2.264  1.00  0.00     0.275 HD
ATOM     15  H21 UNL     1       5.304  -0.458  -2.043  1.00  0.00     0.275 HD
ENDBRANCH   8  12
BRANCH   8  16
HETATM   16  C7  UNL     1       4.792   0.591   0.391  1.00  0.00     0.052 C 
BRANCH  16  17
HETATM   17  C8  UNL     1       6.117  -0.045   0.466  1.00  0.00    -0.020 C 
HETATM   18  C9  UNL     1       6.179  -1.514   0.744  1.00  0.00     0.009 C 
HETATM   19  C10 UNL     1       6.857   0.616   1.644  1.00  0.00     0.009 C 
ENDBRANCH  16  17
ENDBRANCH   8  16
ENDBRANCH   4   5
ENDBRANCH   1   4
BRANCH   1  20
HETATM   20  N3  UNL     1      -1.688   0.319  -0.531  1.00  0.00    -0.395 N 
HETATM   21  C14 UNL     1      -1.551   0.656  -1.904  1.00  0.00     0.118 C 
HETATM   22  C15 UNL     1      -1.950  -0.466  -2.835  1.00  0.00     0.020 C 
HETATM   23  C16 UNL     1      -2.036  -1.791  -2.112  1.00  0.00     0.004 C 
HETATM   24  C17 UNL     1      -2.971  -1.730  -0.940  1.00  0.00     0.030 C 
HETATM   25  C18 UNL     1      -2.745  -0.458  -0.104  1.00  0.00     0.113 C 
BRANCH  25  26
HETATM   26  C19 UNL     1      -4.098   0.134   0.053  1.00  0.00    -0.032 A 
HETATM   27  C20 UNL     1      -4.687   1.010  -0.836  1.00  0.00     0.054 A 
HETATM   28  C21 UNL     1      -5.985   1.503  -0.673  1.00  0.00     0.156 A 
HETATM   29  F1  UNL     1      -6.509   2.375  -1.592  1.00  0.00    -0.203 F 
HETATM   30  C22 UNL     1      -6.738   1.135   0.392  1.00  0.00     0.169 A 
HETATM   31  F2  UNL     1      -8.016   1.609   0.582  1.00  0.00    -0.202 F 
HETATM   32  C23 UNL     1      -6.189   0.262   1.305  1.00  0.00     0.090 A 
HETATM   33  C25 UNL     1      -4.918  -0.218   1.140  1.00  0.00     0.028 A 
BRANCH  32  34
HETATM   34  C24 UNL     1      -7.062  -0.146   2.459  1.00  0.00     0.420 C 
HETATM   35  F3  UNL     1      -8.145  -0.771   1.883  1.00  0.00    -0.166 F 
HETATM   36  F4  UNL     1      -6.409  -0.863   3.408  1.00  0.00    -0.166 F 
HETATM   37  F5  UNL     1      -7.573   1.055   2.985  1.00  0.00    -0.166 F 
ENDBRANCH  32  34
ENDBRANCH  25  26
ENDBRANCH   1  20
TORSDOF 9
