REMARK  2 active torsions:
REMARK  status: ('A' for Active; 'I' for Inactive)
REMARK    1  A    between atoms: C3_6  and  C4_7 
REMARK    2  A    between atoms: C3_6  and  C10_13 
ROOT
HETATM    1  C1  UNL     1       4.296  -0.467   1.150  1.00  0.00     0.124 C 
HETATM    2  N1  UNL     1       3.096  -0.640   0.681  1.00  0.00    -0.340 N 
HETATM    3  C2  UNL     1       1.654  -0.962   0.984  1.00  0.00     0.220 C 
HETATM    4  N2  UNL     1       1.255   0.221   0.478  1.00  0.00    -0.380 N 
ATOM      5  H2  UNL     1       2.000   0.857   0.194  1.00  0.00     0.157 HD
HETATM    6  C3  UNL     1       0.013   0.665   0.302  1.00  0.00     0.098 C 
HETATM    7  C18 UNL     1       0.093  -0.405  -0.977  1.00  0.00     0.109 C 
HETATM    8  C19 UNL     1       1.570  -0.446  -1.449  1.00  0.00    -0.018 A 
HETATM    9  C20 UNL     1       1.533  -0.438  -2.893  1.00  0.00     0.010 A 
HETATM   10  C21 UNL     1       2.699  -0.468  -3.571  1.00  0.00     0.001 A 
HETATM   11  C22 UNL     1       3.953  -0.506  -2.980  1.00  0.00     0.002 A 
HETATM   12  C23 UNL     1       4.044  -0.516  -1.576  1.00  0.00     0.030 A 
HETATM   13  C24 UNL     1       2.875  -0.487  -0.919  1.00  0.00     0.042 A 
HETATM   14  C25 UNL     1      -0.199  -1.681  -0.171  1.00  0.00     0.031 A 
HETATM   15  N4  UNL     1      -1.173  -2.511  -0.398  1.00  0.00    -0.368 N 
ATOM     16  H4  UNL     1      -1.920  -2.212  -1.024  1.00  0.00     0.165 HD
HETATM   17  C26 UNL     1      -1.257  -3.743   0.143  1.00  0.00     0.088 A 
HETATM   18  C27 UNL     1      -0.284  -4.211   0.995  1.00  0.00     0.018 A 
HETATM   19  C28 UNL     1       0.774  -3.388   1.284  1.00  0.00     0.014 A 
HETATM   20  C29 UNL     1       0.884  -2.096   0.737  1.00  0.00     0.007 A 
ENDROOT
BRANCH   6  21
HETATM   21  C4  UNL     1      -0.104   2.039  -0.117  1.00  0.00    -0.025 A 
HETATM   22  C5  UNL     1       0.595   2.613  -1.130  1.00  0.00     0.010 A 
HETATM   23  C6  UNL     1       0.423   3.965  -1.456  1.00  0.00     0.001 A 
HETATM   24  C7  UNL     1      -0.459   4.759  -0.761  1.00  0.00     0.000 A 
HETATM   25  C8  UNL     1      -1.174   4.193   0.270  1.00  0.00     0.001 A 
HETATM   26  C9  UNL     1      -1.001   2.879   0.581  1.00  0.00     0.010 A 
ENDBRANCH   6  21
BRANCH   6  27
HETATM   27  C10 UNL     1      -1.051   0.201   1.167  1.00  0.00     0.003 A 
HETATM   28  C11 UNL     1      -0.972  -0.229   2.502  1.00  0.00     0.099 A 
HETATM   29  N3  UNL     1      -2.167  -0.528   3.000  1.00  0.00    -0.365 N 
HETATM   30  C12 UNL     1      -3.073  -0.306   2.016  1.00  0.00     0.043 A 
ATOM     31  H3  UNL     1      -2.365  -0.861   3.943  1.00  0.00     0.165 HD
HETATM   32  C13 UNL     1      -4.459  -0.445   2.015  1.00  0.00     0.030 A 
HETATM   33  C17 UNL     1      -2.435   0.137   0.891  1.00  0.00     0.001 A 
HETATM   34  C14 UNL     1      -5.161  -0.133   0.885  1.00  0.00     0.002 A 
HETATM   35  C15 UNL     1      -4.502   0.317  -0.252  1.00  0.00     0.001 A 
HETATM   36  C16 UNL     1      -3.151   0.452  -0.251  1.00  0.00     0.014 A 
ENDBRANCH   6  27
TORSDOF 2
