REMARK  5 active torsions:
REMARK  status: ('A' for Active; 'I' for Inactive)
REMARK    1  A    between atoms: N1_1  and  C1_4 
REMARK    2  A    between atoms: C2_10  and  S1_11 
REMARK    3  A    between atoms: S1_11  and  C3_14 
REMARK    4  A    between atoms: C4_19  and  N6_20 
REMARK    5  A    between atoms: C5_23  and  N7_24 
REMARK       I    between atoms: N7_24  and  C6_26 
ROOT
HETATM    1  C3  UNL     1       0.047   0.375  -0.273  1.00  0.00     0.181 A 
HETATM    2  N4  UNL     1       0.369   1.228  -1.254  1.00  0.00    -0.286 N 
ATOM      3  H4  UNL     1       1.285   1.297  -1.698  1.00  0.00     0.188 HD
HETATM    4  N5  UNL     1      -0.687   1.969  -1.558  1.00  0.00    -0.278 N 
ATOM      5  H5  UNL     1      -0.699   2.694  -2.275  1.00  0.00     0.189 HD
HETATM    6  C4  UNL     1      -1.739   1.634  -0.792  1.00  0.00     0.218 A 
HETATM    7  C5  UNL     1      -1.276   0.607   0.039  1.00  0.00     0.128 A 
ENDROOT
BRANCH   1   8
HETATM    8  S1  UNL     1       1.055  -0.798   0.492  1.00  0.00     0.246 S 
HETATM    9  O2  UNL     1       1.083  -0.584   1.999  1.00  0.00    -0.214 OA
HETATM   10  O3  UNL     1       0.414  -2.167   0.316  1.00  0.00    -0.214 OA
BRANCH   8  11
HETATM   11  C2  UNL     1       2.659  -0.782  -0.172  1.00  0.00     0.203 A 
HETATM   12  C1  UNL     1       3.723  -0.030   0.253  1.00  0.00     0.162 A 
HETATM   13  N2  UNL     1       4.780  -0.319  -0.534  1.00  0.00    -0.223 N 
HETATM   14  O1  UNL     1       4.378  -1.201  -1.393  1.00  0.00    -0.154 OA
ATOM     15  H2  UNL     1       5.716   0.080  -0.466  1.00  0.00     0.198 HD
HETATM   16  N3  UNL     1       3.109  -1.502  -1.204  1.00  0.00    -0.227 N 
ATOM     17  H3  UNL     1       2.565  -2.169  -1.751  1.00  0.00     0.197 HD
BRANCH  12  18
HETATM   18  N1  UNL     1       3.779   0.824   1.227  1.00  0.00    -0.382 N 
ATOM     19  H12 UNL     1       4.571   1.384   1.543  1.00  0.00     0.157 HD
ATOM     20  H11 UNL     1       2.980   1.042   1.822  1.00  0.00     0.157 HD
ENDBRANCH  12  18
ENDBRANCH   8  11
ENDBRANCH   1   8
BRANCH   7  21
HETATM   21  N7  UNL     1      -2.074  -0.054   1.019  1.00  0.00    -0.305 N 
HETATM   22  C6  UNL     1      -2.828  -1.190   0.675  1.00  0.00     0.333 C 
HETATM   23  N8  UNL     1      -3.633  -1.884   1.604  1.00  0.00    -0.040 NA
HETATM   24  O6  UNL     1      -2.817  -1.652  -0.514  1.00  0.00    -0.251 OA
ATOM     25  H7  UNL     1      -2.098   0.300   1.975  1.00  0.00     0.170 HD
ENDBRANCH   7  21
BRANCH   6  26
HETATM   26  N6  UNL     1      -3.054   2.154  -0.764  1.00  0.00    -0.094 N 
HETATM   27  O4  UNL     1      -4.052   1.500  -0.481  1.00  0.00    -0.530 OA
HETATM   28  O5  UNL     1      -3.260   3.499  -1.074  1.00  0.00    -0.530 OA
ENDBRANCH   6  26
TORSDOF 5
