REMARK  7 active torsions:
REMARK  status: ('A' for Active; 'I' for Inactive)
REMARK    1  A    between atoms: O1_2  and  N1_3 
REMARK       I    between atoms: N1_3  and  C2_4 
REMARK    2  A    between atoms: N1_3  and  C4_14 
REMARK       I    between atoms: C2_4  and  N3_8 
REMARK    3  A    between atoms: N3_8  and  O2_10 
REMARK    4  A    between atoms: O2_10  and  C3_11 
REMARK    5  A    between atoms: C5_17  and  N6_18 
REMARK    6  A    between atoms: C8_22  and  N7_23 
REMARK    7  A    between atoms: N7_23  and  N8_25 
ROOT
HETATM    1  C4  UNL     1      -0.579  -0.930  -0.618  1.00  0.00     0.728 A 
HETATM    2  N5  UNL     1      -1.090   0.196  -0.135  1.00  0.00    -0.167 N 
ATOM      3  H5  UNL     1      -0.471   1.007  -0.136  1.00  0.00     0.186 HD
HETATM    4  C5  UNL     1      -2.309   0.393   0.349  1.00  0.00     0.164 A 
HETATM    5  S1  UNL     1      -3.288  -1.026   0.312  1.00  0.00    -0.015 SA
HETATM    6  C8  UNL     1      -2.456  -2.373  -0.344  1.00  0.00     0.181 A 
HETATM    7  N9  UNL     1      -1.200  -2.094  -0.712  1.00  0.00    -0.166 N 
ATOM      8  H9  UNL     1      -0.662  -2.864  -1.109  1.00  0.00     0.186 HD
ENDROOT
BRANCH   1   9
HETATM    9  N1  UNL     1       0.788  -0.849  -1.079  1.00  0.00     0.130 N 
HETATM   10  C2  UNL     1       1.550   0.331  -1.031  1.00  0.00     0.738 C 
HETATM   11  N2  UNL     1       1.162   1.366  -1.692  1.00  0.00    -0.230 N 
HETATM   12  N3  UNL     1       2.750   0.449  -0.278  1.00  0.00    -0.084 N 
ATOM     13  H22 UNL     1       0.301   1.281  -2.232  1.00  0.00     0.174 HD
ATOM     14  H21 UNL     1       1.715   2.222  -1.657  1.00  0.00     0.174 HD
ATOM     15  H3  UNL     1       3.318  -0.387  -0.139  1.00  0.00     0.214 HD
BRANCH   9  16
HETATM   16  O1  UNL     1       1.400  -1.952  -1.592  1.00  0.00    -0.251 OA
HETATM   17  C1  UNL     1       1.852  -2.712  -0.514  1.00  0.00     0.239 C 
ENDBRANCH   9  16
BRANCH  12  18
HETATM   18  O2  UNL     1       3.178   1.612   0.263  1.00  0.00    -0.169 OA
BRANCH  18  19
HETATM   19  C3  UNL     1       4.538   1.819   0.449  1.00  0.00     0.395 C 
HETATM   20  N4  UNL     1       5.051   3.020   1.013  1.00  0.00    -0.031 NA
HETATM   21  O3  UNL     1       5.381   0.932   0.117  1.00  0.00    -0.240 OA
ENDBRANCH  18  19
ENDBRANCH  12  18
ENDBRANCH   1   9
BRANCH   4  22
HETATM   22  N6  UNL     1      -2.791   1.621   0.849  1.00  0.00    -0.370 N 
HETATM   23  C6  UNL     1      -3.438   2.550  -0.034  1.00  0.00     0.151 C 
HETATM   24  C7  UNL     1      -2.633   1.938   2.241  1.00  0.00     0.151 C 
ENDBRANCH   4  22
BRANCH   6  25
HETATM   25  N7  UNL     1      -2.994  -3.553  -0.471  1.00  0.00    -0.286 N 
ATOM     26  H7  UNL     1      -3.954  -3.740  -0.182  1.00  0.00     0.188 HD
BRANCH  25  27
HETATM   27  N8  UNL     1      -2.191  -4.542  -1.021  1.00  0.00    -0.343 N 
ATOM     28  H82 UNL     1      -1.233  -4.340  -1.306  1.00  0.00     0.176 HD
ATOM     29  H81 UNL     1      -2.612  -5.466  -1.120  1.00  0.00     0.176 HD
ENDBRANCH  25  27
ENDBRANCH   6  25
TORSDOF 7
