REMARK  11 active torsions:
REMARK  status: ('A' for Active; 'I' for Inactive)
REMARK    1  A    between atoms: N1_1  and  C1_4 
REMARK    2  A    between atoms: C3_8  and  C4_9 
REMARK    3  A    between atoms: C5_14  and  N5_15 
REMARK    4  A    between atoms: N5_15  and  C6_17 
REMARK    5  A    between atoms: C9_25  and  N8_26 
REMARK    6  A    between atoms: C11_28  and  N9_29 
REMARK    7  A    between atoms: C12_33  and  C13_34 
REMARK    8  A    between atoms: C13_34  and  O3_35 
REMARK    9  A    between atoms: C13_34  and  C14_37 
REMARK   10  A    between atoms: C14_37  and  O4_38 
REMARK   11  A    between atoms: C14_37  and  C15_40 
ROOT
HETATM    1  C6  UNL     1       3.458  -0.572   0.520  1.00  0.00     0.688 A 
HETATM    2  N6  UNL     1       3.123  -0.443  -0.763  1.00  0.00    -0.154 N 
ATOM      3  H6  UNL     1       3.851  -0.363  -1.473  1.00  0.00     0.187 HD
HETATM    4  C7  UNL     1       1.806  -0.418  -1.130  1.00  0.00     0.290 A 
HETATM    5  O2  UNL     1       1.535  -0.297  -2.350  1.00  0.00    -0.265 OA
HETATM    6  C8  UNL     1       0.786  -0.524  -0.196  1.00  0.00     0.148 A 
HETATM    7  N7  UNL     1      -0.527  -0.490  -0.568  1.00  0.00    -0.333 N 
ATOM      8  H7  UNL     1      -0.780  -0.391  -1.551  1.00  0.00     0.168 HD
HETATM    9  C9  UNL     1      -1.492  -0.589   0.380  1.00  0.00     0.135 A 
HETATM   10  C16 UNL     1      -1.108  -0.722   1.693  1.00  0.00     0.139 A 
HETATM   11  N11 UNL     1       0.185  -0.754   2.052  1.00  0.00    -0.346 N 
ATOM     12  H11 UNL     1       0.433  -0.853   3.036  1.00  0.00     0.167 HD
HETATM   13  C17 UNL     1       1.161  -0.656   1.125  1.00  0.00     0.153 A 
HETATM   14  N12 UNL     1       2.451  -0.679   1.462  1.00  0.00    -0.174 N 
ATOM     15  H12 UNL     1       2.703  -0.779   2.445  1.00  0.00     0.186 HD
ENDROOT
BRANCH   9  16
HETATM   16  N8  UNL     1      -2.886  -0.553   0.018  1.00  0.00    -0.277 N 
HETATM   17  C10 UNL     1      -3.424  -0.428  -1.318  1.00  0.00     0.181 C 
HETATM   18  C11 UNL     1      -4.908  -0.242  -1.114  1.00  0.00     0.226 C 
HETATM   19  C12 UNL     1      -5.134  -0.198   0.362  1.00  0.00     0.163 C 
HETATM   20  N10 UNL     1      -3.909  -0.638   0.950  1.00  0.00    -0.127 NA
BRANCH  18  21
HETATM   21  N9  UNL     1      -5.604  -1.365  -1.668  1.00  0.00    -0.072 N 
ATOM     22  H93 UNL     1      -5.365  -1.525  -2.647  1.00  0.00     0.274 HD
ATOM     23  H92 UNL     1      -5.270  -2.252  -1.291  1.00  0.00     0.274 HD
ATOM     24  H91 UNL     1      -6.607  -1.239  -1.530  1.00  0.00     0.274 HD
ENDBRANCH  18  21
BRANCH  19  25
HETATM   25  C13 UNL     1      -5.459   1.187   0.871  1.00  0.00     0.180 C 
BRANCH  25  26
HETATM   26  O3  UNL     1      -4.511   2.115   0.532  1.00  0.00    -0.391 OA
ATOM     27  H3  UNL     1      -4.715   2.986   0.852  1.00  0.00     0.210 HD
ENDBRANCH  25  26
BRANCH  25  28
HETATM   28  C14 UNL     1      -6.869   1.629   0.570  1.00  0.00     0.249 C 
BRANCH  28  29
HETATM   29  O4  UNL     1      -7.079   1.902  -0.780  1.00  0.00    -0.382 OA
ATOM     30  H4  UNL     1      -7.967   2.180  -0.970  1.00  0.00     0.210 HD
ENDBRANCH  28  29
BRANCH  28  31
HETATM   31  C15 UNL     1      -7.842   0.644   1.085  1.00  0.00     0.205 C 
HETATM   32  O5  UNL     1      -8.646   0.112   0.299  1.00  0.00    -0.646 OA
HETATM   33  O6  UNL     1      -7.852   0.332   2.429  1.00  0.00    -0.646 OA
ENDBRANCH  28  31
ENDBRANCH  25  28
ENDBRANCH  19  25
ENDBRANCH   9  16
BRANCH   1  34
HETATM   34  N5  UNL     1       4.658  -0.601   0.927  1.00  0.00    -0.172 N 
ATOM     35  H5  UNL     1       4.771  -0.701   1.936  1.00  0.00     0.186 HD
BRANCH  34  36
HETATM   36  C5  UNL     1       5.856  -0.516   0.198  1.00  0.00     0.165 A 
HETATM   37  C1  UNL     1       6.257  -1.547  -0.612  1.00  0.00     0.144 A 
HETATM   38  N2  UNL     1       7.431  -1.403  -1.264  1.00  0.00    -0.347 N 
HETATM   39  C2  UNL     1       8.197  -0.316  -1.151  1.00  0.00     0.124 A 
ATOM     40  H2  UNL     1       7.747  -2.160  -1.871  1.00  0.00     0.167 HD
HETATM   41  C3  UNL     1       7.802   0.755  -0.324  1.00  0.00     0.115 A 
HETATM   42  N4  UNL     1       6.643   0.601   0.314  1.00  0.00    -0.334 N 
ATOM     43  H4  UNL     1       6.323   1.355   0.922  1.00  0.00     0.168 HD
BRANCH  37  44
HETATM   44  N1  UNL     1       5.559  -2.653  -0.755  1.00  0.00    -0.382 N 
ATOM     45  H12 UNL     1       5.857  -3.420  -1.358  1.00  0.00     0.157 HD
ATOM     46  H11 UNL     1       4.672  -2.762  -0.263  1.00  0.00     0.157 HD
ENDBRANCH  37  44
BRANCH  41  47
HETATM   47  C4  UNL     1       8.647   1.929  -0.189  1.00  0.00     0.282 C 
HETATM   48  N3  UNL     1       9.879   1.971  -0.895  1.00  0.00    -0.056 NA
HETATM   49  O1  UNL     1       8.342   2.906   0.521  1.00  0.00    -0.269 OA
ENDBRANCH  41  47
ENDBRANCH  34  36
ENDBRANCH   1  34
TORSDOF 11
