REMARK  16 active torsions:
REMARK  status: ('A' for Active; 'I' for Inactive)
REMARK    1  A    between atoms: O1_2  and  C2_3 
REMARK    2  A    between atoms: C2_3  and  C3_5 
REMARK    3  A    between atoms: C3_5  and  N1_6 
REMARK    4  A    between atoms: C3_5  and  C6_16 
REMARK       I    between atoms: N1_6  and  C4_8 
REMARK    5  A    between atoms: C4_8  and  C5_10 
REMARK    6  A    between atoms: C5_10  and  N2_11 
REMARK    7  A    between atoms: N2_11  and  N3_13 
REMARK    8  A    between atoms: C6_16  and  N4_17 
REMARK    9  A    between atoms: C6_16  and  O4_21 
REMARK   10  A    between atoms: O4_21  and  C7_22 
REMARK   11  A    between atoms: C10_27  and  N6_28 
REMARK   12  A    between atoms: N10_46  and  O7_47 
REMARK   13  A    between atoms: O7_47  and  S3_48 
REMARK   14  A    between atoms: S3_48  and  O10_51 
REMARK   15  A    between atoms: O10_51  and  C16_52 
REMARK   16  A    between atoms: C16_52  and  C17_53 
ROOT
HETATM    1  C7  UNL     1      -1.368  -1.430  -0.777  1.00  0.00     0.199 C 
HETATM    2  C8  UNL     1      -1.734  -1.279  -2.209  1.00  0.00     0.076 A 
HETATM    3  C9  UNL     1      -1.247  -0.311  -3.062  1.00  0.00     0.111 A 
HETATM    4  N5  UNL     1      -1.646  -0.269  -4.368  1.00  0.00    -0.184 N 
ATOM      5  H5  UNL     1      -1.267   0.459  -4.973  1.00  0.00     0.185 HD
HETATM    6  C10 UNL     1      -2.507  -1.138  -4.879  1.00  0.00     0.679 A 
HETATM    7  N7  UNL     1      -2.993  -2.088  -4.067  1.00  0.00    -0.156 N 
ATOM      8  H7  UNL     1      -3.656  -2.763  -4.447  1.00  0.00     0.187 HD
HETATM    9  C11 UNL     1      -2.646  -2.187  -2.783  1.00  0.00     0.271 A 
HETATM   10  O5  UNL     1      -3.129  -3.094  -2.064  1.00  0.00    -0.267 OA
HETATM   11  S1  UNL     1      -0.091   0.963  -2.581  1.00  0.00    -0.038 SA
HETATM   12  S2  UNL     1       1.736   0.637  -3.627  1.00  0.00    -0.083 SA
HETATM   13  C12 UNL     1       2.925  -0.240  -2.498  1.00  0.00     0.166 C 
HETATM   14  C13 UNL     1       2.106  -1.053  -1.557  1.00  0.00     0.139 C 
HETATM   15  N8  UNL     1       1.311  -1.740  -2.371  1.00  0.00    -0.290 N 
ATOM     16  H8  UNL     1       1.428  -1.578  -3.371  1.00  0.00     0.188 HD
HETATM   17  N9  UNL     1       0.373  -2.623  -2.009  1.00  0.00    -0.318 N 
ATOM     18  H9  UNL     1       0.108  -3.398  -2.616  1.00  0.00     0.181 HD
HETATM   19  C14 UNL     1      -0.264  -2.423  -0.684  1.00  0.00     0.227 C 
HETATM   20  C15 UNL     1       0.876  -2.133   0.195  1.00  0.00     0.277 C 
HETATM   21  O6  UNL     1       0.958  -2.678   1.304  1.00  0.00    -0.268 OA
HETATM   22  N10 UNL     1       1.960  -1.198  -0.199  1.00  0.00    -0.153 N 
ENDROOT
BRANCH   1  23
HETATM   23  O4  UNL     1      -1.279  -0.283  -0.043  1.00  0.00    -0.344 OA
BRANCH  23  24
HETATM   24  C6  UNL     1      -2.186  -0.180   1.001  1.00  0.00     0.352 C 
BRANCH  24  25
HETATM   25  C3  UNL     1      -2.920   1.091   1.187  1.00  0.00     0.241 C 
BRANCH  25  26
HETATM   26  C2  UNL     1      -3.776   1.559   0.086  1.00  0.00     0.285 C 
HETATM   27  O2  UNL     1      -5.019   1.780   0.332  1.00  0.00    -0.263 OA
BRANCH  26  28
HETATM   28  O1  UNL     1      -3.385   1.795  -1.209  1.00  0.00    -0.325 OA
HETATM   29  C1  UNL     1      -4.300   2.247  -2.183  1.00  0.00     0.213 C 
ENDBRANCH  26  28
ENDBRANCH  25  26
BRANCH  25  30
HETATM   30  N1  UNL     1      -3.784   1.042   2.365  1.00  0.00    -0.339 N 
HETATM   31  C4  UNL     1      -4.829   0.113   2.515  1.00  0.00     0.259 C 
HETATM   32  O3  UNL     1      -5.091  -0.740   1.638  1.00  0.00    -0.267 OA
ATOM     33  H1  UNL     1      -3.621   1.714   3.115  1.00  0.00     0.163 HD
BRANCH  31  34
HETATM   34  C5  UNL     1      -5.679   0.095   3.723  1.00  0.00     0.180 C 
BRANCH  34  35
HETATM   35  N2  UNL     1      -6.634  -0.745   3.875  1.00  0.00    -0.313 N 
ATOM     36  H2  UNL     1      -6.810  -1.423   3.133  1.00  0.00     0.185 HD
BRANCH  35  37
HETATM   37  N3  UNL     1      -7.444  -0.774   5.009  1.00  0.00    -0.345 N 
ATOM     38  H32 UNL     1      -7.254  -0.089   5.741  1.00  0.00     0.176 HD
ATOM     39  H31 UNL     1      -8.204  -1.443   5.130  1.00  0.00     0.176 HD
ENDBRANCH  35  37
ENDBRANCH  34  35
ENDBRANCH  31  34
ENDBRANCH  25  30
ENDBRANCH  24  25
BRANCH  24  40
HETATM   40  N4  UNL     1      -1.467  -0.377   2.300  1.00  0.00    -0.050 N 
ATOM     41  H43 UNL     1      -0.880   0.409   2.578  1.00  0.00     0.277 HD
ATOM     42  H42 UNL     1      -2.072  -0.358   3.121  1.00  0.00     0.277 HD
ATOM     43  H41 UNL     1      -0.961  -1.253   2.172  1.00  0.00     0.277 HD
ENDBRANCH  24  40
ENDBRANCH  23  24
ENDBRANCH   1  23
BRANCH  22  44
HETATM   44  O7  UNL     1       2.593  -0.748   0.910  1.00  0.00    -0.117 OA
BRANCH  44  45
HETATM   45  S3  UNL     1       2.584   0.829   1.275  1.00  0.00     0.423 S 
HETATM   46  O8  UNL     1       1.838   1.739   0.383  1.00  0.00    -0.167 OA
HETATM   47  O9  UNL     1       2.077   1.047   2.689  1.00  0.00    -0.167 OA
BRANCH  45  48
HETATM   48  O10 UNL     1       4.191   1.401   1.308  1.00  0.00    -0.248 OA
BRANCH  48  49
HETATM   49  C16 UNL     1       5.043   0.341   1.625  1.00  0.00     0.231 C 
BRANCH  49  50
HETATM   50  C17 UNL     1       6.429   0.853   1.660  1.00  0.00    -0.033 A 
HETATM   51  C18 UNL     1       7.189   0.865   0.522  1.00  0.00     0.009 A 
HETATM   52  C19 UNL     1       8.487   1.345   0.574  1.00  0.00     0.001 A 
HETATM   53  C20 UNL     1       9.013   1.802   1.743  1.00  0.00     0.000 A 
HETATM   54  C21 UNL     1       8.262   1.795   2.893  1.00  0.00     0.001 A 
HETATM   55  C22 UNL     1       6.968   1.317   2.840  1.00  0.00     0.009 A 
ENDBRANCH  49  50
ENDBRANCH  48  49
ENDBRANCH  45  48
ENDBRANCH  44  45
ENDBRANCH  22  44
BRANCH   6  56
HETATM   56  N6  UNL     1      -2.842  -1.039  -6.123  1.00  0.00    -0.234 N 
ATOM     57  H62 UNL     1      -2.472  -0.316  -6.741  1.00  0.00     0.174 HD
ATOM     58  H61 UNL     1      -3.504  -1.708  -6.516  1.00  0.00     0.174 HD
ENDBRANCH   6  56
TORSDOF 16
