REMARK  5 active torsions:
REMARK  status: ('A' for Active; 'I' for Inactive)
REMARK    1  A    between atoms: C2_2  and  N1_4 
REMARK    2  A    between atoms: N1_4  and  C4_6 
REMARK    3  A    between atoms: C5_7  and  O1_8 
REMARK    4  A    between atoms: C8_15  and  C9_16 
REMARK    5  A    between atoms: C14_23  and  C15_24 
ROOT
HETATM    1  C4  UNL     1       4.765   0.313   0.249  1.00  0.00     0.219 C 
HETATM    2  C5  UNL     1       4.023   1.566  -0.026  1.00  0.00     0.193 C 
HETATM    3  C6  UNL     1       2.730   0.860   0.228  1.00  0.00     0.214 C 
HETATM    4  C7  UNL     1       1.913   1.391   1.347  1.00  0.00     0.247 C 
HETATM    5  O2  UNL     1       2.631   1.760   2.359  1.00  0.00    -0.271 OA
HETATM    6  N2  UNL     1       0.542   1.543   1.467  1.00  0.00    -0.324 N 
ATOM      7  H2  UNL     1       0.151   0.913   2.167  1.00  0.00     0.169 HD
HETATM    8  C8  UNL     1      -0.452   2.344   0.871  1.00  0.00     0.084 C 
HETATM    9  C12 UNL     1      -1.184   1.743  -0.272  1.00  0.00     0.267 C 
HETATM   10  O3  UNL     1      -1.135   2.444  -1.356  1.00  0.00    -0.266 OA
HETATM   11  N3  UNL     1      -1.907   0.530  -0.306  1.00  0.00    -0.332 N 
HETATM   12  C13 UNL     1      -3.284   0.303  -0.792  1.00  0.00     0.134 C 
HETATM   13  C14 UNL     1      -3.710  -0.928  -0.039  1.00  0.00     0.032 C 
HETATM   14  C19 UNL     1      -2.496  -1.768  -0.160  1.00  0.00     0.120 C 
HETATM   15 CL1  UNL     1      -2.548  -3.046   1.063  1.00  0.00    -0.122 Cl
HETATM   16  C20 UNL     1      -1.383  -0.764   0.128  1.00  0.00     0.198 C 
HETATM   17  C21 UNL     1      -0.259  -1.201  -0.751  1.00  0.00     0.242 C 
HETATM   18  O4  UNL     1      -0.537  -1.190  -2.001  1.00  0.00    -0.271 OA
HETATM   19  N4  UNL     1       1.009  -1.604  -0.359  1.00  0.00    -0.346 N 
ATOM     20  H4  UNL     1       1.681  -1.758  -1.111  1.00  0.00     0.163 HD
HETATM   21  C22 UNL     1       1.493  -1.831   0.972  1.00  0.00     0.172 C 
HETATM   22  C23 UNL     1       1.409  -3.361   1.168  1.00  0.00     0.042 C 
HETATM   23  C24 UNL     1       2.911  -1.472   1.186  1.00  0.00     0.244 C 
HETATM   24  O5  UNL     1       3.657  -2.245   1.904  1.00  0.00    -0.271 OA
HETATM   25  N5  UNL     1       3.487  -0.308   0.634  1.00  0.00    -0.310 N 
ENDROOT
BRANCH   1  26
HETATM   26  N1  UNL     1       5.501  -0.327  -0.785  1.00  0.00    -0.371 N 
ATOM     27  H1  UNL     1       6.509  -0.401  -0.646  1.00  0.00     0.161 HD
BRANCH  26  28
HETATM   28  C2  UNL     1       4.989  -0.875  -1.990  1.00  0.00    -0.007 C 
HETATM   29  C1  UNL     1       4.715  -0.140  -3.041  1.00  0.00     0.037 C 
HETATM   30  C3  UNL     1       4.756  -2.332  -2.062  1.00  0.00     0.067 C 
ENDBRANCH  26  28
ENDBRANCH   1  26
BRANCH   2  31
HETATM   31  O1  UNL     1       4.249   2.575   0.918  1.00  0.00    -0.389 OA
ATOM     32  H1  UNL     1       3.773   3.378   0.742  1.00  0.00     0.210 HD
ENDBRANCH   2  31
BRANCH   8  33
HETATM   33  C9  UNL     1      -0.108   3.782   0.594  1.00  0.00     0.033 C 
HETATM   34  C10 UNL     1       1.024   4.014  -0.358  1.00  0.00     0.016 C 
HETATM   35  C11 UNL     1      -1.298   4.577   0.111  1.00  0.00     0.016 C 
ENDBRANCH   8  33
BRANCH  13  36
HETATM   36  C15 UNL     1      -4.972  -1.496  -0.610  1.00  0.00    -0.045 C 
HETATM   37  C16 UNL     1      -4.892  -1.896  -2.047  1.00  0.00     0.015 C 
HETATM   38  C17 UNL     1      -5.439  -2.686   0.218  1.00  0.00     0.015 C 
HETATM   39  C18 UNL     1      -6.063  -0.449  -0.466  1.00  0.00     0.015 C 
ENDBRANCH  13  36
TORSDOF 5
