REMARK  16 active torsions:
REMARK  status: ('A' for Active; 'I' for Inactive)
REMARK    1  A    between atoms: C2_2  and  O2_4 
REMARK    2  A    between atoms: O2_4  and  C3_5 
REMARK    3  A    between atoms: C3_5  and  O3_6 
REMARK    4  A    between atoms: C4_8  and  O4_9 
REMARK    5  A    between atoms: C5_11  and  C6_12 
REMARK    6  A    between atoms: C9_17  and  O7_18 
REMARK    7  A    between atoms: C10_20  and  O8_21 
REMARK    8  A    between atoms: O8_21  and  C11_22 
REMARK    9  A    between atoms: C13_24  and  C14_25 
REMARK   10  A    between atoms: C14_25  and  C15_26 
REMARK   11  A    between atoms: C16_29  and  O11_30 
REMARK   12  A    between atoms: O11_30  and  S1_31 
REMARK   13  A    between atoms: C17_35  and  O15_36 
REMARK   14  A    between atoms: O15_36  and  S2_37 
REMARK   15  A    between atoms: C18_41  and  O19_42 
REMARK   16  A    between atoms: O19_42  and  S3_43 
ROOT
HETATM    1  C11 UNL     1       0.736  -0.063  -0.247  1.00  0.00     0.108 A 
HETATM    2  C12 UNL     1       1.261  -1.244   0.221  1.00  0.00     0.050 A 
HETATM    3  C13 UNL     1       2.635  -1.416   0.200  1.00  0.00    -0.008 A 
HETATM    4  C16 UNL     1       3.468  -0.432  -0.276  1.00  0.00     0.136 A 
HETATM    5  C17 UNL     1       2.936   0.751  -0.744  1.00  0.00     0.165 A 
HETATM    6  C18 UNL     1       1.587   0.941  -0.733  1.00  0.00     0.163 A 
ENDROOT
BRANCH   1   7
HETATM    7  O8  UNL     1      -0.594   0.222  -0.277  1.00  0.00    -0.334 OA
BRANCH   7   8
HETATM    8  C10 UNL     1      -1.686  -0.557   0.130  1.00  0.00     0.235 C 
HETATM    9  C3  UNL     1      -2.439   0.158   1.245  1.00  0.00     0.251 C 
HETATM   10  C4  UNL     1      -3.329   1.208   0.736  1.00  0.00     0.126 C 
HETATM   11  C5  UNL     1      -4.017   1.058  -0.411  1.00  0.00     0.092 C 
HETATM   12  C8  UNL     1      -3.833  -0.199  -1.121  1.00  0.00     0.197 C 
HETATM   13  O6  UNL     1      -4.806  -0.685  -1.759  1.00  0.00    -0.289 OA
HETATM   14  C9  UNL     1      -2.510  -0.861  -1.067  1.00  0.00     0.228 C 
BRANCH   9  15
HETATM   15  O2  UNL     1      -3.042  -0.850   1.997  1.00  0.00    -0.274 OA
BRANCH  15  16
HETATM   16  C2  UNL     1      -3.717  -0.745   3.173  1.00  0.00     0.257 C 
HETATM   17  C1  UNL     1      -4.292  -1.947   3.824  1.00  0.00     0.126 C 
HETATM   18  O1  UNL     1      -3.825   0.407   3.669  1.00  0.00    -0.266 OA
ENDBRANCH  15  16
ENDBRANCH   9  15
BRANCH   9  19
HETATM   19  O3  UNL     1      -1.471   0.767   2.046  1.00  0.00    -0.358 OA
ATOM     20  H3  UNL     1      -1.060   1.454   1.534  1.00  0.00     0.213 HD
ENDBRANCH   9  19
BRANCH  10  21
HETATM   21  O4  UNL     1      -3.523   2.416   1.391  1.00  0.00    -0.359 OA
ATOM     22  H4  UNL     1      -4.099   3.096   1.062  1.00  0.00     0.217 HD
ENDBRANCH  10  21
BRANCH  11  23
HETATM   23  C6  UNL     1      -4.906   2.092  -0.930  1.00  0.00     0.162 C 
HETATM   24  C7  UNL     1      -5.635   1.879  -2.185  1.00  0.00     0.097 C 
HETATM   25  O5  UNL     1      -5.069   3.186  -0.321  1.00  0.00    -0.293 OA
ENDBRANCH  11  23
BRANCH  14  26
HETATM   26  O7  UNL     1      -2.800  -2.248  -1.120  1.00  0.00    -0.385 OA
ATOM     27  H7  UNL     1      -1.951  -2.673  -1.085  1.00  0.00     0.210 HD
ENDBRANCH  14  26
ENDBRANCH   7   8
ENDBRANCH   1   7
BRANCH   6  28
HETATM   28  O19 UNL     1       1.036   2.125  -1.201  1.00  0.00    -0.208 OA
BRANCH  28  29
HETATM   29  S3  UNL     1       0.586   2.340  -2.826  1.00  0.00     0.257 S 
HETATM   30  O20 UNL     1       1.351   3.489  -3.381  1.00  0.00    -0.572 OA
HETATM   31  O21 UNL     1       0.960   1.111  -3.635  1.00  0.00    -0.572 OA
HETATM   32  O22 UNL     1      -1.053   2.602  -2.995  1.00  0.00    -0.572 OA
ENDBRANCH  28  29
ENDBRANCH   6  28
BRANCH   3  33
HETATM   33  C14 UNL     1       3.171  -2.703   0.716  1.00  0.00     0.154 C 
BRANCH  33  34
HETATM   34  C15 UNL     1       3.753  -2.554   2.056  1.00  0.00     0.177 C 
HETATM   35  O9  UNL     1       3.750  -1.440   2.617  1.00  0.00    -0.648 OA
HETATM   36  O10 UNL     1       4.303  -3.634   2.702  1.00  0.00    -0.648 OA
ENDBRANCH  33  34
ENDBRANCH   3  33
BRANCH   5  37
HETATM   37  O15 UNL     1       3.771   1.756  -1.230  1.00  0.00    -0.208 OA
BRANCH  37  38
HETATM   38  S2  UNL     1       4.395   2.966  -0.203  1.00  0.00     0.257 S 
HETATM   39  O16 UNL     1       5.892   3.048  -0.471  1.00  0.00    -0.572 OA
HETATM   40  O17 UNL     1       3.805   4.305  -0.477  1.00  0.00    -0.572 OA
HETATM   41  O18 UNL     1       4.133   2.493   1.387  1.00  0.00    -0.572 OA
ENDBRANCH  37  38
ENDBRANCH   5  37
BRANCH   4  42
HETATM   42  O11 UNL     1       4.845  -0.590  -0.303  1.00  0.00    -0.210 OA
BRANCH  42  43
HETATM   43  S1  UNL     1       5.675  -1.244  -1.615  1.00  0.00     0.257 S 
HETATM   44  O12 UNL     1       6.657  -0.251  -2.189  1.00  0.00    -0.572 OA
HETATM   45  O13 UNL     1       4.693  -1.553  -2.698  1.00  0.00    -0.572 OA
HETATM   46  O14 UNL     1       6.537  -2.600  -1.178  1.00  0.00    -0.572 OA
ENDBRANCH  42  43
ENDBRANCH   4  42
TORSDOF 16
