REMARK  3 active torsions:
REMARK  status: ('A' for Active; 'I' for Inactive)
REMARK    1  A    between atoms: C4_8  and  N3_9 
REMARK    2  A    between atoms: N3_9  and  N4_11 
REMARK    3  A    between atoms: N5_17  and  N6_18 
ROOT
HETATM    1  N1  UNL     1      -4.782  -0.405   0.725  1.00  0.00    -0.080 NA
HETATM    2  C1  UNL     1      -3.523  -0.168   0.082  1.00  0.00     0.161 A 
HETATM    3  C2  UNL     1      -3.486   0.220  -1.241  1.00  0.00     0.122 A 
HETATM    4  C3  UNL     1      -2.245   0.436  -1.817  1.00  0.00     0.262 A 
HETATM    5  O1  UNL     1      -2.153   0.795  -3.033  1.00  0.00    -0.268 OA
HETATM    6  N2  UNL     1      -1.121   0.269  -1.096  1.00  0.00    -0.153 N 
ATOM      7  H2  UNL     1      -0.216   0.433  -1.537  1.00  0.00     0.187 HD
HETATM    8  C4  UNL     1      -1.164  -0.108   0.188  1.00  0.00     0.721 A 
HETATM    9  N5  UNL     1      -2.357  -0.322   0.762  1.00  0.00    -0.077 N 
ENDROOT
BRANCH   8  10
HETATM   10  N3  UNL     1      -0.106  -0.265   0.865  1.00  0.00    -0.132 N 
ATOM     11  H3  UNL     1      -0.206  -0.553   1.838  1.00  0.00     0.205 HD
BRANCH  10  12
HETATM   12  N4  UNL     1       1.189  -0.073   0.377  1.00  0.00    -0.314 N 
HETATM   13  C5  UNL     1       1.866  -1.213  -0.183  1.00  0.00     0.143 C 
HETATM   14  C6  UNL     1       2.920  -0.692  -1.121  1.00  0.00     0.021 C 
HETATM   15  C7  UNL     1       3.896   0.149  -0.345  1.00  0.00     0.003 C 
HETATM   16  C8  UNL     1       3.263   1.259   0.425  1.00  0.00     0.021 C 
HETATM   17  C9  UNL     1       1.771   1.233   0.459  1.00  0.00     0.143 C 
ENDBRANCH  10  12
ENDBRANCH   8  10
BRANCH   9  18
HETATM   18  N6  UNL     1      -2.474  -0.716   2.094  1.00  0.00    -0.323 N 
ATOM     19  H62 UNL     1      -3.381  -0.879   2.531  1.00  0.00     0.178 HD
ATOM     20  H61 UNL     1      -1.599  -0.832   2.605  1.00  0.00     0.178 HD
ENDBRANCH   9  18
TORSDOF 3
