REMARK  6 active torsions:
REMARK  status: ('A' for Active; 'I' for Inactive)
REMARK    1  A    between atoms: C3_3  and  C4_4 
REMARK    2  A    between atoms: C4_4  and  N1_5 
REMARK    3  A    between atoms: C4_4  and  C5_9 
REMARK    4  A    between atoms: C4_4  and  C18_33 
REMARK    5  A    between atoms: C6_10  and  C7_11 
REMARK    6  A    between atoms: C11_17  and  C12_18 
ROOT
HETATM    1  C1  UNL     1       4.168  -3.936   1.634  1.00  0.00     0.112 C 
HETATM    2  C2  UNL     1       3.845  -2.784   0.765  1.00  0.00    -0.107 C 
HETATM    3  C3  UNL     1       3.588  -1.834   0.074  1.00  0.00    -0.050 C 
ENDROOT
BRANCH   3   4
HETATM    4  C4  UNL     1       3.267  -0.677  -0.751  1.00  0.00     0.275 C 
BRANCH   4   5
HETATM    5  N1  UNL     1       3.910  -0.871  -2.036  1.00  0.00    -0.044 N 
ATOM      6  H13 UNL     1       4.913  -1.039  -1.959  1.00  0.00     0.277 HD
ATOM      7  H12 UNL     1       3.661  -1.756  -2.477  1.00  0.00     0.277 HD
ATOM      8  H11 UNL     1       3.685  -0.061  -2.614  1.00  0.00     0.277 HD
ENDBRANCH   4   5
BRANCH   4   9
HETATM    9  C5  UNL     1       1.797  -0.555  -0.919  1.00  0.00    -0.047 C 
HETATM   10  C6  UNL     1       0.609  -0.454  -1.074  1.00  0.00    -0.075 C 
BRANCH  10  11
HETATM   11  C7  UNL     1      -0.826  -0.327  -1.284  1.00  0.00     0.132 C 
HETATM   12  C8  UNL     1      -1.466  -1.574  -1.809  1.00  0.00     0.163 C 
HETATM   13  N2  UNL     1      -2.900  -1.426  -1.683  1.00  0.00    -0.353 N 
HETATM   14  C9  UNL     1      -3.757  -2.514  -2.023  1.00  0.00     0.152 C 
HETATM   15  C10 UNL     1      -3.440  -0.176  -1.217  1.00  0.00     0.239 C 
HETATM   16  O1  UNL     1      -4.508   0.221  -1.712  1.00  0.00    -0.272 OA
HETATM   17  C11 UNL     1      -2.718   0.595  -0.173  1.00  0.00     0.137 C 
HETATM   18  C16 UNL     1      -2.323   1.925  -0.886  1.00  0.00     0.106 C 
HETATM   19  C17 UNL     1      -1.433  -0.036   0.101  1.00  0.00     0.189 A 
HETATM   20  S1  UNL     1      -1.271   1.171  -2.190  1.00  0.00    -0.138 SA
HETATM   21  N4  UNL     1      -1.359  -1.277   0.813  1.00  0.00    -0.293 N 
HETATM   22  N6  UNL     1      -0.507   0.493   1.028  1.00  0.00    -0.088 NA
HETATM   23  N5  UNL     1      -0.530  -0.759   1.612  1.00  0.00    -0.246 N 
ATOM     24  H4  UNL     1      -1.794  -2.194   0.715  1.00  0.00     0.184 HD
ATOM     25  H5  UNL     1      -0.039  -1.139   2.421  1.00  0.00     0.203 HD
BRANCH  17  26
HETATM   26  C12 UNL     1      -3.591   1.008   0.904  1.00  0.00     0.033 A 
HETATM   27  C13 UNL     1      -3.563   0.923   2.259  1.00  0.00     0.029 A 
HETATM   28  C14 UNL     1      -4.676   1.538   2.802  1.00  0.00     0.039 A 
HETATM   29  C15 UNL     1      -5.380   2.000   1.742  1.00  0.00     0.080 A 
HETATM   30 BR1  UNL     1      -7.036   2.950   1.906  1.00  0.00    -0.031 Br
HETATM   31  N3  UNL     1      -4.747   1.692   0.624  1.00  0.00    -0.352 N 
ATOM     32  H3  UNL     1      -5.071   1.929  -0.314  1.00  0.00     0.166 HD
ENDBRANCH  17  26
ENDBRANCH  10  11
ENDBRANCH   4   9
BRANCH   4  33
HETATM   33  C18 UNL     1       3.721   0.574  -0.124  1.00  0.00     0.002 A 
HETATM   34  C19 UNL     1       4.649   1.359  -0.801  1.00  0.00     0.011 A 
HETATM   35  C20 UNL     1       5.119   2.547  -0.269  1.00  0.00     0.001 A 
HETATM   36  C21 UNL     1       4.638   2.942   0.969  1.00  0.00     0.000 A 
HETATM   37  C22 UNL     1       3.723   2.174   1.642  1.00  0.00     0.001 A 
HETATM   38  C23 UNL     1       3.271   1.004   1.100  1.00  0.00     0.011 A 
ENDBRANCH   4  33
ENDBRANCH   3   4
TORSDOF 6
