REMARK  11 active torsions:
REMARK  status: ('A' for Active; 'I' for Inactive)
REMARK    1  A    between atoms: N2_4  and  C3_5 
REMARK    2  A    between atoms: C3_5  and  O1_6 
REMARK    3  A    between atoms: C3_5  and  C4_8 
REMARK    4  A    between atoms: C4_8  and  N3_9 
REMARK    5  A    between atoms: N3_9  and  N4_11 
REMARK       I    between atoms: N4_11  and  C5_13 
REMARK    6  A    between atoms: C5_13  and  C6_15 
REMARK    7  A    between atoms: C11_25  and  O3_26 
REMARK    8  A    between atoms: C11_25  and  C12_28 
REMARK    9  A    between atoms: C12_28  and  O4_29 
REMARK   10  A    between atoms: C12_28  and  O5_31 
REMARK   11  A    between atoms: C14_34  and  N7_35 
ROOT
HETATM    1  C4  UNL     1      -0.222   1.937   0.546  1.00  0.00     0.134 C 
HETATM    2  C11 UNL     1      -0.795   3.244   0.672  1.00  0.00     0.130 C 
ENDROOT
BRANCH   1   3
HETATM    3  C3  UNL     1      -0.724   0.651   0.551  1.00  0.00     0.179 C 
BRANCH   3   4
HETATM    4  N2  UNL     1      -1.934  -0.051   0.477  1.00  0.00    -0.293 N 
HETATM    5  C2  UNL     1      -2.097  -1.416   0.601  1.00  0.00     0.194 A 
HETATM    6  N1  UNL     1      -3.348  -1.787   0.350  1.00  0.00    -0.327 N 
HETATM    7  C1  UNL     1      -3.918  -3.126   0.375  1.00  0.00     0.159 C 
HETATM    8  C14 UNL     1      -4.057  -0.707   0.054  1.00  0.00     0.192 A 
HETATM    9  C13 UNL     1      -3.148   0.355   0.141  1.00  0.00     0.155 A 
BRANCH   8  10
HETATM   10  N7  UNL     1      -5.445  -0.633  -0.281  1.00  0.00    -0.096 N 
HETATM   11  O6  UNL     1      -5.999   0.457  -0.541  1.00  0.00    -0.530 OA
HETATM   12  O7  UNL     1      -6.192  -1.784  -0.319  1.00  0.00    -0.530 OA
ENDBRANCH   8  10
ENDBRANCH   3   4
BRANCH   3  13
HETATM   13  O1  UNL     1       0.271  -0.270   0.654  1.00  0.00    -0.344 OA
ATOM     14  H1  UNL     1       1.092   0.206   0.704  1.00  0.00     0.219 HD
ENDBRANCH   3  13
ENDBRANCH   1   3
BRANCH   1  15
HETATM   15  N3  UNL     1       1.108   2.070   0.440  1.00  0.00    -0.291 N 
ATOM     16  H3  UNL     1       1.457   3.028   0.440  1.00  0.00     0.187 HD
BRANCH  15  17
HETATM   17  N4  UNL     1       2.025   1.130   0.336  1.00  0.00    -0.264 N 
HETATM   18  C5  UNL     1       2.654   0.693  -0.893  1.00  0.00     0.286 C 
HETATM   19  O2  UNL     1       2.279   1.275  -1.961  1.00  0.00    -0.264 OA
ATOM     20  H4  UNL     1       2.318   0.669   1.197  1.00  0.00     0.190 HD
BRANCH  18  21
HETATM   21  C6  UNL     1       3.649  -0.331  -0.979  1.00  0.00     0.103 A 
HETATM   22  C7  UNL     1       4.194  -0.678  -2.196  1.00  0.00     0.035 A 
HETATM   23  C8  UNL     1       5.161  -1.671  -2.300  1.00  0.00     0.006 A 
HETATM   24  C9  UNL     1       5.579  -2.317  -1.158  1.00  0.00     0.048 A 
HETATM   25  C10 UNL     1       5.039  -1.971   0.039  1.00  0.00     0.099 A 
HETATM   26  N5  UNL     1       5.405  -2.553   1.126  1.00  0.00    -0.385 N 
HETATM   27  N6  UNL     1       4.090  -0.988   0.087  1.00  0.00    -0.338 N 
ATOM     28  H52 UNL     1       6.113  -3.286   1.090  1.00  0.00     0.157 HD
ATOM     29  H51 UNL     1       4.999  -2.293   2.025  1.00  0.00     0.157 HD
ATOM     30  H6  UNL     1       3.697  -0.745   0.996  1.00  0.00     0.167 HD
ENDBRANCH  18  21
ENDBRANCH  15  17
ENDBRANCH   1  15
BRANCH   2  31
HETATM   31  O3  UNL     1       0.104   4.262   0.497  1.00  0.00    -0.358 OA
ATOM     32  H3  UNL     1      -0.276   5.129   0.581  1.00  0.00     0.217 HD
ENDBRANCH   2  31
BRANCH   2  33
HETATM   33  C12 UNL     1      -2.079   3.800   0.949  1.00  0.00     0.314 C 
BRANCH  33  34
HETATM   34  O4  UNL     1      -2.924   3.195   1.836  1.00  0.00    -0.365 OA
ATOM     35  H4  UNL     1      -3.779   3.565   2.020  1.00  0.00     0.213 HD
ENDBRANCH  33  34
BRANCH  33  36
HETATM   36  O5  UNL     1      -2.754   4.058  -0.277  1.00  0.00    -0.365 OA
ATOM     37  H5  UNL     1      -3.609   4.428  -0.093  1.00  0.00     0.213 HD
ENDBRANCH  33  36
ENDBRANCH   2  33
TORSDOF 11
