REMARK  16 active torsions:
REMARK  status: ('A' for Active; 'I' for Inactive)
REMARK    1  A    between atoms: C2_2  and  C3_3 
REMARK    2  A    between atoms: C3_3  and  N1_4 
REMARK    3  A    between atoms: N1_4  and  C4_6 
REMARK    4  A    between atoms: N3_10  and  N4_12 
REMARK    5  A    between atoms: N4_12  and  C6_13 
REMARK    6  A    between atoms: C6_13  and  C7_14 
REMARK    7  A    between atoms: C10_17  and  O1_18 
REMARK    8  A    between atoms: O1_18  and  C11_19 
REMARK    9  A    between atoms: C11_19  and  C12_20 
REMARK   10  A    between atoms: C12_20  and  O2_21 
REMARK   11  A    between atoms: C12_20  and  C13_23 
REMARK   12  A    between atoms: C13_23  and  O3_24 
REMARK   13  A    between atoms: N5_28  and  C16_29 
REMARK   14  A    between atoms: C16_29  and  C17_30 
REMARK   15  A    between atoms: C20_33  and  N6_34 
REMARK   16  A    between atoms: N6_34  and  C21_36 
ROOT
HETATM    1  C4  UNL     1      -1.239   1.005  -1.445  1.00  0.00     0.707 A 
HETATM    2  N2  UNL     1      -0.542   1.028  -0.257  1.00  0.00    -0.019 N 
ATOM      3  H2  UNL     1       0.478   1.048  -0.281  1.00  0.00     0.203 HD
HETATM    4  C5  UNL     1      -1.161   1.025   0.921  1.00  0.00     0.738 A 
HETATM    5  N3  UNL     1      -0.476   1.051   2.014  1.00  0.00    -0.064 N 
ATOM      6  H3  UNL     1      -1.089   1.041   2.830  1.00  0.00     0.221 HD
HETATM    7  N5  UNL     1      -2.534   0.999   0.980  1.00  0.00    -0.011 N 
HETATM    8  C20 UNL     1      -3.254   0.980  -0.169  1.00  0.00     0.710 A 
HETATM    9  N7  UNL     1      -2.576   0.983  -1.329  1.00  0.00    -0.021 N 
ATOM     10  H7  UNL     1      -3.121   0.967  -2.191  1.00  0.00     0.203 HD
ENDROOT
BRANCH   5  11
HETATM   11  N4  UNL     1       0.758   1.086   2.366  1.00  0.00    -0.323 NA
BRANCH  11  12
HETATM   12  C6  UNL     1       1.913   1.053   2.616  1.00  0.00     0.220 C 
BRANCH  12  13
HETATM   13  C7  UNL     1       3.036   0.310   2.006  1.00  0.00    -0.005 A 
HETATM   14  C8  UNL     1       2.804  -0.551   0.945  1.00  0.00     0.017 A 
HETATM   15  C9  UNL     1       3.848  -1.219   0.374  1.00  0.00     0.037 A 
HETATM   16  C10 UNL     1       5.190  -1.079   0.814  1.00  0.00     0.068 A 
HETATM   17  C14 UNL     1       5.355  -0.220   1.862  1.00  0.00     0.037 A 
HETATM   18  C15 UNL     1       4.320   0.472   2.464  1.00  0.00     0.017 A 
BRANCH  16  19
HETATM   19  O1  UNL     1       6.145  -1.748   0.223  1.00  0.00    -0.349 OA
BRANCH  19  20
HETATM   20  C11 UNL     1       7.332  -2.183  -0.055  1.00  0.00     0.209 C 
BRANCH  20  21
HETATM   21  C12 UNL     1       8.412  -1.227  -0.562  1.00  0.00     0.166 C 
BRANCH  21  22
HETATM   22  O2  UNL     1       9.548  -2.033  -0.881  1.00  0.00    -0.391 OA
ATOM     23  H2  UNL     1      10.219  -1.439  -1.196  1.00  0.00     0.210 HD
ENDBRANCH  21  22
BRANCH  21  24
HETATM   24  C13 UNL     1       8.909  -0.291   0.506  1.00  0.00     0.198 C 
BRANCH  24  25
HETATM   25  O3  UNL     1       9.990   0.457  -0.044  1.00  0.00    -0.398 OA
ATOM     26  H3  UNL     1      10.304   1.048   0.630  1.00  0.00     0.209 HD
ENDBRANCH  24  25
ENDBRANCH  21  24
ENDBRANCH  20  21
ENDBRANCH  19  20
ENDBRANCH  16  19
ENDBRANCH  12  13
ENDBRANCH  11  12
ENDBRANCH   5  11
BRANCH   7  27
HETATM   27  C16 UNL     1      -3.159   0.997   2.248  1.00  0.00     0.170 C 
BRANCH  27  28
HETATM   28  C17 UNL     1      -3.482  -0.264   2.926  1.00  0.00    -0.003 C 
HETATM   29  C18 UNL     1      -4.423  -1.214   2.224  1.00  0.00     0.011 C 
HETATM   30  C19 UNL     1      -2.327  -1.117   3.400  1.00  0.00     0.011 C 
ENDBRANCH  27  28
ENDBRANCH   7  27
BRANCH   1  31
HETATM   31  N1  UNL     1      -0.593   0.980  -2.543  1.00  0.00    -0.222 N 
ATOM     32  H1  UNL     1       0.424   0.983  -2.462  1.00  0.00     0.178 HD
BRANCH  31  33
HETATM   33  C3  UNL     1      -1.110   0.949  -3.866  1.00  0.00     0.164 C 
BRANCH  33  34
HETATM   34  C2  UNL     1      -1.393  -0.512  -4.275  1.00  0.00    -0.017 C 
HETATM   35  C1  UNL     1      -2.560  -0.895  -4.623  1.00  0.00     0.008 C 
ENDBRANCH  33  34
ENDBRANCH  31  33
ENDBRANCH   1  31
BRANCH   8  36
HETATM   36  N6  UNL     1      -4.504   0.979  -0.099  1.00  0.00    -0.217 N 
ATOM     37  H6  UNL     1      -4.837   0.993   0.865  1.00  0.00     0.178 HD
BRANCH  36  38
HETATM   38  C21 UNL     1      -5.554   0.963  -1.023  1.00  0.00     0.036 C 
HETATM   39  C22 UNL     1      -6.852   1.159  -0.200  1.00  0.00     0.038 C 
HETATM   40  C23 UNL     1      -5.516   2.118  -2.003  1.00  0.00     0.038 C 
HETATM   41  C24 UNL     1      -5.778  -0.344  -1.755  1.00  0.00     0.038 C 
ENDBRANCH  36  38
ENDBRANCH   8  36
TORSDOF 16
