REMARK  21 active torsions:
REMARK  status: ('A' for Active; 'I' for Inactive)
REMARK    1  A    between atoms: C2_2  and  C3_3 
REMARK    2  A    between atoms: C3_3  and  C4_4 
REMARK    3  A    between atoms: C4_4  and  N1_7 
REMARK    4  A    between atoms: N1_7  and  C7_8 
REMARK    5  A    between atoms: N1_7  and  C10_11 
REMARK    6  A    between atoms: C10_11  and  C11_12 
REMARK    7  A    between atoms: C10_11  and  C18_19 
REMARK    8  A    between atoms: C11_12  and  C12_13 
REMARK       I    between atoms: C18_19  and  N2_21 
REMARK    9  A    between atoms: N2_21  and  C19_23 
REMARK   10  A    between atoms: C19_23  and  C20_24 
REMARK   11  A    between atoms: C19_23  and  C21_27 
REMARK   12  A    between atoms: C20_24  and  O2_25 
REMARK       I    between atoms: C21_27  and  N3_29 
REMARK   13  A    between atoms: N3_29  and  C22_31 
REMARK   14  A    between atoms: C22_31  and  C23_32 
REMARK   15  A    between atoms: C22_31  and  C33_51 
REMARK       I    between atoms: C23_32  and  N4_34 
REMARK   16  A    between atoms: N4_34  and  N5_36 
REMARK       I    between atoms: N5_36  and  C24_38 
REMARK   17  A    between atoms: C24_38  and  C25_40 
REMARK   18  A    between atoms: C27_42  and  O6_43 
REMARK   19  A    between atoms: N6_46  and  C29_47 
REMARK   20  A    between atoms: C29_47  and  C30_48 
REMARK   21  A    between atoms: C33_51  and  C35_53 
ROOT
HETATM    1  C21 UNL     1       0.043  -1.682   2.527  1.00  0.00     0.243 C 
HETATM    2  O3  UNL     1       0.095  -0.484   2.914  1.00  0.00    -0.271 OA
HETATM    3  N3  UNL     1       1.271  -2.299   2.193  1.00  0.00    -0.346 N 
ATOM      4  H3  UNL     1       1.258  -3.264   1.864  1.00  0.00     0.163 HD
ENDROOT
BRANCH   1   5
HETATM    5  C19 UNL     1      -1.227  -2.421   2.421  1.00  0.00     0.200 C 
BRANCH   5   6
HETATM    6  N2  UNL     1      -2.302  -1.444   2.058  1.00  0.00    -0.340 N 
HETATM    7  C18 UNL     1      -3.216  -1.758   1.072  1.00  0.00     0.268 C 
HETATM    8  O1  UNL     1      -3.026  -2.929   0.566  1.00  0.00    -0.266 OA
ATOM      9  H2  UNL     1      -2.359  -0.546   2.539  1.00  0.00     0.163 HD
BRANCH   7  10
HETATM   10  C10 UNL     1      -4.382  -0.988   0.489  1.00  0.00     0.100 C 
BRANCH  10  11
HETATM   11  N1  UNL     1      -4.388   0.388   0.650  1.00  0.00    -0.342 N 
BRANCH  11  12
HETATM   12  C4  UNL     1      -3.723   1.298  -0.220  1.00  0.00     0.030 C 
HETATM   13  C5  UNL     1      -3.099   0.543  -1.423  1.00  0.00     0.038 C 
HETATM   14  C6  UNL     1      -2.499   1.924   0.385  1.00  0.00     0.038 C 
BRANCH  12  15
HETATM   15  C3  UNL     1      -4.615   2.382  -0.724  1.00  0.00     0.030 C 
BRANCH  15  16
HETATM   16  C2  UNL     1      -4.114   3.460  -1.591  1.00  0.00    -0.002 C 
HETATM   17  C1  UNL     1      -3.132   4.445  -1.063  1.00  0.00     0.005 C 
ENDBRANCH  15  16
ENDBRANCH  12  15
ENDBRANCH  11  12
BRANCH  11  18
HETATM   18  C7  UNL     1      -4.991   0.896   1.814  1.00  0.00    -0.017 C 
HETATM   19  C8  UNL     1      -4.175   1.682   2.805  1.00  0.00     0.063 C 
HETATM   20  C9  UNL     1      -6.388   1.410   1.796  1.00  0.00     0.063 C 
ENDBRANCH  11  18
ENDBRANCH  10  11
BRANCH  10  21
HETATM   21  C11 UNL     1      -4.935  -1.768  -0.618  1.00  0.00     0.013 C 
BRANCH  21  22
HETATM   22  C12 UNL     1      -6.354  -1.814  -1.021  1.00  0.00     0.010 C 
HETATM   23  C13 UNL     1      -6.494  -2.822  -2.208  1.00  0.00     0.008 C 
HETATM   24  C14 UNL     1      -7.907  -3.319  -2.164  1.00  0.00     0.001 C 
HETATM   25  C15 UNL     1      -8.863  -2.143  -1.927  1.00  0.00     0.000 C 
HETATM   26  C16 UNL     1      -8.151  -0.933  -2.471  1.00  0.00     0.001 C 
HETATM   27  C17 UNL     1      -7.032  -0.579  -1.477  1.00  0.00     0.008 C 
ENDBRANCH  21  22
ENDBRANCH  10  21
ENDBRANCH   7  10
ENDBRANCH   5   6
BRANCH   5  28
HETATM   28  C20 UNL     1      -1.527  -2.977   3.804  1.00  0.00     0.199 C 
BRANCH  28  29
HETATM   29  O2  UNL     1      -1.560  -1.935   4.727  1.00  0.00    -0.398 OA
ATOM     30  H2  UNL     1      -1.747  -2.282   5.591  1.00  0.00     0.209 HD
ENDBRANCH  28  29
ENDBRANCH   5  28
ENDBRANCH   1   5
BRANCH   3  31
HETATM   31  C22 UNL     1       2.563  -1.611   2.299  1.00  0.00     0.182 C 
BRANCH  31  32
HETATM   32  C23 UNL     1       2.924  -1.108   0.997  1.00  0.00     0.259 C 
HETATM   33  O4  UNL     1       2.234  -1.424  -0.029  1.00  0.00    -0.269 OA
HETATM   34  N4  UNL     1       4.023  -0.255   0.774  1.00  0.00    -0.266 N 
ATOM     35  H4  UNL     1       4.590   0.015   1.578  1.00  0.00     0.190 HD
BRANCH  34  36
HETATM   36  N5  UNL     1       4.386   0.245  -0.483  1.00  0.00    -0.266 N 
HETATM   37  C24 UNL     1       5.611   0.896  -0.701  1.00  0.00     0.269 C 
HETATM   38  O5  UNL     1       6.481   1.079   0.202  1.00  0.00    -0.269 OA
ATOM     39  H5  UNL     1       3.740   0.133  -1.265  1.00  0.00     0.190 HD
BRANCH  37  40
HETATM   40  C25 UNL     1       5.934   1.413  -2.058  1.00  0.00     0.318 A 
HETATM   41  C26 UNL     1       4.928   2.483  -2.439  1.00  0.00     0.079 A 
HETATM   42  C27 UNL     1       5.687   3.678  -2.905  1.00  0.00     0.149 A 
HETATM   43  C28 UNL     1       7.116   3.343  -2.655  1.00  0.00     0.305 A 
HETATM   44  N6  UNL     1       7.230   2.012  -2.161  1.00  0.00     0.105 N 
BRANCH  42  45
HETATM   45  O6  UNL     1       5.296   4.793  -2.128  1.00  0.00    -0.394 OA
ATOM     46  H6  UNL     1       5.780   5.555  -2.425  1.00  0.00     0.210 HD
ENDBRANCH  42  45
BRANCH  44  47
HETATM   47  C29 UNL     1       8.063   1.159  -2.969  1.00  0.00     0.277 C 
BRANCH  47  48
HETATM   48  C30 UNL     1       9.470   1.671  -3.159  1.00  0.00     0.006 C 
HETATM   49  C31 UNL     1      10.189   1.825  -1.826  1.00  0.00     0.011 C 
HETATM   50  C32 UNL     1      10.236   0.592  -3.922  1.00  0.00     0.011 C 
ENDBRANCH  47  48
ENDBRANCH  44  47
ENDBRANCH  37  40
ENDBRANCH  34  36
ENDBRANCH  31  32
BRANCH  31  51
HETATM   51  C33 UNL     1       3.545  -2.524   2.981  1.00  0.00     0.013 C 
HETATM   52  C34 UNL     1       4.918  -2.002   3.168  1.00  0.00     0.012 C 
BRANCH  51  53
HETATM   53  C35 UNL     1       2.950  -3.025   4.302  1.00  0.00     0.002 C 
HETATM   54  C36 UNL     1       3.922  -3.952   4.985  1.00  0.00     0.005 C 
ENDBRANCH  51  53
ENDBRANCH  31  51
ENDBRANCH   3  31
TORSDOF 21
