REMARK  12 active torsions:
REMARK  status: ('A' for Active; 'I' for Inactive)
REMARK    1  A    between atoms: C3_3  and  C4_4 
REMARK    2  A    between atoms: C4_4  and  N1_5 
REMARK    3  A    between atoms: C4_4  and  N2_8 
REMARK    4  A    between atoms: N2_8  and  C5_10 
REMARK    5  A    between atoms: C6_13  and  C7_14 
REMARK    6  A    between atoms: N6_19  and  N7_20 
REMARK    7  A    between atoms: C8_23  and  N8_24 
REMARK    8  A    between atoms: N8_24  and  O2_26 
REMARK    9  A    between atoms: O2_26  and  C9_27 
REMARK       I    between atoms: C9_27  and  N9_29 
REMARK   10  A    between atoms: N9_29  and  O4_31 
REMARK   11  A    between atoms: N12_37  and  C10_38 
REMARK   12  A    between atoms: C11_44  and  N15_45 
ROOT
HETATM    1  N2  UNL     1      -0.551   0.914   1.148  1.00  0.00    -0.324 N 
ATOM      2  H2  UNL     1      -1.049   1.656   0.656  1.00  0.00     0.169 HD
ENDROOT
BRANCH   1   3
HETATM    3  C4  UNL     1       0.697   1.228   1.747  1.00  0.00     0.131 C 
BRANCH   3   4
HETATM    4  C3  UNL     1       1.902   1.245   0.967  1.00  0.00     0.117 A 
HETATM    5  C2  UNL     1       2.176   1.007  -0.358  1.00  0.00     0.066 A 
HETATM    6  C1  UNL     1       1.163   0.639  -1.372  1.00  0.00     0.073 C 
HETATM    7  N12 UNL     1       3.510   1.158  -0.594  1.00  0.00    -0.223 N 
HETATM    8  N11 UNL     1       4.052   1.485   0.564  1.00  0.00    -0.234 N 
HETATM    9  N10 UNL     1       3.126   1.543   1.500  1.00  0.00    -0.280 N 
ATOM     10  H11 UNL     1       5.045   1.667   0.713  1.00  0.00     0.209 HD
ATOM     11  H10 UNL     1       3.297   1.776   2.478  1.00  0.00     0.188 HD
BRANCH   7  12
HETATM   12  C10 UNL     1       4.151   0.989  -1.851  1.00  0.00     0.196 A 
HETATM   13  N13 UNL     1       4.213   1.812  -2.911  1.00  0.00    -0.220 N 
HETATM   14  O5  UNL     1       4.908   1.252  -3.854  1.00  0.00    -0.153 OA
ATOM     15  H13 UNL     1       3.781   2.734  -2.966  1.00  0.00     0.198 HD
HETATM   16  N14 UNL     1       5.330   0.077  -3.494  1.00  0.00    -0.222 N 
HETATM   17  C11 UNL     1       4.880  -0.133  -2.243  1.00  0.00     0.169 A 
ATOM     18  H14 UNL     1       5.894  -0.564  -4.052  1.00  0.00     0.198 HD
BRANCH  17  19
HETATM   19  N15 UNL     1       5.103  -1.198  -1.558  1.00  0.00    -0.381 N 
ATOM     20 2H15 UNL     1       4.762  -1.357  -0.610  1.00  0.00     0.157 HD
ATOM     21 1H15 UNL     1       5.636  -2.019  -1.845  1.00  0.00     0.157 HD
ENDBRANCH  17  19
ENDBRANCH   7  12
ENDBRANCH   3   4
BRANCH   3  22
HETATM   22  N1  UNL     1       0.722   1.496   2.995  1.00  0.00    -0.383 N 
ATOM     23  H12 UNL     1       1.619   1.722   3.425  1.00  0.00     0.157 HD
ATOM     24  H11 UNL     1      -0.134   1.484   3.549  1.00  0.00     0.157 HD
ENDBRANCH   3  22
ENDBRANCH   1   3
BRANCH   1  25
HETATM   25  C5  UNL     1      -1.135  -0.355   1.195  1.00  0.00     0.159 A 
HETATM   26  N3  UNL     1      -0.459  -1.348   1.858  1.00  0.00    -0.320 N 
HETATM   27  C6  UNL     1      -0.942  -2.596   1.954  1.00  0.00     0.189 A 
ATOM     28  H3  UNL     1       0.438  -1.131   2.291  1.00  0.00     0.169 HD
HETATM   29  N5  UNL     1      -2.126  -2.841   1.371  1.00  0.00    -0.258 N 
HETATM   30  N6  UNL     1      -2.814  -1.924   0.723  1.00  0.00    -0.179 N 
ATOM     31  H5  UNL     1      -2.512  -3.783   1.433  1.00  0.00     0.191 HD
HETATM   32  C8  UNL     1      -2.328  -0.637   0.617  1.00  0.00     0.209 A 
BRANCH  27  33
HETATM   33  C7  UNL     1      -0.203  -3.650   2.670  1.00  0.00     0.300 C 
HETATM   34  N4  UNL     1      -0.785  -4.940   2.724  1.00  0.00    -0.054 NA
HETATM   35  O1  UNL     1       0.896  -3.433   3.215  1.00  0.00    -0.268 OA
ENDBRANCH  27  33
BRANCH  30  36
HETATM   36  N7  UNL     1      -4.044  -2.248   0.137  1.00  0.00    -0.322 N 
ATOM     37  H72 UNL     1      -4.403  -3.199   0.215  1.00  0.00     0.179 HD
ATOM     38  H71 UNL     1      -4.577  -1.538  -0.365  1.00  0.00     0.179 HD
ENDBRANCH  30  36
BRANCH  32  39
HETATM   39  N8  UNL     1      -3.029   0.160  -0.003  1.00  0.00    -0.234 N 
ATOM     40  H8  UNL     1      -3.868  -0.322  -0.326  1.00  0.00     0.197 HD
BRANCH  39  41
HETATM   41  O2  UNL     1      -3.081   1.405  -0.395  1.00  0.00    -0.178 OA
BRANCH  41  42
HETATM   42  C9  UNL     1      -4.142   2.272  -0.375  1.00  0.00     0.406 C 
HETATM   43  O3  UNL     1      -5.242   1.817   0.088  1.00  0.00    -0.234 OA
HETATM   44  N9  UNL     1      -4.072   3.607  -0.831  1.00  0.00    -0.211 N 
ATOM     45  H9  UNL     1      -3.192   3.967  -1.199  1.00  0.00     0.199 HD
BRANCH  44  46
HETATM   46  O4  UNL     1      -5.147   4.407  -0.786  1.00  0.00    -0.285 OA
ATOM     47  H4  UNL     1      -5.100   5.305  -1.093  1.00  0.00     0.244 HD
ENDBRANCH  44  46
ENDBRANCH  41  42
ENDBRANCH  39  41
ENDBRANCH  32  39
ENDBRANCH   1  25
TORSDOF 12
