REMARK  5 active torsions:
REMARK  status: ('A' for Active; 'I' for Inactive)
REMARK    1  A    between atoms: N1_2  and  N2_3 
REMARK       I    between atoms: N2_3  and  C2_5 
REMARK    2  A    between atoms: C2_5  and  C3_7 
REMARK       I    between atoms: N3_13  and  C9_14 
REMARK       I    between atoms: C9_14  and  N4_16 
REMARK    3  A    between atoms: N4_16  and  C10_18 
REMARK    4  A    between atoms: C10_18  and  C11_19 
REMARK    5  A    between atoms: C11_19  and  C12_20 
ROOT
HETATM    1  C3  UNL     1      -3.165  -0.913   0.236  1.00  0.00     0.115 C 
HETATM    2  C4  UNL     1      -3.016  -2.063   1.210  1.00  0.00     0.049 C 
HETATM    3  C5  UNL     1      -3.944  -1.438  -0.929  1.00  0.00     0.041 C 
HETATM    4  C6  UNL     1      -3.852  -0.628  -2.185  1.00  0.00     0.004 C 
HETATM    5  C7  UNL     1      -2.474  -0.073  -2.413  1.00  0.00     0.020 C 
HETATM    6  C8  UNL     1      -1.975   0.683  -1.180  1.00  0.00     0.129 C 
HETATM    7  N3  UNL     1      -1.882  -0.329  -0.107  1.00  0.00    -0.316 N 
HETATM    8  C9  UNL     1      -0.636  -0.639   0.431  1.00  0.00     0.319 C 
HETATM    9  O2  UNL     1      -0.479  -1.567   1.248  1.00  0.00    -0.247 OA
HETATM   10  N4  UNL     1       0.522   0.099   0.072  1.00  0.00    -0.343 N 
ATOM     11  H4  UNL     1       0.454   0.877  -0.584  1.00  0.00     0.164 HD
ENDROOT
BRANCH   1  12
HETATM   12  C2  UNL     1      -3.921   0.144   0.999  1.00  0.00     0.261 C 
HETATM   13  N2  UNL     1      -5.288   0.059   1.297  1.00  0.00    -0.272 N 
ATOM     14  H2  UNL     1      -5.826  -0.758   1.009  1.00  0.00     0.185 HD
HETATM   15  O1  UNL     1      -3.286   1.171   1.389  1.00  0.00    -0.269 OA
BRANCH  13  16
HETATM   16  N1  UNL     1      -5.915   1.110   1.997  1.00  0.00    -0.143 NA
HETATM   17  C1  UNL     1      -6.605   1.927   0.992  1.00  0.00     0.159 C 
ENDBRANCH  13  16
ENDBRANCH   1  12
BRANCH  10  18
HETATM   18  C10 UNL     1       1.828  -0.271   0.658  1.00  0.00     0.125 C 
BRANCH  18  19
HETATM   19  C11 UNL     1       2.843   0.714   0.145  1.00  0.00     0.024 C 
BRANCH  19  20
HETATM   20  C12 UNL     1       4.257   0.432   0.652  1.00  0.00    -0.013 C 
HETATM   21  C13 UNL     1       4.631  -0.916   0.170  1.00  0.00     0.005 C 
HETATM   22  C14 UNL     1       6.094  -1.161   0.430  1.00  0.00     0.000 C 
HETATM   23  C15 UNL     1       6.849  -0.169  -0.393  1.00  0.00     0.000 C 
HETATM   24  C16 UNL     1       6.507   1.264  -0.144  1.00  0.00     0.000 C 
HETATM   25  C17 UNL     1       5.173   1.558   0.378  1.00  0.00     0.005 C 
ENDBRANCH  19  20
ENDBRANCH  18  19
ENDBRANCH  10  18
TORSDOF 5
