REMARK  7 active torsions:
REMARK  status: ('A' for Active; 'I' for Inactive)
REMARK    1  A    between atoms: C2_2  and  C3_3 
REMARK    2  A    between atoms: C3_3  and  C4_4 
REMARK    3  A    between atoms: C4_4  and  N1_5 
REMARK    4  A    between atoms: N1_5  and  C5_7 
REMARK    5  A    between atoms: C5_7  and  N2_9 
REMARK    6  A    between atoms: N2_9  and  C6_11 
REMARK    7  A    between atoms: C6_11  and  C7_12 
ROOT
HETATM    1  C7  UNL     1      -0.551  -1.177   1.031  1.00  0.00     0.079 C 
HETATM    2  N3  UNL     1      -1.157  -0.098   0.554  1.00  0.00    -0.380 N 
HETATM    3  C8  UNL     1      -1.271   0.356  -0.774  1.00  0.00     0.090 C 
HETATM    4  C9  UNL     1      -1.541  -0.649  -1.794  1.00  0.00     0.026 C 
HETATM    5  C10 UNL     1      -2.833  -0.509  -2.566  1.00  0.00     0.002 C 
HETATM    6  C11 UNL     1      -3.903  -1.265  -1.821  1.00  0.00     0.001 C 
HETATM    7  C12 UNL     1      -4.056  -0.692  -0.435  1.00  0.00     0.010 C 
HETATM    8  C13 UNL     1      -3.757   0.751  -0.335  1.00  0.00     0.032 C 
HETATM    9  C14 UNL     1      -4.599   1.337   0.790  1.00  0.00     0.060 C 
HETATM   10  N4  UNL     1      -3.878   1.707   1.942  1.00  0.00    -0.400 N 
ATOM     11  H4  UNL     1      -4.193   2.470   2.541  1.00  0.00     0.158 HD
HETATM   12  C15 UNL     1      -2.684   0.970   2.242  1.00  0.00     0.144 C 
HETATM   13  C16 UNL     1      -1.716   1.032   1.126  1.00  0.00     0.108 C 
HETATM   14  C17 UNL     1      -2.380   1.214  -0.259  1.00  0.00     0.042 C 
ENDROOT
BRANCH   1  15
HETATM   15  C6  UNL     1       0.964  -1.137   0.925  1.00  0.00     0.166 C 
BRANCH  15  16
HETATM   16  N2  UNL     1       1.458  -0.024   1.693  1.00  0.00    -0.363 N 
ATOM     17  H2  UNL     1       0.812   0.574   2.208  1.00  0.00     0.162 HD
BRANCH  16  18
HETATM   18  C5  UNL     1       2.852   0.232   1.725  1.00  0.00     0.167 C 
HETATM   19  S1  UNL     1       3.407   1.476   2.625  1.00  0.00    -0.041 SA
BRANCH  18  20
HETATM   20  N1  UNL     1       3.702  -0.629   0.987  1.00  0.00    -0.367 N 
ATOM     21  H1  UNL     1       3.293  -1.405   0.467  1.00  0.00     0.161 HD
BRANCH  20  22
HETATM   22  C4  UNL     1       5.120  -0.437   0.953  1.00  0.00     0.122 C 
BRANCH  22  23
HETATM   23  C3  UNL     1       5.456   0.785   0.163  1.00  0.00     0.019 C 
BRANCH  23  24
HETATM   24  C2  UNL     1       4.928   0.651  -1.271  1.00  0.00    -0.003 C 
HETATM   25  C1  UNL     1       5.550  -0.539  -1.950  1.00  0.00     0.005 C 
ENDBRANCH  23  24
ENDBRANCH  22  23
ENDBRANCH  20  22
ENDBRANCH  18  20
ENDBRANCH  16  18
ENDBRANCH  15  16
ENDBRANCH   1  15
TORSDOF 7
