REMARK  5 active torsions:
REMARK  status: ('A' for Active; 'I' for Inactive)
REMARK    1  A    between atoms: C5_5  and  N1_6 
REMARK    2  A    between atoms: N1_6  and  C6_8 
REMARK    3  A    between atoms: C6_8  and  N2_10 
REMARK    4  A    between atoms: N2_10  and  C7_12 
REMARK    5  A    between atoms: C7_12  and  C8_13 
ROOT
HETATM    1  N2  UNL     1       1.200  -0.668   0.058  1.00  0.00    -0.363 N 
ATOM      2  H2  UNL     1       0.568  -0.822  -0.728  1.00  0.00     0.162 HD
ENDROOT
BRANCH   1   3
HETATM    3  C6  UNL     1       0.757   0.155   1.133  1.00  0.00     0.168 C 
HETATM    4  S1  UNL     1       1.757   0.393   2.428  1.00  0.00    -0.041 SA
BRANCH   3   5
HETATM    5  N1  UNL     1      -0.505   0.779   1.179  1.00  0.00    -0.363 N 
ATOM      6  H1  UNL     1      -0.722   1.354   1.993  1.00  0.00     0.162 HD
BRANCH   5   7
HETATM    7  C5  UNL     1      -1.508   0.660   0.155  1.00  0.00     0.083 C 
HETATM    8  C4  UNL     1      -2.720   1.526   0.442  1.00  0.00     0.025 C 
HETATM    9  C3  UNL     1      -3.792   1.149  -0.588  1.00  0.00     0.006 C 
HETATM   10  C2  UNL     1      -4.417  -0.133  -0.101  1.00  0.00    -0.019 C 
HETATM   11  C1  UNL     1      -5.017  -0.960  -1.188  1.00  0.00     0.010 C 
HETATM   12  C14 UNL     1      -3.384  -0.919   0.643  1.00  0.00     0.006 C 
HETATM   13  C13 UNL     1      -2.002  -0.773   0.057  1.00  0.00     0.025 C 
ENDBRANCH   5   7
ENDBRANCH   3   5
ENDBRANCH   1   3
BRANCH   1  14
HETATM   14  C7  UNL     1       2.491  -1.291   0.026  1.00  0.00     0.164 C 
BRANCH  14  15
HETATM   15  C8  UNL     1       3.614  -0.358  -0.234  1.00  0.00     0.004 A 
HETATM   16  C9  UNL     1       3.406   0.969  -0.472  1.00  0.00     0.033 A 
HETATM   17  C10 UNL     1       4.503   1.779  -0.721  1.00  0.00     0.027 A 
HETATM   18 BR1  UNL     1       4.204   3.614  -1.049  1.00  0.00    -0.050 Br
HETATM   19  C11 UNL     1       5.762   1.229  -0.723  1.00  0.00     0.108 A 
HETATM   20  N3  UNL     1       5.992  -0.065  -0.495  1.00  0.00    -0.351 N 
HETATM   21  C12 UNL     1       4.922  -0.859  -0.250  1.00  0.00     0.106 A 
ATOM     22  H3  UNL     1       6.939  -0.443  -0.505  1.00  0.00     0.166 HD
HETATM   23  N4  UNL     1       5.064  -2.119  -0.029  1.00  0.00    -0.385 N 
ATOM     24  H42 UNL     1       4.258  -2.717   0.155  1.00  0.00     0.157 HD
ATOM     25  H41 UNL     1       6.016  -2.484  -0.041  1.00  0.00     0.157 HD
ENDBRANCH  14  15
ENDBRANCH   1  14
TORSDOF 5
