REMARK  4 active torsions:
REMARK  status: ('A' for Active; 'I' for Inactive)
REMARK    1  A    between atoms: C3_3  and  N1_4 
REMARK       I    between atoms: N1_4  and  C4_6 
REMARK       I    between atoms: C4_6  and  N2_8 
REMARK    2  A    between atoms: N2_8  and  C5_10 
REMARK    3  A    between atoms: C8_13  and  N3_14 
REMARK       I    between atoms: N3_14  and  C9_16 
REMARK       I    between atoms: C9_16  and  N5_22 
REMARK       I    between atoms: N4_17  and  C10_19 
REMARK    4  A    between atoms: N5_22  and  C12_24 
ROOT
HETATM    1  C1  UNL     1       8.850  -1.800   2.276  1.00  0.00     0.014 C 
HETATM    2  C2  UNL     1       7.647  -1.689   2.372  1.00  0.00    -0.098 C 
HETATM    3  C3  UNL     1       6.191  -1.568   2.466  1.00  0.00     0.217 C 
ENDROOT
BRANCH   3   4
HETATM    4  N1  UNL     1       5.662  -0.893   1.301  1.00  0.00    -0.333 N 
HETATM    5  C4  UNL     1       4.248  -0.653   1.155  1.00  0.00     0.321 C 
HETATM    6  O1  UNL     1       3.483  -1.043   2.061  1.00  0.00    -0.247 OA
HETATM    7  N2  UNL     1       3.755   0.000   0.025  1.00  0.00    -0.309 N 
ATOM      8  H2  UNL     1       4.430   0.284  -0.685  1.00  0.00     0.170 HD
ATOM      9  H1  UNL     1       6.301  -0.581   0.570  1.00  0.00     0.165 HD
BRANCH   7  10
HETATM   10  C5  UNL     1       2.402   0.298  -0.213  1.00  0.00     0.036 A 
HETATM   11  C6  UNL     1       1.417   0.319   0.719  1.00  0.00     0.032 A 
HETATM   12  C7  UNL     1       0.092   0.610   0.368  1.00  0.00     0.032 A 
HETATM   13  C8  UNL     1      -0.228   0.880  -0.939  1.00  0.00     0.049 A 
HETATM   14  C18 UNL     1       0.762   0.866  -1.914  1.00  0.00     0.032 A 
HETATM   15  C19 UNL     1       2.036   0.580  -1.537  1.00  0.00     0.032 A 
BRANCH  13  16
HETATM   16  N3  UNL     1      -1.585   1.176  -1.286  1.00  0.00    -0.192 N 
HETATM   17  C9  UNL     1      -2.607   1.181  -0.306  1.00  0.00     0.685 C 
HETATM   18  N4  UNL     1      -3.120   2.312   0.034  1.00  0.00    -0.160 N 
HETATM   19  N5  UNL     1      -3.088   0.007   0.316  1.00  0.00    -0.192 N 
HETATM   20  C10 UNL     1      -2.700   3.527  -0.533  1.00  0.00     0.231 C 
ATOM     21  H4  UNL     1      -3.857   2.326   0.739  1.00  0.00     0.187 HD
HETATM   22  C11 UNL     1      -3.481   4.766  -0.264  1.00  0.00     0.118 C 
HETATM   23  O2  UNL     1      -1.682   3.639  -1.272  1.00  0.00    -0.273 OA
ATOM     24  H5  UNL     1      -2.978  -0.068   1.327  1.00  0.00     0.184 HD
ATOM     25  H3  UNL     1      -1.820   1.387  -2.256  1.00  0.00     0.184 HD
BRANCH  19  26
HETATM   26  C12 UNL     1      -3.713  -1.077  -0.358  1.00  0.00     0.049 A 
HETATM   27  C13 UNL     1      -3.902  -1.060  -1.720  1.00  0.00     0.033 A 
HETATM   28  C14 UNL     1      -4.517  -2.139  -2.347  1.00  0.00     0.044 A 
HETATM   29  C15 UNL     1      -4.946  -3.241  -1.617  1.00  0.00     0.116 A 
HETATM   30  F1  UNL     1      -5.549  -4.288  -2.271  1.00  0.00    -0.206 F 
HETATM   31  C16 UNL     1      -4.744  -3.229  -0.264  1.00  0.00     0.044 A 
HETATM   32  C17 UNL     1      -4.142  -2.179   0.365  1.00  0.00     0.033 A 
ENDBRANCH  19  26
ENDBRANCH  13  16
ENDBRANCH   7  10
ENDBRANCH   3   4
TORSDOF 4
