REMARK  8 active torsions:
REMARK  status: ('A' for Active; 'I' for Inactive)
REMARK       I    between atoms: C1_4  and  N3_6 
REMARK    1  A    between atoms: N3_6  and  C2_8 
REMARK    2  A    between atoms: C2_8  and  C3_9 
REMARK    3  A    between atoms: C3_9  and  C4_10 
REMARK    4  A    between atoms: C4_10  and  C5_11 
REMARK    5  A    between atoms: C5_11  and  C6_12 
REMARK    6  A    between atoms: C14_23  and  C15_24 
REMARK       I    between atoms: C15_24  and  N5_26 
REMARK    7  A    between atoms: N5_26  and  C16_28 
REMARK    8  A    between atoms: C16_28  and  C17_29 
ROOT
HETATM    1  C6  UNL     1       1.560  -0.838   0.025  1.00  0.00     0.078 C 
HETATM    2  C7  UNL     1       1.434  -2.355   0.045  1.00  0.00     0.015 C 
HETATM    3  C8  UNL     1       1.380  -2.906  -1.384  1.00  0.00     0.028 C 
HETATM    4  C9  UNL     1       0.019  -2.558  -1.913  1.00  0.00     0.232 C 
HETATM    5  N4  UNL     1      -0.506  -3.446  -2.896  1.00  0.00    -0.075 N 
ATOM      6  H41 UNL     1      -0.186  -4.407  -2.776  1.00  0.00     0.277 HD
ATOM      7  H42 UNL     1      -0.113  -3.290  -3.824  1.00  0.00     0.277 HD
HETATM    8  C10 UNL     1      -1.963  -3.322  -2.865  1.00  0.00     0.232 C 
HETATM    9  C11 UNL     1      -2.379  -1.931  -3.314  1.00  0.00     0.027 C 
HETATM   10  C12 UNL     1      -3.442  -1.380  -2.422  1.00  0.00     0.002 C 
HETATM   11  C13 UNL     1      -3.105   0.005  -1.859  1.00  0.00     0.014 C 
HETATM   12  C14 UNL     1      -3.392   0.063  -0.390  1.00  0.00     0.080 C 
HETATM   13  C18 UNL     1      -2.440   0.833   0.454  1.00  0.00     0.039 C 
HETATM   14  C19 UNL     1      -1.048   0.970   0.013  1.00  0.00     0.088 C 
HETATM   15  C20 UNL     1      -0.711   2.354  -0.495  1.00  0.00     0.025 C 
HETATM   16  C21 UNL     1      -0.878   3.414   0.557  1.00  0.00     0.004 C 
HETATM   17  C22 UNL     1      -0.314   3.084   1.878  1.00  0.00     0.020 C 
HETATM   18  C23 UNL     1      -0.360   1.635   2.263  1.00  0.00     0.126 C 
HETATM   19  N6  UNL     1      -0.164   0.730   1.144  1.00  0.00    -0.347 N 
HETATM   20  C24 UNL     1       0.820  -0.293   1.192  1.00  0.00     0.224 C 
HETATM   21  O4  UNL     1       1.122  -0.813   2.318  1.00  0.00    -0.273 OA
ENDROOT
BRANCH   1  22
HETATM   22  C5  UNL     1       3.058  -0.566   0.174  1.00  0.00     0.014 C 
BRANCH  22  23
HETATM   23  C4  UNL     1       3.394   0.875   0.179  1.00  0.00     0.002 C 
BRANCH  23  24
HETATM   24  C3  UNL     1       4.888   1.020   0.337  1.00  0.00     0.020 C 
BRANCH  24  25
HETATM   25  C2  UNL     1       5.690   0.385  -0.746  1.00  0.00     0.122 C 
BRANCH  25  26
HETATM   26  N3  UNL     1       7.109   0.597  -0.487  1.00  0.00    -0.365 N 
HETATM   27  C1  UNL     1       7.749  -0.022   0.600  1.00  0.00     0.181 C 
HETATM   28  N1  UNL     1       8.268  -1.190   0.568  1.00  0.00    -0.374 N 
HETATM   29  N2  UNL     1       7.810   0.733   1.820  1.00  0.00    -0.064 NA
ATOM     30  H12 UNL     1       8.733  -1.639   1.357  1.00  0.00     0.158 HD
ATOM     31  H11 UNL     1       8.225  -1.726  -0.299  1.00  0.00     0.158 HD
ATOM     32  H3  UNL     1       7.646   1.205  -1.105  1.00  0.00     0.162 HD
ENDBRANCH  25  26
ENDBRANCH  24  25
ENDBRANCH  23  24
ENDBRANCH  22  23
ENDBRANCH   1  22
BRANCH  12  33
HETATM   33  C15 UNL     1      -4.806   0.424  -0.110  1.00  0.00     0.222 C 
HETATM   34  O1  UNL     1      -5.611   0.631  -1.047  1.00  0.00    -0.273 OA
HETATM   35  N5  UNL     1      -5.273   0.541   1.221  1.00  0.00    -0.351 N 
ATOM     36  H5  UNL     1      -4.611   0.370   1.978  1.00  0.00     0.163 HD
BRANCH  35  37
HETATM   37  C16 UNL     1      -6.623   0.886   1.569  1.00  0.00     0.235 C 
BRANCH  37  38
HETATM   38  C17 UNL     1      -6.810   0.932   3.040  1.00  0.00     0.191 C 
HETATM   39  O2  UNL     1      -5.858   0.686   3.830  1.00  0.00    -0.647 OA
HETATM   40  O3  UNL     1      -8.039   1.246   3.585  1.00  0.00    -0.647 OA
ENDBRANCH  37  38
ENDBRANCH  35  37
ENDBRANCH  12  33
TORSDOF 8
