REMARK  9 active torsions:
REMARK  status: ('A' for Active; 'I' for Inactive)
REMARK    1  A    between atoms: C2_2  and  N1_3 
REMARK    2  A    between atoms: C2_2  and  C13_19 
REMARK    3  A    between atoms: N1_3  and  C3_5 
REMARK    4  A    between atoms: C3_5  and  C4_9 
REMARK       I    between atoms: C13_19  and  N3_21 
REMARK    5  A    between atoms: N3_21  and  C14_23 
REMARK    6  A    between atoms: C14_23  and  C15_24 
REMARK    7  A    between atoms: C14_23  and  C19_32 
REMARK    8  A    between atoms: C15_24  and  C16_25 
REMARK       I    between atoms: C19_32  and  N6_34 
REMARK    9  A    between atoms: N6_34  and  C20_36 
ROOT
HETATM    1  C13 UNL     1      -0.141  -0.322   0.842  1.00  0.00     0.240 C 
HETATM    2  O1  UNL     1      -0.480  -1.524   0.888  1.00  0.00    -0.271 OA
HETATM    3  N3  UNL     1      -0.885   0.605   0.080  1.00  0.00    -0.346 N 
ATOM      4  H3  UNL     1      -0.606   1.585   0.035  1.00  0.00     0.163 HD
ENDROOT
BRANCH   3   5
HETATM    5  C14 UNL     1      -2.079   0.125  -0.652  1.00  0.00     0.182 C 
BRANCH   5   6
HETATM    6  C15 UNL     1      -1.757   0.260  -2.129  1.00  0.00     0.093 C 
BRANCH   6   7
HETATM    7  C16 UNL     1      -2.819  -0.157  -3.027  1.00  0.00     0.028 A 
HETATM    8  C17 UNL     1      -3.804   0.638  -3.587  1.00  0.00     0.114 A 
HETATM    9  N4  UNL     1      -4.570  -0.183  -4.341  1.00  0.00    -0.360 N 
HETATM   10  C18 UNL     1      -4.107  -1.446  -4.276  1.00  0.00     0.180 A 
ATOM     11  H4  UNL     1      -5.383   0.112  -4.882  1.00  0.00     0.166 HD
HETATM   12  N5  UNL     1      -3.043  -1.409  -3.473  1.00  0.00    -0.354 N 
ATOM     13  H5  UNL     1      -2.475  -2.220  -3.229  1.00  0.00     0.166 HD
ENDBRANCH   6   7
ENDBRANCH   5   6
BRANCH   5  14
HETATM   14  C19 UNL     1      -3.201   0.991  -0.245  1.00  0.00     0.241 C 
HETATM   15  O2  UNL     1      -2.935   2.084   0.328  1.00  0.00    -0.271 OA
HETATM   16  N6  UNL     1      -4.567   0.694  -0.440  1.00  0.00    -0.353 N 
ATOM     17  H6  UNL     1      -4.823  -0.185  -0.889  1.00  0.00     0.163 HD
BRANCH  16  18
HETATM   18  C20 UNL     1      -5.617   1.601  -0.021  1.00  0.00     0.111 C 
HETATM   19  C21 UNL     1      -6.451   0.902   1.062  1.00  0.00     0.054 C 
HETATM   20  C22 UNL     1      -7.760   1.621   0.953  1.00  0.00     0.234 C 
HETATM   21  N7  UNL     1      -7.800   2.287  -0.319  1.00  0.00    -0.073 N 
HETATM   22  C23 UNL     1      -6.659   1.814  -1.080  1.00  0.00     0.257 C 
ATOM     23  H72 UNL     1      -8.687   2.165  -0.808  1.00  0.00     0.277 HD
ATOM     24  H71 UNL     1      -7.835   3.303  -0.239  1.00  0.00     0.277 HD
ENDBRANCH  16  18
ENDBRANCH   5  14
ENDBRANCH   3   5
BRANCH   1  25
HETATM   25  C2  UNL     1       1.074   0.088   1.623  1.00  0.00     0.171 C 
HETATM   26  C1  UNL     1       0.572   1.143   2.653  1.00  0.00     0.042 C 
BRANCH  25  27
HETATM   27  N1  UNL     1       1.714  -0.983   2.314  1.00  0.00    -0.367 N 
ATOM     28  H1  UNL     1       1.644  -0.990   3.332  1.00  0.00     0.161 HD
BRANCH  27  29
HETATM   29  C3  UNL     1       2.430  -2.026   1.713  1.00  0.00     0.082 C 
HETATM   30  N2  UNL     1       1.929  -3.211   1.714  1.00  0.00    -0.388 N 
ATOM     31  H22 UNL     1       1.012  -3.356   2.136  1.00  0.00     0.157 HD
ATOM     32  H21 UNL     1       2.450  -3.971   1.276  1.00  0.00     0.157 HD
BRANCH  29  33
HETATM   33  C4  UNL     1       3.794  -1.810   1.086  1.00  0.00     0.109 C 
HETATM   34  C5  UNL     1       4.690  -1.052   1.963  1.00  0.00    -0.012 C 
HETATM   35  C6  UNL     1       4.888   0.381   1.867  1.00  0.00    -0.007 C 
HETATM   36  C7  UNL     1       5.218   1.132   0.680  1.00  0.00    -0.027 C 
HETATM   37  C8  UNL     1       5.937   0.602  -0.466  1.00  0.00     0.027 C 
HETATM   38  C9  UNL     1       6.752  -0.621  -0.340  1.00  0.00     0.004 C 
HETATM   39  C10 UNL     1       6.111  -1.901  -0.708  1.00  0.00     0.003 C 
HETATM   40  C11 UNL     1       4.726  -1.865  -1.249  1.00  0.00     0.038 C 
HETATM   41  C12 UNL     1       3.617  -1.485  -0.326  1.00  0.00     0.185 C 
HETATM   42  F1  UNL     1       2.491  -2.233  -0.767  1.00  0.00    -0.248 F 
ENDBRANCH  29  33
ENDBRANCH  27  29
ENDBRANCH  25  27
ENDBRANCH   1  25
TORSDOF 9
