REMARK  5 active torsions:
REMARK  status: ('A' for Active; 'I' for Inactive)
REMARK    1  A    between atoms: C3_3  and  C4_4 
REMARK    2  A    between atoms: C4_4  and  C7_7 
REMARK    3  A    between atoms: C7_7  and  N1_9 
REMARK       I    between atoms: N1_9  and  C9_11 
REMARK       I    between atoms: C9_11  and  N2_13 
REMARK    4  A    between atoms: N2_13  and  C10_15 
REMARK    5  A    between atoms: C17_22  and  C18_23 
REMARK       I    between atoms: C18_23  and  N3_25 
ROOT
HETATM    1  C1  UNL     1       5.374  -2.176   1.297  1.00  0.00     0.112 C 
HETATM    2  C2  UNL     1       4.846  -1.027   0.558  1.00  0.00    -0.110 C 
HETATM    3  C3  UNL     1       4.401  -0.100  -0.049  1.00  0.00    -0.096 C 
ENDROOT
BRANCH   3   4
HETATM    4  C4  UNL     1       3.837   1.022  -0.798  1.00  0.00     0.036 C 
HETATM    5  C5  UNL     1       4.883   2.099  -0.934  1.00  0.00     0.031 C 
HETATM    6  C6  UNL     1       3.447   0.563  -2.176  1.00  0.00     0.031 C 
BRANCH   4   7
HETATM    7  C7  UNL     1       2.681   1.581  -0.015  1.00  0.00     0.102 C 
HETATM    8  C8  UNL     1       3.204   2.041   1.320  1.00  0.00     0.034 C 
BRANCH   7   9
HETATM    9  N1  UNL     1       1.630   0.611   0.098  1.00  0.00    -0.337 N 
HETATM   10  C9  UNL     1       0.339   0.788  -0.432  1.00  0.00     0.316 C 
HETATM   11  O1  UNL     1       0.075   1.844  -1.039  1.00  0.00    -0.247 OA
HETATM   12  N2  UNL     1      -0.676  -0.184  -0.306  1.00  0.00    -0.337 N 
ATOM     13  H2  UNL     1      -0.457  -1.047   0.191  1.00  0.00     0.164 HD
ATOM     14  H1  UNL     1       1.831  -0.259   0.592  1.00  0.00     0.164 HD
BRANCH  12  15
HETATM   15  C10 UNL     1      -2.011  -0.024  -0.843  1.00  0.00     0.103 C 
HETATM   16  C11 UNL     1      -2.241  -1.135  -1.846  1.00  0.00     0.010 C 
HETATM   17  C12 UNL     1      -3.566  -0.963  -2.553  1.00  0.00     0.007 C 
HETATM   18  C16 UNL     1      -2.362  -2.326  -0.921  1.00  0.00     0.012 C 
HETATM   19  C13 UNL     1      -4.636  -1.867  -2.054  1.00  0.00     0.001 C 
HETATM   20  C14 UNL     1      -4.733  -1.982  -0.565  1.00  0.00     0.005 C 
HETATM   21  C15 UNL     1      -3.362  -1.767   0.091  1.00  0.00     0.001 C 
HETATM   22  C17 UNL     1      -3.112  -0.280   0.129  1.00  0.00     0.105 C 
BRANCH  22  23
HETATM   23  C18 UNL     1      -2.882   0.236   1.472  1.00  0.00     0.223 C 
HETATM   24  O2  UNL     1      -2.863  -0.551   2.440  1.00  0.00    -0.273 OA
HETATM   25  N3  UNL     1      -2.680   1.608   1.716  1.00  0.00    -0.365 N 
HETATM   26  C19 UNL     1      -2.455   2.087   3.062  1.00  0.00     0.149 C 
ATOM     27  H3  UNL     1      -2.692   2.268   0.939  1.00  0.00     0.161 HD
ENDBRANCH  22  23
ENDBRANCH  12  15
ENDBRANCH   7   9
ENDBRANCH   4   7
ENDBRANCH   3   4
TORSDOF 5
