REMARK  6 active torsions:
REMARK  status: ('A' for Active; 'I' for Inactive)
REMARK    1  A    between atoms: C2_2  and  N1_4 
REMARK       I    between atoms: N1_4  and  C4_6 
REMARK       I    between atoms: C4_6  and  N2_8 
REMARK    2  A    between atoms: N2_8  and  N3_10 
REMARK    3  A    between atoms: N3_10  and  C5_12 
REMARK    4  A    between atoms: C5_12  and  N4_14 
REMARK    5  A    between atoms: N4_14  and  C6_16 
REMARK    6  A    between atoms: C6_16  and  C7_17 
ROOT
HETATM    1  C5  UNL     1       1.081  -0.686  -0.387  1.00  0.00     0.186 C 
HETATM    2  S1  UNL     1       1.692   0.081  -1.688  1.00  0.00    -0.040 SA
ENDROOT
BRANCH   1   3
HETATM    3  N3  UNL     1       1.879  -1.548   0.418  1.00  0.00    -0.272 N 
ATOM      4  H3  UNL     1       1.484  -2.029   1.226  1.00  0.00     0.189 HD
BRANCH   3   5
HETATM    5  N2  UNL     1       3.218  -1.713   0.066  1.00  0.00    -0.249 N 
HETATM    6  C4  UNL     1       4.104  -0.619   0.221  1.00  0.00     0.335 C 
HETATM    7  N1  UNL     1       5.462  -0.783  -0.124  1.00  0.00    -0.338 N 
HETATM    8  O1  UNL     1       3.677   0.473   0.659  1.00  0.00    -0.246 OA
ATOM      9  H1  UNL     1       5.753  -1.698  -0.469  1.00  0.00     0.164 HD
ATOM     10  H2  UNL     1       3.553  -2.605  -0.297  1.00  0.00     0.192 HD
BRANCH   7  11
HETATM   11  C2  UNL     1       6.476   0.248  -0.026  1.00  0.00     0.078 C 
HETATM   12  C1  UNL     1       7.336  -0.172   1.183  1.00  0.00     0.032 C 
HETATM   13  C3  UNL     1       7.313   0.197  -1.280  1.00  0.00     0.032 C 
ENDBRANCH   7  11
ENDBRANCH   3   5
ENDBRANCH   1   3
BRANCH   1  14
HETATM   14  N4  UNL     1      -0.281  -0.517  -0.031  1.00  0.00    -0.365 N 
ATOM     15  H4  UNL     1      -0.679  -1.004   0.772  1.00  0.00     0.161 HD
BRANCH  14  16
HETATM   16  C6  UNL     1      -1.093   0.374  -0.847  1.00  0.00     0.131 C 
BRANCH  16  17
HETATM   17  C7  UNL     1      -2.520   0.379  -0.335  1.00  0.00    -0.023 C 
HETATM   18  C8  UNL     1      -3.072  -1.026  -0.431  1.00  0.00     0.015 C 
HETATM   19  C9  UNL     1      -4.522  -0.981  -0.006  1.00  0.00    -0.013 C 
HETATM   20  C10 UNL     1      -5.337  -0.063  -0.865  1.00  0.00     0.009 C 
HETATM   21  C14 UNL     1      -4.511  -0.545   1.452  1.00  0.00     0.009 C 
HETATM   22  C11 UNL     1      -4.766   1.341  -0.757  1.00  0.00    -0.013 C 
HETATM   23  C12 UNL     1      -4.761   1.816   0.672  1.00  0.00     0.009 C 
HETATM   24  C16 UNL     1      -3.331   1.273  -1.241  1.00  0.00     0.015 C 
HETATM   25  C13 UNL     1      -4.003   0.859   1.555  1.00  0.00    -0.013 C 
HETATM   26  C15 UNL     1      -2.554   0.879   1.078  1.00  0.00     0.015 C 
ENDBRANCH  16  17
ENDBRANCH  14  16
ENDBRANCH   1  14
TORSDOF 6
