REMARK  4 active torsions:
REMARK  status: ('A' for Active; 'I' for Inactive)
REMARK    1  A    between atoms: C2_2  and  N2_6 
REMARK    2  A    between atoms: N2_6  and  C3_8 
REMARK    3  A    between atoms: C6_11  and  N3_12 
REMARK       I    between atoms: N3_12  and  C7_14 
REMARK       I    between atoms: C7_14  and  N4_15 
REMARK    4  A    between atoms: N7_20  and  C9_22 
ROOT
HETATM    1  N3  UNL     1       0.340  -1.071  -1.158  1.00  0.00    -0.222 N 
ATOM      2  H3  UNL     1       0.126  -1.820  -1.817  1.00  0.00     0.178 HD
HETATM    3  C7  UNL     1      -0.700  -0.595  -0.342  1.00  0.00     0.677 C 
HETATM    4  N4  UNL     1      -0.777  -1.103   0.984  1.00  0.00    -0.166 N 
ATOM      5  H4  UNL     1      -0.594  -0.498   1.785  1.00  0.00     0.186 HD
HETATM    6  C8  UNL     1      -1.082  -2.341   1.153  1.00  0.00     0.215 C 
HETATM    7  N5  UNL     1      -1.180  -2.927   2.459  1.00  0.00    -0.066 NA
HETATM    8  N6  UNL     1      -1.339  -3.196   0.059  1.00  0.00    -0.066 NA
HETATM    9  N7  UNL     1      -1.578   0.272  -0.736  1.00  0.00    -0.212 N 
ATOM     10  H7  UNL     1      -1.538   0.648  -1.683  1.00  0.00     0.179 HD
ENDROOT
BRANCH   1  11
HETATM   11  C6  UNL     1       1.690  -0.568  -1.123  1.00  0.00     0.099 C 
HETATM   12  C5  UNL     1       1.688   0.889  -1.454  1.00  0.00     0.028 C 
HETATM   13  C4  UNL     1       2.796   1.621  -0.761  1.00  0.00     0.027 C 
HETATM   14  C3  UNL     1       4.049   0.786  -0.699  1.00  0.00     0.083 C 
HETATM   15  C17 UNL     1       3.805  -0.479   0.077  1.00  0.00     0.027 C 
HETATM   16  C16 UNL     1       2.323  -0.748   0.249  1.00  0.00     0.028 C 
BRANCH  14  17
HETATM   17  N2  UNL     1       5.082   1.596  -0.056  1.00  0.00    -0.376 N 
ATOM     18  H2  UNL     1       4.870   2.545   0.253  1.00  0.00     0.161 HD
BRANCH  17  19
HETATM   19  C2  UNL     1       6.376   1.059   0.136  1.00  0.00     0.066 C 
HETATM   20  C1  UNL     1       7.027   0.230  -0.904  1.00  0.00     0.088 C 
HETATM   21  N1  UNL     1       6.982   1.305   1.239  1.00  0.00    -0.389 N 
ATOM     22  H12 UNL     1       7.915   0.918   1.377  1.00  0.00     0.157 HD
ATOM     23  H11 UNL     1       6.534   1.876   1.955  1.00  0.00     0.157 HD
ENDBRANCH  17  19
ENDBRANCH  14  17
ENDBRANCH   1  11
BRANCH   9  24
HETATM   24  C9  UNL     1      -2.633   0.712   0.191  1.00  0.00     0.169 C 
HETATM   25  C10 UNL     1      -3.249   1.989  -0.485  1.00  0.00     0.064 C 
HETATM   26  C11 UNL     1      -4.763   2.034  -0.322  1.00  0.00    -0.028 C 
HETATM   27  C12 UNL     1      -5.635   0.991  -0.776  1.00  0.00    -0.030 C 
HETATM   28  C13 UNL     1      -6.061  -0.180   0.111  1.00  0.00     0.038 C 
HETATM   29  C14 UNL     1      -4.822  -0.999   0.611  1.00  0.00     0.086 C 
HETATM   30  C15 UNL     1      -3.702  -0.169   0.419  1.00  0.00    -0.157 C 
ENDBRANCH   9  24
TORSDOF 4
