REMARK  4 active torsions:
REMARK  status: ('A' for Active; 'I' for Inactive)
REMARK    1  A    between atoms: C2_2  and  N1_4 
REMARK       I    between atoms: N1_4  and  C4_6 
REMARK       I    between atoms: C4_6  and  N2_8 
REMARK    2  A    between atoms: N2_8  and  C5_10 
REMARK       I    between atoms: N3_13  and  C8_14 
REMARK       I    between atoms: C8_14  and  N4_16 
REMARK    3  A    between atoms: N4_16  and  C9_18 
REMARK    4  A    between atoms: C11_20  and  C12_21 
ROOT
HETATM    1  C5  UNL     1       2.013   0.122  -0.284  1.00  0.00     0.105 C 
HETATM    2  C6  UNL     1       1.220  -1.088  -0.709  1.00  0.00     0.047 C 
HETATM    3  C7  UNL     1      -0.226  -0.664  -0.631  1.00  0.00     0.129 C 
HETATM    4  N3  UNL     1      -0.182   0.773  -0.428  1.00  0.00    -0.332 N 
HETATM    5  C8  UNL     1      -1.090   1.704  -0.966  1.00  0.00     0.324 C 
HETATM    6  O2  UNL     1      -0.981   2.957  -0.734  1.00  0.00    -0.247 OA
HETATM    7  N4  UNL     1      -2.147   1.234  -1.784  1.00  0.00    -0.293 N 
ATOM      8  H4  UNL     1      -2.039   1.185  -2.797  1.00  0.00     0.172 HD
HETATM    9  C15 UNL     1       0.975   0.977   0.420  1.00  0.00     0.152 C 
ENDROOT
BRANCH   7  10
HETATM   10  C9  UNL     1      -3.254   0.868  -1.219  1.00  0.00     0.125 A 
HETATM   11  C10 UNL     1      -4.397   0.385  -1.818  1.00  0.00     0.080 A 
HETATM   12  C11 UNL     1      -5.311   0.129  -0.851  1.00  0.00     0.068 A 
HETATM   13  N5  UNL     1      -4.721   0.455   0.317  1.00  0.00    -0.300 N 
HETATM   14  N6  UNL     1      -3.496   0.896   0.101  1.00  0.00    -0.285 N 
ATOM     15  H5  UNL     1      -5.158   0.373   1.235  1.00  0.00     0.186 HD
ATOM     16  H6  UNL     1      -2.841   1.207   0.819  1.00  0.00     0.188 HD
BRANCH  12  17
HETATM   17  C12 UNL     1      -6.668  -0.401  -1.029  1.00  0.00     0.139 C 
HETATM   18  C13 UNL     1      -6.851  -1.705  -0.245  1.00  0.00     0.058 C 
HETATM   19  C14 UNL     1      -7.730   0.567  -0.582  1.00  0.00     0.058 C 
HETATM   20  F1  UNL     1      -6.874  -0.700  -2.359  1.00  0.00    -0.237 F 
ENDBRANCH  12  17
ENDBRANCH   7  10
BRANCH   1  21
HETATM   21  N2  UNL     1       3.114  -0.224   0.579  1.00  0.00    -0.337 N 
HETATM   22  C4  UNL     1       4.434   0.216   0.318  1.00  0.00     0.316 C 
HETATM   23  N1  UNL     1       5.506  -0.141   1.170  1.00  0.00    -0.339 N 
HETATM   24  O1  UNL     1       4.680   0.933  -0.679  1.00  0.00    -0.247 OA
ATOM     25  H1  UNL     1       5.322  -0.728   1.983  1.00  0.00     0.164 HD
ATOM     26  H2  UNL     1       2.937  -0.802   1.401  1.00  0.00     0.164 HD
BRANCH  23  27
HETATM   27  C2  UNL     1       6.862   0.309   0.913  1.00  0.00     0.078 C 
HETATM   28  C1  UNL     1       7.371   0.945   2.183  1.00  0.00     0.032 C 
HETATM   29  C3  UNL     1       7.751  -0.884   0.562  1.00  0.00     0.032 C 
ENDBRANCH  23  27
ENDBRANCH   1  21
TORSDOF 4
