REMARK  5 active torsions:
REMARK  status: ('A' for Active; 'I' for Inactive)
REMARK       I    between atoms: C1_2  and  N1_3 
REMARK       I    between atoms: C1_2  and  N2_19 
REMARK    1  A    between atoms: N1_3  and  C2_5 
REMARK    2  A    between atoms: C4_7  and  C5_8 
REMARK    3  A    between atoms: C5_8  and  O2_9 
REMARK    4  A    between atoms: C5_8  and  C6_12 
REMARK    5  A    between atoms: N2_19  and  C11_21 
ROOT
HETATM    1  O1  UNL     1      -0.448   1.057   0.630  1.00  0.00    -0.247 OA
HETATM    2  C1  UNL     1      -0.266  -0.067   0.052  1.00  0.00     0.317 C 
HETATM    3  N1  UNL     1       1.032  -0.597  -0.123  1.00  0.00    -0.338 N 
ATOM      4  H1  UNL     1       1.149  -1.497  -0.588  1.00  0.00     0.164 HD
HETATM    5  N2  UNL     1      -1.410  -0.754  -0.402  1.00  0.00    -0.334 N 
ATOM      6  H2  UNL     1      -1.273  -1.655  -0.861  1.00  0.00     0.165 HD
ENDROOT
BRANCH   3   7
HETATM    7  C2  UNL     1       2.182   0.109   0.342  1.00  0.00     0.091 C 
HETATM    8  C3  UNL     1       3.187   0.391  -0.753  1.00  0.00     0.037 C 
HETATM    9  C4  UNL     1       4.554   0.090  -0.193  1.00  0.00     0.071 C 
HETATM   10  C7  UNL     1       4.389  -0.174   1.263  1.00  0.00     0.002 C 
HETATM   11  C8  UNL     1       4.782  -1.614   1.616  1.00  0.00     0.006 C 
HETATM   12  C10 UNL     1       2.939  -0.639   1.402  1.00  0.00     0.013 C 
HETATM   13  C9  UNL     1       3.430  -2.017   1.014  1.00  0.00     0.007 C 
BRANCH   9  14
HETATM   14  C5  UNL     1       5.571   1.162  -0.506  1.00  0.00     0.296 C 
HETATM   15  F1  UNL     1       5.151   2.380  -0.024  1.00  0.00    -0.199 F 
BRANCH  14  16
HETATM   16  O2  UNL     1       6.778   0.765   0.067  1.00  0.00    -0.353 OA
ATOM     17  H2  UNL     1       7.418   1.439  -0.130  1.00  0.00     0.214 HD
ENDBRANCH  14  16
BRANCH  14  18
HETATM   18  C6  UNL     1       5.759   1.278  -1.961  1.00  0.00     0.244 C 
HETATM   19  O3  UNL     1       6.879   1.028  -2.472  1.00  0.00    -0.644 OA
HETATM   20  O4  UNL     1       4.731   1.662  -2.830  1.00  0.00    -0.644 OA
ENDBRANCH  14  18
ENDBRANCH   9  14
ENDBRANCH   3   7
BRANCH   5  21
HETATM   21  C11 UNL     1      -2.749  -0.274  -0.263  1.00  0.00     0.035 C 
HETATM   22  C12 UNL     1      -3.021   1.023  -0.947  1.00  0.00     0.035 C 
HETATM   23  C13 UNL     1      -4.463   1.428  -0.715  1.00  0.00    -0.012 C 
HETATM   24  C14 UNL     1      -4.654   1.606   0.768  1.00  0.00     0.009 C 
HETATM   25  C18 UNL     1      -5.386   0.421  -1.320  1.00  0.00     0.009 C 
HETATM   26  C15 UNL     1      -4.512   0.272   1.433  1.00  0.00    -0.012 C 
HETATM   27  C16 UNL     1      -5.467  -0.727   0.821  1.00  0.00     0.009 C 
HETATM   28  C20 UNL     1      -3.118  -0.265   1.212  1.00  0.00     0.035 C 
HETATM   29  C17 UNL     1      -5.128  -0.908  -0.623  1.00  0.00    -0.012 C 
HETATM   30  C19 UNL     1      -3.715  -1.294  -0.899  1.00  0.00     0.035 C 
ENDBRANCH   5  21
TORSDOF 5
