REMARK  4 active torsions:
REMARK  status: ('A' for Active; 'I' for Inactive)
REMARK    1  A    between atoms: C2_2  and  C3_3 
REMARK    2  A    between atoms: C2_2  and  N1_5 
REMARK    3  A    between atoms: C11_13  and  N2_14 
REMARK       I    between atoms: N2_14  and  C12_16 
REMARK       I    between atoms: C12_16  and  N3_18 
REMARK    4  A    between atoms: N3_18  and  C13_20 
ROOT
HETATM    1  N2  UNL     1       0.515  -0.663  -0.551  1.00  0.00    -0.322 N 
ATOM      2  H2  UNL     1       0.451  -0.480  -1.553  1.00  0.00     0.166 HD
HETATM    3  C12 UNL     1       1.677  -1.338  -0.076  1.00  0.00     0.323 C 
HETATM    4  O1  UNL     1       1.735  -1.554   1.161  1.00  0.00    -0.247 OA
HETATM    5  N3  UNL     1       2.739  -1.771  -0.874  1.00  0.00    -0.292 N 
ATOM      6  H3  UNL     1       2.572  -2.589  -1.460  1.00  0.00     0.172 HD
ENDROOT
BRANCH   1   7
HETATM    7  C11 UNL     1      -0.555  -0.228   0.262  1.00  0.00     0.184 C 
HETATM    8  N1  UNL     1      -1.819  -0.790   0.192  1.00  0.00    -0.383 N 
HETATM    9  C4  UNL     1      -2.668  -0.255   1.200  1.00  0.00     0.082 C 
HETATM   10  C5  UNL     1      -3.810   0.578   0.727  1.00  0.00     0.025 C 
HETATM   11  C9  UNL     1      -1.934   0.603   2.237  1.00  0.00     0.029 C 
HETATM   12  C6  UNL     1      -3.411   1.935   0.204  1.00  0.00     0.002 C 
HETATM   13  C7  UNL     1      -2.446   2.666   1.082  1.00  0.00     0.005 C 
HETATM   14  C8  UNL     1      -1.302   1.732   1.505  1.00  0.00    -0.009 C 
HETATM   15  C10 UNL     1      -0.619   1.311   0.241  1.00  0.00     0.051 C 
BRANCH   8  16
HETATM   16  C2  UNL     1      -2.462  -1.255  -0.928  1.00  0.00     0.091 C 
HETATM   17  C1  UNL     1      -1.702  -1.809  -2.072  1.00  0.00     0.033 C 
BRANCH  16  18
HETATM   18  C3  UNL     1      -3.431  -2.382  -0.514  1.00  0.00     0.139 C 
HETATM   19 CL1  UNL     1      -4.481  -2.755  -1.909  1.00  0.00    -0.128 Cl
ENDBRANCH  16  18
ENDBRANCH   8  16
ENDBRANCH   1   7
BRANCH   5  20
HETATM   20  C13 UNL     1       3.903  -1.238  -0.940  1.00  0.00     0.153 A 
HETATM   21  N4  UNL     1       4.893  -1.689  -1.722  1.00  0.00    -0.283 N 
HETATM   22  N5  UNL     1       5.959  -0.925  -1.560  1.00  0.00    -0.297 N 
ATOM     23  H4  UNL     1       4.833  -2.495  -2.344  1.00  0.00     0.188 HD
HETATM   24  C14 UNL     1       5.719   0.055  -0.672  1.00  0.00     0.080 A 
ATOM     25  H5  UNL     1       6.846  -1.061  -2.045  1.00  0.00     0.187 HD
HETATM   26  C15 UNL     1       6.243   1.150  -0.015  1.00  0.00     0.050 A 
HETATM   27  C17 UNL     1       4.397  -0.142  -0.269  1.00  0.00     0.106 A 
HETATM   28  C16 UNL     1       5.212   1.607   0.790  1.00  0.00     0.091 A 
HETATM   29  N6  UNL     1       4.127   0.832   0.628  1.00  0.00    -0.361 N 
ATOM     30  H6  UNL     1       3.236   0.959   1.108  1.00  0.00     0.165 HD
ENDBRANCH   5  20
TORSDOF 4
