REMARK  11 active torsions:
REMARK  status: ('A' for Active; 'I' for Inactive)
REMARK    1  A    between atoms: C2_2  and  N1_3 
REMARK    2  A    between atoms: N1_3  and  C3_5 
REMARK    3  A    between atoms: C3_5  and  C4_6 
REMARK    4  A    between atoms: C4_6  and  C5_7 
REMARK    5  A    between atoms: C5_7  and  C6_8 
REMARK    6  A    between atoms: C6_8  and  N2_9 
REMARK       I    between atoms: N2_9  and  C7_11 
REMARK    7  A    between atoms: C7_11  and  O2_13 
REMARK    8  A    between atoms: O2_13  and  C8_14 
REMARK    9  A    between atoms: C8_14  and  C9_15 
REMARK   10  A    between atoms: C16_23  and  O4_24 
REMARK   11  A    between atoms: C17_26  and  O5_27 
ROOT
HETATM    1  C9  UNL     1      -0.598   1.523  -1.433  1.00  0.00    -0.026 C 
HETATM    2  C10 UNL     1      -1.214   0.972  -0.409  1.00  0.00     0.060 C 
HETATM    3  O3  UNL     1      -1.394  -0.342   0.037  1.00  0.00    -0.348 OA
HETATM    4  C11 UNL     1      -2.625  -0.412   0.773  1.00  0.00     0.140 C 
HETATM    5  C12 UNL     1      -3.658  -1.155   0.020  1.00  0.00     0.051 C 
HETATM    6  C13 UNL     1      -4.855  -0.314  -0.352  1.00  0.00    -0.005 C 
HETATM    7  C14 UNL     1      -5.922  -1.038  -1.064  1.00  0.00     0.008 C 
HETATM    8  C15 UNL     1      -5.813  -2.527  -1.069  1.00  0.00     0.035 C 
HETATM    9  C16 UNL     1      -5.338  -3.027   0.251  1.00  0.00     0.147 C 
HETATM   10  C17 UNL     1      -4.079  -2.425   0.756  1.00  0.00     0.153 C 
HETATM   11  C18 UNL     1      -5.296   0.342   0.958  1.00  0.00     0.005 C 
HETATM   12  C19 UNL     1      -4.281   1.486   1.120  1.00  0.00     0.009 C 
HETATM   13  C20 UNL     1      -2.912   0.957   1.240  1.00  0.00     0.030 C 
HETATM   14  C21 UNL     1      -1.908   1.868   0.550  1.00  0.00     0.011 C 
HETATM   15  C22 UNL     1      -0.846   2.368   1.506  1.00  0.00     0.023 C 
HETATM   16  C23 UNL     1      -2.543   2.963  -0.239  1.00  0.00     0.017 C 
HETATM   17  C24 UNL     1      -1.476   3.796  -0.917  1.00  0.00     0.006 C 
HETATM   18  C25 UNL     1      -0.525   2.979  -1.719  1.00  0.00     0.039 C 
ENDROOT
BRANCH   1  19
HETATM   19  C8  UNL     1       0.093   0.636  -2.390  1.00  0.00     0.217 C 
BRANCH  19  20
HETATM   20  O2  UNL     1       1.453   0.917  -2.479  1.00  0.00    -0.300 OA
BRANCH  20  21
HETATM   21  C7  UNL     1       2.316   0.816  -1.404  1.00  0.00     0.360 C 
HETATM   22  N2  UNL     1       3.696   1.111  -1.526  1.00  0.00    -0.337 N 
ATOM     23  H2  UNL     1       4.054   1.414  -2.432  1.00  0.00     0.164 HD
HETATM   24  O1  UNL     1       1.830   0.449  -0.306  1.00  0.00    -0.239 OA
BRANCH  22  25
HETATM   25  C6  UNL     1       4.607   1.001  -0.430  1.00  0.00     0.125 C 
BRANCH  25  26
HETATM   26  C5  UNL     1       4.683  -0.413   0.060  1.00  0.00     0.021 C 
BRANCH  26  27
HETATM   27  C4  UNL     1       5.647  -0.547   1.207  1.00  0.00     0.021 C 
BRANCH  27  28
HETATM   28  C3  UNL     1       7.044  -0.151   0.856  1.00  0.00     0.113 C 
BRANCH  28  29
HETATM   29  N1  UNL     1       7.631  -0.904  -0.207  1.00  0.00    -0.421 N 
ATOM     30  H1  UNL     1       7.847  -0.487  -1.112  1.00  0.00     0.153 HD
BRANCH  29  31
HETATM   31  C2  UNL     1       7.896  -2.275   0.078  1.00  0.00     0.109 C 
HETATM   32  C1  UNL     1       8.984  -2.483   1.092  1.00  0.00     0.026 C 
ENDBRANCH  29  31
ENDBRANCH  28  29
ENDBRANCH  27  28
ENDBRANCH  26  27
ENDBRANCH  25  26
ENDBRANCH  22  25
ENDBRANCH  20  21
ENDBRANCH  19  20
ENDBRANCH   1  19
BRANCH  10  33
HETATM   33  O5  UNL     1      -2.991  -3.302   0.645  1.00  0.00    -0.393 OA
ATOM     34  H5  UNL     1      -3.253  -4.092   1.103  1.00  0.00     0.210 HD
ENDBRANCH  10  33
BRANCH   9  35
HETATM   35  O4  UNL     1      -6.335  -2.931   1.218  1.00  0.00    -0.393 OA
ATOM     36  H4  UNL     1      -6.032  -3.250   2.060  1.00  0.00     0.210 HD
ENDBRANCH   9  35
TORSDOF 11
