REMARK  12 active torsions:
REMARK  status: ('A' for Active; 'I' for Inactive)
REMARK    1  A    between atoms: C2_2  and  C3_3 
REMARK    2  A    between atoms: C3_3  and  C4_4 
REMARK    3  A    between atoms: C4_4  and  C5_5 
REMARK    4  A    between atoms: C5_5  and  C6_6 
REMARK    5  A    between atoms: C6_6  and  C7_7 
REMARK    6  A    between atoms: C7_7  and  C8_8 
REMARK    7  A    between atoms: C8_8  and  C9_9 
REMARK    8  A    between atoms: C9_9  and  C10_10 
REMARK    9  A    between atoms: C10_10  and  O1_11 
REMARK   10  A    between atoms: C10_10  and  C11_13 
REMARK   11  A    between atoms: C17_22  and  C19_24 
REMARK   12  A    between atoms: C22_30  and  O5_31 
ROOT
HETATM    1  C11 UNL     1      -0.534  -0.716   1.240  1.00  0.00     0.108 C 
HETATM    2  C12 UNL     1      -0.280  -1.765   0.175  1.00  0.00     0.027 C 
HETATM    3  C13 UNL     1      -1.300  -2.888   0.196  1.00  0.00     0.002 C 
HETATM    4  C14 UNL     1      -2.114  -2.956  -1.107  1.00  0.00     0.001 C 
HETATM    5  C15 UNL     1      -2.838  -1.682  -1.198  1.00  0.00     0.015 C 
HETATM    6  C16 UNL     1      -4.094  -1.589  -1.969  1.00  0.00     0.143 C 
HETATM    7  S1  UNL     1      -4.503   0.152  -1.935  1.00  0.00     0.171 S 
HETATM    8  O2  UNL     1      -5.352   0.442  -3.112  1.00  0.00    -0.225 OA
HETATM    9  O3  UNL     1      -3.188   0.887  -2.165  1.00  0.00    -0.225 OA
HETATM   10  C17 UNL     1      -5.136   0.711  -0.389  1.00  0.00     0.133 C 
HETATM   11  C18 UNL     1      -5.480  -0.406   0.563  1.00  0.00     0.056 C 
HETATM   12  N1  UNL     1      -4.367   1.772   0.229  1.00  0.00    -0.335 N 
ATOM     13  H1  UNL     1      -4.917   2.593   0.482  1.00  0.00     0.164 HD
HETATM   14  C21 UNL     1      -3.023   1.874   0.538  1.00  0.00     0.267 C 
HETATM   15  O4  UNL     1      -2.348   2.819  -0.028  1.00  0.00    -0.269 OA
HETATM   16  C22 UNL     1      -2.166   1.070   1.441  1.00  0.00     0.307 C 
HETATM   17  N2  UNL     1      -0.990   0.547   0.764  1.00  0.00    -0.383 N 
ATOM     18  H2  UNL     1      -0.526   1.047   0.005  1.00  0.00     0.156 HD
ENDROOT
BRANCH   1  19
HETATM   19  C10 UNL     1       0.690  -0.542   2.073  1.00  0.00     0.140 C 
BRANCH  19  20
HETATM   20  C9  UNL     1       1.941  -0.222   1.321  1.00  0.00     0.037 C 
BRANCH  20  21
HETATM   21  C8  UNL     1       2.085   1.159   0.823  1.00  0.00     0.029 C 
BRANCH  21  22
HETATM   22  C7  UNL     1       3.298   1.547   0.068  1.00  0.00    -0.031 C 
BRANCH  22  23
HETATM   23  C6  UNL     1       4.640   1.558   0.651  1.00  0.00    -0.031 C 
BRANCH  23  24
HETATM   24  C5  UNL     1       5.287   0.337   1.156  1.00  0.00     0.027 C 
BRANCH  24  25
HETATM   25  C4  UNL     1       5.439  -0.787   0.167  1.00  0.00     0.004 C 
BRANCH  25  26
HETATM   26  C3  UNL     1       6.245  -0.448  -1.044  1.00  0.00    -0.000 C 
BRANCH  26  27
HETATM   27  C2  UNL     1       7.648  -0.042  -0.692  1.00  0.00    -0.005 C 
HETATM   28  C1  UNL     1       8.448   0.291  -1.958  1.00  0.00     0.005 C 
ENDBRANCH  26  27
ENDBRANCH  25  26
ENDBRANCH  24  25
ENDBRANCH  23  24
ENDBRANCH  22  23
ENDBRANCH  21  22
ENDBRANCH  20  21
ENDBRANCH  19  20
BRANCH  19  29
HETATM   29  O1  UNL     1       0.526   0.258   3.201  1.00  0.00    -0.394 OA
ATOM     30  H1  UNL     1      -0.269   0.055   3.679  1.00  0.00     0.210 HD
ENDBRANCH  19  29
ENDBRANCH   1  19
BRANCH  16  31
HETATM   31  O5  UNL     1      -1.721   1.916   2.489  1.00  0.00    -0.368 OA
ATOM     32  H5  UNL     1      -1.172   1.401   3.068  1.00  0.00     0.212 HD
ENDBRANCH  16  31
BRANCH  10  33
HETATM   33  C19 UNL     1      -6.536   1.271  -0.778  1.00  0.00     0.042 C 
HETATM   34  C20 UNL     1      -7.156   1.773   0.484  1.00  0.00     0.009 C 
ENDBRANCH  10  33
TORSDOF 12
