REMARK  13 active torsions:
REMARK  status: ('A' for Active; 'I' for Inactive)
REMARK    1  A    between atoms: C5_5  and  O1_6 
REMARK    2  A    between atoms: C6_8  and  C7_9 
REMARK    3  A    between atoms: C7_9  and  O2_10 
REMARK    4  A    between atoms: O2_10  and  C8_11 
REMARK    5  A    between atoms: C8_11  and  C9_13 
REMARK    6  A    between atoms: C9_13  and  N1_15 
REMARK    7  A    between atoms: N1_15  and  C11_17 
REMARK    8  A    between atoms: C11_17  and  O4_18 
REMARK    9  A    between atoms: C11_17  and  C16_23 
REMARK   10  A    between atoms: O4_18  and  C12_19 
REMARK   11  A    between atoms: C12_19  and  C13_20 
REMARK   12  A    between atoms: C17_26  and  O7_27 
REMARK   13  A    between atoms: C17_26  and  C18_29 
ROOT
HETATM    1  C1  UNL     1      -0.792  -1.204  -2.009  1.00  0.00     0.015 C 
HETATM    2  C2  UNL     1      -1.736  -1.609  -1.209  1.00  0.00    -0.069 C 
HETATM    3  C3  UNL     1      -2.720  -2.735  -1.353  1.00  0.00     0.020 C 
HETATM    4  C4  UNL     1      -2.396  -3.535  -0.140  1.00  0.00     0.042 C 
HETATM    5  C5  UNL     1      -2.181  -2.459   0.902  1.00  0.00     0.136 C 
HETATM    6  C6  UNL     1      -2.195  -1.127   0.131  1.00  0.00     0.062 C 
HETATM    7  C17 UNL     1      -3.616  -0.846  -0.113  1.00  0.00     0.078 C 
HETATM    8  C24 UNL     1      -3.999  -1.972  -1.075  1.00  0.00     0.048 C 
ENDROOT
BRANCH   6   9
HETATM    9  C7  UNL     1      -1.352  -0.099   0.725  1.00  0.00     0.198 C 
BRANCH   9  10
HETATM   10  O2  UNL     1      -0.018  -0.615   0.901  1.00  0.00    -0.319 OA
BRANCH  10  11
HETATM   11  C8  UNL     1       0.989   0.146   1.431  1.00  0.00     0.281 C 
HETATM   12  O3  UNL     1       0.665   1.342   1.760  1.00  0.00    -0.263 OA
BRANCH  11  13
HETATM   13  C9  UNL     1       2.334  -0.412   1.595  1.00  0.00     0.175 C 
HETATM   14  C10 UNL     1       2.460  -0.983   3.017  1.00  0.00     0.042 C 
BRANCH  13  15
HETATM   15  N1  UNL     1       3.462   0.303   1.215  1.00  0.00    -0.375 N 
ATOM     16  H1  UNL     1       4.046   0.707   1.947  1.00  0.00     0.157 HD
BRANCH  15  17
HETATM   17  C11 UNL     1       3.841   0.500  -0.116  1.00  0.00     0.320 C 
BRANCH  17  18
HETATM   18  O4  UNL     1       5.204   0.934  -0.184  1.00  0.00    -0.356 OA
BRANCH  18  19
HETATM   19  C12 UNL     1       6.028  -0.045  -0.686  1.00  0.00     0.174 C 
BRANCH  19  20
HETATM   20  C13 UNL     1       7.435   0.486  -0.752  1.00  0.00     0.001 C 
HETATM   21  C14 UNL     1       7.432   1.692  -1.676  1.00  0.00     0.011 C 
HETATM   22  C15 UNL     1       7.807   0.919   0.671  1.00  0.00     0.011 C 
ENDBRANCH  19  20
ENDBRANCH  18  19
ENDBRANCH  17  18
BRANCH  17  23
HETATM   23  C16 UNL     1       3.063   1.229  -1.091  1.00  0.00     0.223 C 
HETATM   24  O5  UNL     1       1.963   1.811  -0.990  1.00  0.00    -0.645 OA
HETATM   25  O6  UNL     1       3.586   1.346  -2.427  1.00  0.00    -0.645 OA
ENDBRANCH  17  23
ENDBRANCH  15  17
ENDBRANCH  13  15
ENDBRANCH  11  13
ENDBRANCH  10  11
ENDBRANCH   9  10
ENDBRANCH   6   9
BRANCH   5  26
HETATM   26  O1  UNL     1      -1.017  -2.655   1.596  1.00  0.00    -0.394 OA
ATOM     27  H1  UNL     1      -0.882  -1.979   2.250  1.00  0.00     0.210 HD
ENDBRANCH   5  26
BRANCH   7  28
HETATM   28  O7  UNL     1      -4.302  -1.052   1.113  1.00  0.00    -0.388 OA
ATOM     29  H7  UNL     1      -5.221  -0.870   0.955  1.00  0.00     0.210 HD
ENDBRANCH   7  28
BRANCH   7  30
HETATM   30  C18 UNL     1      -4.043   0.419  -0.744  1.00  0.00     0.021 C 
HETATM   31  C19 UNL     1      -3.703   1.688  -0.081  1.00  0.00     0.007 C 
HETATM   32  C20 UNL     1      -4.888   2.653  -0.069  1.00  0.00     0.000 C 
HETATM   33  C21 UNL     1      -5.890   2.037   0.901  1.00  0.00     0.000 C 
HETATM   34  C22 UNL     1      -6.361   0.769   0.237  1.00  0.00     0.000 C 
HETATM   35  C23 UNL     1      -5.544   0.362  -0.954  1.00  0.00     0.007 C 
ENDBRANCH   7  30
TORSDOF 13
