REMARK  4 active torsions:
REMARK  status: ('A' for Active; 'I' for Inactive)
REMARK    1  A    between atoms: C6_6  and  C7_7 
REMARK    2  A    between atoms: C10_12  and  O1_13 
REMARK    3  A    between atoms: C12_21  and  N5_22 
REMARK    4  A    between atoms: N5_22  and  C13_24 
ROOT
HETATM    1  C1  UNL     1      -0.222  -0.604  -3.683  1.00  0.00     0.043 C 
HETATM    2  C2  UNL     1      -0.083  -0.150  -2.436  1.00  0.00     0.042 A 
HETATM    3  C3  UNL     1      -1.232  -0.302  -1.558  1.00  0.00     0.062 A 
HETATM    4  C4  UNL     1      -1.167   0.116  -0.311  1.00  0.00     0.087 A 
HETATM    5  C5  UNL     1      -2.323  -0.037   0.556  1.00  0.00     0.057 A 
HETATM    6  C6  UNL     1      -3.411  -0.675   0.306  1.00  0.00     0.005 C 
HETATM    7  N1  UNL     1      -2.137   0.488   1.896  1.00  0.00    -0.348 N 
ATOM      8  H1  UNL     1      -2.899   0.426   2.571  1.00  0.00     0.166 HD
HETATM    9  C9  UNL     1      -0.922   1.080   2.276  1.00  0.00     0.132 A 
HETATM   10  C10 UNL     1      -0.565   1.636   3.517  1.00  0.00     0.186 A 
HETATM   11  N2  UNL     1       0.673   2.056   3.368  1.00  0.00    -0.277 N 
ATOM     12  H2  UNL     1       1.211   2.511   4.105  1.00  0.00     0.189 HD
HETATM   13  N3  UNL     1       1.146   1.818   2.136  1.00  0.00    -0.281 N 
ATOM     14  H3  UNL     1       2.075   2.052   1.786  1.00  0.00     0.188 HD
HETATM   15  C11 UNL     1       0.165   1.215   1.454  1.00  0.00     0.175 A 
HETATM   16  N4  UNL     1       0.057   0.723   0.120  1.00  0.00    -0.126 N 
HETATM   17  C12 UNL     1       1.187   0.887  -0.714  1.00  0.00     0.694 A 
HETATM   18  N8  UNL     1       1.075   0.444  -1.956  1.00  0.00    -0.192 N 
ATOM     19  H8  UNL     1       1.872   0.543  -2.585  1.00  0.00     0.184 HD
ENDROOT
BRANCH  17  20
HETATM   20  N5  UNL     1       2.437   1.471  -0.378  1.00  0.00    -0.161 N 
ATOM     21  H5  UNL     1       2.530   2.478  -0.241  1.00  0.00     0.187 HD
BRANCH  20  22
HETATM   22  C13 UNL     1       3.570   0.591  -0.237  1.00  0.00     0.190 C 
HETATM   23  N6  UNL     1       4.794   0.811  -0.487  1.00  0.00    -0.360 N 
HETATM   24  C14 UNL     1       5.665  -0.297  -0.230  1.00  0.00     0.142 C 
ATOM     25  H6  UNL     1       5.131   1.706  -0.843  1.00  0.00     0.162 HD
HETATM   26  C15 UNL     1       4.788  -1.322   0.445  1.00  0.00     0.142 C 
HETATM   27  N7  UNL     1       3.479  -0.745   0.235  1.00  0.00    -0.360 N 
ATOM     28  H7  UNL     1       2.601  -1.236   0.405  1.00  0.00     0.162 HD
ENDBRANCH  20  22
ENDBRANCH  17  20
BRANCH   6  29
HETATM   29  C7  UNL     1      -4.034  -1.469  -0.731  1.00  0.00     0.025 C 
HETATM   30  C8  UNL     1      -5.207  -0.735  -1.377  1.00  0.00     0.009 C 
ENDBRANCH   6  29
BRANCH  10  31
HETATM   31  O1  UNL     1      -1.408   1.696   4.639  1.00  0.00    -0.343 OA
ATOM     32  H1  UNL     1      -1.167   2.072   5.478  1.00  0.00     0.219 HD
ENDBRANCH  10  31
TORSDOF 4
