REMARK  8 active torsions:
REMARK  status: ('A' for Active; 'I' for Inactive)
REMARK    1  A    between atoms: N1_1  and  C1_5 
REMARK    2  A    between atoms: C1_5  and  N2_6 
REMARK    3  A    between atoms: C1_5  and  C2_10 
REMARK    4  A    between atoms: C2_10  and  N3_11 
REMARK    5  A    between atoms: C2_10  and  C11_29 
REMARK       I    between atoms: N3_11  and  C3_13 
REMARK    6  A    between atoms: C3_13  and  C4_15 
REMARK    7  A    between atoms: C11_29  and  N6_30 
REMARK    8  A    between atoms: C11_29  and  N7_34 
ROOT
HETATM    1  C2  UNL     1      -2.502   0.086   0.024  1.00  0.00     0.199 C 
ENDROOT
BRANCH   1   2
HETATM    2  C1  UNL     1      -3.378  -1.163  -0.125  1.00  0.00     0.404 C 
BRANCH   2   3
HETATM    3  N1  UNL     1      -4.776  -0.804   0.054  1.00  0.00    -0.048 N 
ATOM      4  H13 UNL     1      -5.390  -1.619   0.062  1.00  0.00     0.276 HD
ATOM      5  H12 UNL     1      -4.974  -0.469   0.997  1.00  0.00     0.276 HD
ATOM      6  H11 UNL     1      -5.036  -0.127  -0.663  1.00  0.00     0.276 HD
ENDBRANCH   2   3
BRANCH   2   7
HETATM    7  N2  UNL     1      -3.010  -2.120   0.889  1.00  0.00    -0.048 N 
ATOM      8  H23 UNL     1      -3.208  -1.785   1.832  1.00  0.00     0.276 HD
ATOM      9  H22 UNL     1      -3.624  -2.935   0.897  1.00  0.00     0.276 HD
ATOM     10  H21 UNL     1      -2.030  -2.372   0.763  1.00  0.00     0.276 HD
ENDBRANCH   2   7
ENDBRANCH   1   2
BRANCH   1  11
HETATM   11  N3  UNL     1      -1.126  -0.385  -0.172  1.00  0.00    -0.348 N 
HETATM   12  C3  UNL     1      -0.133  -0.212   0.823  1.00  0.00     0.230 C 
HETATM   13  O1  UNL     1      -0.450   0.356   1.883  1.00  0.00    -0.273 OA
ATOM     14  H3  UNL     1      -0.879  -0.848  -1.046  1.00  0.00     0.163 HD
BRANCH  12  15
HETATM   15  C4  UNL     1       1.227  -0.720   0.536  1.00  0.00     0.158 C 
HETATM   16  C5  UNL     1       2.194  -0.489   1.642  1.00  0.00     0.080 C 
HETATM   17  C6  UNL     1       3.464  -0.226   0.925  1.00  0.00     0.034 A 
HETATM   18  N4  UNL     1       4.745  -0.230   1.345  1.00  0.00    -0.311 N 
HETATM   19  C9  UNL     1       3.230   0.070  -0.403  1.00  0.00     0.101 A 
HETATM   20  C7  UNL     1       5.785   0.032   0.558  1.00  0.00     0.327 A 
ATOM     21  H4  UNL     1       4.928  -0.447   2.325  1.00  0.00     0.170 HD
HETATM   22  O2  UNL     1       6.985   0.032   0.935  1.00  0.00    -0.247 OA
HETATM   23  N5  UNL     1       5.532   0.318  -0.734  1.00  0.00    -0.275 N 
HETATM   24  C8  UNL     1       4.305   0.350  -1.254  1.00  0.00     0.265 A 
ATOM     25  H5  UNL     1       6.322   0.521  -1.347  1.00  0.00     0.173 HD
HETATM   26  O3  UNL     1       4.075   0.618  -2.466  1.00  0.00    -0.267 OA
HETATM   27  C10 UNL     1       1.794   0.012  -0.608  1.00  0.00     0.180 C 
HETATM   28  O4  UNL     1       1.194   0.505  -1.589  1.00  0.00    -0.291 OA
ENDBRANCH  12  15
ENDBRANCH   1  11
BRANCH   1  29
HETATM   29  C11 UNL     1      -2.776   1.046  -1.114  1.00  0.00     0.404 C 
BRANCH  29  30
HETATM   30  N6  UNL     1      -4.153   1.480  -1.156  1.00  0.00    -0.048 N 
ATOM     31  H63 UNL     1      -4.788   0.682  -1.189  1.00  0.00     0.276 HD
ATOM     32  H62 UNL     1      -4.438   1.880  -0.262  1.00  0.00     0.276 HD
ATOM     33  H61 UNL     1      -4.338   2.127  -1.923  1.00  0.00     0.276 HD
ENDBRANCH  29  30
BRANCH  29  34
HETATM   34  N7  UNL     1      -1.873   2.174  -0.952  1.00  0.00    -0.048 N 
ATOM     35  H73 UNL     1      -1.943   2.613  -0.034  1.00  0.00     0.276 HD
ATOM     36  H72 UNL     1      -0.894   1.896  -0.891  1.00  0.00     0.276 HD
ATOM     37  H71 UNL     1      -2.058   2.821  -1.719  1.00  0.00     0.276 HD
ENDBRANCH  29  34
ENDBRANCH   1  29
TORSDOF 8
