REMARK  7 active torsions:
REMARK  status: ('A' for Active; 'I' for Inactive)
REMARK    1  A    between atoms: C1_4  and  N2_5 
REMARK    2  A    between atoms: N2_5  and  N3_7 
REMARK       I    between atoms: N3_7  and  C2_9 
REMARK    3  A    between atoms: C2_9  and  C3_11 
REMARK    4  A    between atoms: C3_11  and  N4_12 
REMARK    5  A    between atoms: N4_12  and  C4_14 
REMARK    6  A    between atoms: C8_24  and  N7_25 
REMARK    7  A    between atoms: N9_31  and  C10_32 
ROOT
HETATM    1  C4  UNL     1      -0.491   0.173  -0.069  1.00  0.00     0.691 A 
HETATM    2  N5  UNL     1      -0.786   1.001   0.943  1.00  0.00    -0.155 N 
ATOM      3  H5  UNL     1      -0.060   1.549   1.405  1.00  0.00     0.187 HD
HETATM    4  C5  UNL     1      -2.070   1.084   1.327  1.00  0.00     0.279 A 
HETATM    5  O2  UNL     1      -2.363   1.867   2.287  1.00  0.00    -0.266 OA
HETATM    6  C6  UNL     1      -3.080   0.362   0.730  1.00  0.00     0.146 A 
HETATM    7  C7  UNL     1      -4.381   0.489   1.166  1.00  0.00     0.279 A 
HETATM    8  O3  UNL     1      -4.617   1.271   2.112  1.00  0.00    -0.266 OA
HETATM    9  N6  UNL     1      -5.330  -0.236   0.549  1.00  0.00    -0.155 N 
ATOM     10  H6  UNL     1      -6.305  -0.172   0.840  1.00  0.00     0.187 HD
HETATM   11  C8  UNL     1      -4.971  -1.039  -0.450  1.00  0.00     0.680 A 
HETATM   12  N8  UNL     1      -3.697  -1.188  -0.905  1.00  0.00    -0.174 N 
ATOM     13  H8  UNL     1      -3.489  -1.822  -1.676  1.00  0.00     0.186 HD
HETATM   14  C9  UNL     1      -2.727  -0.485  -0.318  1.00  0.00     0.168 A 
HETATM   15  N9  UNL     1      -1.448  -0.574  -0.707  1.00  0.00    -0.106 N 
ENDROOT
BRANCH   1  16
HETATM   16  N4  UNL     1       0.712   0.057  -0.471  1.00  0.00    -0.216 N 
ATOM     17  H4  UNL     1       0.919  -0.578  -1.242  1.00  0.00     0.178 HD
BRANCH  16  18
HETATM   18  C3  UNL     1       1.775   0.791   0.129  1.00  0.00     0.242 C 
BRANCH  18  19
HETATM   19  C2  UNL     1       3.103   0.249  -0.298  1.00  0.00     0.254 C 
HETATM   20  N3  UNL     1       4.329   0.788   0.141  1.00  0.00    -0.268 N 
ATOM     21  H3  UNL     1       4.333   1.584   0.779  1.00  0.00     0.190 HD
HETATM   22  O1  UNL     1       3.123  -0.729  -1.084  1.00  0.00    -0.270 OA
BRANCH  20  23
HETATM   23  N2  UNL     1       5.532   0.243  -0.290  1.00  0.00    -0.294 N 
ATOM     24  H2  UNL     1       5.600  -0.051  -1.264  1.00  0.00     0.187 HD
BRANCH  23  25
HETATM   25  C1  UNL     1       6.674   0.068   0.536  1.00  0.00     0.190 C 
HETATM   26  N1  UNL     1       7.878   0.200   0.116  1.00  0.00    -0.394 N 
ATOM     27  H12 UNL     1       8.005   0.444  -0.866  1.00  0.00     0.156 HD
ATOM     28  H11 UNL     1       8.698   0.074   0.709  1.00  0.00     0.156 HD
ENDBRANCH  23  25
ENDBRANCH  20  23
ENDBRANCH  18  19
ENDBRANCH  16  18
ENDBRANCH   1  16
BRANCH  15  29
HETATM   29  C10 UNL     1      -0.996  -1.393  -1.740  1.00  0.00     0.378 C 
HETATM   30  O4  UNL     1      -1.678  -2.142  -2.444  1.00  0.00    -0.282 OA
ENDBRANCH  15  29
BRANCH  11  31
HETATM   31  N7  UNL     1      -5.892  -1.741  -1.045  1.00  0.00    -0.234 N 
ATOM     32  H72 UNL     1      -6.847  -1.629  -0.704  1.00  0.00     0.174 HD
ATOM     33  H71 UNL     1      -5.617  -2.356  -1.811  1.00  0.00     0.174 HD
ENDBRANCH  11  31
TORSDOF 7
