REMARK  3 active torsions:
REMARK  status: ('A' for Active; 'I' for Inactive)
REMARK    1  A    between atoms: C3_5  and  C4_6 
REMARK       I    between atoms: C4_6  and  N2_8 
REMARK    2  A    between atoms: N2_8  and  N3_10 
REMARK    3  A    between atoms: C5_13  and  C6_14 
ROOT
HETATM    1  C1  UNL     1      -1.185   0.083   3.581  1.00  0.00     0.049 C 
HETATM    2  C2  UNL     1      -0.755  -0.455   2.454  1.00  0.00     0.092 C 
HETATM    3  N1  UNL     1      -1.013   0.235   1.238  1.00  0.00    -0.347 N 
ATOM      4  H1  UNL     1      -1.815   0.865   1.270  1.00  0.00     0.166 HD
HETATM    5  C3  UNL     1      -0.324   0.195  -0.050  1.00  0.00     0.122 C 
HETATM    6  C5  UNL     1       0.256  -0.878  -0.552  1.00  0.00     0.111 C 
HETATM    7  C7  UNL     1       0.335  -2.236   0.087  1.00  0.00     0.264 C 
HETATM    8  O2  UNL     1       0.411  -3.147  -0.791  1.00  0.00    -0.267 OA
HETATM    9  N8  UNL     1       0.336  -2.604   1.441  1.00  0.00    -0.288 N 
ATOM     10  H8  UNL     1       0.622  -3.555   1.674  1.00  0.00     0.172 HD
HETATM   11  C8  UNL     1      -0.041  -1.729   2.531  1.00  0.00     0.274 C 
HETATM   12  O3  UNL     1       0.277  -2.098   3.675  1.00  0.00    -0.266 OA
ENDROOT
BRANCH   6  13
HETATM   13  C6  UNL     1       0.911  -0.834  -1.848  1.00  0.00     0.152 A 
HETATM   14  N4  UNL     1       2.256  -1.090  -1.952  1.00  0.00    -0.271 N 
HETATM   15  N5  UNL     1       2.615  -1.094  -3.222  1.00  0.00    -0.225 N 
ATOM     16  H4  UNL     1       2.884  -1.253  -1.165  1.00  0.00     0.190 HD
HETATM   17  N6  UNL     1       1.548  -0.850  -3.961  1.00  0.00    -0.005 NA
ATOM     18  H5  UNL     1       3.558  -1.258  -3.574  1.00  0.00     0.205 HD
HETATM   19  N7  UNL     1       0.532  -0.696  -3.108  1.00  0.00    -0.266 N 
ATOM     20  H7  UNL     1      -0.426  -0.495  -3.395  1.00  0.00     0.186 HD
ENDBRANCH   6  13
BRANCH   5  21
HETATM   21  C4  UNL     1      -0.239   1.438  -0.751  1.00  0.00     0.287 C 
HETATM   22  O1  UNL     1       0.304   1.621  -1.848  1.00  0.00    -0.264 OA
HETATM   23  N2  UNL     1      -0.825   2.618  -0.170  1.00  0.00    -0.271 N 
ATOM     24  H2  UNL     1      -1.292   2.557   0.735  1.00  0.00     0.189 HD
BRANCH  23  25
HETATM   25  N3  UNL     1      -0.759   3.867  -0.845  1.00  0.00    -0.342 N 
ATOM     26  H32 UNL     1      -0.288   3.911  -1.749  1.00  0.00     0.176 HD
ATOM     27  H31 UNL     1      -1.174   4.703  -0.433  1.00  0.00     0.176 HD
ENDBRANCH  23  25
ENDBRANCH   5  21
TORSDOF 3
