REMARK  2 active torsions:
REMARK  status: ('A' for Active; 'I' for Inactive)
REMARK    1  A    between atoms: N1_1  and  C1_4 
REMARK    2  A    between atoms: C6_26  and  N10_27 
ROOT
HETATM    1  C1  UNL     1       0.044  -1.357   1.652  1.00  0.00     0.134 A 
HETATM    2  N2  UNL     1      -0.178  -2.668   1.748  1.00  0.00    -0.292 N 
ATOM      3  H2  UNL     1      -0.387  -3.094   2.651  1.00  0.00     0.172 HD
HETATM    4  C2  UNL     1      -0.122  -3.425   0.627  1.00  0.00     0.340 A 
HETATM    5  O1  UNL     1      -0.335  -4.656   0.760  1.00  0.00    -0.245 OA
HETATM    6  N3  UNL     1       0.153  -2.844  -0.549  1.00  0.00    -0.251 N 
ATOM      7  H3  UNL     1       0.199  -3.397  -1.405  1.00  0.00     0.191 HD
HETATM    8  N4  UNL     1       0.365  -1.526  -0.576  1.00  0.00    -0.291 N 
ATOM      9  H4  UNL     1       0.570  -1.124  -1.491  1.00  0.00     0.187 HD
HETATM   10  C3  UNL     1       0.342  -0.694   0.418  1.00  0.00     0.121 A 
HETATM   11  C4  UNL     1       0.489   0.731   0.501  1.00  0.00     0.099 A 
HETATM   12  N5  UNL     1       0.989   1.177   1.739  1.00  0.00    -0.283 N 
ATOM     13  H5  UNL     1       1.160   0.490   2.473  1.00  0.00     0.188 HD
HETATM   14  N6  UNL     1       1.239   2.411   1.982  1.00  0.00    -0.241 N 
ATOM     15  H6  UNL     1       1.602   2.686   2.895  1.00  0.00     0.208 HD
HETATM   16  N7  UNL     1       1.030   3.318   1.062  1.00  0.00    -0.269 N 
ATOM     17  H7  UNL     1       1.238   4.295   1.268  1.00  0.00     0.190 HD
HETATM   18  C5  UNL     1       0.549   2.991  -0.144  1.00  0.00     0.152 A 
HETATM   19  N8  UNL     1       0.214   3.771  -1.183  1.00  0.00    -0.282 N 
ATOM     20  H8  UNL     1       0.324   4.783  -1.241  1.00  0.00     0.188 HD
HETATM   21  N9  UNL     1      -0.273   3.001  -2.092  1.00  0.00    -0.278 N 
ATOM     22  H9  UNL     1      -0.611   3.329  -2.997  1.00  0.00     0.189 HD
HETATM   23  C6  UNL     1      -0.283   1.661  -1.692  1.00  0.00     0.204 A 
HETATM   24  C7  UNL     1       0.261   1.663  -0.445  1.00  0.00     0.093 A 
ENDROOT
BRANCH   1  25
HETATM   25  N1  UNL     1      -0.017  -0.600   2.689  1.00  0.00    -0.383 N 
ATOM     26  H12 UNL     1      -0.229  -1.072   3.568  1.00  0.00     0.157 HD
ATOM     27  H11 UNL     1       0.153   0.403   2.616  1.00  0.00     0.157 HD
ENDBRANCH   1  25
BRANCH  23  28
HETATM   28  N10 UNL     1      -0.889   0.682  -2.445  1.00  0.00    -0.095 N 
HETATM   29  O2  UNL     1      -1.391   1.150  -3.577  1.00  0.00    -0.530 OA
HETATM   30  O3  UNL     1      -1.135  -0.586  -2.387  1.00  0.00    -0.530 OA
ENDBRANCH  23  28
TORSDOF 2
