REMARK  2 active torsions:
REMARK  status: ('A' for Active; 'I' for Inactive)
REMARK    1  A    between atoms: N5_13  and  N6_15 
REMARK    2  A    between atoms: C5_17  and  C6_18 
ROOT
HETATM    1  O1  UNL     1       5.262  -2.360   0.972  1.00  0.00    -0.278 OA
HETATM    2  C1  UNL     1       4.109  -2.002   0.681  1.00  0.00     0.237 A 
HETATM    3  C2  UNL     1       2.804  -2.628   0.636  1.00  0.00     0.152 A 
HETATM    4  N1  UNL     1       1.840  -1.897   0.273  1.00  0.00    -0.352 N 
ATOM      5  H1  UNL     1       0.901  -2.292   0.225  1.00  0.00     0.166 HD
HETATM    6  C3  UNL     1       2.037  -0.582  -0.057  1.00  0.00     0.131 A 
HETATM    7  S1  UNL     1       3.647  -0.337   0.144  1.00  0.00     0.020 SA
HETATM    8  N2  UNL     1       4.310   1.256  -0.170  1.00  0.00    -0.049 NA
HETATM    9  N3  UNL     1       3.199   2.121   0.025  1.00  0.00    -0.018 NA
HETATM   10  N4  UNL     1       2.076   1.772  -0.700  1.00  0.00    -0.269 N 
ATOM     11  H4  UNL     1       1.783   2.411  -1.439  1.00  0.00     0.185 HD
HETATM   12  C4  UNL     1       1.291   0.600  -0.508  1.00  0.00     0.168 C 
HETATM   13  N5  UNL     1       0.026   0.513  -0.699  1.00  0.00    -0.283 N 
ATOM     14  H5  UNL     1      -0.466  -0.366  -0.542  1.00  0.00     0.188 HD
ENDROOT
BRANCH  13  15
HETATM   15  N6  UNL     1      -0.655   1.638  -1.123  1.00  0.00    -0.307 N 
HETATM   16  C5  UNL     1      -1.915   1.745  -0.940  1.00  0.00     0.154 C 
ATOM     17  H6  UNL     1      -0.147   2.391  -1.587  1.00  0.00     0.186 HD
BRANCH  16  18
HETATM   18  C6  UNL     1      -2.644   0.683  -0.283  1.00  0.00     0.114 C 
HETATM   19  N7  UNL     1      -2.170  -0.427   0.173  1.00  0.00    -0.374 N 
HETATM   20  C7  UNL     1      -3.208  -1.237   0.764  1.00  0.00     0.141 C 
ATOM     21  H7  UNL     1      -1.188  -0.697   0.122  1.00  0.00     0.161 HD
HETATM   22  C8  UNL     1      -4.471  -0.635   0.207  1.00  0.00     0.141 C 
HETATM   23  N8  UNL     1      -4.058   0.723  -0.041  1.00  0.00    -0.374 N 
ATOM     24  H8  UNL     1      -4.654   1.551  -0.044  1.00  0.00     0.161 HD
ENDBRANCH  16  18
ENDBRANCH  13  15
TORSDOF 2
