REMARK  0 active torsions:
REMARK  status: ('A' for Active; 'I' for Inactive)
ROOT
HETATM    1  N1  UNL     1       2.767   0.024   0.007  1.00  0.00    -0.111 NA
HETATM    2  C1  UNL     1       1.657  -0.855   0.081  1.00  0.00     0.149 C 
HETATM    3  C2  UNL     1       0.423  -0.409   0.124  1.00  0.00     0.136 A 
HETATM    4  N2  UNL     1       0.197   0.992   0.095  1.00  0.00    -0.282 N 
ATOM      5  H2  UNL     1       0.992   1.629   0.042  1.00  0.00     0.188 HD
HETATM    6  N3  UNL     1      -1.110   1.513   0.139  1.00  0.00    -0.260 N 
ATOM      7  H3  UNL     1      -1.254   2.522   0.118  1.00  0.00     0.190 HD
HETATM    8  C3  UNL     1      -2.229   0.641   0.213  1.00  0.00     0.328 A 
HETATM    9  O1  UNL     1      -3.415   1.080   0.255  1.00  0.00    -0.261 OA
HETATM   10  C4  UNL     1      -2.041  -0.788   0.244  1.00  0.00     0.316 A 
HETATM   11  O2  UNL     1      -2.968  -1.624   0.309  1.00  0.00    -0.262 OA
HETATM   12  N4  UNL     1      -0.689  -1.285   0.197  1.00  0.00    -0.303 N 
ATOM     13  H4  UNL     1      -0.528  -2.292   0.217  1.00  0.00     0.171 HD
ENDROOT
TORSDOF 0
