REMARK  5 active torsions:
REMARK  status: ('A' for Active; 'I' for Inactive)
REMARK    1  A    between atoms: C5_5  and  N1_6 
REMARK    2  A    between atoms: N1_6  and  N2_8 
REMARK    3  A    between atoms: N2_8  and  C7_10 
REMARK    4  A    between atoms: C7_10  and  N3_12 
REMARK    5  A    between atoms: N3_12  and  N4_14 
ROOT
HETATM    1  C7  UNL     1       0.542  -0.870  -1.845  1.00  0.00     0.205 C 
HETATM    2  S1  UNL     1      -0.263  -2.231  -2.316  1.00  0.00    -0.038 SA
ENDROOT
BRANCH   1   3
HETATM    3  N2  UNL     1      -0.171   0.234  -1.306  1.00  0.00    -0.277 N 
ATOM      4  H2  UNL     1       0.335   1.070  -1.015  1.00  0.00     0.189 HD
BRANCH   3   5
HETATM    5  N1  UNL     1      -1.536   0.183  -1.174  1.00  0.00    -0.325 N 
HETATM    6  C6  UNL     1      -2.318   0.980  -2.018  1.00  0.00     0.171 C 
BRANCH   5   7
HETATM    7  C5  UNL     1      -2.048  -0.342   0.015  1.00  0.00     0.102 C 
HETATM    8  C4  UNL     1      -2.455   0.755   0.993  1.00  0.00     0.027 C 
HETATM    9  C3  UNL     1      -3.343   0.129   2.044  1.00  0.00     0.006 C 
HETATM   10  C2  UNL     1      -4.691  -0.254   1.473  1.00  0.00    -0.019 C 
HETATM   11  C1  UNL     1      -5.638   0.896   1.660  1.00  0.00     0.010 C 
HETATM   12  C15 UNL     1      -4.481  -0.593   0.015  1.00  0.00     0.006 C 
HETATM   13  C14 UNL     1      -3.154  -1.322  -0.077  1.00  0.00     0.027 C 
ENDBRANCH   5   7
ENDBRANCH   3   5
ENDBRANCH   1   3
BRANCH   1  14
HETATM   14  N3  UNL     1       1.948  -0.777  -1.967  1.00  0.00    -0.275 N 
ATOM     15  H3  UNL     1       2.439  -1.582  -2.356  1.00  0.00     0.189 HD
BRANCH  14  16
HETATM   16  N4  UNL     1       2.715   0.321  -1.600  1.00  0.00    -0.307 N 
HETATM   17  C8  UNL     1       3.835   0.171  -0.988  1.00  0.00     0.004 C 
HETATM   18  C9  UNL     1       4.642   1.375  -0.606  1.00  0.00     0.054 C 
HETATM   19  C13 UNL     1       4.410  -1.143  -0.617  1.00  0.00     0.054 C 
HETATM   20  C10 UNL     1       5.910   0.853   0.041  1.00  0.00     0.006 C 
HETATM   21  C11 UNL     1       5.478   0.101   1.288  1.00  0.00     0.001 C 
HETATM   22  C12 UNL     1       4.814  -1.179   0.848  1.00  0.00     0.006 C 
ATOM     23  H4  UNL     1       2.384   1.261  -1.820  1.00  0.00     0.186 HD
ENDBRANCH  14  16
ENDBRANCH   1  14
TORSDOF 5
