REMARK  18 active torsions:
REMARK  status: ('A' for Active; 'I' for Inactive)
REMARK    1  A    between atoms: C2_2  and  N1_3 
REMARK    2  A    between atoms: C2_2  and  C3_7 
REMARK    3  A    between atoms: C3_7  and  O1_8 
REMARK    4  A    between atoms: O1_8  and  C4_9 
REMARK    5  A    between atoms: C4_9  and  C5_10 
REMARK    6  A    between atoms: C5_10  and  N2_11 
REMARK    7  A    between atoms: C5_10  and  C12_19 
REMARK    8  A    between atoms: N2_11  and  C6_13 
REMARK    9  A    between atoms: C12_19  and  O2_20 
REMARK   10  A    between atoms: C12_19  and  N3_22 
REMARK   11  A    between atoms: C16_26  and  C17_27 
REMARK       I    between atoms: C17_27  and  N4_29 
REMARK   12  A    between atoms: N4_29  and  C18_31 
REMARK   13  A    between atoms: C18_31  and  C19_32 
REMARK   14  A    between atoms: C18_31  and  C26_39 
REMARK   15  A    between atoms: C19_32  and  C20_33 
REMARK       I    between atoms: C26_39  and  N5_41 
REMARK   16  A    between atoms: N5_41  and  C27_43 
REMARK   17  A    between atoms: C27_43  and  C28_44 
REMARK   18  A    between atoms: C27_43  and  C29_47 
ROOT
HETATM    1  N3  UNL     1      -1.899   1.156  -0.151  1.00  0.00    -0.350 N 
HETATM    2  C13 UNL     1      -2.136   1.731   1.126  1.00  0.00     0.126 C 
HETATM    3  C14 UNL     1      -1.208   2.901   1.275  1.00  0.00     0.022 C 
HETATM    4  C15 UNL     1      -0.525   3.021  -0.051  1.00  0.00     0.037 C 
HETATM    5  C16 UNL     1      -0.522   1.605  -0.532  1.00  0.00     0.178 C 
ENDROOT
BRANCH   5   6
HETATM    6  C17 UNL     1       0.478   0.731   0.108  1.00  0.00     0.241 C 
HETATM    7  O3  UNL     1       0.097  -0.098   0.969  1.00  0.00    -0.271 OA
HETATM    8  N4  UNL     1       1.843   0.781  -0.202  1.00  0.00    -0.346 N 
ATOM      9  H4  UNL     1       2.134   1.457  -0.908  1.00  0.00     0.163 HD
BRANCH   8  10
HETATM   10  C18 UNL     1       2.878  -0.041   0.389  1.00  0.00     0.177 C 
BRANCH  10  11
HETATM   11  C19 UNL     1       3.307  -1.163  -0.477  1.00  0.00     0.039 C 
BRANCH  11  12
HETATM   12  C20 UNL     1       3.844  -0.871  -1.813  1.00  0.00    -0.012 C 
HETATM   13  C21 UNL     1       4.186  -2.224  -2.471  1.00  0.00     0.005 C 
HETATM   14  C22 UNL     1       4.561  -1.985  -3.929  1.00  0.00     0.000 C 
HETATM   15  C23 UNL     1       5.835  -1.175  -3.930  1.00  0.00     0.000 C 
HETATM   16  C24 UNL     1       5.582   0.141  -3.284  1.00  0.00     0.000 C 
HETATM   17  C25 UNL     1       5.051   0.024  -1.866  1.00  0.00     0.005 C 
ENDBRANCH  11  12
ENDBRANCH  10  11
BRANCH  10  18
HETATM   18  C26 UNL     1       3.929   0.772   1.005  1.00  0.00     0.241 C 
HETATM   19  O4  UNL     1       3.849   2.030   0.948  1.00  0.00    -0.271 OA
HETATM   20  N5  UNL     1       5.033   0.196   1.664  1.00  0.00    -0.346 N 
ATOM     21  H5  UNL     1       5.124  -0.818   1.729  1.00  0.00     0.163 HD
BRANCH  20  22
HETATM   22  C27 UNL     1       6.042   1.064   2.251  1.00  0.00     0.177 C 
BRANCH  22  23
HETATM   23  C28 UNL     1       7.398   0.784   1.771  1.00  0.00     0.254 C 
HETATM   24  N6  UNL     1       8.469   1.604   2.229  1.00  0.00    -0.060 NA
HETATM   25  O5  UNL     1       7.676  -0.141   0.972  1.00  0.00    -0.275 OA
ENDBRANCH  22  23
BRANCH  22  26
HETATM   26  C29 UNL     1       5.969   0.978   3.769  1.00  0.00     0.009 C 
HETATM   27  C30 UNL     1       6.209  -0.405   4.293  1.00  0.00     0.012 C 
HETATM   28  C31 UNL     1       6.875   1.946   4.463  1.00  0.00     0.012 C 
ENDBRANCH  22  26
ENDBRANCH  20  22
ENDBRANCH  10  18
ENDBRANCH   8  10
ENDBRANCH   5   6
BRANCH   1  29
HETATM   29  C12 UNL     1      -2.689   0.350  -0.955  1.00  0.00     0.139 C 
BRANCH  29  30
HETATM   30  C5  UNL     1      -4.000  -0.288  -0.878  1.00  0.00     0.176 C 
BRANCH  30  31
HETATM   31  C4  UNL     1      -4.842  -0.123   0.306  1.00  0.00     0.200 C 
BRANCH  31  32
HETATM   32  O1  UNL     1      -4.222  -0.465   1.534  1.00  0.00    -0.387 OA
BRANCH  32  33
HETATM   33  C3  UNL     1      -5.192  -0.240   2.515  1.00  0.00     0.200 C 
BRANCH  33  34
HETATM   34  C2  UNL     1      -4.715  -0.562   3.906  1.00  0.00     0.203 C 
HETATM   35  C1  UNL     1      -5.930  -0.417   4.829  1.00  0.00     0.042 C 
BRANCH  34  36
HETATM   36  N1  UNL     1      -4.319  -1.966   4.019  1.00  0.00    -0.073 N 
ATOM     37  H13 UNL     1      -4.149  -2.271   4.977  1.00  0.00     0.274 HD
ATOM     38  H12 UNL     1      -5.071  -2.625   3.818  1.00  0.00     0.274 HD
ATOM     39  H11 UNL     1      -3.510  -2.062   3.405  1.00  0.00     0.274 HD
ENDBRANCH  34  36
ENDBRANCH  33  34
ENDBRANCH  32  33
ENDBRANCH  31  32
ENDBRANCH  30  31
BRANCH  30  40
HETATM   40  N2  UNL     1      -4.654  -0.028  -2.112  1.00  0.00    -0.404 N 
ATOM     41  H2  UNL     1      -4.317   0.756  -2.672  1.00  0.00     0.154 HD
BRANCH  40  42
HETATM   42  C6  UNL     1      -5.713  -0.762  -2.606  1.00  0.00     0.077 C 
HETATM   43  C7  UNL     1      -7.030  -0.763  -1.895  1.00  0.00     0.024 C 
HETATM   44  C8  UNL     1      -8.197  -0.763  -2.894  1.00  0.00     0.002 C 
HETATM   45  C9  UNL     1      -7.907  -1.893  -3.872  1.00  0.00     0.000 C 
HETATM   46  C10 UNL     1      -6.804  -1.374  -4.773  1.00  0.00     0.002 C 
HETATM   47  C11 UNL     1      -5.972  -0.322  -4.073  1.00  0.00     0.024 C 
ENDBRANCH  40  42
ENDBRANCH  30  40
ENDBRANCH  29  30
BRANCH  29  48
HETATM   48  O2  UNL     1      -2.107   0.081  -2.121  1.00  0.00    -0.348 OA
ATOM     49  H2  UNL     1      -1.254   0.496  -2.171  1.00  0.00     0.219 HD
ENDBRANCH  29  48
ENDBRANCH   1  29
TORSDOF 18
