REMARK  20 active torsions:
REMARK  status: ('A' for Active; 'I' for Inactive)
REMARK    1  A    between atoms: C2_2  and  C3_3 
REMARK    2  A    between atoms: C3_3  and  N1_4 
REMARK    3  A    between atoms: N1_4  and  C4_5 
REMARK    4  A    between atoms: C4_5  and  O1_6 
REMARK    5  A    between atoms: C4_5  and  C5_8 
REMARK    6  A    between atoms: C5_8  and  C6_10 
REMARK    7  A    between atoms: C9_14  and  C10_15 
REMARK    8  A    between atoms: C10_15  and  O4_16 
REMARK    9  A    between atoms: C10_15  and  C11_18 
REMARK   10  A    between atoms: C11_18  and  C12_19 
REMARK   11  A    between atoms: C11_18  and  N2_23 
REMARK   12  A    between atoms: C12_19  and  C13_20 
REMARK       I    between atoms: N2_23  and  C16_25 
REMARK   13  A    between atoms: C16_25  and  C17_27 
REMARK   14  A    between atoms: C17_27  and  N3_28 
REMARK   15  A    between atoms: C17_27  and  C25_42 
REMARK   16  A    between atoms: N3_28  and  C18_30 
REMARK   17  A    between atoms: C18_30  and  O6_31 
REMARK   18  A    between atoms: C18_30  and  C19_33 
REMARK   19  A    between atoms: C19_33  and  N4_34 
REMARK   20  A    between atoms: C19_33  and  C22_39 
REMARK       I    between atoms: N4_34  and  C20_36 
ROOT
HETATM    1  N2  UNL     1      -0.423  -1.670  -0.047  1.00  0.00    -0.323 N 
ATOM      2  H2  UNL     1      -0.983  -2.267   0.562  1.00  0.00     0.169 HD
HETATM    3  C16 UNL     1      -1.168  -0.654  -0.611  1.00  0.00     0.268 C 
HETATM    4  O5  UNL     1      -0.619   0.227  -1.344  1.00  0.00    -0.266 OA
ENDROOT
BRANCH   1   5
HETATM    5  C11 UNL     1       0.898  -2.075  -0.107  1.00  0.00     0.044 C 
BRANCH   5   6
HETATM    6  C10 UNL     1       2.120  -1.309  -0.256  1.00  0.00     0.102 C 
BRANCH   6   7
HETATM    7  C9  UNL     1       2.578  -0.409   0.876  1.00  0.00     0.250 C 
HETATM    8  C8  UNL     1       2.664   0.978   0.204  1.00  0.00     0.165 C 
HETATM    9  C7  UNL     1       4.005   1.004  -0.426  1.00  0.00     0.122 C 
HETATM   10  O3  UNL     1       1.826   1.817   0.215  1.00  0.00    -0.295 OA
HETATM   11  C6  UNL     1       4.763  -0.067   0.364  1.00  0.00     0.209 C 
HETATM   12  O8  UNL     1       3.885  -0.574   1.235  1.00  0.00    -0.358 OA
BRANCH  11  13
HETATM   13  C5  UNL     1       5.937   0.599   0.971  1.00  0.00     0.243 C 
HETATM   14  O2  UNL     1       5.849   1.016   2.125  1.00  0.00    -0.284 OA
BRANCH  13  15
HETATM   15  C4  UNL     1       7.192   0.746   0.192  1.00  0.00     0.263 C 
BRANCH  15  16
HETATM   16  N1  UNL     1       8.292   1.451   0.492  1.00  0.00    -0.390 NA
BRANCH  16  17
HETATM   17  C3  UNL     1       9.434   2.184   0.802  1.00  0.00     0.184 C 
BRANCH  17  18
HETATM   18  C2  UNL     1       9.418   2.984   2.046  1.00  0.00     0.021 C 
HETATM   19  C1  UNL     1       8.559   3.167   2.906  1.00  0.00     0.013 C 
ENDBRANCH  17  18
ENDBRANCH  16  17
ENDBRANCH  15  16
BRANCH  15  20
HETATM   20  O1  UNL     1       7.113   0.057  -0.924  1.00  0.00    -0.333 OA
ATOM     21  H1  UNL     1       6.333  -0.443  -1.137  1.00  0.00     0.220 HD
ENDBRANCH  15  20
ENDBRANCH  13  15
ENDBRANCH  11  13
ENDBRANCH   6   7
BRANCH   6  22
HETATM   22  O4  UNL     1       2.413  -0.778  -1.489  1.00  0.00    -0.360 OA
ATOM     23  H4  UNL     1       2.126  -1.342  -2.198  1.00  0.00     0.217 HD
ENDBRANCH   6  22
ENDBRANCH   5   6
BRANCH   5  24
HETATM   24  C12 UNL     1       1.068  -3.457   0.555  1.00  0.00     0.063 C 
BRANCH  24  25
HETATM   25  C13 UNL     1       1.946  -4.382  -0.214  1.00  0.00    -0.017 C 
HETATM   26  C14 UNL     1       1.998  -5.720   0.540  1.00  0.00     0.010 C 
HETATM   27  C15 UNL     1       1.345  -4.707  -1.571  1.00  0.00     0.010 C 
ENDBRANCH  24  25
ENDBRANCH   5  24
ENDBRANCH   1   5
BRANCH   3  28
HETATM   28  C17 UNL     1      -2.634  -0.459  -0.438  1.00  0.00     0.084 C 
BRANCH  28  29
HETATM   29  N3  UNL     1      -3.019   0.841   0.048  1.00  0.00    -0.337 N 
ATOM     30  H3  UNL     1      -3.018   0.953   1.062  1.00  0.00     0.167 HD
BRANCH  29  31
HETATM   31  C18 UNL     1      -3.389   1.955  -0.677  1.00  0.00     0.139 C 
BRANCH  31  32
HETATM   32  O6  UNL     1      -3.385   1.785  -1.975  1.00  0.00    -0.348 OA
ATOM     33  H6  UNL     1      -3.640   2.552  -2.474  1.00  0.00     0.219 HD
ENDBRANCH  31  32
BRANCH  31  34
HETATM   34  C19 UNL     1      -3.788   3.287  -0.272  1.00  0.00     0.162 C 
BRANCH  34  35
HETATM   35  N4  UNL     1      -4.940   3.773  -1.013  1.00  0.00    -0.349 N 
HETATM   36  C20 UNL     1      -4.797   4.754  -2.016  1.00  0.00     0.214 C 
HETATM   37  C21 UNL     1      -5.957   5.286  -2.773  1.00  0.00     0.117 C 
HETATM   38  O7  UNL     1      -3.673   5.261  -2.350  1.00  0.00    -0.274 OA
ATOM     39  H4  UNL     1      -5.866   3.399  -0.804  1.00  0.00     0.163 HD
ENDBRANCH  34  35
BRANCH  34  40
HETATM   40  C22 UNL     1      -3.957   3.537   1.181  1.00  0.00     0.008 C 
HETATM   41  C23 UNL     1      -4.384   4.983   1.447  1.00  0.00     0.012 C 
HETATM   42  C24 UNL     1      -2.638   3.344   1.941  1.00  0.00     0.012 C 
ENDBRANCH  34  40
ENDBRANCH  31  34
ENDBRANCH  29  31
ENDBRANCH  28  29
BRANCH  28  43
HETATM   43  C25 UNL     1      -3.581  -1.564  -0.403  1.00  0.00     0.041 C 
HETATM   44  C26 UNL     1      -3.619  -2.378  -1.730  1.00  0.00     0.011 C 
HETATM   45  C27 UNL     1      -5.034  -2.919  -1.841  1.00  0.00     0.001 C 
HETATM   46  C28 UNL     1      -5.319  -3.820  -0.679  1.00  0.00     0.000 C 
HETATM   47  C29 UNL     1      -5.030  -3.174   0.662  1.00  0.00     0.001 C 
HETATM   48  C30 UNL     1      -3.644  -2.524   0.722  1.00  0.00     0.011 C 
ENDBRANCH  28  43
ENDBRANCH   3  28
TORSDOF 20
