REMARK  21 active torsions:
REMARK  status: ('A' for Active; 'I' for Inactive)
REMARK    1  A    between atoms: C2_2  and  C3_3 
REMARK    2  A    between atoms: N1_7  and  C7_8 
REMARK    3  A    between atoms: C7_8  and  O1_9 
REMARK    4  A    between atoms: C7_8  and  C8_11 
REMARK    5  A    between atoms: C8_11  and  N2_12 
REMARK    6  A    between atoms: C8_11  and  C27_48 
REMARK       I    between atoms: N2_12  and  C9_14 
REMARK    7  A    between atoms: C9_14  and  C10_16 
REMARK    8  A    between atoms: C10_16  and  N3_18 
REMARK    9  A    between atoms: N3_18  and  C12_20 
REMARK   10  A    between atoms: C12_20  and  O3_21 
REMARK   11  A    between atoms: C12_20  and  C13_23 
REMARK   12  A    between atoms: C13_23  and  C14_24 
REMARK   13  A    between atoms: C13_23  and  N4_28 
REMARK   14  A    between atoms: C14_24  and  C15_25 
REMARK       I    between atoms: N4_28  and  C18_30 
REMARK   15  A    between atoms: C18_30  and  C19_32 
REMARK   16  A    between atoms: C19_32  and  C20_33 
REMARK   17  A    between atoms: C19_32  and  N5_37 
REMARK   18  A    between atoms: C20_33  and  O5_34 
REMARK   19  A    between atoms: O5_34  and  C21_35 
REMARK       I    between atoms: N5_37  and  C23_39 
REMARK   20  A    between atoms: C23_39  and  C24_41 
REMARK   21  A    between atoms: C24_41  and  N6_44 
ROOT
HETATM    1  C12 UNL     1      -0.815  -0.581   0.446  1.00  0.00     0.163 C 
ENDROOT
BRANCH   1   2
HETATM    2  N3  UNL     1       0.164  -0.073  -0.430  1.00  0.00    -0.356 N 
ATOM      3  H3  UNL     1       0.299   0.937  -0.481  1.00  0.00     0.162 HD
BRANCH   2   4
HETATM    4  C10 UNL     1       0.998  -0.938  -1.272  1.00  0.00     0.172 C 
HETATM    5  C11 UNL     1       1.061  -0.310  -2.625  1.00  0.00     0.042 C 
BRANCH   4   6
HETATM    6  C9  UNL     1       2.360  -0.983  -0.707  1.00  0.00     0.244 C 
HETATM    7  N2  UNL     1       3.540  -1.170  -1.419  1.00  0.00    -0.325 N 
ATOM      8  H2  UNL     1       3.443  -1.279  -2.429  1.00  0.00     0.169 HD
HETATM    9  O2  UNL     1       2.457  -0.837   0.538  1.00  0.00    -0.271 OA
BRANCH   7  10
HETATM   10  C8  UNL     1       4.897  -1.229  -0.894  1.00  0.00     0.070 C 
BRANCH  10  11
HETATM   11  C7  UNL     1       5.431   0.120  -0.826  1.00  0.00     0.162 C 
BRANCH  11  12
HETATM   12  N1  UNL     1       6.668   0.718  -1.167  1.00  0.00    -0.352 N 
HETATM   13  C3  UNL     1       6.961   2.115  -0.851  1.00  0.00     0.108 C 
HETATM   14  C4  UNL     1       8.459   2.149  -0.678  1.00  0.00     0.031 C 
HETATM   15  C5  UNL     1       8.826   1.353  -1.941  1.00  0.00     0.022 C 
HETATM   16  C6  UNL     1       7.794   0.224  -1.901  1.00  0.00     0.126 C 
BRANCH  13  17
HETATM   17  C2  UNL     1       6.278   2.602   0.373  1.00  0.00    -0.012 C 
HETATM   18  C1  UNL     1       6.653   2.198   1.589  1.00  0.00     0.009 C 
ENDBRANCH  13  17
ENDBRANCH  11  12
BRANCH  11  19
HETATM   19  O1  UNL     1       4.572   1.004  -0.333  1.00  0.00    -0.345 OA
ATOM     20  H1  UNL     1       3.742   0.603  -0.104  1.00  0.00     0.219 HD
ENDBRANCH  11  19
ENDBRANCH  10  11
BRANCH  10  21
HETATM   21  C27 UNL     1       5.655  -2.439  -1.112  1.00  0.00    -0.004 C 
HETATM   22  C28 UNL     1       6.695  -2.677  -0.006  1.00  0.00     0.021 C 
HETATM   23  C29 UNL     1       4.683  -3.655  -0.894  1.00  0.00     0.021 C 
HETATM   24  C30 UNL     1       6.286  -2.712  -2.422  1.00  0.00     0.021 C 
ENDBRANCH  10  21
ENDBRANCH   7  10
ENDBRANCH   4   6
ENDBRANCH   2   4
ENDBRANCH   1   2
BRANCH   1  25
HETATM   25  O3  UNL     1      -0.875  -1.897   0.410  1.00  0.00    -0.345 OA
ATOM     26  H3  UNL     1      -1.535  -2.240   1.001  1.00  0.00     0.219 HD
ENDBRANCH   1  25
BRANCH   1  27
HETATM   27  C13 UNL     1      -1.740   0.064   1.335  1.00  0.00     0.082 C 
BRANCH  27  28
HETATM   28  C14 UNL     1      -1.752   1.451   1.727  1.00  0.00     0.011 C 
BRANCH  28  29
HETATM   29  C15 UNL     1      -0.662   2.075   2.510  1.00  0.00     0.002 C 
HETATM   30  C16 UNL     1       0.712   2.136   2.034  1.00  0.00     0.013 C 
HETATM   31  C17 UNL     1      -0.639   1.526   3.954  1.00  0.00     0.013 C 
ENDBRANCH  28  29
ENDBRANCH  27  28
BRANCH  27  32
HETATM   32  N4  UNL     1      -3.060  -0.536   1.103  1.00  0.00    -0.322 N 
HETATM   33  C18 UNL     1      -4.281   0.115   0.932  1.00  0.00     0.247 C 
HETATM   34  O4  UNL     1      -4.399   1.388   0.932  1.00  0.00    -0.271 OA
ATOM     35  H4  UNL     1      -3.087  -1.555   1.062  1.00  0.00     0.169 HD
BRANCH  33  36
HETATM   36  C19 UNL     1      -5.562  -0.672   0.736  1.00  0.00     0.200 C 
BRANCH  36  37
HETATM   37  C20 UNL     1      -5.413  -1.836  -0.161  1.00  0.00     0.202 C 
BRANCH  37  38
HETATM   38  O5  UNL     1      -5.229  -1.670  -1.478  1.00  0.00    -0.389 OA
BRANCH  38  39
HETATM   39  C21 UNL     1      -6.173  -1.122  -2.271  1.00  0.00     0.163 C 
HETATM   40  C22 UNL     1      -5.676  -1.131  -3.741  1.00  0.00     0.033 C 
ENDBRANCH  38  39
ENDBRANCH  37  38
ENDBRANCH  36  37
BRANCH  36  41
HETATM   41  N5  UNL     1      -6.642   0.221   0.541  1.00  0.00    -0.344 N 
HETATM   42  C23 UNL     1      -7.865   0.095   1.306  1.00  0.00     0.253 C 
HETATM   43  O6  UNL     1      -7.937  -0.828   2.145  1.00  0.00    -0.271 OA
ATOM     44  H5  UNL     1      -6.558   0.966  -0.150  1.00  0.00     0.163 HD
BRANCH  42  45
HETATM   45  C24 UNL     1      -8.996   1.034   1.100  1.00  0.00     0.196 C 
HETATM   46  C25 UNL     1      -9.298   1.779   2.385  1.00  0.00     0.056 C 
HETATM   47  C26 UNL     1     -10.253   0.314   0.687  1.00  0.00     0.056 C 
BRANCH  45  48
HETATM   48  N6  UNL     1      -8.650   2.035   0.106  1.00  0.00    -0.062 N 
ATOM     49  H63 UNL     1      -7.788   2.525   0.345  1.00  0.00     0.275 HD
ATOM     50  H62 UNL     1      -8.345   1.611  -0.770  1.00  0.00     0.275 HD
ATOM     51  H61 UNL     1      -9.427   2.680  -0.036  1.00  0.00     0.275 HD
ENDBRANCH  45  48
ENDBRANCH  42  45
ENDBRANCH  36  41
ENDBRANCH  33  36
ENDBRANCH  27  32
ENDBRANCH   1  27
TORSDOF 21
