REMARK  6 active torsions:
REMARK  status: ('A' for Active; 'I' for Inactive)
REMARK    1  A    between atoms: C2_2  and  C3_3 
REMARK    2  A    between atoms: C3_3  and  O1_4 
REMARK    3  A    between atoms: C17_20  and  C18_21 
REMARK    4  A    between atoms: C17_20  and  C19_24 
REMARK    5  A    between atoms: C18_21  and  O3_22 
REMARK    6  A    between atoms: C19_24  and  O4_25 
ROOT
HETATM    1  C1  UNL     1      -3.027   1.628   1.056  1.00  0.00     0.018 C 
HETATM    2  C2  UNL     1      -2.856   0.848  -0.207  1.00  0.00    -0.018 C 
HETATM    3  C4  UNL     1      -4.147   0.052  -0.432  1.00  0.00     0.012 C 
HETATM    4  C5  UNL     1      -4.309  -1.072   0.509  1.00  0.00     0.002 C 
HETATM    5  C6  UNL     1      -3.073  -1.533   1.185  1.00  0.00     0.010 C 
HETATM    6  C7  UNL     1      -1.798  -1.330   0.428  1.00  0.00    -0.035 C 
HETATM    7  C8  UNL     1      -1.504  -2.483  -0.471  1.00  0.00     0.016 C 
HETATM    8  C9  UNL     1      -0.718  -0.902   1.396  1.00  0.00     0.001 C 
HETATM    9  C10 UNL     1       0.346  -1.927   1.484  1.00  0.00     0.032 C 
HETATM   10  C11 UNL     1       1.565  -1.504   2.249  1.00  0.00     0.169 C 
HETATM   11  O2  UNL     1       2.076  -0.301   2.005  1.00  0.00    -0.379 OA
HETATM   12  C12 UNL     1       2.045   0.333   0.846  1.00  0.00     0.073 C 
HETATM   13  C13 UNL     1       2.029   1.838   1.201  1.00  0.00     0.047 C 
HETATM   14  C14 UNL     1       0.886   0.132  -0.084  1.00  0.00     0.026 C 
HETATM   15  C15 UNL     1       1.250   1.133  -1.163  1.00  0.00     0.009 C 
HETATM   16  C16 UNL     1       2.740   0.986  -1.289  1.00  0.00     0.017 C 
HETATM   17  C17 UNL     1       3.207   0.183  -0.076  1.00  0.00     0.033 C 
HETATM   18  C20 UNL     1      -0.452   0.288   0.522  1.00  0.00     0.003 C 
HETATM   19  C21 UNL     1      -1.655  -0.019  -0.286  1.00  0.00     0.009 C 
ENDROOT
BRANCH  17  20
HETATM   20  C18 UNL     1       4.456   0.783   0.524  1.00  0.00     0.178 C 
BRANCH  20  21
HETATM   21  O3  UNL     1       5.555   0.645  -0.330  1.00  0.00    -0.400 OA
ATOM     22  H3  UNL     1       6.341   1.022   0.047  1.00  0.00     0.209 HD
ENDBRANCH  20  21
ENDBRANCH  17  20
BRANCH  17  23
HETATM   23  C19 UNL     1       3.469  -1.218  -0.544  1.00  0.00     0.178 C 
BRANCH  23  24
HETATM   24  O4  UNL     1       4.590  -1.237  -1.409  1.00  0.00    -0.400 OA
ATOM     25  H4  UNL     1       4.756  -2.124  -1.705  1.00  0.00     0.209 HD
ENDBRANCH  23  24
ENDBRANCH  17  23
BRANCH   2  26
HETATM   26  C3  UNL     1      -2.889   1.874  -1.341  1.00  0.00     0.173 C 
BRANCH  26  27
HETATM   27  O1  UNL     1      -1.903   2.831  -1.244  1.00  0.00    -0.400 OA
ATOM     28  H1  UNL     1      -1.923   3.468  -1.948  1.00  0.00     0.209 HD
ENDBRANCH  26  27
ENDBRANCH   2  26
TORSDOF 6
