REMARK  7 active torsions:
REMARK  status: ('A' for Active; 'I' for Inactive)
REMARK    1  A    between atoms: N1_1  and  N2_4 
REMARK    2  A    between atoms: N2_4  and  N3_5 
REMARK    3  A    between atoms: N3_5  and  C1_7 
REMARK    4  A    between atoms: C10_16  and  C11_17 
REMARK    5  A    between atoms: C11_17  and  C12_18 
REMARK    6  A    between atoms: C12_18  and  C13_19 
REMARK    7  A    between atoms: C13_19  and  C14_20 
ROOT
HETATM    1  C1  UNL     1      -1.170  -1.856   0.463  1.00  0.00     0.145 C 
HETATM    2  C2  UNL     1      -2.543  -2.145   0.071  1.00  0.00     0.002 C 
HETATM    3  C3  UNL     1      -3.500  -1.269  -0.012  1.00  0.00     0.010 C 
HETATM    4  C4  UNL     1      -3.184   0.122   0.301  1.00  0.00    -0.030 A 
HETATM    5  C5  UNL     1      -4.249   1.043   0.393  1.00  0.00     0.012 A 
HETATM    6  C6  UNL     1      -4.045   2.326   0.837  1.00  0.00     0.001 A 
HETATM    7  C7  UNL     1      -2.771   2.704   1.196  1.00  0.00     0.001 A 
HETATM    8  C8  UNL     1      -1.702   1.806   1.110  1.00  0.00     0.008 A 
HETATM    9  C9  UNL     1      -1.928   0.511   0.653  1.00  0.00    -0.041 A 
HETATM   10  C10 UNL     1      -0.763  -0.406   0.418  1.00  0.00     0.048 C 
ENDROOT
BRANCH  10  11
HETATM   11  C11 UNL     1      -0.191  -0.180  -0.966  1.00  0.00     0.012 C 
BRANCH  11  12
HETATM   12  C12 UNL     1       0.347   1.132  -1.301  1.00  0.00     0.005 C 
BRANCH  12  13
HETATM   13  C13 UNL     1       1.565   1.598  -0.562  1.00  0.00     0.038 C 
BRANCH  13  14
HETATM   14  C14 UNL     1       2.746   0.707  -0.775  1.00  0.00    -0.058 A 
HETATM   15  C15 UNL     1       2.982  -0.327   0.079  1.00  0.00     0.007 A 
HETATM   16  C16 UNL     1       4.073  -1.184  -0.088  1.00  0.00     0.001 A 
HETATM   17  C17 UNL     1       4.911  -0.950  -1.153  1.00  0.00     0.000 A 
HETATM   18  C18 UNL     1       4.681   0.081  -2.010  1.00  0.00     0.001 A 
HETATM   19  C19 UNL     1       3.611   0.908  -1.831  1.00  0.00     0.007 A 
ENDBRANCH  13  14
ENDBRANCH  12  13
ENDBRANCH  11  12
ENDBRANCH  10  11
BRANCH   1  20
HETATM   20  N3  UNL     1      -0.996  -2.328   1.845  1.00  0.00    -0.244 N 
ATOM     21  H3  UNL     1      -1.148  -1.684   2.621  1.00  0.00     0.197 HD
BRANCH  20  22
HETATM   22  N2  UNL     1      -0.671  -3.485   2.074  1.00  0.00    -0.248 NA
BRANCH  22  23
HETATM   23  N1  UNL     1      -0.507  -4.688   2.165  1.00  0.00    -0.261 N 
ATOM     24  H12 UNL     1      -1.277  -4.820   1.509  1.00  0.00     0.193 HD
ATOM     25  H11 UNL     1      -0.236  -5.653   2.356  1.00  0.00     0.193 HD
ENDBRANCH  22  23
ENDBRANCH  20  22
ENDBRANCH   1  20
TORSDOF 7
