REMARK  2 active torsions:
REMARK  status: ('A' for Active; 'I' for Inactive)
REMARK    1  A    between atoms: C2_2  and  C3_3 
REMARK    2  A    between atoms: C4_4  and  S1_5 
ROOT
HETATM    1  C3  UNL     1       0.617   0.207   0.499  1.00  0.00    -0.095 C 
HETATM    2  C4  UNL     1      -0.524  -0.225   0.535  1.00  0.00    -0.027 C 
ENDROOT
BRANCH   2   3
HETATM    3  S1  UNL     1      -2.147  -0.819   0.609  1.00  0.00    -0.038 SA
HETATM    4  C5  UNL     1      -3.388   0.194  -0.193  1.00  0.00     0.216 A 
HETATM    5  N1  UNL     1      -2.982  -1.114  -0.700  1.00  0.00    -0.165 NA
ENDBRANCH   2   3
BRANCH   1   6
HETATM    6  C2  UNL     1       1.982   0.744   0.472  1.00  0.00     0.090 C 
HETATM    7  C1  UNL     1       2.869  -0.273  -0.205  1.00  0.00     0.018 C 
ENDBRANCH   1   6
TORSDOF 2
