REMARK  5 active torsions:
REMARK  status: ('A' for Active; 'I' for Inactive)
REMARK       I    between atoms: N1_2  and  C2_4 
REMARK       I    between atoms: C2_4  and  N5_18 
REMARK    1  A    between atoms: N2_5  and  C3_7 
REMARK    2  A    between atoms: C3_7  and  N3_9 
REMARK    3  A    between atoms: N3_9  and  C4_11 
REMARK    4  A    between atoms: C4_11  and  C5_12 
REMARK    5  A    between atoms: N5_18  and  C10_20 
ROOT
HETATM    1  C1  UNL     1       1.473  -2.729   0.858  1.00  0.00     0.165 C 
HETATM    2  N1  UNL     1       1.371  -1.315   0.541  1.00  0.00    -0.231 N 
ATOM      3  H1  UNL     1       1.125  -0.643   1.268  1.00  0.00     0.177 HD
HETATM    4  C2  UNL     1       1.616  -0.873  -0.790  1.00  0.00     0.676 C 
HETATM    5  N2  UNL     1       0.625  -0.553  -1.520  1.00  0.00    -0.167 N 
ATOM      6  H2  UNL     1       0.784  -0.235  -2.476  1.00  0.00     0.186 HD
HETATM    7  N5  UNL     1       2.931  -0.798  -1.266  1.00  0.00    -0.222 N 
ATOM      8  H5  UNL     1       3.304  -1.546  -1.850  1.00  0.00     0.178 HD
ENDROOT
BRANCH   5   9
HETATM    9  C3  UNL     1      -0.738  -0.637  -1.002  1.00  0.00     0.186 C 
HETATM   10  S1  UNL     1      -1.490  -2.021  -1.390  1.00  0.00    -0.040 SA
BRANCH   9  11
HETATM   11  N3  UNL     1      -1.250   0.369  -0.182  1.00  0.00    -0.365 N 
ATOM     12  H3  UNL     1      -0.576   1.106   0.025  1.00  0.00     0.161 HD
BRANCH  11  13
HETATM   13  C4  UNL     1      -2.512   0.577   0.421  1.00  0.00     0.157 C 
BRANCH  13  14
HETATM   14  C5  UNL     1      -3.626   1.110  -0.356  1.00  0.00     0.240 C 
HETATM   15  C6  UNL     1      -4.148   0.393  -1.538  1.00  0.00     0.039 C 
HETATM   16  C7  UNL     1      -5.062  -0.663  -0.900  1.00  0.00     0.032 C 
HETATM   17  C8  UNL     1      -5.272  -0.158   0.530  1.00  0.00     0.272 C 
HETATM   18  N4  UNL     1      -4.863   1.215   0.441  1.00  0.00     0.090 N 
HETATM   19  C9  UNL     1      -4.665   1.877   1.688  1.00  0.00     0.310 C 
ENDBRANCH  13  14
ENDBRANCH  11  13
ENDBRANCH   9  11
ENDBRANCH   5   9
BRANCH   7  20
HETATM   20  C10 UNL     1       3.766   0.346  -0.929  1.00  0.00     0.099 C 
HETATM   21  C11 UNL     1       3.889   0.477   0.572  1.00  0.00     0.026 C 
HETATM   22  C12 UNL     1       5.279   1.013   0.833  1.00  0.00     0.002 C 
HETATM   23  C13 UNL     1       6.108   0.363  -0.257  1.00  0.00     0.002 C 
HETATM   24  C14 UNL     1       5.178   0.111  -1.404  1.00  0.00     0.026 C 
ENDBRANCH   7  20
TORSDOF 5
