REMARK  12 active torsions:
REMARK  status: ('A' for Active; 'I' for Inactive)
REMARK    1  A    between atoms: O1_2  and  C2_3 
REMARK    2  A    between atoms: C2_3  and  C3_5 
REMARK    3  A    between atoms: C3_5  and  C4_6 
REMARK    4  A    between atoms: C3_5  and  N1_14 
REMARK    5  A    between atoms: C4_6  and  C5_7 
REMARK    6  A    between atoms: C5_7  and  C6_8 
REMARK    7  A    between atoms: C6_8  and  C7_9 
REMARK    8  A    between atoms: C7_9  and  C8_10 
REMARK    9  A    between atoms: C8_10  and  C9_11 
REMARK       I    between atoms: N1_14  and  C10_16 
REMARK   10  A    between atoms: C10_16  and  C11_18 
REMARK   11  A    between atoms: C11_18  and  C12_19 
REMARK   12  A    between atoms: C14_26  and  C15_27 
ROOT
HETATM    1  C12 UNL     1      -0.624   1.323  -2.176  1.00  0.00     0.136 A 
HETATM    2  C13 UNL     1      -0.041   1.014  -3.513  1.00  0.00     0.246 A 
HETATM    3  O6  UNL     1       0.948   1.589  -3.997  1.00  0.00    -0.271 OA
HETATM    4  N2  UNL     1      -0.843  -0.020  -4.043  1.00  0.00    -0.270 N 
ATOM      5  H2  UNL     1      -0.716  -0.474  -4.947  1.00  0.00     0.190 HD
HETATM    6  N3  UNL     1      -1.820  -0.305  -3.130  1.00  0.00    -0.305 N 
ATOM      7  H3  UNL     1      -2.533  -1.019  -3.278  1.00  0.00     0.186 HD
HETATM    8  C14 UNL     1      -1.750   0.430  -2.045  1.00  0.00     0.029 A 
ENDROOT
BRANCH   1   9
HETATM    9  C11 UNL     1       0.481   1.268  -1.196  1.00  0.00     0.122 C 
BRANCH   9  10
HETATM   10  C10 UNL     1       1.215   0.009  -1.088  1.00  0.00     0.219 C 
HETATM   11  N1  UNL     1       2.302  -0.190  -0.180  1.00  0.00    -0.347 N 
ATOM     12  H1  UNL     1       2.588   0.582   0.422  1.00  0.00     0.163 HD
HETATM   13  O5  UNL     1       0.900  -0.962  -1.811  1.00  0.00    -0.274 OA
BRANCH  11  14
HETATM   14  C3  UNL     1       3.007  -1.445  -0.087  1.00  0.00     0.184 C 
BRANCH  14  15
HETATM   15  C2  UNL     1       3.119  -1.830   1.331  1.00  0.00     0.281 C 
HETATM   16  O2  UNL     1       2.644  -1.084   2.249  1.00  0.00    -0.263 OA
BRANCH  15  17
HETATM   17  O1  UNL     1       3.737  -3.010   1.755  1.00  0.00    -0.325 OA
HETATM   18  C1  UNL     1       3.801  -3.306   3.145  1.00  0.00     0.213 C 
ENDBRANCH  15  17
ENDBRANCH  14  15
BRANCH  14  19
HETATM   19  C4  UNL     1       4.363  -1.367  -0.775  1.00  0.00     0.035 C 
BRANCH  19  20
HETATM   20  C5  UNL     1       5.248  -0.335  -0.088  1.00  0.00     0.002 C 
BRANCH  20  21
HETATM   21  C6  UNL     1       6.566  -0.301  -0.831  1.00  0.00     0.001 C 
BRANCH  21  22
HETATM   22  C7  UNL     1       7.500   0.694  -0.208  1.00  0.00     0.010 C 
BRANCH  22  23
HETATM   23  C8  UNL     1       6.981   2.103  -0.202  1.00  0.00     0.113 C 
BRANCH  23  24
HETATM   24  C9  UNL     1       7.951   3.023   0.421  1.00  0.00     0.172 C 
HETATM   25  O3  UNL     1       7.752   4.274   0.455  1.00  0.00    -0.648 OA
HETATM   26  O4  UNL     1       9.105   2.501   0.980  1.00  0.00    -0.648 OA
ENDBRANCH  23  24
ENDBRANCH  22  23
ENDBRANCH  21  22
ENDBRANCH  20  21
ENDBRANCH  19  20
ENDBRANCH  14  19
ENDBRANCH  11  14
ENDBRANCH   9  10
ENDBRANCH   1   9
BRANCH   8  27
HETATM   27  C15 UNL     1      -2.778   0.272  -0.958  1.00  0.00     0.107 C 
HETATM   28  C16 UNL     1      -3.451   1.581  -0.691  1.00  0.00     0.137 C 
HETATM   29  O7  UNL     1      -2.999   2.366   0.118  1.00  0.00    -0.297 OA
HETATM   30  C17 UNL     1      -4.695   1.975  -1.400  1.00  0.00     0.079 C 
HETATM   31  C18 UNL     1      -5.890   2.070  -0.484  1.00  0.00     0.011 C 
HETATM   32  C19 UNL     1      -6.364   0.739   0.018  1.00  0.00    -0.016 C 
HETATM   33  C20 UNL     1      -7.871   0.793   0.152  1.00  0.00     0.010 C 
HETATM   34  C21 UNL     1      -5.684   0.371   1.331  1.00  0.00     0.036 C 
HETATM   35  C22 UNL     1      -4.684  -0.772   1.097  1.00  0.00     0.126 C 
HETATM   36  O8  UNL     1      -5.074  -1.818   1.910  1.00  0.00    -0.385 OA
HETATM   37  C25 UNL     1      -3.293  -0.364   1.406  1.00  0.00     0.021 C 
HETATM   38  C23 UNL     1      -4.118  -2.129   2.817  1.00  0.00     0.168 C 
HETATM   39  C24 UNL     1      -2.873  -1.402   2.425  1.00  0.00     0.034 C 
HETATM   40  C26 UNL     1      -2.323  -0.457   0.243  1.00  0.00     0.005 C 
HETATM   41  C27 UNL     1      -2.102  -1.915  -0.124  1.00  0.00     0.011 C 
ENDBRANCH   8  27
TORSDOF 12
