REMARK  6 active torsions:
REMARK  status: ('A' for Active; 'I' for Inactive)
REMARK    1  A    between atoms: N2_7  and  C7_9 
REMARK    2  A    between atoms: C7_9  and  C8_10 
REMARK    3  A    between atoms: C8_10  and  C9_12 
REMARK    4  A    between atoms: C9_12  and  N3_13 
REMARK    5  A    between atoms: C16_21  and  O1_22 
REMARK    6  A    between atoms: C17_24  and  O2_26 
ROOT
HETATM    1  N3  UNL     1       1.715  -0.294  -0.070  1.00  0.00    -0.029 N 
HETATM    2  C10 UNL     1       2.222  -0.451   1.279  1.00  0.00     0.269 C 
HETATM    3  C11 UNL     1       3.233   0.616   1.622  1.00  0.00     0.265 C 
HETATM    4  N4  UNL     1       4.030   0.918   0.449  1.00  0.00    -0.065 N 
HETATM    5  C12 UNL     1       5.059   1.849   0.890  1.00  0.00     0.272 C 
HETATM    6  C13 UNL     1       3.298   1.515  -0.610  1.00  0.00     0.265 C 
HETATM    7  C14 UNL     1       1.837   1.072  -0.531  1.00  0.00     0.269 C 
HETATM    8  C15 UNL     1       4.697  -0.240  -0.058  1.00  0.00     0.273 C 
HETATM    9  C16 UNL     1       3.918  -1.256  -0.764  1.00  0.00     0.207 C 
HETATM   10  C17 UNL     1       2.485  -1.109  -1.003  1.00  0.00     0.252 C 
HETATM   11  C18 UNL     1       1.891  -2.515  -1.101  1.00  0.00     0.082 C 
ENDROOT
BRANCH   1  12
HETATM   12  C9  UNL     1       0.346  -0.695  -0.067  1.00  0.00     0.259 C 
BRANCH  12  13
HETATM   13  C8  UNL     1      -0.709   0.325   0.086  1.00  0.00     0.110 C 
HETATM   14 BR1  UNL     1      -0.715   1.245   1.797  1.00  0.00    -0.088 Br
BRANCH  13  15
HETATM   15  C7  UNL     1      -2.039  -0.404   0.024  1.00  0.00     0.257 C 
BRANCH  15  16
HETATM   16  N2  UNL     1      -3.196   0.428   0.076  1.00  0.00    -0.038 N 
HETATM   17  C2  UNL     1      -4.309  -0.345  -0.452  1.00  0.00     0.216 C 
HETATM   18  C1  UNL     1      -4.301  -0.450  -1.952  1.00  0.00     0.042 C 
HETATM   19  C3  UNL     1      -5.490   0.446   0.019  1.00  0.00     0.307 C 
HETATM   20  N1  UNL     1      -5.078   0.786   1.378  1.00  0.00     0.112 N 
HETATM   21  C4  UNL     1      -5.592  -0.259   2.245  1.00  0.00     0.312 C 
HETATM   22  C5  UNL     1      -3.642   0.834   1.358  1.00  0.00     0.507 C 
HETATM   23  C6  UNL     1      -2.944   1.599  -0.753  1.00  0.00     0.275 C 
ENDBRANCH  15  16
ENDBRANCH  13  15
ENDBRANCH  12  13
ENDBRANCH   1  12
BRANCH  10  24
HETATM   24  O2  UNL     1       2.278  -0.547  -2.275  1.00  0.00    -0.363 OA
ATOM     25  H2  UNL     1       2.779  -1.078  -2.883  1.00  0.00     0.212 HD
ENDBRANCH  10  24
BRANCH   9  26
HETATM   26  O1  UNL     1       4.193  -2.541  -0.214  1.00  0.00    -0.389 OA
ATOM     27  H1  UNL     1       3.687  -3.201  -0.673  1.00  0.00     0.210 HD
ENDBRANCH   9  26
TORSDOF 6
