REMARK  6 active torsions:
REMARK  status: ('A' for Active; 'I' for Inactive)
REMARK    1  A    between atoms: C3_3  and  C4_4 
REMARK    2  A    between atoms: C5_6  and  O1_7 
REMARK    3  A    between atoms: N1_10  and  C7_11 
REMARK    4  A    between atoms: C7_11  and  C8_12 
REMARK    5  A    between atoms: C8_12  and  N2_13 
REMARK    6  A    between atoms: N2_13  and  C9_15 
ROOT
HETATM    1  C1  UNL     1      -5.475  -1.274  -1.487  1.00  0.00     0.015 C 
HETATM    2  C2  UNL     1      -4.659  -0.613  -0.886  1.00  0.00    -0.074 C 
HETATM    3  C3  UNL     1      -3.657   0.179  -0.125  1.00  0.00     0.226 C 
HETATM    4  C5  UNL     1      -2.667   0.716  -1.119  1.00  0.00     0.194 C 
HETATM    5  C6  UNL     1      -1.341   0.099  -1.198  1.00  0.00     0.272 C 
HETATM    6  N1  UNL     1      -0.642  -0.197  -0.000  1.00  0.00    -0.060 N 
HETATM    7  C15 UNL     1      -0.964   0.567   1.155  1.00  0.00     0.265 C 
HETATM    8  C16 UNL     1      -2.207  -0.005   1.782  1.00  0.00     0.267 C 
HETATM    9  N4  UNL     1      -3.095  -0.662   0.863  1.00  0.00    -0.045 N 
HETATM   10  C17 UNL     1      -4.119  -1.297   1.677  1.00  0.00     0.274 C 
HETATM   11  C18 UNL     1      -2.415  -1.753   0.189  1.00  0.00     0.267 C 
HETATM   12  C19 UNL     1      -0.924  -1.620   0.284  1.00  0.00     0.265 C 
ENDROOT
BRANCH   3  13
HETATM   13  C4  UNL     1      -4.418   1.387   0.375  1.00  0.00     0.141 C 
HETATM   14 BR1  UNL     1      -5.925   0.998   1.487  1.00  0.00    -0.093 Br
ENDBRANCH   3  13
BRANCH   4  15
HETATM   15  O1  UNL     1      -3.257   0.632  -2.394  1.00  0.00    -0.390 OA
ATOM     16  H1  UNL     1      -2.631   0.972  -3.023  1.00  0.00     0.210 HD
ENDBRANCH   4  15
BRANCH   6  17
HETATM   17  C7  UNL     1       0.824  -0.120  -0.197  1.00  0.00     0.257 C 
BRANCH  17  18
HETATM   18  C8  UNL     1       1.317   1.262   0.001  1.00  0.00     0.142 C 
BRANCH  18  19
HETATM   19  N2  UNL     1       2.707   1.410  -0.229  1.00  0.00    -0.415 N 
ATOM     20  H2  UNL     1       3.034   1.974  -1.013  1.00  0.00     0.153 HD
BRANCH  19  21
HETATM   21  C9  UNL     1       3.639   0.783   0.619  1.00  0.00     0.088 A 
HETATM   22  C10 UNL     1       3.796  -0.749   0.642  1.00  0.00     0.039 A 
HETATM   23  C11 UNL     1       4.841   0.156   0.130  1.00  0.00     0.014 A 
HETATM   24  C12 UNL     1       5.382   0.184  -1.242  1.00  0.00     0.049 A 
HETATM   25  C14 UNL     1       6.187   0.274   0.786  1.00  0.00     0.227 A 
HETATM   26  C13 UNL     1       6.767   0.435  -0.623  1.00  0.00     0.218 A 
HETATM   27  N3  UNL     1       7.263  -0.544   0.323  1.00  0.00    -0.062 N 
ATOM     28  H32 UNL     1       7.387  -1.555   0.268  1.00  0.00     0.278 HD
ATOM     29  H31 UNL     1       8.194  -0.735   0.694  1.00  0.00     0.278 HD
ENDBRANCH  19  21
ENDBRANCH  18  19
ENDBRANCH  17  18
ENDBRANCH   6  17
TORSDOF 6
