REMARK  4 active torsions:
REMARK  status: ('A' for Active; 'I' for Inactive)
REMARK    1  A    between atoms: C2_2  and  N1_3 
REMARK    2  A    between atoms: C5_6  and  C6_7 
REMARK    3  A    between atoms: C6_7  and  C7_8 
REMARK    4  A    between atoms: C7_8  and  N2_9 
ROOT
HETATM    1  C7  UNL     1       1.874  -1.369   0.199  1.00  0.00     0.127 C 
ENDROOT
BRANCH   1   2
HETATM    2  C6  UNL     1       1.364  -0.275   1.112  1.00  0.00     0.058 C 
BRANCH   2   3
HETATM    3  C5  UNL     1      -0.076   0.006   0.882  1.00  0.00    -0.054 A 
HETATM    4  C4  UNL     1      -0.496   0.950  -0.037  1.00  0.00     0.024 A 
HETATM    5  C3  UNL     1      -1.846   1.201  -0.241  1.00  0.00     0.091 A 
HETATM    6  N1  UNL     1      -2.802   0.546   0.437  1.00  0.00    -0.367 N 
HETATM    7  C10 UNL     1      -2.405  -0.374   1.333  1.00  0.00     0.091 A 
HETATM    8  C9  UNL     1      -1.072  -0.658   1.570  1.00  0.00     0.024 A 
BRANCH   6   9
HETATM    9  C2  UNL     1      -4.216   0.799   0.234  1.00  0.00     0.123 C 
HETATM   10  C1  UNL     1      -4.767  -0.102  -0.847  1.00  0.00     0.027 C 
ENDBRANCH   6   9
ENDBRANCH   2   3
ENDBRANCH   1   2
BRANCH   1  11
HETATM   11  N2  UNL     1       3.279  -1.623   0.445  1.00  0.00    -0.360 N 
HETATM   12  C8  UNL     1       4.205  -0.849  -0.013  1.00  0.00     0.208 A 
HETATM   13  N3  UNL     1       5.597  -1.049   0.196  1.00  0.00    -0.257 N 
HETATM   14  N6  UNL     1       4.084   0.315  -0.786  1.00  0.00    -0.253 N 
HETATM   15  N4  UNL     1       6.260  -0.120  -0.378  1.00  0.00    -0.224 N 
ATOM     16  H3  UNL     1       6.005  -1.819   0.725  1.00  0.00     0.191 HD
HETATM   17  N5  UNL     1       5.384   0.775  -1.015  1.00  0.00    -0.004 NA
ATOM     18  H4  UNL     1       7.277  -0.040  -0.374  1.00  0.00     0.205 HD
ATOM     19  H6  UNL     1       3.218   0.742  -1.116  1.00  0.00     0.187 HD
ATOM     20  H2  UNL     1       3.545  -2.439   0.997  1.00  0.00     0.162 HD
ENDBRANCH   1  11
TORSDOF 4
