REMARK  3 active torsions:
REMARK  status: ('A' for Active; 'I' for Inactive)
REMARK       I    between atoms: C2_2  and  N1_4 
REMARK    1  A    between atoms: N1_4  and  C3_6 
REMARK       I    between atoms: N2_9  and  C6_10 
REMARK       I    between atoms: C6_10  and  N4_14 
REMARK    2  A    between atoms: N4_14  and  C7_16 
REMARK    3  A    between atoms: C12_21  and  O2_22 
ROOT
HETATM    1  C3  UNL     1      -2.465  -0.847   0.213  1.00  0.00     0.135 C 
HETATM    2  C4  UNL     1      -2.184  -1.813   1.320  1.00  0.00     0.050 C 
HETATM    3  C5  UNL     1      -0.721  -2.165   1.015  1.00  0.00     0.146 C 
HETATM    4  N2  UNL     1      -0.184  -0.830   0.843  1.00  0.00    -0.190 N 
HETATM    5  C6  UNL     1       1.104  -0.421   1.266  1.00  0.00     0.672 C 
HETATM    6  N3  UNL     1       1.752  -1.015   2.221  1.00  0.00    -0.235 N 
ATOM      7  H31 UNL     1       2.680  -0.720   2.526  1.00  0.00     0.174 HD
ATOM      8  H32 UNL     1       1.274  -1.804   2.656  1.00  0.00     0.174 HD
HETATM    9  N4  UNL     1       1.775   0.686   0.656  1.00  0.00    -0.222 N 
ATOM     10  H4  UNL     1       1.874   1.572   1.151  1.00  0.00     0.178 HD
HETATM   11  C12 UNL     1      -1.180  -0.018   0.178  1.00  0.00     0.260 C 
ENDROOT
BRANCH  11  12
HETATM   12  O2  UNL     1      -1.395   1.197   0.820  1.00  0.00    -0.374 OA
ATOM     13  H2  UNL     1      -0.597   1.712   0.798  1.00  0.00     0.212 HD
ENDBRANCH  11  12
BRANCH   9  14
HETATM   14  C7  UNL     1       2.311   0.522  -0.679  1.00  0.00     0.099 C 
HETATM   15  C8  UNL     1       2.972   1.811  -1.120  1.00  0.00     0.026 C 
HETATM   16  C9  UNL     1       4.423   1.689  -0.720  1.00  0.00     0.002 C 
HETATM   17  C10 UNL     1       4.700   0.246  -0.448  1.00  0.00     0.002 C 
HETATM   18  C11 UNL     1       3.414  -0.513  -0.703  1.00  0.00     0.026 C 
ENDBRANCH   9  14
BRANCH   1  19
HETATM   19  N1  UNL     1      -3.622  -0.037   0.412  1.00  0.00    -0.352 N 
HETATM   20  C2  UNL     1      -4.699   0.050  -0.510  1.00  0.00     0.214 C 
HETATM   21  C1  UNL     1      -5.889   0.884  -0.304  1.00  0.00     0.117 C 
HETATM   22  O1  UNL     1      -4.612  -0.632  -1.561  1.00  0.00    -0.274 OA
ATOM     23  H1  UNL     1      -3.680   0.513   1.269  1.00  0.00     0.163 HD
ENDBRANCH   1  19
TORSDOF 3
