REMARK  3 active torsions:
REMARK  status: ('A' for Active; 'I' for Inactive)
REMARK    1  A    between atoms: C2_2  and  C3_5 
REMARK    2  A    between atoms: C3_5  and  N1_6 
REMARK    3  A    between atoms: C8_13  and  N2_14 
ROOT
HETATM    1  N1  UNL     1       1.124   0.494  -0.259  1.00  0.00    -0.390 N 
ATOM      2  H1  UNL     1       1.138   1.420  -0.685  1.00  0.00     0.159 HD
HETATM    3  C4  UNL     1       0.110  -0.240  -0.484  1.00  0.00    -0.003 C 
HETATM    4  C5  UNL     1      -0.424  -1.590  -0.150  1.00  0.00     0.037 C 
HETATM    5  C6  UNL     1      -1.402  -1.558   0.981  1.00  0.00     0.058 C 
HETATM    6  C7  UNL     1      -2.282  -0.343   0.804  1.00  0.00     0.010 A 
HETATM    7  S1  UNL     1      -3.525   0.434   1.681  1.00  0.00    -0.057 SA
HETATM    8  C8  UNL     1      -3.835   1.713   0.597  1.00  0.00     0.142 A 
HETATM    9  N3  UNL     1      -2.968   1.485  -0.393  1.00  0.00    -0.339 N 
ATOM     10  H3  UNL     1      -2.925   2.105  -1.202  1.00  0.00     0.168 HD
HETATM   11  C9  UNL     1      -2.180   0.454  -0.302  1.00  0.00     0.034 A 
HETATM   12  C10 UNL     1      -1.122  -0.014  -1.281  1.00  0.00     0.083 C 
HETATM   13  C11 UNL     1      -1.245  -1.504  -1.445  1.00  0.00     0.027 C 
ENDROOT
BRANCH   1  14
HETATM   14  C3  UNL     1       2.234   0.125   0.537  1.00  0.00     0.197 C 
BRANCH  14  15
HETATM   15  C2  UNL     1       3.537   0.464  -0.194  1.00  0.00     0.255 C 
HETATM   16  C1  UNL     1       4.719   0.065   0.667  1.00  0.00     0.091 C 
HETATM   17  F1  UNL     1       3.581   1.787  -0.529  1.00  0.00    -0.205 F 
HETATM   18  F2  UNL     1       3.593  -0.277  -1.364  1.00  0.00    -0.205 F 
ENDBRANCH  14  15
ENDBRANCH   1  14
BRANCH   8  19
HETATM   19  N2  UNL     1      -4.708   2.697   0.688  1.00  0.00    -0.380 N 
ATOM     20  H22 UNL     1      -5.370   2.871   1.444  1.00  0.00     0.158 HD
ATOM     21  H21 UNL     1      -4.893   3.462   0.040  1.00  0.00     0.158 HD
ENDBRANCH   8  19
TORSDOF 3
