REMARK  5 active torsions:
REMARK  status: ('A' for Active; 'I' for Inactive)
REMARK    1  A    between atoms: N1_1  and  C1_4 
REMARK    2  A    between atoms: C2_7  and  N3_8 
REMARK    3  A    between atoms: N3_8  and  N4_9 
REMARK    4  A    between atoms: N3_8  and  N5_12 
REMARK    5  A    between atoms: C3_14  and  C4_15 
ROOT
HETATM    1  N3  UNL     1      -0.597   1.168  -0.780  1.00  0.00    -0.025 N 
ENDROOT
BRANCH   1   2
HETATM    2  C2  UNL     1      -1.553   0.415  -0.048  1.00  0.00     0.748 A 
HETATM    3  N2  UNL     1      -2.900   0.405  -0.237  1.00  0.00    -0.017 N 
HETATM    4  C1  UNL     1      -3.452  -0.434   0.653  1.00  0.00     0.705 A 
ATOM      5  H2  UNL     1      -3.406   0.945  -0.939  1.00  0.00     0.203 HD
HETATM    6  N11 UNL     1      -2.441  -0.936   1.385  1.00  0.00    -0.117 N 
HETATM    7  N10 UNL     1      -1.307  -0.429   0.966  1.00  0.00    -0.114 N 
ATOM      8  H11 UNL     1      -2.541  -1.606   2.147  1.00  0.00     0.206 HD
ATOM      9  H10 UNL     1      -0.386  -0.642   1.349  1.00  0.00     0.206 HD
BRANCH   4  10
HETATM   10  N1  UNL     1      -4.713  -0.724   0.802  1.00  0.00    -0.233 N 
ATOM     11  H12 UNL     1      -5.480  -0.343   0.247  1.00  0.00     0.174 HD
ATOM     12  H11 UNL     1      -5.133  -1.362   1.478  1.00  0.00     0.174 HD
ENDBRANCH   4  10
ENDBRANCH   1   2
BRANCH   1  13
HETATM   13  N4  UNL     1      -1.025   1.993  -1.800  1.00  0.00    -0.309 N 
ATOM     14  H42 UNL     1      -2.015   2.069  -2.036  1.00  0.00     0.179 HD
ATOM     15  H41 UNL     1      -0.338   2.534  -2.326  1.00  0.00     0.179 HD
ENDBRANCH   1  13
BRANCH   1  16
HETATM   16  N5  UNL     1       0.739   1.066  -0.462  1.00  0.00    -0.273 N 
HETATM   17  C3  UNL     1       1.428  -0.016  -0.584  1.00  0.00     0.160 C 
ATOM     18  H5  UNL     1       1.212   1.898  -0.108  1.00  0.00     0.188 HD
BRANCH  17  19
HETATM   19  C4  UNL     1       2.835  -0.067  -0.233  1.00  0.00     0.148 A 
HETATM   20  N6  UNL     1       3.521   0.984   0.235  1.00  0.00    -0.269 N 
HETATM   21  N7  UNL     1       4.777   0.579   0.448  1.00  0.00    -0.007 NA
ATOM     22  H6  UNL     1       3.153   1.921   0.399  1.00  0.00     0.185 HD
HETATM   23  N8  UNL     1       4.896  -0.697   0.125  1.00  0.00    -0.007 NA
HETATM   24  N9  UNL     1       3.702  -1.087  -0.291  1.00  0.00    -0.269 N 
ATOM     25  H9  UNL     1       3.474  -2.029  -0.610  1.00  0.00     0.185 HD
ENDBRANCH  17  19
ENDBRANCH   1  16
TORSDOF 5
