REMARK  16 active torsions:
REMARK  status: ('A' for Active; 'I' for Inactive)
REMARK       I    between atoms: C1_4  and  N2_5 
REMARK       I    between atoms: C1_4  and  N8_40 
REMARK    1  A    between atoms: N2_5  and  C2_7 
REMARK    2  A    between atoms: C2_7  and  C3_8 
REMARK    3  A    between atoms: C3_8  and  C4_9 
REMARK    4  A    between atoms: C4_9  and  C5_10 
REMARK    5  A    between atoms: C5_10  and  C6_11 
REMARK    6  A    between atoms: C6_11  and  C7_12 
REMARK    7  A    between atoms: C7_12  and  C8_13 
REMARK    8  A    between atoms: C8_13  and  C9_14 
REMARK       I    between atoms: C9_14  and  N3_16 
REMARK    9  A    between atoms: N4_19  and  C12_20 
REMARK   10  A    between atoms: C12_20  and  C13_21 
REMARK   11  A    between atoms: C13_21  and  C14_22 
REMARK   12  A    between atoms: C14_22  and  N5_23 
REMARK   13  A    between atoms: N5_23  and  N6_24 
REMARK   14  A    between atoms: N5_23  and  C15_27 
REMARK   15  A    between atoms: C15_27  and  C16_28 
REMARK   16  A    between atoms: N8_40  and  N9_42 
ROOT
HETATM    1  C9  UNL     1       2.085   0.516   1.014  1.00  0.00     0.219 C 
HETATM    2  O1  UNL     1       2.859   1.378   0.455  1.00  0.00    -0.273 OA
HETATM    3  N3  UNL     1       0.802   0.367   0.411  1.00  0.00    -0.349 N 
HETATM    4  C10 UNL     1       0.378   1.204  -0.660  1.00  0.00     0.156 C 
HETATM    5  C11 UNL     1      -0.639   0.581  -1.549  1.00  0.00     0.292 C 
HETATM    6  N4  UNL     1      -1.523  -0.335  -0.935  1.00  0.00     0.091 N 
HETATM    7  C24 UNL     1      -1.469  -0.352   0.534  1.00  0.00     0.292 C 
HETATM    8  C25 UNL     1      -0.048  -0.723   0.881  1.00  0.00     0.156 C 
ENDROOT
BRANCH   1   9
HETATM    9  C8  UNL     1       2.547  -0.220   2.178  1.00  0.00     0.103 C 
BRANCH   9  10
HETATM   10  C7  UNL     1       3.424  -1.374   1.943  1.00  0.00     0.009 C 
BRANCH  10  11
HETATM   11  C6  UNL     1       4.717  -1.234   1.268  1.00  0.00     0.000 C 
BRANCH  11  12
HETATM   12  C5  UNL     1       5.671  -0.271   1.955  1.00  0.00     0.000 C 
BRANCH  12  13
HETATM   13  C4  UNL     1       7.025  -0.392   1.336  1.00  0.00     0.002 C 
BRANCH  13  14
HETATM   14  C3  UNL     1       7.016  -0.179  -0.141  1.00  0.00     0.020 C 
BRANCH  14  15
HETATM   15  C2  UNL     1       8.473  -0.362  -0.612  1.00  0.00     0.138 C 
BRANCH  15  16
HETATM   16  N2  UNL     1       9.281   0.661  -0.003  1.00  0.00    -0.225 N 
HETATM   17  C1  UNL     1      10.670   0.649  -0.179  1.00  0.00     0.691 C 
HETATM   18  N1  UNL     1      11.521   1.336   0.556  1.00  0.00    -0.233 N 
HETATM   19  N8  UNL     1      11.250  -0.138  -1.194  1.00  0.00    -0.072 N 
ATOM     20  H12 UNL     1      11.101   1.906   1.291  1.00  0.00     0.174 HD
ATOM     21  H11 UNL     1      12.533   1.327   0.428  1.00  0.00     0.174 HD
ATOM     22  H8  UNL     1      11.058   0.047  -2.178  1.00  0.00     0.212 HD
ATOM     23  H2  UNL     1       8.843   1.393   0.556  1.00  0.00     0.177 HD
BRANCH  19  24
HETATM   24  N9  UNL     1      12.089  -1.170  -0.812  1.00  0.00    -0.024 N 
HETATM   25  O2  UNL     1      12.569  -1.206   0.349  1.00  0.00    -0.516 OA
HETATM   26  O3  UNL     1      12.445  -2.192  -1.672  1.00  0.00    -0.516 OA
ENDBRANCH  19  24
ENDBRANCH  15  16
ENDBRANCH  14  15
ENDBRANCH  13  14
ENDBRANCH  12  13
ENDBRANCH  11  12
ENDBRANCH  10  11
ENDBRANCH   9  10
ENDBRANCH   1   9
BRANCH   6  27
HETATM   27  C12 UNL     1      -2.876  -0.160  -1.360  1.00  0.00     0.277 C 
BRANCH  27  28
HETATM   28  C13 UNL     1      -3.486   1.149  -0.777  1.00  0.00     0.076 C 
BRANCH  28  29
HETATM   29  C14 UNL     1      -4.844   1.224  -1.355  1.00  0.00     0.084 C 
BRANCH  29  30
HETATM   30  N5  UNL     1      -5.800   0.273  -1.000  1.00  0.00    -0.309 N 
BRANCH  30  31
HETATM   31  N6  UNL     1      -6.165  -0.767  -1.744  1.00  0.00    -0.343 N 
ATOM     32  H62 UNL     1      -5.579  -1.018  -2.540  1.00  0.00     0.177 HD
ATOM     33  H61 UNL     1      -6.864  -1.463  -1.484  1.00  0.00     0.177 HD
ENDBRANCH  30  31
BRANCH  30  34
HETATM   34  C15 UNL     1      -6.634   0.630   0.133  1.00  0.00     0.188 C 
BRANCH  34  35
HETATM   35  C16 UNL     1      -7.771  -0.278   0.274  1.00  0.00    -0.011 A 
HETATM   36  C17 UNL     1      -7.926  -1.463   0.876  1.00  0.00     0.098 A 
HETATM   37  N7  UNL     1      -9.235  -1.810   0.848  1.00  0.00    -0.365 N 
HETATM   38  C18 UNL     1      -9.986  -0.877   0.235  1.00  0.00     0.043 A 
ATOM     39  H7  UNL     1      -9.606  -2.674   1.244  1.00  0.00     0.165 HD
HETATM   40  C19 UNL     1     -11.302  -0.731  -0.148  1.00  0.00     0.030 A 
HETATM   41  C23 UNL     1      -9.066   0.103  -0.132  1.00  0.00    -0.000 A 
HETATM   42  C20 UNL     1     -11.679   0.367  -0.884  1.00  0.00     0.002 A 
HETATM   43  C21 UNL     1     -10.751   1.344  -1.252  1.00  0.00     0.001 A 
HETATM   44  C22 UNL     1      -9.440   1.177  -0.853  1.00  0.00     0.014 A 
ENDBRANCH  34  35
ENDBRANCH  30  34
ENDBRANCH  29  30
ENDBRANCH  28  29
ENDBRANCH  27  28
ENDBRANCH   6  27
TORSDOF 16
