REMARK  19 active torsions:
REMARK  status: ('A' for Active; 'I' for Inactive)
REMARK    1  A    between atoms: C2_2  and  C3_3 
REMARK    2  A    between atoms: C3_3  and  C4_4 
REMARK    3  A    between atoms: C4_4  and  C5_5 
REMARK    4  A    between atoms: C5_5  and  C6_6 
REMARK    5  A    between atoms: C6_6  and  C7_7 
REMARK    6  A    between atoms: C7_7  and  N1_8 
REMARK    7  A    between atoms: N1_8  and  C8_10 
REMARK    8  A    between atoms: C9_13  and  N3_14 
REMARK    9  A    between atoms: N3_14  and  C10_16 
REMARK   10  A    between atoms: C10_16  and  C11_17 
REMARK   11  A    between atoms: C14_20  and  C15_21 
REMARK   12  A    between atoms: C15_21  and  C17_24 
REMARK   13  A    between atoms: C17_24  and  O1_25 
REMARK   14  A    between atoms: O1_25  and  C18_26 
REMARK   15  A    between atoms: C18_26  and  C19_27 
REMARK   16  A    between atoms: C19_27  and  O2_28 
REMARK   17  A    between atoms: C22_32  and  C23_33 
REMARK   18  A    between atoms: C23_33  and  C24_34 
REMARK   19  A    between atoms: C24_34  and  C25_35 
ROOT
HETATM    1  C15 UNL     1      -5.037   0.689   2.451  1.00  0.00     0.056 C 
HETATM    2  C16 UNL     1      -4.875   1.207   3.815  1.00  0.00     0.098 C 
HETATM    3  N4  UNL     1      -4.730   1.619   4.885  1.00  0.00    -0.192 NA
ENDROOT
BRANCH   1   4
HETATM    4  C14 UNL     1      -4.021   0.019   1.940  1.00  0.00    -0.017 A 
HETATM    5  C13 UNL     1      -2.859  -0.171   2.691  1.00  0.00     0.013 A 
HETATM    6  C12 UNL     1      -1.767  -0.858   2.220  1.00  0.00     0.013 A 
HETATM    7  C11 UNL     1      -1.774  -1.398   0.960  1.00  0.00    -0.021 A 
HETATM    8  C21 UNL     1      -2.896  -1.237   0.182  1.00  0.00     0.013 A 
HETATM    9  C20 UNL     1      -4.000  -0.532   0.684  1.00  0.00     0.013 A 
BRANCH   7  10
HETATM   10  C10 UNL     1      -0.725  -2.051   0.526  1.00  0.00     0.101 C 
BRANCH  10  11
HETATM   11  N3  UNL     1      -0.623  -2.650  -0.758  1.00  0.00    -0.350 N 
ATOM     12  H3  UNL     1      -1.271  -3.395  -1.013  1.00  0.00     0.166 HD
BRANCH  11  13
HETATM   13  C9  UNL     1       0.359  -2.236  -1.693  1.00  0.00     0.132 A 
HETATM   14  N2  UNL     1       1.140  -1.170  -1.316  1.00  0.00    -0.176 N 
HETATM   15  C8  UNL     1       2.029  -0.685  -2.173  1.00  0.00     0.686 A 
ATOM     16  H2  UNL     1       1.037  -0.757  -0.389  1.00  0.00     0.186 HD
HETATM   17  N7  UNL     1       2.136  -1.261  -3.397  1.00  0.00    -0.155 N 
HETATM   18  C28 UNL     1       1.398  -2.292  -3.792  1.00  0.00     0.269 A 
ATOM     19  H7  UNL     1       2.821  -0.881  -4.050  1.00  0.00     0.187 HD
HETATM   20  C22 UNL     1       0.447  -2.837  -2.918  1.00  0.00     0.055 A 
HETATM   21  O3  UNL     1       1.494  -2.829  -4.926  1.00  0.00    -0.267 OA
BRANCH  15  22
HETATM   22  N1  UNL     1       2.783   0.284  -1.906  1.00  0.00    -0.205 N 
ATOM     23  H1  UNL     1       3.432   0.578  -2.636  1.00  0.00     0.183 HD
BRANCH  22  24
HETATM   24  C7  UNL     1       2.818   1.004  -0.695  1.00  0.00     0.079 C 
BRANCH  24  25
HETATM   25  C6  UNL     1       2.379   2.449  -0.846  1.00  0.00     0.045 C 
BRANCH  25  26
HETATM   26  C5  UNL     1       2.431   3.104   0.506  1.00  0.00     0.005 C 
BRANCH  26  27
HETATM   27  C4  UNL     1       3.814   3.071   1.089  1.00  0.00     0.000 C 
BRANCH  27  28
HETATM   28  C3  UNL     1       4.777   3.792   0.168  1.00  0.00    -0.000 C 
BRANCH  28  29
HETATM   29  C2  UNL     1       6.185   3.765   0.748  1.00  0.00    -0.005 C 
HETATM   30  C1  UNL     1       7.099   4.487  -0.188  1.00  0.00     0.005 C 
ENDBRANCH  28  29
ENDBRANCH  27  28
ENDBRANCH  26  27
ENDBRANCH  25  26
ENDBRANCH  24  25
ENDBRANCH  22  24
ENDBRANCH  15  22
BRANCH  20  31
HETATM   31  C23 UNL     1      -0.314  -4.035  -3.334  1.00  0.00     0.053 C 
BRANCH  31  32
HETATM   32  C24 UNL     1       0.304  -5.349  -3.062  1.00  0.00     0.046 C 
BRANCH  32  33
HETATM   33  C25 UNL     1       0.611  -5.690  -1.671  1.00  0.00    -0.024 A 
HETATM   34  C26 UNL     1       1.803  -5.441  -0.984  1.00  0.00     0.115 A 
HETATM   35  N5  UNL     1       1.649  -5.935   0.235  1.00  0.00    -0.312 N 
HETATM   36  N6  UNL     1       0.471  -6.479   0.399  1.00  0.00    -0.312 N 
ATOM     37  H5  UNL     1       2.365  -5.896   0.961  1.00  0.00     0.186 HD
HETATM   38  C27 UNL     1      -0.204  -6.354  -0.745  1.00  0.00     0.115 A 
ATOM     39  H6  UNL     1       0.128  -6.921   1.252  1.00  0.00     0.186 HD
ENDBRANCH  32  33
ENDBRANCH  31  32
ENDBRANCH  20  31
ENDBRANCH  11  13
ENDBRANCH  10  11
ENDBRANCH   7  10
ENDBRANCH   1   4
BRANCH   1  40
HETATM   40  C17 UNL     1      -6.333   0.956   1.842  1.00  0.00     0.218 C 
BRANCH  40  41
HETATM   41  O1  UNL     1      -6.815   2.192   1.776  1.00  0.00    -0.384 OA
BRANCH  41  42
HETATM   42  C18 UNL     1      -6.308   3.225   1.122  1.00  0.00     0.194 C 
BRANCH  42  43
HETATM   43  C19 UNL     1      -4.951   3.732   1.510  1.00  0.00     0.190 C 
BRANCH  43  44
HETATM   44  O2  UNL     1      -4.655   4.842   0.668  1.00  0.00    -0.399 OA
ATOM     45  H2  UNL     1      -3.795   5.163   0.914  1.00  0.00     0.209 HD
ENDBRANCH  43  44
ENDBRANCH  42  43
ENDBRANCH  41  42
ENDBRANCH  40  41
ENDBRANCH   1  40
TORSDOF 19
