REMARK  5 active torsions:
REMARK  status: ('A' for Active; 'I' for Inactive)
REMARK    1  A    between atoms: C2_3  and  N2_4 
REMARK    2  A    between atoms: C4_9  and  C5_10 
REMARK       I    between atoms: C5_10  and  N5_12 
REMARK    3  A    between atoms: N5_12  and  N6_14 
REMARK    4  A    between atoms: N7_18  and  O2_19 
REMARK    5  A    between atoms: C7_21  and  N8_22 
ROOT
HETATM    1  C1  UNL     1      -2.270  -1.667  -0.604  1.00  0.00     0.177 C 
HETATM    2  N1  UNL     1      -0.836  -1.486  -0.481  1.00  0.00    -0.170 N 
HETATM    3  C2  UNL     1      -0.315  -0.235  -0.500  1.00  0.00     0.142 A 
HETATM    4  C4  UNL     1       1.040  -0.140  -0.358  1.00  0.00     0.097 A 
HETATM    5  C6  UNL     1       1.820  -1.293  -0.205  1.00  0.00     0.163 A 
HETATM    6  N7  UNL     1       1.236  -2.487  -0.198  1.00  0.00    -0.063 N 
HETATM    7  C7  UNL     1      -0.081  -2.602  -0.333  1.00  0.00     0.705 A 
ENDROOT
BRANCH   4   8
HETATM    8  C5  UNL     1       1.738   1.126  -0.337  1.00  0.00     0.274 C 
HETATM    9  O1  UNL     1       1.417   2.023  -1.140  1.00  0.00    -0.266 OA
HETATM   10  N5  UNL     1       2.783   1.369   0.581  1.00  0.00    -0.272 N 
ATOM     11  H5  UNL     1       3.014   0.610   1.221  1.00  0.00     0.189 HD
BRANCH  10  12
HETATM   12  N6  UNL     1       3.525   2.529   0.702  1.00  0.00    -0.342 N 
ATOM     13  H62 UNL     1       3.279   3.277   0.053  1.00  0.00     0.176 HD
ATOM     14  H61 UNL     1       4.280   2.705   1.365  1.00  0.00     0.176 HD
ENDBRANCH  10  12
ENDBRANCH   4   8
BRANCH   3  15
HETATM   15  N2  UNL     1      -1.129   0.836  -0.686  1.00  0.00    -0.318 N 
HETATM   16  C3  UNL     1      -1.866   1.591  -0.049  1.00  0.00     0.202 C 
HETATM   17  N3  UNL     1      -2.067   1.473   1.343  1.00  0.00    -0.066 NA
HETATM   18  N4  UNL     1      -2.553   2.634  -0.751  1.00  0.00    -0.066 NA
ATOM     19  H2  UNL     1      -1.131   1.101  -1.671  1.00  0.00     0.169 HD
ENDBRANCH   3  15
BRANCH   6  20
HETATM   20  O2  UNL     1       2.063  -3.603  -0.043  1.00  0.00    -0.270 OA
ATOM     21  H2  UNL     1       1.646  -4.456  -0.038  1.00  0.00     0.245 HD
ENDBRANCH   6  20
BRANCH   7  22
HETATM   22  N8  UNL     1      -0.618  -3.781  -0.320  1.00  0.00    -0.232 N 
ATOM     23  H82 UNL     1      -1.629  -3.869  -0.424  1.00  0.00     0.174 HD
ATOM     24  H81 UNL     1      -0.050  -4.621  -0.209  1.00  0.00     0.174 HD
ENDBRANCH   7  22
TORSDOF 5
