REMARK  6 active torsions:
REMARK  status: ('A' for Active; 'I' for Inactive)
REMARK    1  A    between atoms: O1_2  and  N1_3 
REMARK    2  A    between atoms: C2_5  and  N2_6 
REMARK    3  A    between atoms: C2_5  and  C9_23 
REMARK    4  A    between atoms: N3_8  and  C3_10 
REMARK    5  A    between atoms: C5_14  and  C6_15 
REMARK    6  A    between atoms: N5_17  and  O2_19 
ROOT
HETATM    1  N2  UNL     1      -0.614  -0.955   0.342  1.00  0.00    -0.287 N 
ATOM      2  H2  UNL     1      -0.394  -1.738  -0.274  1.00  0.00     0.188 HD
HETATM    3  N3  UNL     1       0.310  -0.376   0.993  1.00  0.00    -0.295 N 
ATOM      4  H3  UNL     1       0.095   0.408   1.610  1.00  0.00     0.187 HD
ENDROOT
BRANCH   3   5
HETATM    5  C3  UNL     1       1.689  -0.849   0.846  1.00  0.00     0.105 A 
HETATM    6  C4  UNL     1       2.054  -2.037   1.414  1.00  0.00     0.117 A 
HETATM    7  N4  UNL     1       1.219  -2.937   2.180  1.00  0.00    -0.092 NA
HETATM    8  S1  UNL     1       3.696  -2.175   0.996  1.00  0.00    -0.069 SA
HETATM    9  C5  UNL     1       3.891  -0.708   0.100  1.00  0.00     0.057 A 
HETATM   10  C8  UNL     1       2.644  -0.163   0.166  1.00  0.00     0.096 A 
HETATM   11  N6  UNL     1       2.335   1.108  -0.467  1.00  0.00    -0.098 NA
BRANCH   9  12
HETATM   12  C6  UNL     1       5.131  -0.250  -0.537  1.00  0.00     0.047 C 
HETATM   13  C7  UNL     1       6.323  -1.193  -0.359  1.00  0.00     0.071 C 
HETATM   14  N5  UNL     1       5.364   0.762  -1.185  1.00  0.00    -0.272 N 
ATOM     15  H5  UNL     1       6.344   0.737  -1.467  1.00  0.00     0.194 HD
BRANCH  14  16
HETATM   16  O2  UNL     1       4.837   1.860  -1.652  1.00  0.00    -0.290 OA
ATOM     17  H2  UNL     1       5.018   2.645  -2.155  1.00  0.00     0.244 HD
ENDBRANCH  14  16
ENDBRANCH   9  12
ENDBRANCH   3   5
BRANCH   1  18
HETATM   18  C2  UNL     1      -1.987  -0.496   0.479  1.00  0.00     0.120 C 
HETATM   19  N1  UNL     1      -2.865  -1.383   0.433  1.00  0.00    -0.253 N 
ATOM     20  H1  UNL     1      -2.499  -2.327   0.305  1.00  0.00     0.195 HD
BRANCH  19  21
HETATM   21  O1  UNL     1      -4.202  -1.319   0.522  1.00  0.00    -0.284 OA
HETATM   22  C1  UNL     1      -5.049  -2.287  -0.095  1.00  0.00     0.237 C 
ENDBRANCH  19  21
BRANCH  18  23
HETATM   23  C9  UNL     1      -2.156   0.936   0.648  1.00  0.00     0.056 C 
HETATM   24  C10 UNL     1      -1.639   1.697  -0.566  1.00  0.00     0.012 C 
HETATM   25  C11 UNL     1      -2.826   2.415  -1.150  1.00  0.00     0.001 C 
HETATM   26  C12 UNL     1      -4.063   1.834  -0.492  1.00  0.00     0.001 C 
HETATM   27  C13 UNL     1      -3.544   1.452   0.874  1.00  0.00     0.012 C 
ENDBRANCH  18  23
ENDBRANCH   1  18
TORSDOF 6
