REMARK  4 active torsions:
REMARK  status: ('A' for Active; 'I' for Inactive)
REMARK    1  A    between atoms: C9_13  and  S1_14 
REMARK    2  A    between atoms: S1_14  and  C10_15 
REMARK    3  A    between atoms: C10_15  and  C12_18 
REMARK    4  A    between atoms: C12_18  and  S2_20 
ROOT
HETATM    1  C1  UNL     1      -0.725  -2.934   0.016  1.00  0.00     0.051 C 
HETATM    2  C2  UNL     1      -1.402  -1.595   0.070  1.00  0.00    -0.021 A 
HETATM    3  C3  UNL     1      -2.763  -1.493   0.110  1.00  0.00     0.074 A 
HETATM    4  C4  UNL     1      -3.535  -2.732   0.103  1.00  0.00     0.101 C 
HETATM    5  N1  UNL     1      -4.140  -3.718   0.078  1.00  0.00    -0.191 NA
HETATM    6  C5  UNL     1      -3.433  -0.289   0.157  1.00  0.00     0.092 A 
HETATM    7  C6  UNL     1      -4.881  -0.233   0.201  1.00  0.00     0.103 C 
HETATM    8  N2  UNL     1      -6.020  -0.169   0.229  1.00  0.00    -0.191 NA
HETATM    9  C7  UNL     1      -2.728   0.885   0.165  1.00  0.00     0.094 A 
HETATM   10  N3  UNL     1      -3.385   2.158   0.216  1.00  0.00    -0.099 NA
HETATM   11  C8  UNL     1      -1.332   0.786   0.124  1.00  0.00     0.089 A 
HETATM   12  N4  UNL     1      -0.676   2.052   0.157  1.00  0.00    -0.099 NA
HETATM   13  C9  UNL     1      -0.646  -0.400   0.077  1.00  0.00     0.035 A 
ENDROOT
BRANCH  13  14
HETATM   14  S1  UNL     1       1.084  -0.626   0.049  1.00  0.00    -0.107 SA
BRANCH  14  15
HETATM   15  C10 UNL     1       2.130   0.789  -0.026  1.00  0.00     0.173 C 
HETATM   16  C11 UNL     1       2.090   1.501  -1.317  1.00  0.00     0.076 C 
HETATM   17  N5  UNL     1       2.053   2.049  -2.338  1.00  0.00    -0.196 NA
BRANCH  15  18
HETATM   18  C12 UNL     1       3.595   0.454   0.224  1.00  0.00     0.086 C 
HETATM   19  C13 UNL     1       4.396   1.727   0.133  1.00  0.00     0.024 C 
BRANCH  18  20
HETATM   20  S2  UNL     1       4.251  -0.744  -0.952  1.00  0.00    -0.044 SA
HETATM   21  C14 UNL     1       3.483  -2.326  -0.746  1.00  0.00     0.134 C 
HETATM   22  N6  UNL     1       2.998  -3.368  -0.604  1.00  0.00    -0.184 NA
ENDBRANCH  18  20
ENDBRANCH  15  18
ENDBRANCH  14  15
ENDBRANCH  13  14
TORSDOF 4
