REMARK  22 active torsions:
REMARK  status: ('A' for Active; 'I' for Inactive)
REMARK    1  A    between atoms: C2_2  and  C3_3 
REMARK    2  A    between atoms: C3_3  and  C4_4 
REMARK    3  A    between atoms: C4_4  and  C5_5 
REMARK    4  A    between atoms: C6_6  and  C7_7 
REMARK    5  A    between atoms: C7_7  and  C8_8 
REMARK    6  A    between atoms: C9_9  and  C10_10 
REMARK    7  A    between atoms: C10_10  and  C11_11 
REMARK    8  A    between atoms: C11_11  and  C12_12 
REMARK    9  A    between atoms: C13_13  and  C14_14 
REMARK   10  A    between atoms: C14_14  and  C15_15 
REMARK   11  A    between atoms: C14_14  and  C16_18 
REMARK   12  A    between atoms: C15_15  and  O1_16 
REMARK   13  A    between atoms: C16_18  and  C17_19 
REMARK   14  A    between atoms: C16_18  and  O3_28 
REMARK   15  A    between atoms: C17_19  and  C18_20 
REMARK   16  A    between atoms: O3_28  and  C25_29 
REMARK   17  A    between atoms: C26_30  and  O4_31 
REMARK   18  A    between atoms: C27_33  and  C28_34 
REMARK   19  A    between atoms: C28_34  and  O5_35 
REMARK   20  A    between atoms: C31_41  and  C32_42 
REMARK   21  A    between atoms: C32_42  and  O8_43 
REMARK   22  A    between atoms: C33_46  and  O10_47 
ROOT
HETATM    1  C16 UNL     1      -1.935   1.451   1.025  1.00  0.00     0.132 C 
ENDROOT
BRANCH   1   2
HETATM    2  C14 UNL     1      -0.807   2.322   0.860  1.00  0.00     0.061 C 
BRANCH   2   3
HETATM    3  C13 UNL     1       0.543   1.856   0.556  1.00  0.00    -0.009 C 
HETATM    4  C12 UNL     1       1.197   2.260  -0.533  1.00  0.00     0.052 C 
BRANCH   4   5
HETATM    5  C11 UNL     1       2.512   1.873  -0.867  1.00  0.00    -0.129 C 
BRANCH   5   6
HETATM    6  C10 UNL     1       3.659   1.541  -1.170  1.00  0.00     0.055 C 
BRANCH   6   7
HETATM    7  C9  UNL     1       4.522   0.635  -0.333  1.00  0.00     0.004 C 
HETATM    8  C8  UNL     1       5.723   0.390  -0.751  1.00  0.00    -0.022 C 
BRANCH   8   9
HETATM    9  C7  UNL     1       6.845  -0.406  -0.270  1.00  0.00     0.054 C 
BRANCH   9  10
HETATM   10  C6  UNL     1       7.242  -1.416  -1.274  1.00  0.00    -0.027 C 
HETATM   11  C5  UNL     1       8.434  -1.389  -1.877  1.00  0.00    -0.030 C 
BRANCH  11  12
HETATM   12  C4  UNL     1       9.502  -0.419  -1.672  1.00  0.00     0.027 C 
BRANCH  12  13
HETATM   13  C3  UNL     1      10.836  -0.987  -1.298  1.00  0.00     0.003 C 
BRANCH  13  14
HETATM   14  C2  UNL     1      10.761  -1.827  -0.070  1.00  0.00    -0.004 C 
HETATM   15  C1  UNL     1      12.169  -2.353   0.287  1.00  0.00     0.005 C 
ENDBRANCH  13  14
ENDBRANCH  12  13
ENDBRANCH  11  12
ENDBRANCH   9  10
ENDBRANCH   8   9
ENDBRANCH   6   7
ENDBRANCH   5   6
ENDBRANCH   4   5
ENDBRANCH   2   3
BRANCH   2  16
HETATM   16  C15 UNL     1      -0.591   3.216   2.131  1.00  0.00     0.175 C 
BRANCH  16  17
HETATM   17  O1  UNL     1       0.320   4.239   1.784  1.00  0.00    -0.400 OA
ATOM     18  H1  UNL     1       0.451   4.780   2.554  1.00  0.00     0.209 HD
ENDBRANCH  16  17
ENDBRANCH   2  16
ENDBRANCH   1   2
BRANCH   1  19
HETATM   19  C17 UNL     1      -3.196   2.287   1.406  1.00  0.00     0.046 C 
BRANCH  19  20
HETATM   20  C18 UNL     1      -3.597   3.310   0.446  1.00  0.00     0.070 C 
HETATM   21  C19 UNL     1      -3.995   2.710  -0.848  1.00  0.00     0.159 C 
HETATM   22  O2  UNL     1      -3.278   2.395  -1.840  1.00  0.00    -0.292 OA
HETATM   23  C20 UNL     1      -5.461   2.560  -0.711  1.00  0.00    -0.019 C 
HETATM   24  C21 UNL     1      -6.288   1.652  -1.566  1.00  0.00     0.052 C 
HETATM   25  C22 UNL     1      -5.920   3.350   0.254  1.00  0.00    -0.011 C 
HETATM   26  C23 UNL     1      -4.795   4.097   0.831  1.00  0.00     0.016 C 
HETATM   27  C24 UNL     1      -4.940   4.420   2.293  1.00  0.00     0.015 C 
ENDBRANCH  19  20
ENDBRANCH   1  19
BRANCH   1  28
HETATM   28  O3  UNL     1      -2.219   0.562   0.045  1.00  0.00    -0.374 OA
BRANCH  28  29
HETATM   29  C25 UNL     1      -2.502  -0.738   0.466  1.00  0.00     0.190 C 
HETATM   30  C26 UNL     1      -1.572  -1.788  -0.120  1.00  0.00     0.181 C 
HETATM   31  C27 UNL     1      -2.109  -3.182   0.099  1.00  0.00     0.182 C 
HETATM   32  O6  UNL     1      -3.257  -3.293   0.798  1.00  0.00    -0.320 OA
HETATM   33  C29 UNL     1      -4.273  -2.441   0.535  1.00  0.00     0.313 C 
HETATM   34  O7  UNL     1      -4.960  -2.211   1.718  1.00  0.00    -0.328 OA
HETATM   35  O9  UNL     1      -5.165  -2.998  -0.391  1.00  0.00    -0.321 OA
HETATM   36  C33 UNL     1      -3.867  -1.118  -0.045  1.00  0.00     0.242 C 
HETATM   37  C30 UNL     1      -6.237  -2.731   1.542  1.00  0.00     0.208 C 
HETATM   38  C31 UNL     1      -6.407  -2.506   0.048  1.00  0.00     0.175 C 
BRANCH  30  39
HETATM   39  O4  UNL     1      -0.321  -1.616   0.451  1.00  0.00    -0.390 OA
ATOM     40  H4  UNL     1       0.260  -2.272   0.085  1.00  0.00     0.210 HD
ENDBRANCH  30  39
BRANCH  31  41
HETATM   41  C28 UNL     1      -2.103  -4.021  -1.176  1.00  0.00     0.199 C 
BRANCH  41  42
HETATM   42  O5  UNL     1      -0.915  -3.889  -1.889  1.00  0.00    -0.398 OA
ATOM     43  H5  UNL     1      -0.911  -4.411  -2.683  1.00  0.00     0.209 HD
ENDBRANCH  41  42
ENDBRANCH  31  41
BRANCH  38  44
HETATM   44  C32 UNL     1      -7.529  -3.385  -0.451  1.00  0.00     0.198 C 
BRANCH  44  45
HETATM   45  O8  UNL     1      -7.497  -3.377  -1.842  1.00  0.00    -0.398 OA
ATOM     46  H8  UNL     1      -8.203  -3.930  -2.156  1.00  0.00     0.209 HD
ENDBRANCH  44  45
ENDBRANCH  38  44
BRANCH  36  47
HETATM   47  O10 UNL     1      -3.897  -1.125  -1.451  1.00  0.00    -0.385 OA
ATOM     48  H10 UNL     1      -4.758  -1.365  -1.773  1.00  0.00     0.210 HD
ENDBRANCH  36  47
ENDBRANCH  28  29
ENDBRANCH   1  28
TORSDOF 22
