REMARK  15 active torsions:
REMARK  status: ('A' for Active; 'I' for Inactive)
REMARK    1  A    between atoms: O1_2  and  C2_3 
REMARK    2  A    between atoms: C2_3  and  C3_5 
REMARK    3  A    between atoms: C3_5  and  N8_34 
REMARK    4  A    between atoms: C4_6  and  N1_7 
REMARK       I    between atoms: N1_7  and  C5_9 
REMARK    5  A    between atoms: C5_9  and  C6_11 
REMARK    6  A    between atoms: C7_14  and  S1_15 
REMARK    7  A    between atoms: S1_15  and  C8_18 
REMARK    8  A    between atoms: C8_18  and  C9_20 
REMARK    9  A    between atoms: N3_22  and  N4_24 
REMARK       I    between atoms: N4_24  and  C11_25 
REMARK   10  A    between atoms: N5_28  and  C13_29 
REMARK       I    between atoms: N8_34  and  C15_36 
REMARK   11  A    between atoms: C15_36  and  C16_38 
REMARK   12  A    between atoms: C17_40  and  O9_41 
REMARK   13  A    between atoms: C18_43  and  C19_44 
REMARK   14  A    between atoms: C19_44  and  O10_47 
REMARK   15  A    between atoms: C23_51  and  O12_52 
ROOT
HETATM    1  C13 UNL     1       5.708  -0.445   1.867  1.00  0.00     0.275 C 
HETATM    2  C14 UNL     1       6.149   0.965   1.931  1.00  0.00     0.081 C 
HETATM    3  N6  UNL     1       6.479   2.071   1.978  1.00  0.00    -0.195 NA
ENDROOT
BRANCH   1   4
HETATM    4  N5  UNL     1       4.702  -0.597   0.843  1.00  0.00    -0.254 N 
HETATM    5  C7  UNL     1       4.831  -0.881  -0.409  1.00  0.00     0.201 A 
HETATM    6  N2  UNL     1       3.537  -0.817  -0.925  1.00  0.00    -0.314 N 
HETATM    7  C6  UNL     1       2.668  -0.493   0.050  1.00  0.00     0.192 A 
ATOM      8  H2  UNL     1       3.286  -0.990  -1.898  1.00  0.00     0.170 HD
HETATM    9  N7  UNL     1       3.382  -0.358   1.152  1.00  0.00    -0.276 N 
ATOM     10  H7  UNL     1       3.018  -0.118   2.074  1.00  0.00     0.189 HD
BRANCH   5  11
HETATM   11  S1  UNL     1       6.149  -1.184  -1.490  1.00  0.00     0.143 S 
HETATM   12  O4  UNL     1       5.810  -0.352  -2.791  1.00  0.00    -0.242 OA
HETATM   13  S2  UNL     1       6.180  -2.805  -1.979  1.00  0.00     0.024 SA
BRANCH  11  14
HETATM   14  C8  UNL     1       7.676  -0.588  -1.028  1.00  0.00     0.269 C 
HETATM   15  O5  UNL     1       7.982   0.631  -1.228  1.00  0.00    -0.276 OA
BRANCH  14  16
HETATM   16  C9  UNL     1       8.706  -1.406  -0.396  1.00  0.00     0.094 C 
HETATM   17  C10 UNL     1       8.462  -2.859  -0.122  1.00  0.00     0.076 C 
HETATM   18  N3  UNL     1       9.856  -0.965  -0.023  1.00  0.00    -0.233 N 
ATOM     19  H3  UNL     1      10.487  -1.639   0.411  1.00  0.00     0.202 HD
BRANCH  18  20
HETATM   20  N4  UNL     1      10.306   0.283  -0.147  1.00  0.00    -0.287 NA
HETATM   21  C11 UNL     1      10.760   1.552  -0.270  1.00  0.00     0.308 C 
HETATM   22  C12 UNL     1      11.846   1.800  -1.314  1.00  0.00     0.137 C 
HETATM   23  O6  UNL     1      10.372   2.545   0.400  1.00  0.00    -0.256 OA
ENDBRANCH  18  20
ENDBRANCH  14  16
ENDBRANCH  11  14
ENDBRANCH   5  11
BRANCH   7  24
HETATM   24  C5  UNL     1       1.219  -0.300  -0.205  1.00  0.00     0.290 C 
HETATM   25  N1  UNL     1       0.319  -0.073   0.805  1.00  0.00    -0.328 N 
ATOM     26  H1  UNL     1       0.749  -0.131   1.728  1.00  0.00     0.168 HD
HETATM   27  O3  UNL     1       0.970  -0.364  -1.465  1.00  0.00    -0.264 OA
BRANCH  25  28
HETATM   28  C4  UNL     1      -1.075   0.225   0.872  1.00  0.00     0.127 C 
HETATM   29  C3  UNL     1      -2.035  -0.311  -0.023  1.00  0.00     0.126 C 
BRANCH  29  30
HETATM   30  C2  UNL     1      -1.876   0.370  -1.400  1.00  0.00     0.311 C 
HETATM   31  O2  UNL     1      -2.406  -0.186  -2.370  1.00  0.00    -0.258 OA
BRANCH  30  32
HETATM   32  O1  UNL     1      -1.209   1.553  -1.545  1.00  0.00    -0.321 OA
HETATM   33  C1  UNL     1      -1.060   2.252  -2.768  1.00  0.00     0.213 C 
ENDBRANCH  30  32
ENDBRANCH  29  30
BRANCH  29  34
HETATM   34  N8  UNL     1      -3.411  -0.549   0.146  1.00  0.00    -0.315 N 
HETATM   35  C15 UNL     1      -4.328   0.542   0.395  1.00  0.00     0.283 C 
HETATM   36  O7  UNL     1      -3.764   1.660   0.523  1.00  0.00    -0.265 OA
ATOM     37  H8  UNL     1      -3.767  -1.503   0.092  1.00  0.00     0.169 HD
BRANCH  35  38
HETATM   38  C16 UNL     1      -5.744   0.315   0.446  1.00  0.00     0.183 A 
HETATM   39  O8  UNL     1      -6.304  -0.859   0.279  1.00  0.00    -0.279 OA
HETATM   40  C17 UNL     1      -7.585  -1.129   0.281  1.00  0.00     0.197 A 
HETATM   41  C18 UNL     1      -8.536  -0.124   0.480  1.00  0.00     0.086 A 
HETATM   42  C22 UNL     1      -8.054   1.115   0.669  1.00  0.00     0.222 A 
HETATM   43  O11 UNL     1      -8.804   2.150   0.866  1.00  0.00    -0.284 OA
HETATM   44  C23 UNL     1      -6.673   1.345   0.657  1.00  0.00     0.157 A 
BRANCH  40  45
HETATM   45  O9  UNL     1      -7.984  -2.450   0.077  1.00  0.00    -0.340 OA
ATOM     46  H9  UNL     1      -8.914  -2.646   0.078  1.00  0.00     0.220 HD
ENDBRANCH  40  45
BRANCH  41  47
HETATM   47  C19 UNL     1      -9.952  -0.436   0.389  1.00  0.00     0.086 C 
HETATM   48  C20 UNL     1     -10.463  -1.498   1.312  1.00  0.00     0.051 C 
HETATM   49  C21 UNL     1     -10.887   0.762   0.519  1.00  0.00     0.051 C 
BRANCH  47  50
HETATM   50  O10 UNL     1     -10.112  -0.934  -0.960  1.00  0.00    -0.385 OA
ATOM     51  H10 UNL     1     -11.038  -1.138  -1.020  1.00  0.00     0.211 HD
ENDBRANCH  47  50
ENDBRANCH  41  47
BRANCH  44  52
HETATM   52  O12 UNL     1      -6.252   2.634   0.871  1.00  0.00    -0.355 OA
ATOM     53  H12 UNL     1      -6.881   3.331   1.014  1.00  0.00     0.218 HD
ENDBRANCH  44  52
ENDBRANCH  35  38
ENDBRANCH  29  34
ENDBRANCH  25  28
ENDBRANCH   7  24
ENDBRANCH   1   4
TORSDOF 15
