REMARK  7 active torsions:
REMARK  status: ('A' for Active; 'I' for Inactive)
REMARK    1  A    between atoms: C3_4  and  N2_5 
REMARK       I    between atoms: N2_5  and  C4_7 
REMARK    2  A    between atoms: C4_7  and  O2_9 
REMARK    3  A    between atoms: O2_9  and  C5_10 
REMARK    4  A    between atoms: C5_10  and  O3_11 
REMARK    5  A    between atoms: O3_11  and  C6_12 
REMARK    6  A    between atoms: C6_12  and  C7_14 
REMARK    7  A    between atoms: C9_19  and  C11_21 
ROOT
HETATM    1  C6  UNL     1      -1.262  -0.815   0.441  1.00  0.00     0.293 C 
HETATM    2  O4  UNL     1      -0.821  -0.281  -0.597  1.00  0.00    -0.263 OA
ENDROOT
BRANCH   1   3
HETATM    3  O3  UNL     1      -0.439  -1.644   1.172  1.00  0.00    -0.293 OA
BRANCH   3   4
HETATM    4  C5  UNL     1       0.897  -1.947   0.830  1.00  0.00     0.360 C 
BRANCH   4   5
HETATM    5  O2  UNL     1       1.677  -0.776   0.789  1.00  0.00    -0.278 OA
BRANCH   5   6
HETATM    6  C4  UNL     1       3.028  -0.854   0.470  1.00  0.00     0.367 C 
HETATM    7  N2  UNL     1       3.783   0.336   0.437  1.00  0.00    -0.300 N 
ATOM      8  H2  UNL     1       3.306   1.212   0.650  1.00  0.00     0.171 HD
HETATM    9  O1  UNL     1       3.479  -1.979   0.235  1.00  0.00    -0.238 OA
BRANCH   7  10
HETATM   10  C3  UNL     1       5.169   0.389   0.125  1.00  0.00     0.070 A 
HETATM   11  C2  UNL     1       5.971   1.531   0.075  1.00  0.00     0.140 A 
HETATM   12  N1  UNL     1       7.231   1.207  -0.251  1.00  0.00    -0.306 N 
HETATM   13  C1  UNL     1       8.355   2.143  -0.399  1.00  0.00     0.177 C 
HETATM   14  N7  UNL     1       7.262  -0.103  -0.412  1.00  0.00    -0.308 N 
HETATM   15  C12 UNL     1       6.027  -0.636  -0.192  1.00  0.00     0.138 A 
ATOM     16  H7  UNL     1       8.092  -0.640  -0.665  1.00  0.00     0.186 HD
ENDBRANCH   7  10
ENDBRANCH   5   6
ENDBRANCH   4   5
ENDBRANCH   3   4
ENDBRANCH   1   3
BRANCH   1  17
HETATM   17  C7  UNL     1      -2.648  -0.545   0.860  1.00  0.00     0.313 C 
HETATM   18  C8  UNL     1      -3.514  -1.787   0.844  1.00  0.00     0.279 C 
HETATM   19  N3  UNL     1      -4.851  -1.190   0.770  1.00  0.00    -0.031 N 
HETATM   20  C9  UNL     1      -4.679  -0.140  -0.185  1.00  0.00     0.338 C 
ATOM     21  H32 UNL     1      -5.600  -1.847   0.551  1.00  0.00     0.280 HD
ATOM     22  H31 UNL     1      -5.235  -0.892   1.667  1.00  0.00     0.280 HD
HETATM   23  C10 UNL     1      -4.921  -0.613  -1.613  1.00  0.00     0.087 C 
HETATM   24  N6  UNL     1      -3.319   0.341  -0.041  1.00  0.00    -0.019 N 
ATOM     25  H62 UNL     1      -3.270   1.318   0.249  1.00  0.00     0.281 HD
ATOM     26  H61 UNL     1      -2.836   0.444  -0.933  1.00  0.00     0.281 HD
BRANCH  20  27
HETATM   27  C11 UNL     1      -5.634   0.968   0.059  1.00  0.00     0.151 C 
HETATM   28  N4  UNL     1      -6.454   0.856   1.044  1.00  0.00    -0.388 N 
ATOM     29  H42 UNL     1      -6.488   0.051   1.670  1.00  0.00     0.157 HD
ATOM     30  H41 UNL     1      -7.111   1.618   1.212  1.00  0.00     0.157 HD
HETATM   31  N5  UNL     1      -5.586   2.090  -0.813  1.00  0.00    -0.083 NA
ENDBRANCH  20  27
ENDBRANCH   1  17
TORSDOF 7
