REMARK  6 active torsions:
REMARK  status: ('A' for Active; 'I' for Inactive)
REMARK    1  A    between atoms: C2_2  and  C3_3 
REMARK    2  A    between atoms: C2_2  and  N1_6 
REMARK    3  A    between atoms: C4_7  and  N2_8 
REMARK    4  A    between atoms: C6_10  and  C7_11 
REMARK    5  A    between atoms: C9_16  and  C10_17 
REMARK    6  A    between atoms: C11_21  and  N6_22 
ROOT
HETATM    1  N1  UNL     1      -1.636   0.601  -0.161  1.00  0.00    -0.116 N 
HETATM    2  C4  UNL     1      -0.499   1.168   0.153  1.00  0.00     0.711 A 
HETATM    3  N5  UNL     1      -0.428   2.514   0.505  1.00  0.00    -0.021 N 
ATOM      4  H5  UNL     1       0.477   2.919   0.744  1.00  0.00     0.203 HD
HETATM    5  C11 UNL     1      -1.500   3.274   0.536  1.00  0.00     0.694 A 
HETATM    6  N7  UNL     1      -2.673   2.719   0.219  1.00  0.00    -0.140 N 
ATOM      7  H7  UNL     1      -3.521   3.286   0.235  1.00  0.00     0.189 HD
HETATM    8  C12 UNL     1      -2.745   1.432  -0.118  1.00  0.00     0.356 A 
HETATM    9  O5  UNL     1      -3.898   1.001  -0.400  1.00  0.00    -0.245 OA
ENDROOT
BRANCH   2  10
HETATM   10  N2  UNL     1       0.697   0.444   0.158  1.00  0.00    -0.151 N 
HETATM   11  C5  UNL     1       1.518   0.281  -0.865  1.00  0.00     0.134 A 
HETATM   12  C6  UNL     1       2.627  -0.451  -0.510  1.00  0.00     0.072 A 
HETATM   13  C8  UNL     1       2.461  -0.749   0.821  1.00  0.00     0.093 A 
HETATM   14  N4  UNL     1       3.363  -1.490   1.607  1.00  0.00    -0.099 NA
HETATM   15  C9  UNL     1       1.240  -0.170   1.200  1.00  0.00     0.119 A 
BRANCH  12  16
HETATM   16  C7  UNL     1       3.730  -0.817  -1.383  1.00  0.00     0.268 C 
HETATM   17  N3  UNL     1       3.744  -0.425  -2.742  1.00  0.00    -0.057 NA
HETATM   18  O3  UNL     1       4.700  -1.491  -0.955  1.00  0.00    -0.271 OA
ENDBRANCH  12  16
BRANCH  15  19
HETATM   19  C10 UNL     1       0.758  -0.295   2.575  1.00  0.00     0.291 C 
HETATM   20  O4  UNL     1       1.382  -0.906   3.473  1.00  0.00    -0.300 OA
ENDBRANCH  15  19
ENDBRANCH   2  10
BRANCH   1  21
HETATM   21  C2  UNL     1      -1.936  -0.697  -0.530  1.00  0.00     0.209 C 
HETATM   22  C1  UNL     1      -1.049  -1.706  -1.049  1.00  0.00     0.045 C 
BRANCH  21  23
HETATM   23  C3  UNL     1      -2.716  -1.324   0.614  1.00  0.00     0.197 C 
HETATM   24  O1  UNL     1      -2.721  -0.879   1.766  1.00  0.00    -0.646 OA
HETATM   25  O2  UNL     1      -3.474  -2.468   0.354  1.00  0.00    -0.646 OA
ENDBRANCH  21  23
ENDBRANCH   1  21
BRANCH   5  26
HETATM   26  N6  UNL     1      -1.459   4.521   0.857  1.00  0.00    -0.234 N 
ATOM     27  H62 UNL     1      -0.563   4.945   1.099  1.00  0.00     0.174 HD
ATOM     28  H61 UNL     1      -2.291   5.111   0.881  1.00  0.00     0.174 HD
ENDBRANCH   5  26
TORSDOF 6
