REMARK  1 active torsions:
REMARK  status: ('A' for Active; 'I' for Inactive)
REMARK    1  A    between atoms: C12_18  and  O4_19 
ROOT
HETATM    1  O1  UNL     1      -3.296  -2.171  -1.429  1.00  0.00    -0.293 OA
HETATM    2  C1  UNL     1      -2.762  -1.595  -0.495  1.00  0.00     0.175 C 
HETATM    3  C2  UNL     1      -3.102  -0.189  -0.257  1.00  0.00     0.083 C 
HETATM    4  C3  UNL     1      -1.960   0.631   0.288  1.00  0.00     0.007 C 
HETATM    5  C4  UNL     1      -2.041   2.058  -0.273  1.00  0.00     0.000 C 
HETATM    6  C5  UNL     1      -0.914   2.877   0.293  1.00  0.00     0.000 C 
HETATM    7  C6  UNL     1       0.421   2.549  -0.318  1.00  0.00     0.000 C 
HETATM    8  C7  UNL     1       1.381   1.985   0.701  1.00  0.00     0.000 C 
HETATM    9  C8  UNL     1       2.546   1.310  -0.004  1.00  0.00     0.000 C 
HETATM   10  C9  UNL     1       2.900  -0.012   0.612  1.00  0.00     0.001 C 
HETATM   11  C10 UNL     1       2.964  -1.134  -0.412  1.00  0.00     0.017 C 
HETATM   12  C11 UNL     1       1.610  -1.437  -0.984  1.00  0.00     0.163 C 
HETATM   13  S1  UNL     1       0.795  -2.705  -0.023  1.00  0.00     0.228 S 
HETATM   14  O2  UNL     1       1.551  -3.993  -0.317  1.00  0.00    -0.206 OA
HETATM   15  O3  UNL     1       0.934  -2.455   1.436  1.00  0.00    -0.206 OA
HETATM   16  N1  UNL     1      -0.801  -2.909  -0.556  1.00  0.00    -0.285 N 
ATOM     17  H1  UNL     1      -1.029  -3.368  -1.438  1.00  0.00     0.175 HD
HETATM   18  C12 UNL     1      -1.805  -2.390   0.321  1.00  0.00     0.298 C 
ENDROOT
BRANCH  18  19
HETATM   19  O4  UNL     1      -1.334  -1.733   1.424  1.00  0.00    -0.369 OA
ATOM     20  H4  UNL     1      -0.723  -2.241   1.945  1.00  0.00     0.212 HD
ENDBRANCH  18  19
TORSDOF 1
