REMARK  4 active torsions:
REMARK  status: ('A' for Active; 'I' for Inactive)
REMARK    1  A    between atoms: C2_9  and  N5_10 
REMARK       I    between atoms: N5_10  and  C3_12 
REMARK       I    between atoms: C3_12  and  N7_16 
REMARK       I    between atoms: N7_16  and  C4_18 
REMARK       I    between atoms: C4_18  and  N11_28 
REMARK    2  A    between atoms: N8_19  and  C5_21 
REMARK    3  A    between atoms: C5_21  and  C6_22 
REMARK    4  A    between atoms: C6_22  and  C7_23 
ROOT
HETATM    1  N5  UNL     1      -2.460   1.644   1.362  1.00  0.00    -0.019 N 
ATOM      2  H5  UNL     1      -2.707   2.612   1.570  1.00  0.00     0.203 HD
HETATM    3  C3  UNL     1      -1.180   1.191   1.754  1.00  0.00     0.705 C 
HETATM    4  N6  UNL     1      -0.365   1.961   2.375  1.00  0.00    -0.234 N 
ATOM      5  H61 UNL     1       0.559   1.634   2.658  1.00  0.00     0.174 HD
ATOM      6  H62 UNL     1      -0.650   2.917   2.589  1.00  0.00     0.174 HD
HETATM    7  N7  UNL     1      -0.789  -0.120   1.461  1.00  0.00    -0.022 N 
ATOM      8  H7  UNL     1      -1.279  -0.890   1.917  1.00  0.00     0.203 HD
HETATM    9  C4  UNL     1       0.279  -0.428   0.540  1.00  0.00     0.690 C 
HETATM   10  N8  UNL     1       1.135   0.499   0.278  1.00  0.00    -0.225 N 
ATOM     11  H8  UNL     1       1.052   1.418   0.714  1.00  0.00     0.177 HD
HETATM   12  N11 UNL     1       0.373  -1.716  -0.054  1.00  0.00    -0.217 N 
HETATM   13  C8  UNL     1       1.000  -2.853   0.590  1.00  0.00     0.141 C 
HETATM   14  C9  UNL     1       1.479  -3.761  -0.506  1.00  0.00     0.022 C 
HETATM   15  C10 UNL     1       1.049  -3.069  -1.791  1.00  0.00     0.022 C 
HETATM   16  C11 UNL     1      -0.086  -2.199  -1.338  1.00  0.00     0.141 C 
ENDROOT
BRANCH   1  17
HETATM   17  C2  UNL     1      -3.328   0.922   0.765  1.00  0.00     0.730 A 
HETATM   18  N1  UNL     1      -4.552   1.351   0.389  1.00  0.00    -0.111 N 
HETATM   19  C1  UNL     1      -5.048   2.695   0.616  1.00  0.00     0.199 C 
HETATM   20  N2  UNL     1      -5.215   0.374  -0.206  1.00  0.00    -0.211 N 
HETATM   21  N3  UNL     1      -4.409  -0.670  -0.205  1.00  0.00    -0.213 N 
ATOM     22  H2  UNL     1      -6.159   0.419  -0.589  1.00  0.00     0.210 HD
HETATM   23  N4  UNL     1      -3.266  -0.358   0.376  1.00  0.00    -0.114 N 
ATOM     24  H3  UNL     1      -4.636  -1.584  -0.596  1.00  0.00     0.210 HD
ATOM     25  H4  UNL     1      -2.472  -0.984   0.506  1.00  0.00     0.207 HD
ENDBRANCH   1  17
BRANCH  10  26
HETATM   26  C5  UNL     1       2.218   0.219  -0.644  1.00  0.00     0.145 C 
BRANCH  26  27
HETATM   27  C6  UNL     1       3.127   1.411  -0.797  1.00  0.00     0.092 C 
BRANCH  27  28
HETATM   28  C7  UNL     1       3.735   1.802   0.506  1.00  0.00     0.088 C 
HETATM   29  N9  UNL     1       3.441   1.127   1.554  1.00  0.00    -0.391 N 
ATOM     30  H92 UNL     1       2.803   0.332   1.512  1.00  0.00     0.157 HD
ATOM     31  H91 UNL     1       3.857   1.395   2.446  1.00  0.00     0.157 HD
HETATM   32  N10 UNL     1       4.621   2.906   0.564  1.00  0.00    -0.088 NA
ENDBRANCH  27  28
ENDBRANCH  26  27
ENDBRANCH  10  26
TORSDOF 4
