REMARK  10 active torsions:
REMARK  status: ('A' for Active; 'I' for Inactive)
REMARK    1  A    between atoms: N1_1  and  N2_4 
REMARK       I    between atoms: N2_4  and  C1_6 
REMARK       I    between atoms: C1_6  and  N3_8 
REMARK    2  A    between atoms: N3_8  and  N4_10 
REMARK    3  A    between atoms: C2_12  and  C3_13 
REMARK    4  A    between atoms: C2_12  and  C10_25 
REMARK    5  A    between atoms: C3_13  and  N5_14 
REMARK    6  A    between atoms: N6_16  and  C4_18 
REMARK       I    between atoms: C10_25  and  N7_27 
REMARK    7  A    between atoms: N7_27  and  C11_29 
REMARK    8  A    between atoms: C11_29  and  C12_30 
REMARK    9  A    between atoms: C12_30  and  N8_31 
REMARK   10  A    between atoms: C12_30  and  N9_35 
ROOT
HETATM    1  N4  UNL     1       0.228  -1.320   0.856  1.00  0.00    -0.294 N 
ATOM      2  H4  UNL     1       1.123  -1.788   1.000  1.00  0.00     0.187 HD
HETATM    3  C2  UNL     1       0.355  -0.154   0.432  1.00  0.00     0.112 C 
ENDROOT
BRANCH   3   4
HETATM    4  C3  UNL     1       1.808   0.307   0.227  1.00  0.00     0.203 C 
BRANCH   4   5
HETATM    5  N5  UNL     1       1.916   0.628  -1.165  1.00  0.00    -0.330 N 
HETATM    6  N6  UNL     1       2.992   1.094  -1.622  1.00  0.00    -0.305 N 
ATOM      7  H6  UNL     1       3.076   1.325  -2.612  1.00  0.00     0.186 HD
ATOM      8  H5  UNL     1       1.121   0.479  -1.786  1.00  0.00     0.180 HD
BRANCH   6   9
HETATM    9  C4  UNL     1       4.108   1.297  -0.725  1.00  0.00     0.047 A 
HETATM   10  C5  UNL     1       5.061   0.319  -0.563  1.00  0.00     0.032 A 
HETATM   11  C6  UNL     1       6.106   0.552   0.299  1.00  0.00     0.026 A 
HETATM   12  C7  UNL     1       6.238   1.727   1.007  1.00  0.00     0.034 A 
HETATM   13 CL1  UNL     1       7.602   1.922   2.075  1.00  0.00    -0.084 Cl
HETATM   14  C8  UNL     1       5.283   2.702   0.842  1.00  0.00     0.026 A 
HETATM   15  C9  UNL     1       4.237   2.471  -0.020  1.00  0.00     0.032 A 
ENDBRANCH   6   9
ENDBRANCH   4   5
ENDBRANCH   3   4
BRANCH   3  16
HETATM   16  C10 UNL     1      -0.684   0.789   0.119  1.00  0.00     0.267 C 
HETATM   17  O2  UNL     1      -0.346   1.942  -0.306  1.00  0.00    -0.266 OA
HETATM   18  N7  UNL     1      -2.050   0.524   0.251  1.00  0.00    -0.352 N 
ATOM     19  H7  UNL     1      -2.374  -0.383   0.587  1.00  0.00     0.162 HD
BRANCH  18  20
HETATM   20  C11 UNL     1      -3.010   1.579  -0.105  1.00  0.00     0.185 C 
BRANCH  20  21
HETATM   21  C12 UNL     1      -4.402   1.048   0.123  1.00  0.00     0.395 C 
BRANCH  21  22
HETATM   22  N8  UNL     1      -4.644  -0.087  -0.670  1.00  0.00    -0.049 N 
ATOM     23  H83 UNL     1      -4.470   0.100  -1.657  1.00  0.00     0.276 HD
ATOM     24  H82 UNL     1      -3.937  -0.807  -0.521  1.00  0.00     0.276 HD
ATOM     25  H81 UNL     1      -5.586  -0.446  -0.516  1.00  0.00     0.276 HD
ENDBRANCH  21  22
BRANCH  21  26
HETATM   26  N9  UNL     1      -5.333   2.099  -0.222  1.00  0.00    -0.049 N 
ATOM     27  H93 UNL     1      -5.153   2.969   0.279  1.00  0.00     0.276 HD
ATOM     28  H92 UNL     1      -5.195   2.457  -1.167  1.00  0.00     0.276 HD
ATOM     29  H91 UNL     1      -6.275   1.740  -0.068  1.00  0.00     0.276 HD
ENDBRANCH  21  26
ENDBRANCH  20  21
ENDBRANCH  18  20
ENDBRANCH   3  16
BRANCH   1  30
HETATM   30  N3  UNL     1      -0.822  -2.097   1.165  1.00  0.00    -0.250 N 
HETATM   31  C1  UNL     1      -1.232  -3.225   0.362  1.00  0.00     0.352 C 
HETATM   32  N2  UNL     1      -2.343  -4.017   0.722  1.00  0.00    -0.257 N 
HETATM   33  O1  UNL     1      -0.565  -3.479  -0.670  1.00  0.00    -0.244 OA
ATOM     34  H2  UNL     1      -2.881  -3.806   1.562  1.00  0.00     0.191 HD
ATOM     35  H3  UNL     1      -1.356  -1.880   2.007  1.00  0.00     0.192 HD
BRANCH  32  36
HETATM   36  N1  UNL     1      -2.690  -5.091  -0.091  1.00  0.00    -0.341 N 
ATOM     37  H12 UNL     1      -2.141  -5.289  -0.928  1.00  0.00     0.177 HD
ATOM     38  H11 UNL     1      -3.493  -5.663   0.169  1.00  0.00     0.177 HD
ENDBRANCH  32  36
ENDBRANCH   1  30
TORSDOF 10
