REMARK  6 active torsions:
REMARK  status: ('A' for Active; 'I' for Inactive)
REMARK    1  A    between atoms: C3_4  and  C4_5 
REMARK    2  A    between atoms: C9_12  and  S1_13 
REMARK    3  A    between atoms: S1_13  and  C10_14 
REMARK    4  A    between atoms: C10_14  and  C11_15 
REMARK    5  A    between atoms: C11_15  and  N3_16 
REMARK    6  A    between atoms: C15_24  and  N6_25 
ROOT
HETATM    1  N1  UNL     1      -4.643  -2.100   1.286  1.00  0.00    -0.191 NA
HETATM    2  C1  UNL     1      -3.504  -2.035   0.998  1.00  0.00     0.105 C 
HETATM    3  C2  UNL     1      -2.093  -1.976   0.667  1.00  0.00     0.111 A 
HETATM    4  C3  UNL     1      -1.504  -0.796   0.258  1.00  0.00     0.040 A 
HETATM    5  N2  UNL     1      -0.183  -0.840  -0.012  1.00  0.00    -0.338 N 
ATOM      6  H2  UNL     1       0.277   0.018  -0.315  1.00  0.00     0.168 HD
HETATM    7  C9  UNL     1       0.548  -1.938   0.096  1.00  0.00     0.146 A 
HETATM    8  N5  UNL     1      -0.048  -3.082   0.497  1.00  0.00    -0.322 N 
ATOM      9  H5  UNL     1       0.510  -3.932   0.582  1.00  0.00     0.169 HD
HETATM   10  C15 UNL     1      -1.352  -3.125   0.785  1.00  0.00     0.123 A 
ENDROOT
BRANCH   4  11
HETATM   11  C4  UNL     1      -2.335   0.392   0.138  1.00  0.00     0.037 C 
HETATM   12  C5  UNL     1      -1.602   1.692  -0.057  1.00  0.00     0.011 C 
HETATM   13  C6  UNL     1      -2.650   2.635  -0.644  1.00  0.00     0.001 C 
HETATM   14  C7  UNL     1      -3.859   1.781  -0.927  1.00  0.00     0.001 C 
HETATM   15  C8  UNL     1      -3.234   0.396  -1.096  1.00  0.00     0.011 C 
ENDBRANCH   4  11
BRANCH  10  16
HETATM   16  N6  UNL     1      -1.946  -4.203   1.169  1.00  0.00    -0.384 N 
ATOM     17  H62 UNL     1      -2.941  -4.236   1.389  1.00  0.00     0.157 HD
ATOM     18  H61 UNL     1      -1.395  -5.057   1.257  1.00  0.00     0.157 HD
ENDBRANCH  10  16
BRANCH   7  19
HETATM   19  S1  UNL     1       2.316  -2.002  -0.278  1.00  0.00    -0.092 SA
BRANCH  19  20
HETATM   20  C10 UNL     1       3.225  -1.565   1.215  1.00  0.00     0.102 C 
BRANCH  20  21
HETATM   21  C11 UNL     1       3.088  -0.089   1.467  1.00  0.00     0.139 C 
BRANCH  21  22
HETATM   22  N3  UNL     1       3.706   0.633   0.387  1.00  0.00    -0.351 N 
HETATM   23  C12 UNL     1       5.019   1.002   0.398  1.00  0.00     0.108 A 
HETATM   24  C13 UNL     1       5.271   1.664  -0.778  1.00  0.00     0.106 A 
HETATM   25  N4  UNL     1       4.137   1.704  -1.499  1.00  0.00    -0.361 N 
HETATM   26  C14 UNL     1       3.186   1.059  -0.755  1.00  0.00     0.182 A 
ATOM     27  H4  UNL     1       4.010   2.130  -2.417  1.00  0.00     0.166 HD
ENDBRANCH  21  22
ENDBRANCH  20  21
ENDBRANCH  19  20
ENDBRANCH   7  19
TORSDOF 6
