REMARK  7 active torsions:
REMARK  status: ('A' for Active; 'I' for Inactive)
REMARK    1  A    between atoms: C2_2  and  C3_3 
REMARK    2  A    between atoms: C8_8  and  N1_9 
REMARK    3  A    between atoms: N1_9  and  C9_11 
REMARK    4  A    between atoms: C9_11  and  S2_13 
REMARK    5  A    between atoms: S2_13  and  C10_14 
REMARK    6  A    between atoms: C10_14  and  C11_15 
REMARK    7  A    between atoms: C11_15  and  C12_16 
REMARK       I    between atoms: C12_16  and  N2_18 
ROOT
HETATM    1  C9  UNL     1      -0.526  -0.118  -1.372  1.00  0.00     0.134 C 
HETATM    2  S1  UNL     1       0.586  -0.723  -2.436  1.00  0.00    -0.053 SA
ENDROOT
BRANCH   1   3
HETATM    3  N1  UNL     1      -1.839  -0.594  -1.379  1.00  0.00    -0.371 N 
ATOM      4  H1  UNL     1      -2.094  -1.315  -2.054  1.00  0.00     0.161 HD
BRANCH   3   5
HETATM    5  C8  UNL     1      -2.845  -0.110  -0.474  1.00  0.00     0.087 C 
HETATM    6  C3  UNL     1      -4.235  -0.586  -0.907  1.00  0.00     0.008 C 
HETATM    7  C4  UNL     1      -5.076  -1.025   0.244  1.00  0.00     0.007 C 
HETATM    8  C5  UNL     1      -4.887  -0.249   1.506  1.00  0.00     0.001 C 
HETATM    9  C6  UNL     1      -3.436  -0.135   1.925  1.00  0.00     0.002 C 
HETATM   10  C7  UNL     1      -2.538  -0.747   0.896  1.00  0.00     0.025 C 
BRANCH   6  11
HETATM   11  C2  UNL     1      -4.905   0.442  -1.789  1.00  0.00     0.002 C 
HETATM   12  C1  UNL     1      -5.265   1.698  -1.072  1.00  0.00     0.005 C 
ENDBRANCH   6  11
ENDBRANCH   3   5
ENDBRANCH   1   3
BRANCH   1  13
HETATM   13  S2  UNL     1      -0.022   1.146  -0.239  1.00  0.00    -0.100 SA
BRANCH  13  14
HETATM   14  C10 UNL     1       1.717   1.503  -0.427  1.00  0.00     0.091 C 
BRANCH  14  15
HETATM   15  C11 UNL     1       2.634   0.386  -0.000  1.00  0.00     0.113 C 
BRANCH  15  16
HETATM   16  C12 UNL     1       4.044   0.849  -0.221  1.00  0.00     0.220 C 
HETATM   17  O1  UNL     1       4.214   2.011  -0.699  1.00  0.00    -0.273 OA
HETATM   18  N2  UNL     1       5.152   0.038   0.085  1.00  0.00    -0.352 N 
HETATM   19  C13 UNL     1       6.529   0.384  -0.086  1.00  0.00     0.126 C 
HETATM   20  C16 UNL     1       5.104  -1.287   0.625  1.00  0.00     0.126 C 
HETATM   21  C14 UNL     1       7.113  -0.124   1.240  1.00  0.00     0.021 C 
HETATM   22  C15 UNL     1       6.162  -1.192   1.732  1.00  0.00     0.021 C 
ENDBRANCH  15  16
ENDBRANCH  14  15
ENDBRANCH  13  14
ENDBRANCH   1  13
TORSDOF 7
