REMARK  5 active torsions:
REMARK  status: ('A' for Active; 'I' for Inactive)
REMARK    1  A    between atoms: C4_4  and  C5_5 
REMARK    2  A    between atoms: C6_6  and  C7_7 
REMARK    3  A    between atoms: N2_15  and  C12_16 
REMARK    4  A    between atoms: C12_16  and  C14_18 
REMARK    5  A    between atoms: C14_18  and  O2_20 
ROOT
HETATM    1  C1  UNL     1       6.406  -4.390  -1.770  1.00  0.00     0.017 C 
HETATM    2  C2  UNL     1       5.816  -3.371  -1.484  1.00  0.00    -0.089 C 
HETATM    3  C3  UNL     1       5.127  -2.156  -1.163  1.00  0.00     0.072 C 
HETATM    4  C4  UNL     1       3.890  -2.191  -0.731  1.00  0.00     0.073 C 
ENDROOT
BRANCH   4   5
HETATM    5  C5  UNL     1       3.139  -1.023  -0.391  1.00  0.00    -0.075 C 
HETATM    6  C6  UNL     1       2.510  -0.012  -0.099  1.00  0.00    -0.059 C 
BRANCH   6   7
HETATM    7  C7  UNL     1       1.774   1.192   0.273  1.00  0.00     0.355 C 
HETATM    8  N1  UNL     1       1.509   1.953  -0.901  1.00  0.00    -0.052 N 
HETATM    9  C8  UNL     1       0.880   1.136  -1.918  1.00  0.00     0.236 C 
ATOM     10  H12 UNL     1       0.958   2.786  -0.693  1.00  0.00     0.279 HD
ATOM     11  H11 UNL     1       2.351   2.409  -1.252  1.00  0.00     0.279 HD
HETATM   12  C9  UNL     1      -0.603   1.305  -1.776  1.00  0.00     0.052 C 
HETATM   13  C10 UNL     1      -1.246   0.356  -0.802  1.00  0.00     0.085 C 
HETATM   14  C11 UNL     1      -0.887  -1.049  -1.216  1.00  0.00     0.032 C 
HETATM   15  N2  UNL     1      -0.837   0.696   0.548  1.00  0.00    -0.332 N 
HETATM   16  C16 UNL     1       0.523   0.775   0.988  1.00  0.00     0.264 C 
HETATM   17  O3  UNL     1       0.663   0.425   2.196  1.00  0.00    -0.270 OA
BRANCH  15  18
HETATM   18  C12 UNL     1      -1.805   1.000   1.539  1.00  0.00     0.183 C 
HETATM   19  C13 UNL     1      -2.495   2.330   1.172  1.00  0.00     0.043 C 
BRANCH  18  20
HETATM   20  C14 UNL     1      -2.882   0.042   1.753  1.00  0.00     0.281 C 
HETATM   21  O1  UNL     1      -2.926  -1.021   1.106  1.00  0.00    -0.263 OA
BRANCH  20  22
HETATM   22  O2  UNL     1      -3.864   0.302   2.676  1.00  0.00    -0.325 OA
HETATM   23  C15 UNL     1      -4.948  -0.576   2.947  1.00  0.00     0.213 C 
ENDBRANCH  20  22
ENDBRANCH  18  20
ENDBRANCH  15  18
ENDBRANCH   6   7
ENDBRANCH   4   5
TORSDOF 5
