REMARK  7 active torsions:
REMARK  status: ('A' for Active; 'I' for Inactive)
REMARK    1  A    between atoms: O1_2  and  N1_3 
REMARK    2  A    between atoms: N1_3  and  C2_5 
REMARK    3  A    between atoms: N3_9  and  C4_11 
REMARK    4  A    between atoms: C4_11  and  N4_13 
REMARK    5  A    between atoms: N4_13  and  C5_15 
REMARK    6  A    between atoms: C10_27  and  C11_28 
REMARK    7  A    between atoms: C11_28  and  N9_32 
ROOT
HETATM    1  C2  UNL     1      -0.611   0.207   1.005  1.00  0.00     0.171 A 
HETATM    2  N2  UNL     1       0.576  -0.091   1.525  1.00  0.00    -0.172 N 
ATOM      3  H2  UNL     1       0.780   0.215   2.477  1.00  0.00     0.186 HD
HETATM    4  C3  UNL     1       1.552  -0.799   0.834  1.00  0.00     0.688 A 
HETATM    5  N3  UNL     1       2.627  -1.021   1.410  1.00  0.00    -0.166 N 
ATOM      6  H3  UNL     1       2.630  -0.625   2.350  1.00  0.00     0.186 HD
HETATM    7  N6  UNL     1       1.244  -1.179  -0.408  1.00  0.00    -0.173 N 
ATOM      8  H6  UNL     1       1.946  -1.699  -0.935  1.00  0.00     0.186 HD
HETATM    9  C8  UNL     1       0.051  -0.918  -1.020  1.00  0.00     0.169 A 
HETATM   10  C9  UNL     1      -0.871  -0.213  -0.279  1.00  0.00     0.127 A 
HETATM   11  N7  UNL     1      -1.953  -0.076  -1.058  1.00  0.00    -0.332 N 
ATOM     12  H7  UNL     1      -2.819   0.400  -0.805  1.00  0.00     0.168 HD
HETATM   13  C10 UNL     1      -1.692  -0.684  -2.246  1.00  0.00     0.168 A 
HETATM   14  N10 UNL     1      -0.458  -1.211  -2.243  1.00  0.00    -0.212 N 
HETATM   15  C14 UNL     1       0.186  -1.910  -3.267  1.00  0.00     0.192 C 
HETATM   16  N11 UNL     1       0.704  -2.483  -4.130  1.00  0.00    -0.171 NA
ENDROOT
BRANCH  13  17
HETATM   17  C11 UNL     1      -2.671  -0.732  -3.358  1.00  0.00     0.142 C 
HETATM   18  N8  UNL     1      -2.301  -1.348  -4.451  1.00  0.00    -0.382 N 
ATOM     19  H82 UNL     1      -1.382  -1.780  -4.548  1.00  0.00     0.157 HD
ATOM     20  H81 UNL     1      -2.975  -1.381  -5.216  1.00  0.00     0.157 HD
BRANCH  17  21
HETATM   21  N9  UNL     1      -3.939  -0.136  -3.224  1.00  0.00    -0.373 N 
HETATM   22  C12 UNL     1      -5.134  -0.917  -3.390  1.00  0.00     0.150 C 
HETATM   23  C13 UNL     1      -4.042   1.264  -2.917  1.00  0.00     0.150 C 
ENDBRANCH  17  21
ENDBRANCH  13  17
BRANCH   1  24
HETATM   24  N1  UNL     1      -1.474   0.860   1.698  1.00  0.00    -0.248 N 
ATOM     25  H1  UNL     1      -2.385   1.088   1.300  1.00  0.00     0.196 HD
BRANCH  24  26
HETATM   26  O1  UNL     1      -1.164   1.247   2.973  1.00  0.00    -0.284 OA
HETATM   27  C1  UNL     1      -1.545   2.501   3.511  1.00  0.00     0.237 C 
ENDBRANCH  24  26
ENDBRANCH   1  24
BRANCH   5  28
HETATM   28  C4  UNL     1       3.795  -1.641   1.139  1.00  0.00     0.191 C 
HETATM   29  S1  UNL     1       3.734  -3.063   0.243  1.00  0.00    -0.040 SA
BRANCH  28  30
HETATM   30  N4  UNL     1       5.085  -1.239   1.557  1.00  0.00    -0.326 N 
ATOM     31  H4  UNL     1       5.885  -1.804   1.273  1.00  0.00     0.169 HD
BRANCH  30  32
HETATM   32  C5  UNL     1       5.320  -0.089   2.352  1.00  0.00     0.094 A 
HETATM   33  C6  UNL     1       4.518   0.878   2.878  1.00  0.00     0.056 A 
HETATM   34  C7  UNL     1       5.097   1.840   3.615  1.00  0.00     0.099 A 
HETATM   35  N5  UNL     1       6.414   1.792   3.787  1.00  0.00    -0.335 N 
HETATM   36  S2  UNL     1       6.883   0.428   2.942  1.00  0.00     0.003 SA
ATOM     37  H5  UNL     1       7.003   2.438   4.313  1.00  0.00     0.173 HD
ENDBRANCH  30  32
ENDBRANCH  28  30
ENDBRANCH   5  28
TORSDOF 7
