REMARK  11 active torsions:
REMARK  status: ('A' for Active; 'I' for Inactive)
REMARK    1  A    between atoms: C4_5  and  O2_7 
REMARK    2  A    between atoms: C6_9  and  O3_10 
REMARK    3  A    between atoms: C9_14  and  O4_15 
REMARK    4  A    between atoms: C11_17  and  O5_18 
REMARK    5  A    between atoms: C21_31  and  C22_32 
REMARK    6  A    between atoms: C23_33  and  C24_34 
REMARK    7  A    between atoms: C24_34  and  C25_35 
REMARK    8  A    between atoms: C27_37  and  C28_38 
REMARK    9  A    between atoms: C28_38  and  C29_39 
REMARK   10  A    between atoms: C29_39  and  C30_40 
REMARK   11  A    between atoms: C31_43  and  O8_44 
ROOT
HETATM    1  C1  UNL     1      -5.048   2.196   1.020  1.00  0.00     0.026 C 
HETATM    2  C2  UNL     1      -4.488   1.160   0.474  1.00  0.00     0.024 C 
HETATM    3  C3  UNL     1      -4.696   0.966  -0.978  1.00  0.00     0.195 C 
HETATM    4  O1  UNL     1      -5.330   1.836  -1.648  1.00  0.00    -0.289 OA
HETATM    5  C4  UNL     1      -4.206  -0.200  -1.725  1.00  0.00     0.156 C 
HETATM    6  C5  UNL     1      -3.798   0.128  -3.132  1.00  0.00     0.058 C 
HETATM    7  C6  UNL     1      -3.182  -1.036  -1.025  1.00  0.00     0.164 C 
HETATM    8  C7  UNL     1      -1.847  -0.546  -0.754  1.00  0.00     0.128 C 
HETATM    9  C8  UNL     1      -1.902  -1.259   0.524  1.00  0.00     0.089 C 
HETATM   10  C9  UNL     1      -3.429  -1.124   0.459  1.00  0.00     0.140 C 
HETATM   11  C11 UNL     1      -3.659   0.162   1.180  1.00  0.00     0.149 C 
HETATM   12  C12 UNL     1      -2.543   0.674   2.023  1.00  0.00    -0.012 C 
HETATM   13  C13 UNL     1      -2.590   0.176   3.293  1.00  0.00     0.023 C 
HETATM   14  C14 UNL     1      -1.438   1.591   1.766  1.00  0.00     0.021 A 
HETATM   15  C15 UNL     1      -1.396   2.648   2.704  1.00  0.00     0.128 A 
HETATM   16  F1  UNL     1      -2.321   2.782   3.725  1.00  0.00    -0.205 F 
HETATM   17  C16 UNL     1      -0.475   3.656   2.745  1.00  0.00     0.046 A 
HETATM   18  C17 UNL     1       0.508   3.676   1.809  1.00  0.00     0.046 A 
HETATM   19  C18 UNL     1       0.523   2.680   0.872  1.00  0.00     0.124 A 
HETATM   20  F2  UNL     1       1.548   2.764  -0.029  1.00  0.00    -0.206 F 
HETATM   21  C19 UNL     1      -0.429   1.620   0.813  1.00  0.00     0.004 A 
HETATM   22  C20 UNL     1      -0.116   0.764  -0.318  1.00  0.00     0.087 C 
HETATM   23  C21 UNL     1       0.210  -0.656  -0.294  1.00  0.00     0.156 C 
HETATM   24  O7  UNL     1      -0.685  -1.277  -1.258  1.00  0.00    -0.364 OA
HETATM   25  C31 UNL     1      -1.386   0.675  -1.200  1.00  0.00     0.167 C 
ENDROOT
BRANCH  23  26
HETATM   26  C22 UNL     1       1.543  -0.911  -1.004  1.00  0.00     0.002 C 
HETATM   27  C23 UNL     1       2.610  -1.309  -0.337  1.00  0.00    -0.024 C 
BRANCH  27  28
HETATM   28  C24 UNL     1       3.876  -1.547  -1.039  1.00  0.00     0.060 C 
BRANCH  28  29
HETATM   29  C25 UNL     1       4.986  -0.689  -0.554  1.00  0.00    -0.084 C 
HETATM   30  C26 UNL     1       4.926   0.790  -0.590  1.00  0.00     0.043 C 
HETATM   31  C27 UNL     1       6.070  -1.260  -0.050  1.00  0.00    -0.024 C 
BRANCH  31  32
HETATM   32  C28 UNL     1       7.250  -0.527   0.467  1.00  0.00     0.034 C 
BRANCH  32  33
HETATM   33  C29 UNL     1       8.556  -0.918  -0.116  1.00  0.00     0.073 C 
BRANCH  33  34
HETATM   34  C30 UNL     1       8.727  -0.773  -1.552  1.00  0.00     0.231 C 
HETATM   35  O6  UNL     1       7.864  -0.364  -2.291  1.00  0.00    -0.307 OA
ENDBRANCH  33  34
ENDBRANCH  32  33
ENDBRANCH  31  32
ENDBRANCH  28  29
ENDBRANCH  27  28
ENDBRANCH  23  26
BRANCH  25  36
HETATM   36  O8  UNL     1      -1.775   1.929  -1.305  1.00  0.00    -0.392 OA
ATOM     37  H8  UNL     1      -1.457   2.770  -1.612  1.00  0.00     0.210 HD
ENDBRANCH  25  36
BRANCH   7  38
HETATM   38  O3  UNL     1      -3.131  -2.275  -1.644  1.00  0.00    -0.380 OA
ATOM     39  H3  UNL     1      -2.481  -2.806  -1.199  1.00  0.00     0.211 HD
ENDBRANCH   7  38
BRANCH   5  40
HETATM   40  O2  UNL     1      -5.345  -1.047  -1.846  1.00  0.00    -0.379 OA
ATOM     41  H2  UNL     1      -5.028  -1.801  -2.329  1.00  0.00     0.211 HD
ENDBRANCH   5  40
BRANCH  10  42
HETATM   42  O4  UNL     1      -4.166  -2.141   0.839  1.00  0.00    -0.378 OA
HETATM   43  C10 UNL     1      -4.071  -3.421   0.766  1.00  0.00     0.202 C 
ENDBRANCH  10  42
BRANCH  11  44
HETATM   44  O5  UNL     1      -4.715  -0.205   2.112  1.00  0.00    -0.377 OA
ATOM     45  H5  UNL     1      -4.182  -0.847   2.566  1.00  0.00     0.211 HD
ENDBRANCH  11  44
TORSDOF 11
