REMARK  8 active torsions:
REMARK  status: ('A' for Active; 'I' for Inactive)
REMARK    1  A    between atoms: C1_2  and  C2_3 
REMARK       I    between atoms: C1_2  and  N1_5 
REMARK    2  A    between atoms: N1_5  and  C3_7 
REMARK    3  A    between atoms: C3_7  and  C4_8 
REMARK    4  A    between atoms: C4_8  and  N2_9 
REMARK    5  A    between atoms: C4_8  and  S1_25 
REMARK    6  A    between atoms: N2_9  and  C5_11 
REMARK    7  A    between atoms: C5_11  and  C6_12 
REMARK       I    between atoms: C6_12  and  N3_14 
REMARK    8  A    between atoms: N3_14  and  C7_16 
ROOT
HETATM    1  C5  UNL     1       0.874   1.189   0.567  1.00  0.00     0.222 C 
ENDROOT
BRANCH   1   2
HETATM    2  N2  UNL     1       1.212   0.291  -0.492  1.00  0.00    -0.377 N 
ATOM      3  H2  UNL     1       0.485  -0.306  -0.886  1.00  0.00     0.160 HD
BRANCH   2   4
HETATM    4  C4  UNL     1       2.554   0.205  -1.020  1.00  0.00     0.076 C 
BRANCH   4   5
HETATM    5  C3  UNL     1       3.562   1.084  -0.427  1.00  0.00     0.188 C 
BRANCH   5   6
HETATM    6  N1  UNL     1       4.903   0.553  -0.443  1.00  0.00    -0.354 N 
HETATM    7  C1  UNL     1       5.250  -0.658   0.222  1.00  0.00     0.227 C 
HETATM    8  O1  UNL     1       4.391  -1.335   0.850  1.00  0.00    -0.273 OA
ATOM      9  H1  UNL     1       5.628   1.062  -0.948  1.00  0.00     0.162 HD
BRANCH   7  10
HETATM   10  C2  UNL     1       6.637  -1.154   0.194  1.00  0.00     0.187 C 
HETATM   11 BR1  UNL     1       7.850  -0.011  -0.739  1.00  0.00    -0.087 Br
ENDBRANCH   7  10
ENDBRANCH   5   6
ENDBRANCH   4   5
BRANCH   4  12
HETATM   12  S1  UNL     1       2.861  -0.798  -2.257  1.00  0.00    -0.004 SA
HETATM   13 CL1  UNL     1       4.750  -0.951  -3.160  1.00  0.00    -0.037 Cl
ENDBRANCH   4  12
ENDBRANCH   2   4
ENDBRANCH   1   2
BRANCH   1  14
HETATM   14  C6  UNL     1      -0.542   1.193   0.956  1.00  0.00     0.235 C 
HETATM   15  O2  UNL     1      -0.864   1.992   1.905  1.00  0.00    -0.272 OA
HETATM   16  N3  UNL     1      -1.580   0.436   0.420  1.00  0.00    -0.355 N 
ATOM     17  H3  UNL     1      -1.348  -0.207  -0.337  1.00  0.00     0.162 HD
BRANCH  16  18
HETATM   18  C7  UNL     1      -2.957   0.487   0.847  1.00  0.00     0.092 C 
HETATM   19  C8  UNL     1      -3.408  -0.894   1.287  1.00  0.00     0.058 C 
HETATM   20  C9  UNL     1      -4.750  -1.117   0.616  1.00  0.00     0.188 C 
HETATM   21  C10 UNL     1      -5.234   0.341   0.510  1.00  0.00     0.041 C 
HETATM   22  N4  UNL     1      -4.510  -1.405  -0.769  1.00  0.00    -0.070 N 
HETATM   23  C11 UNL     1      -3.951   0.832  -0.197  1.00  0.00     0.036 C 
HETATM   24  C12 UNL     1      -3.907  -0.192  -1.302  1.00  0.00     0.239 C 
ATOM     25  H42 UNL     1      -3.957  -2.247  -0.927  1.00  0.00     0.277 HD
ATOM     26  H41 UNL     1      -5.338  -1.714  -1.278  1.00  0.00     0.277 HD
ENDBRANCH  16  18
ENDBRANCH   1  14
TORSDOF 8
