REMARK  6 active torsions:
REMARK  status: ('A' for Active; 'I' for Inactive)
REMARK    1  A    between atoms: C1_2  and  C2_3 
REMARK       I    between atoms: C1_2  and  N1_5 
REMARK    2  A    between atoms: N1_5  and  C3_7 
REMARK    3  A    between atoms: C3_7  and  C4_8 
REMARK    4  A    between atoms: C3_7  and  C5_10 
REMARK       I    between atoms: C5_10  and  N2_12 
REMARK    5  A    between atoms: C10_17  and  C11_18 
REMARK       I    between atoms: C11_18  and  N3_20 
REMARK    6  A    between atoms: N3_20  and  C12_22 
ROOT
HETATM    1  C5  UNL     1       2.775   0.577  -0.059  1.00  0.00     0.244 C 
HETATM    2  O2  UNL     1       3.684   1.450   0.096  1.00  0.00    -0.271 OA
HETATM    3  N2  UNL     1       1.480   1.024  -0.374  1.00  0.00    -0.337 N 
HETATM    4  C6  UNL     1       1.268   2.475  -0.441  1.00  0.00     0.127 C 
HETATM    5  C7  UNL     1       0.288   2.833  -1.499  1.00  0.00     0.020 C 
HETATM    6  C8  UNL     1       0.219   1.811  -2.613  1.00  0.00     0.004 C 
HETATM    7  C9  UNL     1      -0.052   0.433  -2.112  1.00  0.00     0.035 C 
HETATM    8  C10 UNL     1       0.335   0.211  -0.667  1.00  0.00     0.179 C 
ENDROOT
BRANCH   8   9
HETATM    9  C11 UNL     1      -0.804   0.410   0.255  1.00  0.00     0.241 C 
HETATM   10  O3  UNL     1      -0.659   1.213   1.212  1.00  0.00    -0.271 OA
HETATM   11  N3  UNL     1      -2.042  -0.241   0.132  1.00  0.00    -0.355 N 
ATOM     12  H3  UNL     1      -2.175  -0.895  -0.640  1.00  0.00     0.162 HD
BRANCH  11  13
HETATM   13  C12 UNL     1      -3.135  -0.025   1.051  1.00  0.00     0.087 C 
HETATM   14  C13 UNL     1      -3.670  -1.271   1.667  1.00  0.00     0.052 C 
HETATM   15  C14 UNL     1      -5.011  -1.684   1.113  1.00  0.00     0.234 C 
HETATM   16  N4  UNL     1      -6.030  -0.677   1.284  1.00  0.00    -0.075 N 
HETATM   17  C15 UNL     1      -5.448   0.672   1.378  1.00  0.00     0.234 C 
ATOM     18  H42 UNL     1      -6.733  -0.729   0.547  1.00  0.00     0.277 HD
ATOM     19  H41 UNL     1      -6.626  -0.882   2.086  1.00  0.00     0.277 HD
HETATM   20  C16 UNL     1      -4.305   0.675   0.356  1.00  0.00     0.052 C 
ENDBRANCH  11  13
ENDBRANCH   8   9
BRANCH   1  21
HETATM   21  C3  UNL     1       3.201  -0.829   0.113  1.00  0.00     0.190 C 
BRANCH  21  22
HETATM   22  N1  UNL     1       4.671  -0.909   0.231  1.00  0.00    -0.346 N 
HETATM   23  C1  UNL     1       5.425  -1.803  -0.576  1.00  0.00     0.232 C 
HETATM   24  O1  UNL     1       4.882  -2.565  -1.423  1.00  0.00    -0.272 OA
ATOM     25  H1  UNL     1       5.153  -0.312   0.903  1.00  0.00     0.163 HD
BRANCH  23  26
HETATM   26  C2  UNL     1       6.910  -1.867  -0.439  1.00  0.00     0.217 C 
HETATM   27 CL1  UNL     1       7.596  -3.065  -1.556  1.00  0.00    -0.121 Cl
ENDBRANCH  23  26
ENDBRANCH  21  22
BRANCH  21  28
HETATM   28  C4  UNL     1       2.673  -1.289   1.479  1.00  0.00     0.149 C 
HETATM   29 CL2  UNL     1       3.324  -0.173   2.730  1.00  0.00    -0.128 Cl
ENDBRANCH  21  28
ENDBRANCH   1  21
TORSDOF 6
