REMARK  11 active torsions:
REMARK  status: ('A' for Active; 'I' for Inactive)
REMARK    1  A    between atoms: C2_2  and  C5_7 
REMARK    2  A    between atoms: C3_3  and  C4_4 
REMARK    3  A    between atoms: C5_7  and  C6_8 
REMARK    4  A    between atoms: C7_9  and  C8_10 
REMARK    5  A    between atoms: C7_9  and  C22_33 
REMARK    6  A    between atoms: C8_10  and  C9_11 
REMARK    7  A    between atoms: C9_11  and  O2_12 
REMARK    8  A    between atoms: C9_11  and  C10_14 
REMARK    9  A    between atoms: C10_14  and  O3_15 
REMARK   10  A    between atoms: C17_24  and  O5_25 
REMARK   11  A    between atoms: C18_27  and  O6_28 
ROOT
HETATM    1  C10 UNL     1      -1.537   0.219   0.893  1.00  0.00     0.120 C 
HETATM    2  C11 UNL     1      -0.941   1.579   1.016  1.00  0.00     0.188 A 
HETATM    3  O4  UNL     1      -0.772   2.417   2.007  1.00  0.00    -0.372 OA
HETATM    4  C12 UNL     1      -2.065   2.319   1.771  1.00  0.00     0.154 A 
HETATM    5  C13 UNL     1      -2.930   2.707   0.634  1.00  0.00     0.040 C 
HETATM    6  C14 UNL     1      -3.197   1.636  -0.371  1.00  0.00     0.005 C 
HETATM    7  C15 UNL     1      -4.706   1.568  -0.507  1.00  0.00     0.018 C 
HETATM    8  C16 UNL     1      -5.441   1.540   0.796  1.00  0.00     0.013 C 
HETATM    9  C17 UNL     1      -5.209   0.495  -1.403  1.00  0.00     0.151 C 
HETATM   10  C18 UNL     1      -4.694  -0.812  -0.959  1.00  0.00     0.148 C 
HETATM   11  C19 UNL     1      -3.606  -0.775   0.068  1.00  0.00     0.047 C 
HETATM   12  C20 UNL     1      -2.538   0.294  -0.215  1.00  0.00    -0.001 C 
HETATM   13  C21 UNL     1      -1.970  -0.070  -1.580  1.00  0.00     0.019 C 
ENDROOT
BRANCH   1  14
HETATM   14  C9  UNL     1      -0.419  -0.760   0.824  1.00  0.00     0.160 C 
BRANCH  14  15
HETATM   15  C8  UNL     1       0.761  -0.348   0.039  1.00  0.00     0.069 C 
BRANCH  15  16
HETATM   16  C7  UNL     1       2.090  -0.992   0.471  1.00  0.00    -0.077 C 
HETATM   17  C6  UNL     1       3.006  -0.171   0.933  1.00  0.00    -0.019 C 
BRANCH  17  18
HETATM   18  C5  UNL     1       4.345  -0.292   1.440  1.00  0.00     0.061 C 
BRANCH  18  19
HETATM   19  C2  UNL     1       5.360   0.435   0.585  1.00  0.00    -0.075 C 
HETATM   20  C1  UNL     1       5.195   1.867   0.413  1.00  0.00     0.044 C 
HETATM   21  C3  UNL     1       6.322  -0.258   0.052  1.00  0.00     0.073 C 
BRANCH  21  22
HETATM   22  C4  UNL     1       7.356   0.291  -0.781  1.00  0.00     0.254 C 
HETATM   23  N1  UNL     1       7.487   1.657  -1.146  1.00  0.00    -0.058 NA
HETATM   24  O1  UNL     1       8.244  -0.525  -1.238  1.00  0.00    -0.272 OA
ENDBRANCH  21  22
ENDBRANCH  18  19
ENDBRANCH  17  18
BRANCH  16  25
HETATM   25  C22 UNL     1       2.171  -2.440   0.248  1.00  0.00     0.006 C 
HETATM   26  C23 UNL     1       1.918  -2.724  -1.261  1.00  0.00     0.014 C 
HETATM   27  C24 UNL     1       3.487  -3.103   0.615  1.00  0.00     0.014 C 
ENDBRANCH  16  25
ENDBRANCH  15  16
ENDBRANCH  14  15
BRANCH  14  28
HETATM   28  O2  UNL     1      -0.686  -2.073   0.743  1.00  0.00    -0.392 OA
ATOM     29  H2  UNL     1      -1.446  -2.338   1.248  1.00  0.00     0.210 HD
ENDBRANCH  14  28
ENDBRANCH   1  14
BRANCH   1  30
HETATM   30  O3  UNL     1      -2.269  -0.132   2.061  1.00  0.00    -0.384 OA
ATOM     31  H3  UNL     1      -2.983   0.493   2.105  1.00  0.00     0.210 HD
ENDBRANCH   1  30
BRANCH  10  32
HETATM   32  O6  UNL     1      -4.355  -1.571  -2.090  1.00  0.00    -0.393 OA
ATOM     33  H6  UNL     1      -4.023  -2.414  -1.804  1.00  0.00     0.210 HD
ENDBRANCH  10  32
BRANCH   9  34
HETATM   34  O5  UNL     1      -6.622   0.531  -1.283  1.00  0.00    -0.393 OA
ATOM     35  H5  UNL     1      -6.944  -0.155  -1.856  1.00  0.00     0.210 HD
ENDBRANCH   9  34
TORSDOF 11
