REMARK  7 active torsions:
REMARK  status: ('A' for Active; 'I' for Inactive)
REMARK    1  A    between atoms: C3_3  and  N1_4 
REMARK       I    between atoms: N1_4  and  C4_6 
REMARK    2  A    between atoms: C4_6  and  C5_8 
REMARK    3  A    between atoms: C7_10  and  O2_11 
REMARK    4  A    between atoms: C16_21  and  C17_22 
REMARK    5  A    between atoms: C17_22  and  C19_24 
REMARK    6  A    between atoms: C19_24  and  C20_25 
REMARK    7  A    between atoms: C26_31  and  O3_32 
ROOT
HETATM    1  C1  UNL     1       9.535   2.460  -0.392  1.00  0.00     0.014 C 
HETATM    2  C2  UNL     1       9.155   1.472   0.178  1.00  0.00    -0.098 C 
HETATM    3  C3  UNL     1       8.693   0.279   0.896  1.00  0.00     0.216 C 
ENDROOT
BRANCH   3   4
HETATM    4  N1  UNL     1       7.458  -0.208   0.340  1.00  0.00    -0.349 N 
HETATM    5  C4  UNL     1       6.313   0.600   0.319  1.00  0.00     0.241 C 
HETATM    6  O1  UNL     1       6.379   1.768   0.796  1.00  0.00    -0.271 OA
ATOM      7  H1  UNL     1       7.416  -1.152  -0.043  1.00  0.00     0.163 HD
BRANCH   5   8
HETATM    8  C5  UNL     1       5.008   0.162  -0.238  1.00  0.00     0.179 C 
HETATM    9  C6  UNL     1       4.561  -1.107   0.445  1.00  0.00     0.066 C 
HETATM   10  C7  UNL     1       3.482  -0.760   1.422  1.00  0.00     0.121 C 
HETATM   11  C8  UNL     1       2.083  -0.983   0.861  1.00  0.00     0.054 C 
HETATM   12  C9  UNL     1       1.712   0.095  -0.137  1.00  0.00     0.074 C 
HETATM   13  C10 UNL     1       1.989  -0.393  -1.567  1.00  0.00     0.023 C 
HETATM   14  C26 UNL     1       0.277   0.466  -0.113  1.00  0.00     0.078 C 
HETATM   15  C27 UNL     1       2.638   1.232   0.093  1.00  0.00     0.230 C 
HETATM   16  C11 UNL     1       0.685  -0.117  -2.333  1.00  0.00     0.009 C 
HETATM   17  C12 UNL     1      -0.301  -0.371  -1.258  1.00  0.00     0.026 C 
HETATM   18  C13 UNL     1      -1.705  -0.081  -1.549  1.00  0.00     0.001 C 
HETATM   19  C14 UNL     1      -2.297  -1.316  -2.219  1.00  0.00     0.006 C 
HETATM   20  C22 UNL     1      -2.595   0.262  -0.388  1.00  0.00    -0.036 C 
HETATM   21  C15 UNL     1      -3.751  -1.268  -1.824  1.00  0.00     0.006 C 
HETATM   22  C16 UNL     1      -3.639  -0.805  -0.367  1.00  0.00    -0.002 C 
HETATM   23  C23 UNL     1      -3.299   1.563  -0.785  1.00  0.00     0.016 C 
HETATM   24  C24 UNL     1      -1.941   0.382   0.923  1.00  0.00     0.013 C 
HETATM   25  C25 UNL     1      -0.507  -0.016   1.055  1.00  0.00     0.040 C 
HETATM   26  O4  UNL     1       2.209   2.334   0.504  1.00  0.00    -0.273 OA
HETATM   27  N2  UNL     1       4.040   1.233  -0.104  1.00  0.00    -0.347 N 
ATOM     28  H2  UNL     1       4.447   2.166  -0.163  1.00  0.00     0.163 HD
BRANCH  10  29
HETATM   29  O2  UNL     1       3.600  -1.632   2.516  1.00  0.00    -0.395 OA
ATOM     30  H2  UNL     1       2.915  -1.412   3.136  1.00  0.00     0.210 HD
ENDBRANCH  10  29
BRANCH  22  31
HETATM   31  C17 UNL     1      -5.009  -0.443   0.058  1.00  0.00    -0.014 C 
HETATM   32  C18 UNL     1      -5.813  -1.748  -0.116  1.00  0.00     0.010 C 
BRANCH  31  33
HETATM   33  C19 UNL     1      -5.142  -0.054   1.500  1.00  0.00     0.004 C 
BRANCH  33  34
HETATM   34  C20 UNL     1      -6.576   0.299   1.821  1.00  0.00    -0.004 C 
HETATM   35  C21 UNL     1      -7.055   1.458   0.960  1.00  0.00     0.005 C 
ENDBRANCH  33  34
ENDBRANCH  31  33
ENDBRANCH  22  31
BRANCH  14  36
HETATM   36  O3  UNL     1       0.033   1.815  -0.289  1.00  0.00    -0.388 OA
ATOM     37  H3  UNL     1      -0.887   2.053  -0.274  1.00  0.00     0.210 HD
ENDBRANCH  14  36
ENDBRANCH   5   8
ENDBRANCH   3   4
TORSDOF 7
