REMARK  13 active torsions:
REMARK  status: ('A' for Active; 'I' for Inactive)
REMARK    1  A    between atoms: C2_2  and  C4_4 
REMARK    2  A    between atoms: C4_4  and  C5_6 
REMARK    3  A    between atoms: C6_7  and  C7_8 
REMARK    4  A    between atoms: C7_8  and  C9_10 
REMARK    5  A    between atoms: C9_10  and  C11_12 
REMARK    6  A    between atoms: C11_12  and  O2_13 
REMARK    7  A    between atoms: C11_12  and  C12_15 
REMARK    8  A    between atoms: C12_15  and  C14_17 
REMARK    9  A    between atoms: C23_27  and  O4_28 
REMARK   10  A    between atoms: C26_32  and  C27_33 
REMARK   11  A    between atoms: C27_33  and  C29_35 
REMARK   12  A    between atoms: C30_36  and  C31_37 
REMARK       I    between atoms: C31_37  and  N1_39 
REMARK   13  A    between atoms: C34_42  and  C35_43 
ROOT
HETATM    1  C14 UNL     1       0.738  -1.168  -0.105  1.00  0.00     0.071 C 
HETATM    2  C15 UNL     1      -0.699  -1.402   0.305  1.00  0.00     0.141 C 
HETATM    3  O3  UNL     1      -1.359  -2.331   0.739  1.00  0.00    -0.297 OA
HETATM    4  C16 UNL     1      -0.964   0.008  -0.056  1.00  0.00     0.095 C 
HETATM    5  C17 UNL     1      -2.157   0.285  -0.878  1.00  0.00    -0.040 A 
HETATM    6  C18 UNL     1      -2.070   0.650  -2.105  1.00  0.00    -0.040 A 
HETATM    7  C19 UNL     1      -0.760   0.839  -2.828  1.00  0.00     0.038 C 
HETATM    8  C20 UNL     1       0.134  -0.232  -2.286  1.00  0.00     0.015 C 
HETATM    9  C21 UNL     1       0.337   0.032  -0.798  1.00  0.00    -0.019 C 
HETATM   10  C22 UNL     1       1.010   1.341  -0.643  1.00  0.00     0.017 C 
HETATM   11  C23 UNL     1      -3.528   0.699  -2.309  1.00  0.00     0.103 A 
HETATM   12  C24 UNL     1      -3.889  -0.528  -3.136  1.00  0.00     0.045 C 
HETATM   13  C25 UNL     1      -3.851  -1.633  -2.117  1.00  0.00     0.010 C 
HETATM   14  C26 UNL     1      -4.414  -0.893  -0.857  1.00  0.00     0.020 C 
HETATM   15  C34 UNL     1      -3.650   0.377  -0.875  1.00  0.00     0.112 A 
ENDROOT
BRANCH   1  16
HETATM   16  C12 UNL     1       1.674  -1.240   1.048  1.00  0.00     0.022 C 
HETATM   17  C13 UNL     1       1.259  -0.592   2.298  1.00  0.00     0.013 C 
BRANCH  16  18
HETATM   18  C11 UNL     1       3.074  -0.998   0.559  1.00  0.00     0.127 C 
BRANCH  18  19
HETATM   19  C9  UNL     1       4.176  -1.416   1.458  1.00  0.00     0.018 C 
HETATM   20  C10 UNL     1       4.292  -0.722   2.766  1.00  0.00     0.013 C 
BRANCH  19  21
HETATM   21  C7  UNL     1       5.487  -1.149   0.711  1.00  0.00     0.010 C 
HETATM   22  C8  UNL     1       5.691   0.297   0.381  1.00  0.00     0.015 C 
BRANCH  21  23
HETATM   23  C6  UNL     1       6.648  -1.669   1.442  1.00  0.00    -0.018 C 
HETATM   24  C5  UNL     1       7.655  -0.943   1.870  1.00  0.00     0.047 C 
BRANCH  24  25
HETATM   25  C4  UNL     1       8.769  -1.530   2.586  1.00  0.00     0.152 C 
HETATM   26  O1  UNL     1       8.771  -2.764   2.802  1.00  0.00    -0.293 OA
BRANCH  25  27
HETATM   27  C2  UNL     1       9.904  -0.685   3.065  1.00  0.00     0.051 C 
HETATM   28  C1  UNL     1      10.593   0.008   1.932  1.00  0.00     0.018 C 
HETATM   29  C3  UNL     1      10.833  -1.458   3.957  1.00  0.00     0.018 C 
ENDBRANCH  25  27
ENDBRANCH  24  25
ENDBRANCH  21  23
ENDBRANCH  19  21
ENDBRANCH  18  19
BRANCH  18  30
HETATM   30  O2  UNL     1       3.247  -1.807  -0.608  1.00  0.00    -0.395 OA
ATOM     31  H2  UNL     1       2.541  -1.539  -1.184  1.00  0.00     0.210 HD
ENDBRANCH  18  30
ENDBRANCH  16  18
ENDBRANCH   1  16
BRANCH  15  32
HETATM   32  C35 UNL     1      -4.105   1.434   0.059  1.00  0.00     0.190 C 
HETATM   33  O6  UNL     1      -4.374   1.136   1.237  1.00  0.00    -0.647 OA
HETATM   34  O7  UNL     1      -4.219   2.731  -0.377  1.00  0.00    -0.647 OA
ENDBRANCH  15  32
BRANCH  11  35
HETATM   35  O4  UNL     1      -4.045   1.890  -2.763  1.00  0.00    -0.384 OA
ATOM     36  H4  UNL     1      -4.985   1.922  -2.895  1.00  0.00     0.211 HD
ENDBRANCH  11  35
BRANCH  14  37
HETATM   37  C27 UNL     1      -5.865  -0.689  -1.237  1.00  0.00     0.010 C 
HETATM   38  C28 UNL     1      -6.484  -2.082  -1.500  1.00  0.00     0.014 C 
BRANCH  37  39
HETATM   39  C29 UNL     1      -6.721  -0.076  -0.226  1.00  0.00    -0.017 C 
HETATM   40  C30 UNL     1      -7.389   1.045  -0.535  1.00  0.00     0.070 C 
BRANCH  40  41
HETATM   41  C31 UNL     1      -8.255   1.693   0.440  1.00  0.00     0.242 C 
HETATM   42  O5  UNL     1      -8.361   1.176   1.576  1.00  0.00    -0.268 OA
HETATM   43  N1  UNL     1      -8.958   2.871   0.120  1.00  0.00    -0.357 N 
HETATM   44  C32 UNL     1      -9.807   3.478   1.124  1.00  0.00     0.152 C 
HETATM   45  C33 UNL     1      -8.868   3.507  -1.183  1.00  0.00     0.152 C 
ENDBRANCH  40  41
ENDBRANCH  37  39
ENDBRANCH  14  37
TORSDOF 13
