REMARK  7 active torsions:
REMARK  status: ('A' for Active; 'I' for Inactive)
REMARK    1  A    between atoms: C7_7  and  N1_8 
REMARK    2  A    between atoms: N1_8  and  C8_10 
REMARK    3  A    between atoms: C8_10  and  N2_12 
REMARK    4  A    between atoms: N2_12  and  S2_14 
REMARK    5  A    between atoms: S2_14  and  C9_17 
REMARK    6  A    between atoms: C16_24  and  C17_25 
REMARK    7  A    between atoms: N3_31  and  C23_32 
ROOT
HETATM    1  C9  UNL     1       1.577  -2.439   0.404  1.00  0.00     0.080 A 
HETATM    2  C10 UNL     1       1.361  -1.455   1.334  1.00  0.00     0.027 A 
HETATM    3  C11 UNL     1       0.151  -0.807   1.482  1.00  0.00     0.032 A 
HETATM    4  C12 UNL     1      -0.909  -1.141   0.674  1.00  0.00     0.050 A 
HETATM    5  C13 UNL     1      -0.723  -2.117  -0.262  1.00  0.00    -0.005 A 
HETATM    6  C14 UNL     1       0.486  -2.769  -0.415  1.00  0.00     0.039 A 
HETATM    7  C15 UNL     1      -1.904  -2.249  -0.913  1.00  0.00     0.044 A 
HETATM    8  C16 UNL     1      -2.811  -1.331  -0.351  1.00  0.00     0.051 A 
HETATM    9  N3  UNL     1      -2.192  -0.658   0.617  1.00  0.00    -0.310 N 
ENDROOT
BRANCH   1  10
HETATM   10  S2  UNL     1       3.103  -3.260   0.213  1.00  0.00     0.264 S 
HETATM   11  O1  UNL     1       2.863  -4.765   0.225  1.00  0.00    -0.200 OA
HETATM   12  O2  UNL     1       3.880  -2.993   1.485  1.00  0.00    -0.200 OA
BRANCH  10  13
HETATM   13  N2  UNL     1       3.952  -2.834  -1.173  1.00  0.00    -0.256 N 
ATOM     14  H2  UNL     1       4.096  -3.601  -1.830  1.00  0.00     0.181 HD
BRANCH  13  15
HETATM   15  C8  UNL     1       4.503  -1.598  -1.590  1.00  0.00     0.186 C 
HETATM   16  S1  UNL     1       5.260  -1.612  -3.066  1.00  0.00    -0.040 SA
BRANCH  15  17
HETATM   17  N1  UNL     1       4.429  -0.455  -0.798  1.00  0.00    -0.332 N 
ATOM     18  H1  UNL     1       3.967  -0.613   0.097  1.00  0.00     0.168 HD
BRANCH  17  19
HETATM   19  C7  UNL     1       4.855   0.858  -0.975  1.00  0.00     0.040 A 
HETATM   20  C2  UNL     1       4.781   1.783   0.075  1.00  0.00    -0.035 A 
HETATM   21  C1  UNL     1       4.261   1.292   1.393  1.00  0.00     0.050 C 
HETATM   22  C3  UNL     1       5.166   3.099  -0.055  1.00  0.00     0.009 A 
HETATM   23  C4  UNL     1       5.647   3.554  -1.250  1.00  0.00     0.001 A 
HETATM   24  C5  UNL     1       5.740   2.691  -2.308  1.00  0.00     0.002 A 
HETATM   25  C6  UNL     1       5.340   1.355  -2.148  1.00  0.00     0.030 A 
ENDBRANCH  17  19
ENDBRANCH  15  17
ENDBRANCH  13  15
ENDBRANCH  10  13
ENDBRANCH   1  10
BRANCH   9  26
HETATM   26  C23 UNL     1      -2.625   0.390   1.473  1.00  0.00     0.042 A 
HETATM   27  C24 UNL     1      -2.979   0.115   2.799  1.00  0.00     0.030 A 
HETATM   28  C25 UNL     1      -3.354   1.119   3.661  1.00  0.00     0.004 A 
HETATM   29  C26 UNL     1      -3.398   2.433   3.260  1.00  0.00     0.027 A 
HETATM   30  C27 UNL     1      -3.050   2.710   1.951  1.00  0.00     0.048 A 
HETATM   31  N4  UNL     1      -3.100   4.094   1.544  1.00  0.00    -0.102 NA
HETATM   32  C28 UNL     1      -2.671   1.723   1.071  1.00  0.00     0.056 A 
ENDBRANCH   9  26
BRANCH   8  33
HETATM   33  C17 UNL     1      -4.149  -1.213  -0.869  1.00  0.00    -0.009 A 
HETATM   34  C18 UNL     1      -4.475  -1.863  -2.053  1.00  0.00     0.014 A 
HETATM   35  C19 UNL     1      -5.757  -1.816  -2.582  1.00  0.00     0.001 A 
HETATM   36  C20 UNL     1      -6.763  -1.123  -1.957  1.00  0.00     0.000 A 
HETATM   37  C21 UNL     1      -6.450  -0.480  -0.790  1.00  0.00     0.001 A 
HETATM   38  C22 UNL     1      -5.144  -0.525  -0.245  1.00  0.00     0.014 A 
ENDBRANCH   8  33
TORSDOF 7
