REMARK  10 active torsions:
REMARK  status: ('A' for Active; 'I' for Inactive)
REMARK    1  A    between atoms: O1_1  and  C1_3 
REMARK    2  A    between atoms: C1_3  and  C2_4 
REMARK    3  A    between atoms: C2_4  and  O2_5 
REMARK    4  A    between atoms: C2_4  and  C3_7 
REMARK    5  A    between atoms: C7_11  and  C8_12 
REMARK    6  A    between atoms: C12_16  and  C13_17 
REMARK    7  A    between atoms: C13_17  and  C14_18 
REMARK    8  A    between atoms: C14_18  and  C15_19 
REMARK    9  A    between atoms: C16_22  and  N2_23 
REMARK   10  A    between atoms: N2_23  and  C17_25 
ROOT
HETATM    1  C15 UNL     1      -1.251   0.749   0.068  1.00  0.00     0.115 A 
HETATM    2  N1  UNL     1      -1.890  -0.319  -0.408  1.00  0.00    -0.183 N 
ATOM      3  H1  UNL     1      -1.466  -0.816  -1.191  1.00  0.00     0.185 HD
HETATM    4  C16 UNL     1      -3.055  -0.788   0.072  1.00  0.00     0.684 A 
HETATM    5  N3  UNL     1      -3.619  -0.126   1.117  1.00  0.00    -0.191 N 
ATOM      6  H3  UNL     1      -4.503  -0.466   1.496  1.00  0.00     0.184 HD
HETATM    7  C27 UNL     1      -3.056   0.953   1.663  1.00  0.00     0.062 A 
HETATM    8  C28 UNL     1      -3.633   1.614   2.716  1.00  0.00     0.031 A 
HETATM    9  C29 UNL     1      -3.030   2.747   3.280  1.00  0.00     0.002 A 
HETATM   10  C30 UNL     1      -1.840   3.199   2.764  1.00  0.00     0.001 A 
HETATM   11  C31 UNL     1      -1.276   2.518   1.703  1.00  0.00     0.017 A 
HETATM   12  C32 UNL     1      -1.866   1.403   1.144  1.00  0.00     0.027 A 
ENDROOT
BRANCH   1  13
HETATM   13  C14 UNL     1      -0.008   1.200  -0.490  1.00  0.00    -0.042 C 
BRANCH  13  14
HETATM   14  C13 UNL     1       1.046   1.582  -0.940  1.00  0.00    -0.060 C 
BRANCH  14  15
HETATM   15  C12 UNL     1       2.312   2.020  -1.462  1.00  0.00     0.019 A 
HETATM   16  C11 UNL     1       2.411   3.123  -2.319  1.00  0.00     0.020 A 
HETATM   17  C10 UNL     1       3.618   3.540  -2.817  1.00  0.00     0.002 A 
HETATM   18  C9  UNL     1       4.763   2.858  -2.466  1.00  0.00     0.014 A 
HETATM   19  C8  UNL     1       4.734   1.769  -1.630  1.00  0.00    -0.008 A 
HETATM   20  C33 UNL     1       3.484   1.372  -1.141  1.00  0.00     0.034 A 
BRANCH  19  21
HETATM   21  C7  UNL     1       5.893   0.999  -1.213  1.00  0.00     0.042 A 
HETATM   22  C6  UNL     1       7.166   1.303  -1.635  1.00  0.00     0.030 A 
HETATM   23  C5  UNL     1       8.269   0.568  -1.236  1.00  0.00     0.004 A 
HETATM   24  C4  UNL     1       8.091  -0.501  -0.393  1.00  0.00     0.028 A 
HETATM   25  C3  UNL     1       6.818  -0.794   0.020  1.00  0.00     0.040 A 
HETATM   26  N4  UNL     1       5.774  -0.062  -0.385  1.00  0.00    -0.357 N 
ATOM     27  H4  UNL     1       4.844  -0.317  -0.053  1.00  0.00     0.166 HD
BRANCH  25  28
HETATM   28  C2  UNL     1       6.616  -1.950   0.932  1.00  0.00     0.191 C 
BRANCH  28  29
HETATM   29  C1  UNL     1       6.326  -1.473   2.333  1.00  0.00     0.202 C 
BRANCH  29  30
HETATM   30  O1  UNL     1       5.202  -0.635   2.249  1.00  0.00    -0.398 OA
ATOM     31  H1  UNL     1       5.019  -0.335   3.132  1.00  0.00     0.209 HD
ENDBRANCH  29  30
ENDBRANCH  28  29
BRANCH  28  32
HETATM   32  O2  UNL     1       5.505  -2.658   0.421  1.00  0.00    -0.387 OA
ATOM     33  H2  UNL     1       5.688  -2.958  -0.462  1.00  0.00     0.210 HD
ENDBRANCH  28  32
ENDBRANCH  25  28
ENDBRANCH  19  21
ENDBRANCH  14  15
ENDBRANCH  13  14
ENDBRANCH   1  13
BRANCH   4  34
HETATM   34  N2  UNL     1      -3.661  -1.824  -0.400  1.00  0.00    -0.191 N 
ATOM     35  H2  UNL     1      -3.247  -2.330  -1.183  1.00  0.00     0.184 HD
BRANCH  34  36
HETATM   36  C17 UNL     1      -4.878  -2.272   0.140  1.00  0.00     0.060 A 
HETATM   37  C18 UNL     1      -4.880  -3.114   1.245  1.00  0.00     0.031 A 
HETATM   38  C19 UNL     1      -6.049  -3.571   1.799  1.00  0.00     0.003 A 
HETATM   39  C20 UNL     1      -7.258  -3.197   1.260  1.00  0.00     0.012 A 
HETATM   40  C21 UNL     1      -7.273  -2.367   0.171  1.00  0.00    -0.024 A 
HETATM   41  C22 UNL     1      -8.492  -1.997  -0.361  1.00  0.00     0.012 A 
HETATM   42  C26 UNL     1      -6.100  -1.913  -0.378  1.00  0.00     0.001 A 
HETATM   43  C23 UNL     1      -8.507  -1.170  -1.446  1.00  0.00     0.001 A 
HETATM   44  C24 UNL     1      -7.316  -0.707  -2.006  1.00  0.00     0.001 A 
HETATM   45  C25 UNL     1      -6.098  -1.075  -1.477  1.00  0.00     0.014 A 
ENDBRANCH  34  36
ENDBRANCH   4  34
TORSDOF 10
