REMARK  4 active torsions:
REMARK  status: ('A' for Active; 'I' for Inactive)
REMARK    1  A    between atoms: N1_2  and  C2_5 
REMARK    2  A    between atoms: C2_5  and  C3_6 
REMARK    3  A    between atoms: C3_6  and  N2_7 
REMARK    4  A    between atoms: N2_7  and  C4_9 
ROOT
HETATM    1  C4  UNL     1       1.451  -0.445  -0.320  1.00  0.00     0.116 A 
HETATM    2  C5  UNL     1       1.154   0.134   0.895  1.00  0.00     0.136 A 
HETATM    3  N3  UNL     1       2.156   0.626   1.672  1.00  0.00    -0.371 N 
ATOM      4  H3  UNL     1       1.933   1.055   2.570  1.00  0.00     0.164 HD
HETATM    5  C6  UNL     1       3.440   0.554   1.269  1.00  0.00     0.104 A 
HETATM    6  C7  UNL     1       3.701  -0.037   0.039  1.00  0.00     0.106 A 
HETATM    7  N4  UNL     1       2.734  -0.533  -0.754  1.00  0.00    -0.350 N 
ATOM      8  H4  UNL     1       2.958  -0.961  -1.652  1.00  0.00     0.166 HD
ENDROOT
BRANCH   1   9
HETATM    9  N2  UNL     1       0.551  -0.918  -1.077  1.00  0.00    -0.374 N 
ATOM     10  H2  UNL     1       0.875  -1.326  -1.954  1.00  0.00     0.161 HD
BRANCH   9  11
HETATM   11  C3  UNL     1      -0.861  -0.951  -0.855  1.00  0.00     0.148 C 
BRANCH  11  12
HETATM   12  C2  UNL     1      -1.528   0.361  -1.198  1.00  0.00     0.251 C 
BRANCH  12  13
HETATM   13  N1  UNL     1      -2.944   0.339  -0.979  1.00  0.00    -0.077 N 
HETATM   14  C1  UNL     1      -3.337   0.255   0.396  1.00  0.00     0.267 C 
ATOM     15  H12 UNL     1      -3.373  -0.414  -1.516  1.00  0.00     0.276 HD
ATOM     16  H11 UNL     1      -3.383   1.145  -1.424  1.00  0.00     0.276 HD
ENDBRANCH  12  13
ENDBRANCH  11  12
ENDBRANCH   9  11
ENDBRANCH   1   9
TORSDOF 4
