REMARK  13 active torsions:
REMARK  status: ('A' for Active; 'I' for Inactive)
REMARK    1  A    between atoms: C2_2  and  C4_4 
REMARK    2  A    between atoms: C4_4  and  C5_5 
REMARK    3  A    between atoms: C8_9  and  C9_10 
REMARK    4  A    between atoms: C12_13  and  O1_14 
REMARK    5  A    between atoms: C13_18  and  C14_19 
REMARK    6  A    between atoms: C14_19  and  C15_20 
REMARK    7  A    between atoms: C15_20  and  C16_21 
REMARK    8  A    between atoms: C16_21  and  C17_22 
REMARK    9  A    between atoms: C17_22  and  C18_23 
REMARK   10  A    between atoms: C18_23  and  C19_24 
REMARK   11  A    between atoms: C20_27  and  O4_28 
REMARK   12  A    between atoms: C21_32  and  C22_33 
REMARK   13  A    between atoms: C22_33  and  C23_34 
ROOT
HETATM    1  C5  UNL     1      -2.548   0.645   0.667  1.00  0.00     0.022 C 
HETATM    2  C6  UNL     1      -1.334   1.468   0.674  1.00  0.00     0.085 C 
HETATM    3  N1  UNL     1      -1.008   2.344  -0.354  1.00  0.00    -0.282 NA
HETATM    4  C7  UNL     1      -1.912   3.509  -0.207  1.00  0.00     0.117 C 
HETATM    5  C8  UNL     1      -0.935   2.063  -1.693  1.00  0.00     0.139 C 
HETATM    6  C12 UNL     1      -0.128   1.021  -2.298  1.00  0.00     0.131 C 
HETATM    7  N2  UNL     1       1.060   0.377  -2.103  1.00  0.00    -0.361 N 
ATOM      8  H2  UNL     1       1.617   0.424  -2.956  1.00  0.00     0.162 HD
HETATM    9  C13 UNL     1       1.785  -0.343  -1.099  1.00  0.00     0.157 C 
HETATM   10  C20 UNL     1       1.104  -1.349  -0.314  1.00  0.00     0.135 C 
HETATM   11  N3  UNL     1      -0.200  -1.765  -0.120  1.00  0.00    -0.359 N 
ATOM     12  H3  UNL     1      -0.502  -1.787   0.854  1.00  0.00     0.162 HD
HETATM   13  C21 UNL     1      -1.220  -2.180  -1.090  1.00  0.00     0.176 C 
HETATM   14  C26 UNL     1      -2.521  -1.590  -0.682  1.00  0.00     0.244 C 
HETATM   15  O5  UNL     1      -3.473  -2.449  -0.587  1.00  0.00    -0.271 OA
HETATM   16  N4  UNL     1      -2.833  -0.250  -0.395  1.00  0.00    -0.328 N 
ATOM     17  H4  UNL     1      -3.400   0.182  -1.125  1.00  0.00     0.168 HD
ENDROOT
BRANCH   9  18
HETATM   18  C14 UNL     1       2.508   0.695  -0.278  1.00  0.00     0.033 C 
BRANCH  18  19
HETATM   19  C15 UNL     1       3.407   0.248   0.805  1.00  0.00     0.002 C 
BRANCH  19  20
HETATM   20  C16 UNL     1       4.614  -0.536   0.371  1.00  0.00     0.001 C 
BRANCH  20  21
HETATM   21  C17 UNL     1       5.405  -0.952   1.585  1.00  0.00     0.010 C 
BRANCH  21  22
HETATM   22  C18 UNL     1       5.892   0.208   2.404  1.00  0.00     0.113 C 
BRANCH  22  23
HETATM   23  C19 UNL     1       6.679  -0.303   3.586  1.00  0.00     0.172 C 
HETATM   24  O2  UNL     1       6.860  -1.517   3.794  1.00  0.00    -0.648 OA
HETATM   25  O3  UNL     1       7.202   0.650   4.447  1.00  0.00    -0.648 OA
ENDBRANCH  22  23
ENDBRANCH  21  22
ENDBRANCH  20  21
ENDBRANCH  19  20
ENDBRANCH  18  19
ENDBRANCH   9  18
BRANCH  10  26
HETATM   26  O4  UNL     1       1.917  -2.061   0.409  1.00  0.00    -0.348 OA
ATOM     27  H4  UNL     1       1.470  -2.722   0.925  1.00  0.00     0.219 HD
ENDBRANCH  10  26
BRANCH   6  28
HETATM   28  O1  UNL     1      -0.732   0.553  -3.379  1.00  0.00    -0.348 OA
ATOM     29  H1  UNL     1      -0.203  -0.130  -3.775  1.00  0.00     0.219 HD
ENDBRANCH   6  28
BRANCH   5  30
HETATM   30  C9  UNL     1      -0.667   3.419  -2.415  1.00  0.00     0.003 C 
HETATM   31  C10 UNL     1      -0.573   3.184  -3.906  1.00  0.00     0.011 C 
HETATM   32  C11 UNL     1       0.647   4.013  -1.965  1.00  0.00     0.011 C 
ENDBRANCH   5  30
BRANCH  13  33
HETATM   33  C22 UNL     1      -1.225  -3.684  -0.988  1.00  0.00     0.038 C 
BRANCH  33  34
HETATM   34  C23 UNL     1      -2.111  -4.430  -1.921  1.00  0.00    -0.020 C 
HETATM   35  C24 UNL     1      -1.935  -5.920  -1.622  1.00  0.00     0.009 C 
HETATM   36  C25 UNL     1      -1.604  -4.298  -3.379  1.00  0.00     0.009 C 
ENDBRANCH  33  34
ENDBRANCH  13  33
BRANCH   1  37
HETATM   37  C4  UNL     1      -2.748   0.066   2.061  1.00  0.00     0.062 C 
BRANCH  37  38
HETATM   38  C2  UNL     1      -2.917   1.069   3.144  1.00  0.00    -0.017 C 
HETATM   39  C1  UNL     1      -3.119   0.254   4.444  1.00  0.00     0.010 C 
HETATM   40  C3  UNL     1      -4.097   1.970   2.992  1.00  0.00     0.010 C 
ENDBRANCH  37  38
ENDBRANCH   1  37
TORSDOF 13
