REMARK  7 active torsions:
REMARK  status: ('A' for Active; 'I' for Inactive)
REMARK    1  A    between atoms: C2_2  and  C4_4 
REMARK       I    between atoms: C4_4  and  N1_6 
REMARK    2  A    between atoms: N1_6  and  C5_8 
REMARK    3  A    between atoms: C7_13  and  C8_14 
REMARK    4  A    between atoms: C8_14  and  C9_15 
REMARK    5  A    between atoms: N3_20  and  C13_21 
REMARK    6  A    between atoms: C13_21  and  C14_22 
REMARK    7  A    between atoms: C14_22  and  C15_23 
ROOT
HETATM    1  C5  UNL     1      -1.974   1.079   0.630  1.00  0.00     0.215 C 
HETATM    2  C6  UNL     1      -2.758   1.018   1.941  1.00  0.00     0.280 C 
HETATM    3  N2  UNL     1      -3.920   0.205   1.708  1.00  0.00    -0.059 N 
ATOM      4  H21 UNL     1      -4.578   0.681   1.091  1.00  0.00     0.278 HD
ATOM      5  H22 UNL     1      -4.494   0.142   2.549  1.00  0.00     0.278 HD
HETATM    6  C7  UNL     1      -3.596  -1.136   1.194  1.00  0.00     0.277 C 
HETATM    7  C12 UNL     1      -2.146  -1.291   1.047  1.00  0.00     0.252 C 
HETATM    8  O2  UNL     1      -1.595  -2.364   1.367  1.00  0.00    -0.271 OA
HETATM    9  N3  UNL     1      -1.323  -0.212   0.536  1.00  0.00    -0.327 N 
ENDROOT
BRANCH   9  10
HETATM   10  C13 UNL     1      -0.039  -0.501   0.018  1.00  0.00     0.133 C 
BRANCH  10  11
HETATM   11  C14 UNL     1       1.079  -0.472   1.037  1.00  0.00     0.061 C 
BRANCH  11  12
HETATM   12  C15 UNL     1       2.360  -0.783   0.368  1.00  0.00    -0.020 A 
HETATM   13  C16 UNL     1       2.792  -2.027  -0.036  1.00  0.00     0.016 A 
HETATM   14  C17 UNL     1       2.108  -3.340   0.090  1.00  0.00     0.069 C 
HETATM   15  N4  UNL     1       4.014  -1.863  -0.601  1.00  0.00    -0.340 N 
HETATM   16  C18 UNL     1       4.837  -2.927  -1.166  1.00  0.00     0.158 C 
HETATM   17  C19 UNL     1       4.345  -0.553  -0.557  1.00  0.00     0.118 A 
HETATM   18  N5  UNL     1       5.315   0.315  -0.893  1.00  0.00    -0.345 N 
HETATM   19  C23 UNL     1       3.329   0.160   0.046  1.00  0.00     0.018 A 
HETATM   20  C20 UNL     1       4.986   1.570  -0.538  1.00  0.00     0.008 A 
ATOM     21  H5  UNL     1       6.186   0.056  -1.356  1.00  0.00     0.167 HD
HETATM   22  C21 UNL     1       5.797   2.821  -0.737  1.00  0.00     0.068 C 
HETATM   23  C22 UNL     1       3.742   1.475   0.050  1.00  0.00     0.040 A 
ENDBRANCH  11  12
ENDBRANCH  10  11
ENDBRANCH   9  10
BRANCH   1  24
HETATM   24  N1  UNL     1      -1.074   2.196   0.638  1.00  0.00    -0.334 N 
HETATM   25  C4  UNL     1      -1.188   3.154  -0.419  1.00  0.00     0.248 C 
HETATM   26  O1  UNL     1      -2.077   2.990  -1.331  1.00  0.00    -0.268 OA
ATOM     27  H1  UNL     1      -0.375   2.304   1.373  1.00  0.00     0.164 HD
BRANCH  25  28
HETATM   28  C2  UNL     1      -0.350   4.322  -0.533  1.00  0.00    -0.004 C 
HETATM   29  C1  UNL     1       0.586   4.586   0.341  1.00  0.00     0.024 C 
HETATM   30  C3  UNL     1      -0.568   5.245  -1.690  1.00  0.00     0.053 C 
ENDBRANCH  25  28
ENDBRANCH   1  24
BRANCH   6  31
HETATM   31  C8  UNL     1      -4.447  -1.367  -0.004  1.00  0.00     0.046 C 
BRANCH  31  32
HETATM   32  C9  UNL     1      -4.321  -2.670  -0.684  1.00  0.00    -0.020 C 
HETATM   33  C10 UNL     1      -3.021  -3.046  -1.270  1.00  0.00     0.009 C 
HETATM   34  C11 UNL     1      -5.402  -2.809  -1.782  1.00  0.00     0.009 C 
ENDBRANCH  31  32
ENDBRANCH   6  31
TORSDOF 7
