REMARK  2 active torsions:
REMARK  status: ('A' for Active; 'I' for Inactive)
REMARK       I    between atoms: C1_2  and  N1_3 
REMARK       I    between atoms: C1_2  and  N2_7 
REMARK    1  A    between atoms: N1_3  and  O2_5 
REMARK    2  A    between atoms: N2_7  and  C2_9 
ROOT
HETATM    1  O1  UNL     1       1.680  -0.381  -1.681  1.00  0.00    -0.245 OA
HETATM    2  C1  UNL     1       1.687   0.068  -0.515  1.00  0.00     0.340 C 
HETATM    3  N1  UNL     1       2.885   0.440   0.113  1.00  0.00    -0.219 N 
ATOM      4  H1  UNL     1       2.834   0.800   1.066  1.00  0.00     0.199 HD
HETATM    5  N2  UNL     1       0.456   0.191   0.157  1.00  0.00    -0.337 N 
ATOM      6  H2  UNL     1       0.458   0.557   1.109  1.00  0.00     0.164 HD
ENDROOT
BRANCH   3   7
HETATM    7  O2  UNL     1       4.101   0.351  -0.466  1.00  0.00    -0.286 OA
ATOM      8  H2  UNL     1       4.912   0.603  -0.041  1.00  0.00     0.244 HD
ENDBRANCH   3   7
BRANCH   5   9
HETATM    9  C2  UNL     1      -0.818  -0.177  -0.438  1.00  0.00     0.086 A 
HETATM   10  C3  UNL     1      -1.775  -0.864   0.533  1.00  0.00     0.027 A 
HETATM   11  C4  UNL     1      -2.073   0.467  -0.034  1.00  0.00     0.027 A 
ENDBRANCH   5   9
TORSDOF 2
