REMARK  5 active torsions:
REMARK  status: ('A' for Active; 'I' for Inactive)
REMARK    1  A    between atoms: C4_5  and  C5_6 
REMARK    2  A    between atoms: C5_6  and  S1_7 
REMARK    3  A    between atoms: S1_7  and  C6_9 
REMARK    4  A    between atoms: N1_18  and  S2_19 
REMARK    5  A    between atoms: S2_19  and  C15_22 
ROOT
HETATM    1  C6  UNL     1       0.370  -0.652   0.555  1.00  0.00     0.032 A 
HETATM    2  C7  UNL     1      -0.235   0.314  -0.252  1.00  0.00     0.023 A 
HETATM    3  C8  UNL     1      -1.453   0.041  -0.840  1.00  0.00     0.032 A 
HETATM    4  C9  UNL     1      -2.075  -1.166  -0.642  1.00  0.00     0.051 A 
HETATM    5  C10 UNL     1      -1.490  -2.139   0.154  1.00  0.00    -0.029 A 
HETATM    6  C11 UNL     1      -0.283  -1.861   0.735  1.00  0.00     0.030 A 
HETATM    7  C12 UNL     1      -2.235  -3.421   0.291  1.00  0.00     0.042 C 
HETATM    8  C13 UNL     1      -2.616  -3.759  -1.161  1.00  0.00     0.026 C 
HETATM    9  C14 UNL     1      -3.641  -2.786  -1.604  1.00  0.00     0.142 C 
HETATM   10  N1  UNL     1      -3.330  -1.382  -1.283  1.00  0.00    -0.275 N 
ENDROOT
BRANCH   1  11
HETATM   11  S1  UNL     1       1.880  -0.248   1.255  1.00  0.00     0.054 S 
HETATM   12  O1  UNL     1       1.932  -0.199   2.891  1.00  0.00    -0.252 OA
BRANCH  11  13
HETATM   13  C5  UNL     1       3.301  -0.638   0.392  1.00  0.00     0.156 C 
BRANCH  13  14
HETATM   14  C4  UNL     1       4.480   0.235   0.519  1.00  0.00    -0.005 A 
HETATM   15  C3  UNL     1       5.713  -0.047  -0.120  1.00  0.00     0.042 A 
HETATM   16  C2  UNL     1       6.602   0.955   0.157  1.00  0.00     0.025 A 
HETATM   17 BR1  UNL     1       6.097  -1.577  -1.202  1.00  0.00    -0.048 Br
HETATM   18  C1  UNL     1       8.025   1.075  -0.304  1.00  0.00     0.070 C 
HETATM   19  N2  UNL     1       5.960   1.826   0.931  1.00  0.00    -0.357 N 
HETATM   20  C19 UNL     1       4.669   1.413   1.166  1.00  0.00     0.016 A 
HETATM   21  C21 UNL     1       6.553   3.058   1.455  1.00  0.00     0.156 C 
HETATM   22  C20 UNL     1       3.735   2.247   2.004  1.00  0.00     0.069 C 
ENDBRANCH  13  14
ENDBRANCH  11  13
ENDBRANCH   1  11
BRANCH  10  23
HETATM   23  S2  UNL     1      -4.442  -0.165  -1.651  1.00  0.00     0.240 S 
HETATM   24  O2  UNL     1      -5.665  -0.856  -2.288  1.00  0.00    -0.205 OA
HETATM   25  O3  UNL     1      -4.013   0.731  -2.791  1.00  0.00    -0.205 OA
BRANCH  23  26
HETATM   26  C15 UNL     1      -5.117   0.724  -0.309  1.00  0.00     0.072 C 
HETATM   27  C16 UNL     1      -6.095   1.772  -0.809  1.00  0.00     0.033 C 
HETATM   28  C17 UNL     1      -4.188   1.370   0.645  1.00  0.00     0.033 C 
HETATM   29  C18 UNL     1      -5.977  -0.245   0.522  1.00  0.00     0.033 C 
ENDBRANCH  23  26
ENDBRANCH  10  23
TORSDOF 5
