REMARK  3 active torsions:
REMARK  status: ('A' for Active; 'I' for Inactive)
REMARK    1  A    between atoms: N1_2  and  C1_4 
REMARK    2  A    between atoms: C1_4  and  C2_5 
REMARK    3  A    between atoms: C2_5  and  C3_6 
ROOT
HETATM    1  C1  UNL     1      -0.553   0.656   0.292  1.00  0.00     0.099 A 
HETATM    2  C5  UNL     1      -1.221  -0.450   1.026  1.00  0.00     0.037 A 
HETATM    3  C6  UNL     1      -1.855  -0.911  -0.261  1.00  0.00     0.005 A 
HETATM    4  C7  UNL     1      -1.285   0.289  -0.978  1.00  0.00     0.037 A 
ENDROOT
BRANCH   1   5
HETATM    5  N1  UNL     1      -0.919   1.949   0.814  1.00  0.00    -0.145 N 
HETATM    6  O1  UNL     1      -1.534   2.024   1.883  1.00  0.00    -0.536 OA
HETATM    7  O2  UNL     1      -0.568   3.060   0.104  1.00  0.00    -0.536 OA
ENDBRANCH   1   5
BRANCH   1   8
HETATM    8  C2  UNL     1       0.948   0.570   0.164  1.00  0.00     0.071 C 
BRANCH   8   9
HETATM    9  C3  UNL     1       1.410  -0.757  -0.378  1.00  0.00     0.147 A 
HETATM   10  C4  UNL     1       2.892  -0.904  -0.529  1.00  0.00     0.200 A 
HETATM   11  O3  UNL     1       2.065  -1.633   0.476  1.00  0.00    -0.381 OA
ENDBRANCH   8   9
ENDBRANCH   1   8
TORSDOF 3
