REMARK  4 active torsions:
REMARK  status: ('A' for Active; 'I' for Inactive)
REMARK    1  A    between atoms: N1_2  and  S1_4 
REMARK    2  A    between atoms: S1_4  and  N2_7 
REMARK    3  A    between atoms: N2_7  and  C2_9 
REMARK    4  A    between atoms: C4_13  and  C5_14 
ROOT
HETATM    1  C2  UNL     1       2.149  -0.144  -0.859  1.00  0.00     0.239 A 
HETATM    2  N3  UNL     1       2.347  -1.111   0.035  1.00  0.00    -0.329 N 
ATOM      3  H3  UNL     1       3.227  -1.575   0.262  1.00  0.00     0.168 HD
HETATM    4  C3  UNL     1       1.121  -1.348   0.582  1.00  0.00     0.130 A 
HETATM    5  C4  UNL     1       0.194  -0.540   0.032  1.00  0.00     0.106 A 
HETATM    6  O3  UNL     1       0.895   0.190  -0.862  1.00  0.00    -0.277 OA
ENDROOT
BRANCH   5   7
HETATM    7  C5  UNL     1      -1.233  -0.340   0.199  1.00  0.00     0.021 A 
HETATM    8  C6  UNL     1      -1.913   0.511  -0.682  1.00  0.00     0.105 A 
HETATM    9  N4  UNL     1      -3.223   0.769  -0.601  1.00  0.00    -0.364 N 
HETATM   10  C7  UNL     1      -3.866   1.675  -1.569  1.00  0.00     0.155 C 
HETATM   11  C8  UNL     1      -3.939   0.190   0.371  1.00  0.00     0.007 A 
HETATM   12  C9  UNL     1      -5.409   0.507   0.425  1.00  0.00     0.068 C 
HETATM   13  C10 UNL     1      -3.367  -0.656   1.281  1.00  0.00     0.032 A 
HETATM   14  C11 UNL     1      -1.974  -0.909   1.169  1.00  0.00    -0.046 A 
HETATM   15  C12 UNL     1      -1.399  -1.802   2.186  1.00  0.00     0.049 C 
ENDBRANCH   5   7
BRANCH   1  16
HETATM   16  N2  UNL     1       3.063   0.382  -1.607  1.00  0.00    -0.232 N 
ATOM     17  H2  UNL     1       2.820   1.122  -2.266  1.00  0.00     0.184 HD
BRANCH  16  18
HETATM   18  S1  UNL     1       4.695  -0.169  -1.490  1.00  0.00     0.321 S 
HETATM   19  O1  UNL     1       4.732  -1.668  -1.698  1.00  0.00    -0.182 OA
HETATM   20  O2  UNL     1       5.534   0.443  -2.571  1.00  0.00    -0.182 OA
BRANCH  18  21
HETATM   21  N1  UNL     1       5.379   0.209   0.027  1.00  0.00    -0.307 N 
HETATM   22  C1  UNL     1       6.035   1.492   0.064  1.00  0.00     0.161 C 
ATOM     23  H1  UNL     1       5.328  -0.415   0.832  1.00  0.00     0.173 HD
ENDBRANCH  18  21
ENDBRANCH  16  18
ENDBRANCH   1  16
TORSDOF 4
