REMARK  11 active torsions:
REMARK  status: ('A' for Active; 'I' for Inactive)
REMARK    1  A    between atoms: N1_1  and  C1_4 
REMARK    2  A    between atoms: C2_10  and  N4_11 
REMARK    3  A    between atoms: C3_16  and  C4_17 
REMARK    4  A    between atoms: C4_17  and  N7_18 
REMARK    5  A    between atoms: N7_18  and  N8_19 
REMARK       I    between atoms: N8_19  and  C5_21 
REMARK    6  A    between atoms: C5_21  and  C6_23 
REMARK    7  A    between atoms: C9_28  and  N10_29 
REMARK    8  A    between atoms: N10_29  and  N11_31 
REMARK    9  A    between atoms: C10_34  and  C11_35 
REMARK   10  A    between atoms: C14_41  and  C15_42 
REMARK       I    between atoms: C15_42  and  N13_44 
REMARK   11  A    between atoms: N13_44  and  C16_46 
ROOT
HETATM    1  N4  UNL     1       4.071  -0.043   1.382  1.00  0.00    -0.212 N 
HETATM    2  N5  UNL     1       3.332   0.728   0.544  1.00  0.00    -0.233 N 
ATOM      3  H5  UNL     1       3.442   1.736   0.437  1.00  0.00     0.209 HD
HETATM    4  N6  UNL     1       2.456  -0.001  -0.110  1.00  0.00    -0.281 N 
ATOM      5  H6  UNL     1       1.786   0.346  -0.796  1.00  0.00     0.188 HD
HETATM    6  C3  UNL     1       2.595  -1.320   0.289  1.00  0.00     0.114 A 
HETATM    7  C14 UNL     1       3.595  -1.278   1.199  1.00  0.00     0.158 A 
ENDROOT
BRANCH   6   8
HETATM    8  C4  UNL     1       1.868  -2.434  -0.307  1.00  0.00     0.242 C 
BRANCH   8   9
HETATM    9  N7  UNL     1       0.926  -2.246  -1.069  1.00  0.00    -0.333 NA
BRANCH   9  10
HETATM   10  N8  UNL     1       0.015  -1.752  -1.801  1.00  0.00    -0.197 N 
HETATM   11  C5  UNL     1      -1.074  -0.794  -1.423  1.00  0.00     0.304 C 
HETATM   12  O2  UNL     1      -0.959  -0.487  -0.218  1.00  0.00    -0.263 OA
ATOM     13  H8  UNL     1       0.025  -2.046  -2.778  1.00  0.00     0.205 HD
BRANCH  11  14
HETATM   14  C6  UNL     1      -1.988  -0.444  -2.467  1.00  0.00     0.146 A 
HETATM   15  N9  UNL     1      -2.593   0.775  -1.641  1.00  0.00    -0.345 N 
HETATM   16  C7  UNL     1      -3.486   1.510  -2.064  1.00  0.00     0.052 A 
ATOM     17  H9  UNL     1      -2.220   0.957  -0.709  1.00  0.00     0.167 HD
HETATM   18  C8  UNL     1      -4.068   2.635  -1.384  1.00  0.00     0.062 A 
HETATM   19  C13 UNL     1      -3.972   1.247  -3.307  1.00  0.00     0.035 A 
HETATM   20  C9  UNL     1      -5.037   3.351  -1.995  1.00  0.00     0.065 A 
HETATM   21  C10 UNL     1      -5.538   3.098  -3.236  1.00  0.00     0.058 A 
HETATM   22  C12 UNL     1      -4.997   2.029  -3.902  1.00  0.00     0.040 A 
HETATM   23  S1  UNL     1      -3.048  -0.038  -3.677  1.00  0.00    -0.065 SA
BRANCH  20  24
HETATM   24  N10 UNL     1      -5.578   4.461  -1.264  1.00  0.00    -0.306 N 
ATOM     25  H10 UNL     1      -5.103   5.362  -1.317  1.00  0.00     0.186 HD
BRANCH  24  26
HETATM   26  N11 UNL     1      -6.724   4.355  -0.487  1.00  0.00    -0.345 N 
ATOM     27 2H11 UNL     1      -7.187   3.447  -0.445  1.00  0.00     0.176 HD
ATOM     28 1H11 UNL     1      -7.109   5.144   0.033  1.00  0.00     0.176 HD
ENDBRANCH  24  26
ENDBRANCH  20  24
BRANCH  21  29
HETATM   29  C11 UNL     1      -6.564   3.897  -3.889  1.00  0.00     0.267 C 
HETATM   30  N12 UNL     1      -7.080   3.452  -5.165  1.00  0.00    -0.057 NA
HETATM   31  O3  UNL     1      -6.992   4.927  -3.373  1.00  0.00    -0.271 OA
ENDBRANCH  21  29
ENDBRANCH  11  14
ENDBRANCH   9  10
ENDBRANCH   8   9
ENDBRANCH   6   8
BRANCH   7  32
HETATM   32  C15 UNL     1       4.128  -2.439   1.929  1.00  0.00     0.273 C 
HETATM   33  O4  UNL     1       5.358  -2.459   2.168  1.00  0.00    -0.266 OA
HETATM   34  N13 UNL     1       3.312  -3.489   2.360  1.00  0.00    -0.351 N 
ATOM     35  H13 UNL     1       2.312  -3.427   2.171  1.00  0.00     0.163 HD
BRANCH  34  36
HETATM   36  C16 UNL     1       3.810  -4.678   3.070  1.00  0.00     0.085 A 
HETATM   37  C17 UNL     1       3.971  -5.963   2.240  1.00  0.00     0.027 A 
HETATM   38  C18 UNL     1       2.820  -5.794   3.166  1.00  0.00     0.027 A 
ENDBRANCH  34  36
ENDBRANCH   7  32
BRANCH   1  39
HETATM   39  C2  UNL     1       5.043   0.503   2.238  1.00  0.00     0.196 A 
HETATM   40  C1  UNL     1       5.944   1.511   1.976  1.00  0.00     0.169 A 
HETATM   41  N2  UNL     1       6.550   1.759   3.128  1.00  0.00    -0.222 N 
HETATM   42  O1  UNL     1       6.082   0.979   4.058  1.00  0.00    -0.153 OA
ATOM     43  H2  UNL     1       7.278   2.460   3.266  1.00  0.00     0.198 HD
HETATM   44  N3  UNL     1       5.172   0.202   3.577  1.00  0.00    -0.220 N 
ATOM     45  H3  UNL     1       4.646  -0.504   4.092  1.00  0.00     0.198 HD
BRANCH  40  46
HETATM   46  N1  UNL     1       6.053   2.171   0.830  1.00  0.00    -0.381 N 
ATOM     47  H12 UNL     1       6.720   2.918   0.636  1.00  0.00     0.157 HD
ATOM     48  H11 UNL     1       5.587   1.980  -0.057  1.00  0.00     0.157 HD
ENDBRANCH  40  46
ENDBRANCH   1  39
TORSDOF 11
