REMARK  9 active torsions:
REMARK  status: ('A' for Active; 'I' for Inactive)
REMARK    1  A    between atoms: C5_5  and  C6_6 
REMARK       I    between atoms: C6_6  and  N1_8 
REMARK    2  A    between atoms: N1_8  and  C7_9 
REMARK    3  A    between atoms: C7_9  and  C8_10 
REMARK       I    between atoms: C8_10  and  N2_12 
REMARK    4  A    between atoms: N2_12  and  C9_14 
REMARK    5  A    between atoms: C9_14  and  C10_15 
REMARK    6  A    between atoms: C10_15  and  C11_16 
REMARK    7  A    between atoms: C11_16  and  C12_17 
REMARK    8  A    between atoms: C16_24  and  C17_25 
REMARK       I    between atoms: C17_25  and  N4_27 
REMARK    9  A    between atoms: N4_27  and  C18_29 
ROOT
HETATM    1  C1  UNL     1      -2.855   1.305  -4.592  1.00  0.00     0.040 C 
HETATM    2  C2  UNL     1      -1.992   0.870  -3.394  1.00  0.00     0.183 C 
HETATM    3  C3  UNL     1      -2.244  -0.621  -3.270  1.00  0.00     0.033 C 
HETATM    4  C4  UNL     1      -1.667  -1.204  -2.001  1.00  0.00     0.020 C 
HETATM    5  C5  UNL     1      -1.874  -0.258  -0.807  1.00  0.00     0.133 C 
HETATM    6  C16 UNL     1      -2.881   0.754  -1.234  1.00  0.00     0.291 C 
HETATM    7  N5  UNL     1      -2.381   1.608  -2.248  1.00  0.00    -0.058 N 
ATOM      8  H51 UNL     1      -3.049   2.342  -2.484  1.00  0.00     0.278 HD
ATOM      9  H52 UNL     1      -1.621   2.194  -1.903  1.00  0.00     0.278 HD
ENDROOT
BRANCH   5  10
HETATM   10  C6  UNL     1      -0.486   0.323  -0.582  1.00  0.00     0.298 C 
HETATM   11  O1  UNL     1      -0.313   1.542  -0.557  1.00  0.00    -0.257 OA
HETATM   12  N1  UNL     1       0.492  -0.632  -0.420  1.00  0.00    -0.378 NA
BRANCH  12  13
HETATM   13  C7  UNL     1       1.484  -1.560  -0.257  1.00  0.00     0.260 C 
BRANCH  13  14
HETATM   14  C8  UNL     1       2.307  -1.555   0.984  1.00  0.00     0.270 C 
HETATM   15  O2  UNL     1       2.146  -0.779   1.935  1.00  0.00    -0.266 OA
HETATM   16  N2  UNL     1       3.337  -2.523   1.036  1.00  0.00    -0.356 N 
ATOM     17  H2  UNL     1       3.447  -3.154   0.242  1.00  0.00     0.162 HD
BRANCH  16  18
HETATM   18  C9  UNL     1       4.221  -2.663   2.128  1.00  0.00     0.123 C 
BRANCH  18  19
HETATM   19  C10 UNL     1       5.127  -1.526   2.398  1.00  0.00     0.022 C 
BRANCH  19  20
HETATM   20  C11 UNL     1       6.128  -1.153   1.373  1.00  0.00     0.034 C 
BRANCH  20  21
HETATM   21  C12 UNL     1       5.669  -0.625   0.073  1.00  0.00     0.186 C 
HETATM   22  C13 UNL     1       6.857  -0.337  -0.845  1.00  0.00     0.034 C 
HETATM   23  C14 UNL     1       7.102   1.121  -0.729  1.00  0.00     0.029 C 
HETATM   24  C15 UNL     1       6.171   1.609   0.345  1.00  0.00     0.233 C 
HETATM   25  N3  UNL     1       5.063   0.710   0.224  1.00  0.00    -0.071 N 
ATOM     26  H32 UNL     1       4.412   0.955  -0.522  1.00  0.00     0.277 HD
ATOM     27  H31 UNL     1       4.393   0.775   0.990  1.00  0.00     0.277 HD
ENDBRANCH  20  21
ENDBRANCH  19  20
ENDBRANCH  18  19
ENDBRANCH  16  18
ENDBRANCH  13  14
ENDBRANCH  12  13
ENDBRANCH   5  10
BRANCH   6  28
HETATM   28  C17 UNL     1      -3.574   1.453  -0.115  1.00  0.00     0.249 C 
HETATM   29  O3  UNL     1      -3.379   2.642   0.204  1.00  0.00    -0.271 OA
HETATM   30  N4  UNL     1      -4.542   0.753   0.666  1.00  0.00    -0.355 N 
ATOM     31  H4  UNL     1      -4.717  -0.222   0.424  1.00  0.00     0.162 HD
BRANCH  30  32
HETATM   32  C18 UNL     1      -5.290   1.300   1.761  1.00  0.00     0.084 C 
HETATM   33  C19 UNL     1      -5.212   0.402   2.931  1.00  0.00     0.025 C 
HETATM   34  C20 UNL     1      -6.603   0.232   3.448  1.00  0.00     0.002 C 
HETATM   35  C21 UNL     1      -7.483   0.470   2.209  1.00  0.00     0.002 C 
HETATM   36  C22 UNL     1      -6.731   1.488   1.421  1.00  0.00     0.025 C 
ENDBRANCH  30  32
ENDBRANCH   6  28
TORSDOF 9
