REMARK  1 active torsions:
REMARK  status: ('A' for Active; 'I' for Inactive)
REMARK    1  A    between atoms: O1_1  and  C1_3 
ROOT
HETATM    1  C1  UNL     1       2.385  -0.168  -0.488  1.00  0.00     0.130 C 
HETATM    2  C2  UNL     1       2.652  -0.076   1.019  1.00  0.00     0.108 C 
HETATM    3  S1  UNL     1       0.951   0.286   1.613  1.00  0.00    -0.138 SA
HETATM    4  C3  UNL     1       0.048  -0.234   0.097  1.00  0.00     0.097 C 
HETATM    5  C4  UNL     1      -1.128  -1.083   0.417  1.00  0.00     0.041 C 
HETATM    6  C5  UNL     1      -2.436  -0.380   0.449  1.00  0.00     0.020 C 
HETATM    7  C6  UNL     1      -2.490   0.897  -0.318  1.00  0.00     0.130 C 
HETATM    8  N1  UNL     1      -1.261   1.660  -0.144  1.00  0.00    -0.147 NA
HETATM    9  N2  UNL     1      -0.239   0.896  -0.728  1.00  0.00    -0.127 NA
HETATM   10  C7  UNL     1       1.166  -1.053  -0.559  1.00  0.00     0.072 C 
ENDROOT
BRANCH   1  11
HETATM   11  O1  UNL     1       2.217   1.062  -1.067  1.00  0.00    -0.395 OA
ATOM     12  H1  UNL     1       2.052   1.005  -2.001  1.00  0.00     0.210 HD
ENDBRANCH   1  11
TORSDOF 1
