REMARK  10 active torsions:
REMARK  status: ('A' for Active; 'I' for Inactive)
REMARK    1  A    between atoms: C2_2  and  O1_4 
REMARK    2  A    between atoms: O1_4  and  C4_5 
REMARK    3  A    between atoms: C4_5  and  C5_6 
REMARK    4  A    between atoms: C8_10  and  O3_11 
REMARK    5  A    between atoms: O3_11  and  C9_12 
REMARK    6  A    between atoms: C14_18  and  C15_19 
REMARK    7  A    between atoms: C15_19  and  O5_21 
REMARK    8  A    between atoms: O5_21  and  C17_22 
REMARK    9  A    between atoms: C24_30  and  O7_31 
REMARK   10  A    between atoms: O7_31  and  C25_32 
ROOT
HETATM    1  C5  UNL     1      -2.686   0.510  -0.842  1.00  0.00     0.176 C 
HETATM    2  O2  UNL     1      -2.112  -0.408  -1.692  1.00  0.00    -0.367 OA
HETATM    3  C6  UNL     1      -0.824  -0.658  -1.237  1.00  0.00     0.091 C 
HETATM    4  C7  UNL     1       0.105   0.259  -1.873  1.00  0.00     0.049 C 
HETATM    5  C8  UNL     1      -0.389  -2.081  -1.601  1.00  0.00     0.166 C 
HETATM    6  C11 UNL     1       0.934  -2.320  -0.908  1.00  0.00     0.041 C 
HETATM    7  C12 UNL     1       0.855  -2.151   0.566  1.00  0.00    -0.003 C 
HETATM    8  C13 UNL     1       2.182  -2.402   1.176  1.00  0.00     0.012 C 
HETATM    9  C14 UNL     1       3.073  -1.240   1.384  1.00  0.00     0.015 C 
HETATM   10  C19 UNL     1       2.482   0.075   0.946  1.00  0.00     0.008 C 
HETATM   11  C20 UNL     1       1.049   0.241   1.363  1.00  0.00     0.010 C 
HETATM   12  C21 UNL     1       0.159  -0.916   1.074  1.00  0.00    -0.031 C 
HETATM   13  C22 UNL     1      -0.386  -1.373   2.447  1.00  0.00     0.016 C 
HETATM   14  C23 UNL     1      -1.031  -0.676   0.233  1.00  0.00     0.062 C 
HETATM   15  C24 UNL     1      -1.966   0.409   0.512  1.00  0.00     0.161 C 
ENDROOT
BRANCH   9  16
HETATM   16  C15 UNL     1       4.406  -1.374   0.659  1.00  0.00     0.132 C 
HETATM   17  C16 UNL     1       5.161  -2.597   1.135  1.00  0.00     0.040 C 
BRANCH  16  18
HETATM   18  O5  UNL     1       5.151  -0.213   0.990  1.00  0.00    -0.316 OA
BRANCH  18  19
HETATM   19  C17 UNL     1       5.616   0.694   0.052  1.00  0.00     0.255 C 
HETATM   20  C18 UNL     1       6.401   1.905   0.457  1.00  0.00     0.126 C 
HETATM   21  O6  UNL     1       5.379   0.501  -1.150  1.00  0.00    -0.266 OA
ENDBRANCH  18  19
ENDBRANCH  16  18
ENDBRANCH   9  16
BRANCH   5  22
HETATM   22  O3  UNL     1      -0.232  -2.264  -2.974  1.00  0.00    -0.313 OA
BRANCH  22  23
HETATM   23  C9  UNL     1      -0.972  -3.271  -3.586  1.00  0.00     0.255 C 
HETATM   24  C10 UNL     1      -0.827  -3.490  -5.047  1.00  0.00     0.126 C 
HETATM   25  O4  UNL     1      -1.768  -4.014  -2.960  1.00  0.00    -0.266 OA
ENDBRANCH  22  23
ENDBRANCH   5  22
BRANCH  15  26
HETATM   26  O7  UNL     1      -2.800   0.119   1.520  1.00  0.00    -0.378 OA
BRANCH  26  27
HETATM   27  C25 UNL     1      -3.260   1.014   2.410  1.00  0.00     0.114 C 
HETATM   28  C26 UNL     1      -4.766   1.290   2.249  1.00  0.00     0.039 C 
HETATM   29  C27 UNL     1      -2.998   0.826   3.868  1.00  0.00     0.039 C 
ENDBRANCH  26  27
ENDBRANCH  15  26
BRANCH   1  30
HETATM   30  C4  UNL     1      -2.656   1.859  -1.458  1.00  0.00     0.209 C 
BRANCH  30  31
HETATM   31  O1  UNL     1      -3.214   2.893  -0.671  1.00  0.00    -0.354 OA
BRANCH  31  32
HETATM   32  C2  UNL     1      -3.248   4.196  -1.125  1.00  0.00     0.033 C 
HETATM   33  C1  UNL     1      -3.109   5.177  -0.262  1.00  0.00     0.045 C 
HETATM   34  C3  UNL     1      -3.435   4.507  -2.555  1.00  0.00     0.075 C 
ENDBRANCH  31  32
ENDBRANCH  30  31
ENDBRANCH   1  30
TORSDOF 10
