REMARK  15 active torsions:
REMARK  status: ('A' for Active; 'I' for Inactive)
REMARK    1  A    between atoms: C2_2  and  C3_3 
REMARK    2  A    between atoms: C3_3  and  C4_4 
REMARK    3  A    between atoms: C4_4  and  C5_5 
REMARK    4  A    between atoms: C5_5  and  C6_6 
REMARK    5  A    between atoms: C6_6  and  O2_8 
REMARK    6  A    between atoms: O2_8  and  C7_9 
REMARK    7  A    between atoms: C7_9  and  C8_10 
REMARK    8  A    between atoms: C23_25  and  O3_26 
REMARK    9  A    between atoms: O3_26  and  C24_27 
REMARK   10  A    between atoms: C24_27  and  O4_28 
REMARK   11  A    between atoms: C24_27  and  C25_30 
REMARK   12  A    between atoms: C25_30  and  C26_31 
REMARK   13  A    between atoms: C26_31  and  C27_32 
REMARK   14  A    between atoms: C32_38  and  C33_39 
REMARK   15  A    between atoms: C33_39  and  O6_40 
ROOT
HETATM    1  C8  UNL     1      -3.106   0.833  -0.713  1.00  0.00    -0.018 C 
HETATM    2  C9  UNL     1      -3.725   1.931  -1.554  1.00  0.00     0.018 C 
HETATM    3  C10 UNL     1      -3.600   1.127   0.703  1.00  0.00     0.012 C 
HETATM    4  C11 UNL     1      -2.812   2.093   1.480  1.00  0.00     0.002 C 
HETATM    5  C12 UNL     1      -1.376   2.259   1.045  1.00  0.00     0.010 C 
HETATM    6  C13 UNL     1      -0.849   0.960   0.460  1.00  0.00    -0.030 C 
HETATM    7  C14 UNL     1      -1.196  -0.124   1.452  1.00  0.00     0.016 C 
HETATM    8  C15 UNL     1      -1.618   0.814  -0.837  1.00  0.00     0.005 C 
HETATM    9  C16 UNL     1      -1.092  -0.262  -1.728  1.00  0.00     0.007 C 
HETATM   10  C17 UNL     1       0.405  -0.302  -1.845  1.00  0.00     0.007 C 
HETATM   11  C18 UNL     1       0.965  -0.348  -0.428  1.00  0.00     0.007 C 
HETATM   12  C19 UNL     1       2.320  -0.890  -0.271  1.00  0.00    -0.013 C 
HETATM   13  C20 UNL     1       2.269  -2.149   0.618  1.00  0.00     0.018 C 
HETATM   14  C21 UNL     1       2.992  -1.385  -1.542  1.00  0.00     0.017 C 
HETATM   15  C22 UNL     1       4.361  -1.973  -1.194  1.00  0.00     0.062 C 
HETATM   16  C23 UNL     1       5.112  -1.311  -0.142  1.00  0.00     0.263 C 
HETATM   17  O5  UNL     1       4.312  -0.827   0.951  1.00  0.00    -0.355 OA
HETATM   18  C29 UNL     1       3.355   0.004   0.364  1.00  0.00     0.133 C 
HETATM   19  C30 UNL     1       2.866   1.057   1.269  1.00  0.00     0.034 C 
HETATM   20  C31 UNL     1       1.406   1.110   1.507  1.00  0.00     0.015 C 
HETATM   21  C32 UNL     1       0.625   0.948   0.220  1.00  0.00    -0.007 C 
ENDROOT
BRANCH   1  22
HETATM   22  C7  UNL     1      -3.798  -0.438  -1.147  1.00  0.00     0.188 C 
BRANCH  22  23
HETATM   23  O2  UNL     1      -5.107  -0.495  -0.912  1.00  0.00    -0.321 OA
BRANCH  23  24
HETATM   24  C6  UNL     1      -6.303  -0.056  -1.202  1.00  0.00     0.258 C 
HETATM   25  O1  UNL     1      -6.487   0.793  -2.087  1.00  0.00    -0.265 OA
BRANCH  24  26
HETATM   26  C5  UNL     1      -7.517  -0.573  -0.458  1.00  0.00     0.111 C 
BRANCH  26  27
HETATM   27  C4  UNL     1      -8.735   0.158  -0.921  1.00  0.00     0.010 C 
BRANCH  27  28
HETATM   28  C3  UNL     1     -10.002  -0.191  -0.260  1.00  0.00     0.000 C 
BRANCH  28  29
HETATM   29  C2  UNL     1     -10.527  -1.572  -0.335  1.00  0.00    -0.005 C 
HETATM   30  C1  UNL     1      -9.702  -2.653   0.277  1.00  0.00     0.005 C 
ENDBRANCH  28  29
ENDBRANCH  27  28
ENDBRANCH  26  27
ENDBRANCH  24  26
ENDBRANCH  23  24
ENDBRANCH  22  23
ENDBRANCH   1  22
BRANCH  21  31
HETATM   31  C33 UNL     1       1.126   2.163  -0.561  1.00  0.00     0.174 C 
BRANCH  31  32
HETATM   32  O6  UNL     1       0.866   3.321   0.156  1.00  0.00    -0.400 OA
ATOM     33  H6  UNL     1       1.177   4.076  -0.329  1.00  0.00     0.209 HD
ENDBRANCH  31  32
ENDBRANCH  21  31
BRANCH  16  34
HETATM   34  O3  UNL     1       6.073  -2.147   0.428  1.00  0.00    -0.332 OA
BRANCH  34  35
HETATM   35  C24 UNL     1       7.311  -1.468   0.521  1.00  0.00     0.260 C 
BRANCH  35  36
HETATM   36  O4  UNL     1       8.275  -2.135  -0.246  1.00  0.00    -0.371 OA
ATOM     37  H4  UNL     1       9.106  -1.679  -0.184  1.00  0.00     0.212 HD
ENDBRANCH  35  36
BRANCH  35  38
HETATM   38  C25 UNL     1       7.746  -1.314   1.929  1.00  0.00     0.060 C 
BRANCH  38  39
HETATM   39  C26 UNL     1       9.076  -0.598   2.050  1.00  0.00     0.004 C 
BRANCH  39  40
HETATM   40  C27 UNL     1       8.943   0.780   1.477  1.00  0.00    -0.004 C 
HETATM   41  C28 UNL     1      10.245   1.560   1.579  1.00  0.00     0.005 C 
ENDBRANCH  39  40
ENDBRANCH  38  39
ENDBRANCH  35  38
ENDBRANCH  34  35
ENDBRANCH  16  34
TORSDOF 15
