REMARK  12 active torsions:
REMARK  status: ('A' for Active; 'I' for Inactive)
REMARK    1  A    between atoms: C3_3  and  C4_4 
REMARK    2  A    between atoms: C4_4  and  C5_5 
REMARK    3  A    between atoms: C5_5  and  C6_6 
REMARK    4  A    between atoms: C6_6  and  C7_7 
REMARK    5  A    between atoms: C7_7  and  C8_8 
REMARK    6  A    between atoms: C9_11  and  O1_12 
REMARK    7  A    between atoms: C10_14  and  C11_15 
REMARK    8  A    between atoms: C11_15  and  C12_16 
REMARK    9  A    between atoms: C16_23  and  C17_24 
REMARK   10  A    between atoms: C17_24  and  C18_25 
REMARK   11  A    between atoms: C22_32  and  C23_33 
REMARK   12  A    between atoms: C23_33  and  C25_35 
ROOT
HETATM    1  C1  UNL     1       8.016  -2.123   1.274  1.00  0.00     0.012 C 
HETATM    2  C2  UNL     1       7.602  -1.248   0.554  1.00  0.00    -0.117 C 
HETATM    3  C3  UNL     1       7.101  -0.202  -0.340  1.00  0.00     0.093 C 
ENDROOT
BRANCH   3   4
HETATM    4  C4  UNL     1       6.873   1.068   0.439  1.00  0.00     0.012 C 
BRANCH   4   5
HETATM    5  C5  UNL     1       5.882   0.870   1.537  1.00  0.00     0.001 C 
BRANCH   5   6
HETATM    6  C6  UNL     1       4.533   0.424   0.998  1.00  0.00     0.002 C 
BRANCH   6   7
HETATM    7  C7  UNL     1       3.975   1.445   0.059  1.00  0.00     0.035 C 
BRANCH   7   8
HETATM    8  C8  UNL     1       2.598   1.087  -0.499  1.00  0.00     0.175 C 
HETATM    9  N1  UNL     1       2.690  -0.155  -1.229  1.00  0.00    -0.359 N 
HETATM   10  C9  UNL     1       2.254  -1.433  -0.928  1.00  0.00     0.135 C 
ATOM     11  H1  UNL     1       3.162  -0.076  -2.130  1.00  0.00     0.162 HD
HETATM   12  C10 UNL     1       0.893  -1.965  -0.683  1.00  0.00     0.159 C 
HETATM   13  N2  UNL     1      -0.159  -1.008  -0.929  1.00  0.00    -0.347 N 
HETATM   14  C15 UNL     1      -1.506  -1.222  -1.148  1.00  0.00     0.241 C 
ATOM     15  H2  UNL     1       0.135  -0.031  -0.943  1.00  0.00     0.163 HD
HETATM   16  O2  UNL     1      -2.011  -0.785  -2.252  1.00  0.00    -0.271 OA
HETATM   17  C16 UNL     1      -2.510  -1.897  -0.291  1.00  0.00     0.177 C 
HETATM   18  N3  UNL     1      -3.823  -1.300  -0.352  1.00  0.00    -0.346 N 
HETATM   19  C21 UNL     1      -4.187   0.035  -0.487  1.00  0.00     0.241 C 
ATOM     20  H3  UNL     1      -4.601  -1.957  -0.286  1.00  0.00     0.163 HD
HETATM   21  O3  UNL     1      -4.986   0.317  -1.461  1.00  0.00    -0.271 OA
HETATM   22  C22 UNL     1      -3.803   1.200   0.317  1.00  0.00     0.180 C 
HETATM   23  N4  UNL     1      -3.019   2.085  -0.565  1.00  0.00    -0.346 N 
HETATM   24  C27 UNL     1      -2.154   3.088  -0.130  1.00  0.00     0.236 C 
ATOM     25  H4  UNL     1      -3.117   1.953  -1.572  1.00  0.00     0.163 HD
HETATM   26  O4  UNL     1      -2.166   4.173  -0.810  1.00  0.00    -0.272 OA
HETATM   27  C28 UNL     1      -1.233   3.003   1.042  1.00  0.00     0.225 C 
HETATM   28  N5  UNL     1      -0.664   4.310   1.266  1.00  0.00    -0.351 N 
HETATM   29  C29 UNL     1       0.385   4.842   0.474  1.00  0.00     0.240 C 
ATOM     30  H5  UNL     1      -1.033   4.877   2.029  1.00  0.00     0.163 HD
HETATM   31  O5  UNL     1       0.308   6.038   0.017  1.00  0.00    -0.271 OA
HETATM   32  C30 UNL     1       1.613   4.081   0.125  1.00  0.00     0.172 C 
HETATM   33  C31 UNL     1       2.702   5.143  -0.111  1.00  0.00     0.042 C 
HETATM   34  N6  UNL     1       1.432   3.293  -1.078  1.00  0.00    -0.346 N 
HETATM   35  C32 UNL     1       2.269   2.215  -1.413  1.00  0.00     0.241 C 
ATOM     36  H6  UNL     1       0.665   3.531  -1.707  1.00  0.00     0.163 HD
HETATM   37  O6  UNL     1       2.784   2.183  -2.562  1.00  0.00    -0.271 OA
BRANCH  10  38
HETATM   38  O1  UNL     1       3.124  -2.410  -0.821  1.00  0.00    -0.348 OA
ATOM     39  H1  UNL     1       2.825  -3.288  -0.614  1.00  0.00     0.219 HD
ENDBRANCH  10  38
BRANCH  12  40
HETATM   40  C11 UNL     1       0.657  -3.283  -1.328  1.00  0.00     0.037 C 
BRANCH  40  41
HETATM   41  C12 UNL     1       0.720  -3.429  -2.778  1.00  0.00    -0.020 C 
HETATM   42  C13 UNL     1       1.965  -3.117  -3.514  1.00  0.00     0.009 C 
HETATM   43  C14 UNL     1       0.444  -4.923  -3.073  1.00  0.00     0.009 C 
ENDBRANCH  40  41
ENDBRANCH  12  40
BRANCH  17  44
HETATM   44  C17 UNL     1      -2.113  -2.046   1.135  1.00  0.00     0.038 C 
BRANCH  44  45
HETATM   45  C18 UNL     1      -3.217  -2.754   1.891  1.00  0.00    -0.020 C 
HETATM   46  C19 UNL     1      -3.453  -4.125   1.312  1.00  0.00     0.009 C 
HETATM   47  C20 UNL     1      -2.675  -3.005   3.309  1.00  0.00     0.009 C 
ENDBRANCH  44  45
ENDBRANCH  17  44
BRANCH  22  48
HETATM   48  C23 UNL     1      -4.911   2.046   0.840  1.00  0.00     0.013 C 
HETATM   49  C24 UNL     1      -5.768   2.626  -0.290  1.00  0.00     0.012 C 
BRANCH  48  50
HETATM   50  C25 UNL     1      -5.779   1.486   1.892  1.00  0.00     0.002 C 
HETATM   51  C26 UNL     1      -6.543   0.253   1.575  1.00  0.00     0.005 C 
ENDBRANCH  48  50
ENDBRANCH  22  48
ENDBRANCH   7   8
ENDBRANCH   6   7
ENDBRANCH   5   6
ENDBRANCH   4   5
ENDBRANCH   3   4
TORSDOF 12
