REMARK  5 active torsions:
REMARK  status: ('A' for Active; 'I' for Inactive)
REMARK    1  A    between atoms: C2_2  and  C3_3 
REMARK    2  A    between atoms: C3_3  and  C4_4 
REMARK    3  A    between atoms: C4_4  and  N1_6 
REMARK    4  A    between atoms: N1_6  and  C6_8 
REMARK    5  A    between atoms: N4_16  and  C9_17 
ROOT
HETATM    1  C6  UNL     1      -0.284  -1.503   0.588  1.00  0.00     0.117 A 
HETATM    2  N2  UNL     1      -0.567  -2.791   0.954  1.00  0.00    -0.338 N 
ATOM      3  H2  UNL     1      -1.478  -2.960   1.380  1.00  0.00     0.168 HD
HETATM    4  C7  UNL     1       0.228  -3.836   0.808  1.00  0.00     0.182 A 
HETATM    5  N3  UNL     1       1.431  -3.602   0.245  1.00  0.00    -0.345 N 
ATOM      6  H3  UNL     1       2.085  -4.373   0.109  1.00  0.00     0.167 HD
HETATM    7  C8  UNL     1       1.778  -2.347  -0.142  1.00  0.00     0.107 A 
HETATM    8  S1  UNL     1       3.178  -1.681  -0.872  1.00  0.00     0.007 SA
HETATM    9  N4  UNL     1       2.692  -0.073  -0.966  1.00  0.00    -0.322 N 
HETATM   10  C12 UNL     1       1.465  -0.083  -0.435  1.00  0.00     0.117 A 
HETATM   11  C13 UNL     1       0.971  -1.256  -0.000  1.00  0.00     0.059 A 
ENDROOT
BRANCH   1  12
HETATM   12  N1  UNL     1      -1.174  -0.681   0.816  1.00  0.00    -0.371 N 
ATOM     13  H1  UNL     1      -1.931  -1.215   1.243  1.00  0.00     0.161 HD
BRANCH  12  14
HETATM   14  C4  UNL     1      -1.623   0.601   0.767  1.00  0.00     0.079 C 
HETATM   15  C5  UNL     1      -1.080   1.536   1.853  1.00  0.00     0.032 C 
BRANCH  14  16
HETATM   16  C3  UNL     1      -3.148   0.756   0.805  1.00  0.00     0.024 C 
BRANCH  16  17
HETATM   17  C2  UNL     1      -3.748  -0.152  -0.257  1.00  0.00    -0.003 C 
HETATM   18  C1  UNL     1      -5.257  -0.049  -0.275  1.00  0.00     0.005 C 
ENDBRANCH  16  17
ENDBRANCH  14  16
ENDBRANCH  12  14
ENDBRANCH   1  12
BRANCH   9  19
HETATM   19  C9  UNL     1       3.428   1.089  -1.504  1.00  0.00     0.088 C 
HETATM   20  C10 UNL     1       4.850   0.638  -1.711  1.00  0.00     0.033 C 
HETATM   21  C11 UNL     1       3.431   2.221  -0.513  1.00  0.00     0.033 C 
ENDBRANCH   9  19
TORSDOF 5
