REMARK  2 active torsions:
REMARK  status: ('A' for Active; 'I' for Inactive)
REMARK    1  A    between atoms: C3_3  and  O1_4 
REMARK    2  A    between atoms: C5_7  and  O2_8 
ROOT
HETATM    1  C1  UNL     1       0.848  -1.809  -0.888  1.00  0.00     0.013 C 
HETATM    2  C2  UNL     1       0.385  -1.040   0.288  1.00  0.00     0.022 C 
HETATM    3  C3  UNL     1      -1.080  -1.144   0.581  1.00  0.00     0.126 C 
HETATM    4  C4  UNL     1      -1.722   0.010  -0.164  1.00  0.00     0.086 C 
HETATM    5  C5  UNL     1      -0.609   0.927  -0.560  1.00  0.00     0.155 C 
HETATM    6  C6  UNL     1      -0.877   2.325  -0.252  1.00  0.00     0.098 C 
HETATM    7  N1  UNL     1      -1.098   3.446  -0.016  1.00  0.00    -0.194 NA
HETATM    8  C7  UNL     1       0.593   0.438   0.196  1.00  0.00     0.003 C 
HETATM    9  C8  UNL     1       0.654   0.985   1.611  1.00  0.00     0.019 C 
HETATM   10  C9  UNL     1       1.837   0.845  -0.514  1.00  0.00     0.019 C 
ENDROOT
BRANCH   5  11
HETATM   11  O2  UNL     1      -0.396   0.842  -1.934  1.00  0.00    -0.374 OA
ATOM     12  H2  UNL     1       0.311   1.425  -2.186  1.00  0.00     0.212 HD
ENDBRANCH   5  11
BRANCH   3  13
HETATM   13  O1  UNL     1      -1.640  -2.355   0.267  1.00  0.00    -0.395 OA
ATOM     14  H1  UNL     1      -2.569  -2.421   0.453  1.00  0.00     0.210 HD
ENDBRANCH   3  13
TORSDOF 2
