REMARK  2 active torsions:
REMARK  status: ('A' for Active; 'I' for Inactive)
REMARK    1  A    between atoms: O1_1  and  C1_3 
REMARK    2  A    between atoms: C3_5  and  O2_6 
ROOT
HETATM    1  C1  UNL     1       1.681  -0.797  -0.348  1.00  0.00     0.155 C 
HETATM    2  C2  UNL     1       2.319   0.533   0.050  1.00  0.00     0.098 C 
HETATM    3  C3  UNL     1       1.131   1.490   0.001  1.00  0.00     0.359 C 
HETATM    4  N1  UNL     1      -0.020   0.722  -0.327  1.00  0.00     0.124 N 
HETATM    5  C4  UNL     1      -1.255   1.205   0.198  1.00  0.00     0.276 C 
HETATM    6  C5  UNL     1      -2.350   0.264  -0.318  1.00  0.00     0.030 C 
HETATM    7  C6  UNL     1      -2.082  -1.163   0.134  1.00  0.00     0.004 C 
HETATM    8  C7  UNL     1      -0.686  -1.616  -0.301  1.00  0.00     0.038 C 
HETATM    9  C8  UNL     1       0.284  -0.606   0.213  1.00  0.00     0.255 C 
ENDROOT
BRANCH   1  10
HETATM   10  O1  UNL     1       2.337  -1.879   0.172  1.00  0.00    -0.393 OA
ATOM     11  H1  UNL     1       1.940  -2.706  -0.075  1.00  0.00     0.210 HD
ENDBRANCH   1  10
BRANCH   3  12
HETATM   12  O2  UNL     1       1.008   2.228   1.163  1.00  0.00    -0.368 OA
ATOM     13  H2  UNL     1       0.269   2.824   1.133  1.00  0.00     0.212 HD
ENDBRANCH   3  12
TORSDOF 2
