REMARK  2 active torsions:
REMARK  status: ('A' for Active; 'I' for Inactive)
REMARK    1  A    between atoms: C6_6  and  O1_7 
REMARK    2  A    between atoms: C8_11  and  O3_12 
ROOT
HETATM    1  C1  UNL     1      -2.453  -0.824  -0.365  1.00  0.00     0.012 C 
HETATM    2  C2  UNL     1      -1.045  -0.335  -0.057  1.00  0.00     0.012 C 
HETATM    3  C3  UNL     1      -0.376  -1.214   0.947  1.00  0.00     0.007 C 
HETATM    4  C4  UNL     1       0.931  -1.753   0.509  1.00  0.00     0.005 C 
HETATM    5  C5  UNL     1       1.738  -0.902  -0.397  1.00  0.00     0.060 C 
HETATM    6  C6  UNL     1       1.857   0.526  -0.074  1.00  0.00     0.256 C 
HETATM    7  O2  UNL     1       1.155   0.968   1.020  1.00  0.00    -0.359 OA
HETATM    8  C7  UNL     1       0.086   1.782   0.714  1.00  0.00     0.203 C 
HETATM    9  C8  UNL     1      -1.168   1.098   0.365  1.00  0.00     0.145 C 
ENDROOT
BRANCH   6  10
HETATM   10  O1  UNL     1       3.204   0.916   0.129  1.00  0.00    -0.371 OA
ATOM     11  H1  UNL     1       3.281   1.840   0.338  1.00  0.00     0.212 HD
ENDBRANCH   6  10
BRANCH   9  12
HETATM   12  O3  UNL     1      -1.778   1.779  -0.704  1.00  0.00    -0.393 OA
ATOM     13  H3  UNL     1      -1.856   2.687  -0.437  1.00  0.00     0.210 HD
ENDBRANCH   9  12
TORSDOF 2
