REMARK  10 active torsions:
REMARK  status: ('A' for Active; 'I' for Inactive)
REMARK    1  A    between atoms: C2_2  and  C11_28 
REMARK    2  A    between atoms: N1_3  and  O1_5 
REMARK    3  A    between atoms: O1_5  and  C3_6 
REMARK    4  A    between atoms: C3_6  and  C4_8 
REMARK    5  A    between atoms: N2_9  and  N3_11 
REMARK    6  A    between atoms: N3_11  and  C5_13 
REMARK    7  A    between atoms: C5_13  and  O3_14 
REMARK    8  A    between atoms: C5_13  and  C6_16 
REMARK    9  A    between atoms: C7_17  and  O4_18 
REMARK   10  A    between atoms: C13_34  and  O9_35 
ROOT
HETATM    1  C4  UNL     1      -0.207   0.617  -1.432  1.00  0.00     0.190 C 
HETATM    2  N2  UNL     1      -1.247   0.384  -0.719  1.00  0.00    -0.308 N 
ATOM      3  H2  UNL     1      -2.145   0.701  -1.083  1.00  0.00     0.185 HD
ENDROOT
BRANCH   2   4
HETATM    4  N3  UNL     1      -1.250  -0.266   0.510  1.00  0.00    -0.303 N 
ATOM      5  H3  UNL     1      -0.756   0.118   1.315  1.00  0.00     0.183 HD
BRANCH   4   6
HETATM    6  C5  UNL     1      -1.991  -1.523   0.600  1.00  0.00     0.277 C 
BRANCH   6   7
HETATM    7  O3  UNL     1      -1.443  -2.399  -0.307  1.00  0.00    -0.371 OA
ATOM      8  H3  UNL     1      -1.925  -3.216  -0.249  1.00  0.00     0.212 HD
ENDBRANCH   6   7
BRANCH   6   9
HETATM    9  C6  UNL     1      -3.442  -1.272   0.302  1.00  0.00     0.110 A 
HETATM   10  C7  UNL     1      -4.020  -0.174   0.907  1.00  0.00     0.162 A 
HETATM   11  N4  UNL     1      -5.325   0.084   0.662  1.00  0.00    -0.284 N 
HETATM   12  C8  UNL     1      -5.949   1.235   1.290  1.00  0.00     0.163 C 
HETATM   13  C9  UNL     1      -6.014  -0.718  -0.147  1.00  0.00     0.331 A 
HETATM   14  O5  UNL     1      -7.231  -0.471  -0.371  1.00  0.00    -0.246 OA
HETATM   15  N5  UNL     1      -5.474  -1.794  -0.748  1.00  0.00    -0.275 N 
HETATM   16  C10 UNL     1      -4.176  -2.079  -0.525  1.00  0.00     0.264 A 
ATOM     17  H5  UNL     1      -6.037  -2.383  -1.361  1.00  0.00     0.173 HD
HETATM   18  O6  UNL     1      -3.629  -3.075  -1.066  1.00  0.00    -0.267 OA
BRANCH  10  19
HETATM   19  O4  UNL     1      -3.304   0.655   1.745  1.00  0.00    -0.345 OA
ATOM     20  H4  UNL     1      -3.702   1.411   2.161  1.00  0.00     0.219 HD
ENDBRANCH  10  19
ENDBRANCH   6   9
ENDBRANCH   4   6
ENDBRANCH   2   4
BRANCH   1  21
HETATM   21  C3  UNL     1       1.125   0.216  -1.018  1.00  0.00     0.321 C 
HETATM   22  O2  UNL     1       1.258  -0.382   0.077  1.00  0.00    -0.257 OA
BRANCH  21  23
HETATM   23  O1  UNL     1       2.219   0.493  -1.826  1.00  0.00    -0.194 OA
BRANCH  23  24
HETATM   24  N1  UNL     1       3.457   0.107  -1.420  1.00  0.00    -0.260 N 
HETATM   25  C2  UNL     1       4.227   0.824  -0.680  1.00  0.00     0.060 C 
HETATM   26  C1  UNL     1       3.842   2.165  -0.186  1.00  0.00     0.072 C 
ATOM     27  H1  UNL     1       3.796  -0.807  -1.720  1.00  0.00     0.194 HD
BRANCH  25  28
HETATM   28  C11 UNL     1       5.531   0.281  -0.322  1.00  0.00     0.120 A 
HETATM   29  N6  UNL     1       6.054  -0.905  -0.671  1.00  0.00    -0.296 N 
HETATM   30  C12 UNL     1       7.283  -1.043  -0.144  1.00  0.00     0.372 A 
ATOM     31  H6  UNL     1       5.587  -1.601  -1.252  1.00  0.00     0.171 HD
HETATM   32  O7  UNL     1       8.060  -2.050  -0.278  1.00  0.00    -0.238 OA
HETATM   33  O8  UNL     1       7.528   0.053   0.533  1.00  0.00    -0.235 OA
HETATM   34  C13 UNL     1       6.515   0.882   0.462  1.00  0.00     0.217 A 
BRANCH  34  35
HETATM   35  O9  UNL     1       6.375   2.135   1.032  1.00  0.00    -0.339 OA
ATOM     36  H9  UNL     1       7.045   2.544   1.566  1.00  0.00     0.220 HD
ENDBRANCH  34  35
ENDBRANCH  25  28
ENDBRANCH  23  24
ENDBRANCH  21  23
ENDBRANCH   1  21
TORSDOF 10
