REMARK  10 active torsions:
REMARK  status: ('A' for Active; 'I' for Inactive)
REMARK    1  A    between atoms: C4_4  and  S1_5 
REMARK    2  A    between atoms: S1_5  and  N1_8 
REMARK    3  A    between atoms: N1_8  and  C6_10 
REMARK    4  A    between atoms: C6_10  and  C7_11 
REMARK       I    between atoms: C7_11  and  N2_13 
REMARK    5  A    between atoms: N2_13  and  C8_14 
REMARK    6  A    between atoms: N2_13  and  C19_30 
REMARK    7  A    between atoms: C8_14  and  C9_15 
REMARK    8  A    between atoms: C13_19  and  C14_20 
REMARK    9  A    between atoms: C22_33  and  O7_34 
REMARK   10  A    between atoms: C27_40  and  N4_41 
ROOT
HETATM    1  C7  UNL     1       0.446  -1.294  -0.950  1.00  0.00     0.259 C 
HETATM    2  O3  UNL     1      -0.028  -2.140  -0.106  1.00  0.00    -0.267 OA
HETATM    3  N2  UNL     1       1.797  -1.517  -1.305  1.00  0.00    -0.309 N 
ENDROOT
BRANCH   3   4
HETATM    4  C8  UNL     1       2.653  -2.175  -0.334  1.00  0.00     0.176 C 
BRANCH   4   5
HETATM    5  C9  UNL     1       3.481  -1.248   0.496  1.00  0.00     0.029 A 
HETATM    6  C10 UNL     1       4.861  -1.546   0.530  1.00  0.00     0.028 A 
HETATM    7  C11 UNL     1       5.665  -0.826   1.383  1.00  0.00    -0.008 A 
HETATM    8  C12 UNL     1       7.028  -1.155   1.463  1.00  0.00     0.032 A 
HETATM    9  C17 UNL     1       5.152   0.162   2.180  1.00  0.00     0.045 A 
HETATM   10  C13 UNL     1       7.822  -0.474   2.344  1.00  0.00     0.041 A 
HETATM   11  C15 UNL     1       7.267   0.536   3.141  1.00  0.00     0.021 A 
HETATM   12  C16 UNL     1       5.954   0.870   3.081  1.00  0.00     0.031 A 
HETATM   13  N3  UNL     1       3.841   0.419   2.114  1.00  0.00    -0.322 N 
HETATM   14  C18 UNL     1       3.029  -0.271   1.294  1.00  0.00     0.253 A 
ATOM     15  H3  UNL     1       3.448   1.156   2.700  1.00  0.00     0.169 HD
HETATM   16  O6  UNL     1       1.833   0.063   1.332  1.00  0.00    -0.268 OA
BRANCH  10  17
HETATM   17  C14 UNL     1       9.232  -0.800   2.497  1.00  0.00     0.209 C 
HETATM   18  O4  UNL     1       9.747  -1.708   1.824  1.00  0.00    -0.644 OA
HETATM   19  O5  UNL     1      10.030  -0.099   3.390  1.00  0.00    -0.644 OA
ENDBRANCH  10  17
ENDBRANCH   4   5
ENDBRANCH   3   4
BRANCH   3  20
HETATM   20  C19 UNL     1       2.276  -0.994  -2.531  1.00  0.00     0.038 A 
HETATM   21  C20 UNL     1       3.286  -0.071  -2.653  1.00  0.00     0.032 A 
HETATM   22  C21 UNL     1       3.725   0.386  -3.879  1.00  0.00     0.039 A 
HETATM   23  C22 UNL     1       3.173  -0.055  -5.055  1.00  0.00     0.065 A 
HETATM   24  C23 UNL     1       2.161  -0.977  -4.969  1.00  0.00     0.039 A 
HETATM   25  C24 UNL     1       1.720  -1.436  -3.751  1.00  0.00     0.032 A 
BRANCH  23  26
HETATM   26  O7  UNL     1       3.584   0.376  -6.304  1.00  0.00    -0.361 OA
ATOM     27  H7  UNL     1       3.202   0.071  -7.118  1.00  0.00     0.217 HD
ENDBRANCH  23  26
ENDBRANCH   3  20
BRANCH   1  28
HETATM   28  C6  UNL     1      -0.340  -0.203  -1.485  1.00  0.00     0.151 C 
BRANCH  28  29
HETATM   29  N1  UNL     1      -1.700  -0.094  -1.114  1.00  0.00    -0.182 NA
HETATM   30  C5  UNL     1      -2.247   0.984  -1.995  1.00  0.00     0.135 C 
BRANCH  29  31
HETATM   31  S1  UNL     1      -2.085   0.369   0.460  1.00  0.00     0.247 S 
HETATM   32  O1  UNL     1      -1.533   1.778   0.682  1.00  0.00    -0.205 OA
HETATM   33  O2  UNL     1      -1.542  -0.498   1.549  1.00  0.00    -0.205 OA
BRANCH  31  34
HETATM   34  C4  UNL     1      -3.814   0.464   0.730  1.00  0.00     0.075 A 
HETATM   35  C3  UNL     1      -4.782   0.286  -0.191  1.00  0.00     0.033 A 
HETATM   36  C2  UNL     1      -6.122   0.379   0.140  1.00  0.00    -0.034 A 
HETATM   37  C1  UNL     1      -7.167   0.215  -0.942  1.00  0.00     0.050 C 
HETATM   38  C27 UNL     1      -6.530   0.650   1.406  1.00  0.00     0.035 A 
HETATM   39  C26 UNL     1      -5.561   0.835   2.381  1.00  0.00     0.031 A 
HETATM   40  C25 UNL     1      -4.241   0.742   2.037  1.00  0.00     0.027 A 
BRANCH  38  41
HETATM   41  N4  UNL     1      -7.896   0.746   1.722  1.00  0.00    -0.389 N 
HETATM   42  C28 UNL     1      -8.826  -0.334   1.494  1.00  0.00     0.149 C 
HETATM   43  C29 UNL     1      -8.405   1.968   2.311  1.00  0.00     0.149 C 
ENDBRANCH  38  41
ENDBRANCH  31  34
ENDBRANCH  29  31
ENDBRANCH  28  29
ENDBRANCH   1  28
TORSDOF 10
