REMARK  13 active torsions:
REMARK  status: ('A' for Active; 'I' for Inactive)
REMARK    1  A    between atoms: C4_4  and  C5_5 
REMARK    2  A    between atoms: C5_5  and  C6_6 
REMARK    3  A    between atoms: C9_12  and  C10_13 
REMARK    4  A    between atoms: C10_13  and  C11_14 
REMARK    5  A    between atoms: C11_14  and  C12_15 
REMARK    6  A    between atoms: C12_15  and  N2_16 
REMARK    7  A    between atoms: C14_21  and  O2_22 
REMARK    8  A    between atoms: C15_26  and  C16_27 
REMARK    9  A    between atoms: C16_27  and  C17_28 
REMARK   10  A    between atoms: C20_31  and  O3_32 
REMARK   11  A    between atoms: C21_36  and  C22_37 
REMARK   12  A    between atoms: C24_41  and  C25_42 
REMARK   13  A    between atoms: C25_42  and  C26_43 
ROOT
HETATM    1  C1  UNL     1      -4.141  -3.395  -4.571  1.00  0.00     0.017 C 
HETATM    2  C2  UNL     1      -3.733  -4.129  -3.699  1.00  0.00    -0.090 C 
HETATM    3  C3  UNL     1      -3.278  -4.999  -2.675  1.00  0.00     0.060 C 
HETATM    4  C4  UNL     1      -3.156  -4.759  -1.420  1.00  0.00    -0.014 C 
ENDROOT
BRANCH   4   5
HETATM    5  C5  UNL     1      -3.472  -3.481  -0.749  1.00  0.00     0.057 C 
BRANCH   5   6
HETATM    6  C6  UNL     1      -2.344  -2.935   0.003  1.00  0.00     0.012 C 
HETATM    7  C7  UNL     1      -1.721  -1.814   0.045  1.00  0.00     0.099 C 
HETATM    8  C8  UNL     1      -0.575  -1.710   1.014  1.00  0.00     0.268 C 
HETATM    9  N9  UNL     1      -2.058  -0.668  -0.751  1.00  0.00    -0.354 N 
HETATM   10  O1  UNL     1      -0.806  -2.193   2.194  1.00  0.00    -0.266 OA
HETATM   11  N1  UNL     1       0.687  -1.146   0.739  1.00  0.00    -0.344 N 
HETATM   12  C9  UNL     1       1.558  -1.370  -0.350  1.00  0.00     0.159 C 
ATOM     13  H1  UNL     1       1.022  -0.475   1.431  1.00  0.00     0.163 HD
HETATM   14  C14 UNL     1       1.916  -0.237  -1.216  1.00  0.00     0.139 C 
HETATM   15  N5  UNL     1       2.516   0.983  -0.985  1.00  0.00    -0.339 N 
HETATM   16  C15 UNL     1       2.338   2.194  -0.265  1.00  0.00     0.062 C 
ATOM     17  H5  UNL     1       3.387   1.033  -1.513  1.00  0.00     0.167 HD
HETATM   18  C20 UNL     1       1.085   2.570   0.340  1.00  0.00     0.159 C 
HETATM   19  N6  UNL     1      -0.095   3.193  -0.092  1.00  0.00    -0.356 N 
HETATM   20  C21 UNL     1      -1.116   2.951  -1.031  1.00  0.00     0.178 C 
ATOM     21  H6  UNL     1      -0.259   4.063   0.415  1.00  0.00     0.162 HD
HETATM   22  C23 UNL     1      -1.469   1.578  -1.440  1.00  0.00     0.087 C 
HETATM   23  C24 UNL     1      -1.988   0.684  -0.315  1.00  0.00    -0.003 C 
HETATM   24  C32 UNL     1      -2.450  -0.880  -2.139  1.00  0.00     0.156 C 
BRANCH  12  25
HETATM   25  C10 UNL     1       2.785  -2.071   0.213  1.00  0.00     0.035 C 
BRANCH  25  26
HETATM   26  C11 UNL     1       3.821  -2.390  -0.794  1.00  0.00     0.022 C 
BRANCH  26  27
HETATM   27  C12 UNL     1       4.966  -3.084  -0.050  1.00  0.00     0.122 C 
BRANCH  27  28
HETATM   28  N2  UNL     1       5.518  -2.232   0.972  1.00  0.00    -0.367 N 
HETATM   29  C13 UNL     1       5.923  -2.624   2.108  1.00  0.00     0.196 C 
HETATM   30  N3  UNL     1       6.457  -1.737   3.070  1.00  0.00    -0.067 NA
HETATM   31  N4  UNL     1       5.842  -4.004   2.437  1.00  0.00    -0.067 NA
ATOM     32  H2  UNL     1       5.589  -1.236   0.766  1.00  0.00     0.161 HD
ENDBRANCH  27  28
ENDBRANCH  26  27
ENDBRANCH  25  26
ENDBRANCH  12  25
BRANCH  14  33
HETATM   33  O2  UNL     1       1.568  -0.510  -2.456  1.00  0.00    -0.348 OA
ATOM     34  H2  UNL     1       1.799   0.222  -3.016  1.00  0.00     0.219 HD
ENDBRANCH  14  33
BRANCH  16  35
HETATM   35  C16 UNL     1       3.014   3.361  -1.037  1.00  0.00     0.065 C 
BRANCH  35  36
HETATM   36  C17 UNL     1       2.899   4.651  -0.335  1.00  0.00    -0.017 C 
HETATM   37  C18 UNL     1       3.537   4.684   1.034  1.00  0.00     0.010 C 
HETATM   38  C19 UNL     1       3.548   5.796  -1.108  1.00  0.00     0.010 C 
ENDBRANCH  35  36
ENDBRANCH  16  35
BRANCH  18  39
HETATM   39  O3  UNL     1       1.002   2.271   1.616  1.00  0.00    -0.345 OA
ATOM     40  H3  UNL     1       0.176   2.519   2.015  1.00  0.00     0.219 HD
ENDBRANCH  18  39
BRANCH  20  41
HETATM   41  C22 UNL     1      -1.009   3.763  -2.302  1.00  0.00     0.254 C 
HETATM   42  N7  UNL     1      -1.983   3.571  -3.316  1.00  0.00    -0.060 NA
HETATM   43  O4  UNL     1      -0.079   4.578  -2.439  1.00  0.00    -0.275 OA
ENDBRANCH  20  41
BRANCH  23  44
HETATM   44  C25 UNL     1      -3.027   1.336   0.471  1.00  0.00     0.110 C 
BRANCH  44  45
HETATM   45  C26 UNL     1      -3.597   0.539   1.551  1.00  0.00     0.020 A 
HETATM   46  N8  UNL     1      -3.112   0.464   2.808  1.00  0.00    -0.362 N 
HETATM   47  C27 UNL     1      -3.810  -0.379   3.569  1.00  0.00     0.006 A 
ATOM     48  H8  UNL     1      -2.304   0.992   3.138  1.00  0.00     0.165 HD
HETATM   49  C28 UNL     1      -3.530  -0.678   4.983  1.00  0.00     0.068 C 
HETATM   50  C29 UNL     1      -4.812  -0.895   2.790  1.00  0.00     0.033 A 
HETATM   51  C30 UNL     1      -4.676  -0.322   1.543  1.00  0.00    -0.037 A 
HETATM   52  C31 UNL     1      -5.599  -0.580   0.409  1.00  0.00     0.050 C 
ENDBRANCH  44  45
ENDBRANCH  23  44
ENDBRANCH   5   6
ENDBRANCH   4   5
TORSDOF 13
