REMARK  4 active torsions:
REMARK  status: ('A' for Active; 'I' for Inactive)
REMARK    1  A    between atoms: C2_2  and  C3_3 
REMARK       I    between atoms: C3_3  and  N1_5 
REMARK       I    between atoms: C4_7  and  N2_8 
REMARK       I    between atoms: C4_7  and  N4_13 
REMARK    2  A    between atoms: N2_8  and  C5_10 
REMARK    3  A    between atoms: N4_13  and  C7_15 
REMARK    4  A    between atoms: C11_19  and  O2_21 
ROOT
HETATM    1  C5  UNL     1       1.593  -2.622  -2.878  1.00  0.00     0.262 C 
HETATM    2  C6  UNL     1       1.197  -1.614  -3.850  1.00  0.00     0.079 C 
HETATM    3  N3  UNL     1       0.881  -0.831  -4.630  1.00  0.00    -0.196 NA
ENDROOT
BRANCH   1   4
HETATM    4  N2  UNL     1       1.017  -2.353  -1.579  1.00  0.00    -0.214 N 
HETATM    5  C4  UNL     1       1.375  -1.259  -0.768  1.00  0.00     0.677 C 
HETATM    6  N1  UNL     1       2.536  -0.740  -0.896  1.00  0.00    -0.160 N 
HETATM    7  N4  UNL     1       0.467  -0.751   0.165  1.00  0.00    -0.222 N 
HETATM    8  C3  UNL     1       3.057   0.342  -0.180  1.00  0.00     0.235 C 
ATOM      9  H1  UNL     1       3.148  -1.160  -1.595  1.00  0.00     0.187 HD
HETATM   10  O1  UNL     1       2.912   1.531  -0.583  1.00  0.00    -0.273 OA
ATOM     11  H4  UNL     1       0.504  -1.123   1.114  1.00  0.00     0.178 HD
ATOM     12  H2  UNL     1       0.307  -2.996  -1.228  1.00  0.00     0.178 HD
BRANCH   8  13
HETATM   13  C2  UNL     1       3.814   0.134   1.101  1.00  0.00     0.099 C 
HETATM   14  C1  UNL     1       4.271   1.442   1.680  1.00  0.00     0.014 C 
ENDBRANCH   8  13
BRANCH   7  15
HETATM   15  C7  UNL     1      -0.529   0.272  -0.123  1.00  0.00     0.102 C 
HETATM   16  C8  UNL     1      -1.492  -0.158  -1.202  1.00  0.00     0.026 C 
HETATM   17  C9  UNL     1      -2.600   0.892  -1.225  1.00  0.00     0.005 C 
HETATM   18  C10 UNL     1      -3.451   0.644  -0.008  1.00  0.00     0.037 C 
HETATM   19  C11 UNL     1      -2.653   0.390   1.231  1.00  0.00     0.056 C 
HETATM   20  C12 UNL     1      -3.258   1.260   2.335  1.00  0.00     0.045 C 
HETATM   21  C13 UNL     1      -1.204   0.752   1.123  1.00  0.00     0.063 C 
BRANCH  19  22
HETATM   22  O2  UNL     1      -2.819  -0.935   1.659  1.00  0.00    -0.390 OA
ATOM     23  H2  UNL     1      -2.312  -1.096   2.446  1.00  0.00     0.210 HD
ENDBRANCH  19  22
ENDBRANCH   7  15
ENDBRANCH   1   4
TORSDOF 4
