REMARK  6 active torsions:
REMARK  status: ('A' for Active; 'I' for Inactive)
REMARK    1  A    between atoms: C3_3  and  N1_4 
REMARK    2  A    between atoms: N2_7  and  C6_8 
REMARK    3  A    between atoms: C6_8  and  C7_9 
REMARK    4  A    between atoms: C7_9  and  C8_10 
REMARK       I    between atoms: C8_10  and  N3_12 
REMARK    5  A    between atoms: C11_15  and  C12_16 
REMARK    6  A    between atoms: C17_25  and  O2_26 
ROOT
HETATM    1  C1  UNL     1      -7.537   0.523  -0.117  1.00  0.00     0.013 C 
HETATM    2  C2  UNL     1      -6.534   0.703   0.525  1.00  0.00    -0.089 C 
HETATM    3  C3  UNL     1      -5.327   0.906   1.323  1.00  0.00     0.330 C 
ENDROOT
BRANCH   3   4
HETATM    4  N1  UNL     1      -4.126   0.648   0.573  1.00  0.00    -0.050 N 
HETATM    5  C4  UNL     1      -3.589   1.886   0.019  1.00  0.00     0.266 C 
HETATM    6  C5  UNL     1      -2.233   1.578  -0.528  1.00  0.00     0.268 C 
HETATM    7  N2  UNL     1      -1.975   0.143  -0.581  1.00  0.00    -0.036 N 
HETATM    8  C15 UNL     1      -3.095  -0.436  -1.311  1.00  0.00     0.268 C 
HETATM    9  C17 UNL     1      -1.977  -0.448   0.732  1.00  0.00     0.349 C 
HETATM   10  C16 UNL     1      -4.345  -0.253  -0.517  1.00  0.00     0.266 C 
HETATM   11  C18 UNL     1      -3.130   0.154   1.504  1.00  0.00     0.300 C 
BRANCH   7  12
HETATM   12  C6  UNL     1      -0.729  -0.059  -1.257  1.00  0.00     0.250 C 
BRANCH  12  13
HETATM   13  C7  UNL     1       0.399  -0.444  -0.343  1.00  0.00     0.131 C 
BRANCH  13  14
HETATM   14  C8  UNL     1       1.622  -0.620  -1.154  1.00  0.00     0.221 C 
HETATM   15  O1  UNL     1       1.644  -0.456  -2.391  1.00  0.00    -0.273 OA
HETATM   16  N3  UNL     1       2.815  -0.990  -0.498  1.00  0.00    -0.352 N 
HETATM   17  C9  UNL     1       2.857  -1.199   0.956  1.00  0.00     0.126 C 
HETATM   18  C14 UNL     1       4.068  -1.189  -1.191  1.00  0.00     0.126 C 
HETATM   19  C10 UNL     1       3.872  -0.153   1.429  1.00  0.00     0.032 C 
HETATM   20  C11 UNL     1       5.225  -0.634   0.985  1.00  0.00     0.053 C 
HETATM   21  C13 UNL     1       5.246  -1.331  -0.325  1.00  0.00     0.032 C 
BRANCH  20  22
HETATM   22  C12 UNL     1       6.116   0.554   0.922  1.00  0.00     0.091 C 
HETATM   23  N4  UNL     1       7.174   0.620   1.637  1.00  0.00    -0.391 N 
ATOM     24  H42 UNL     1       7.391  -0.165   2.251  1.00  0.00     0.157 HD
ATOM     25  H41 UNL     1       7.785   1.435   1.594  1.00  0.00     0.157 HD
HETATM   26  N5  UNL     1       5.811   1.660   0.057  1.00  0.00    -0.088 NA
ENDBRANCH  20  22
ENDBRANCH  13  14
ENDBRANCH  12  13
ENDBRANCH   7  12
BRANCH   9  27
HETATM   27  O2  UNL     1      -2.257  -1.814   0.577  1.00  0.00    -0.368 OA
ATOM     28  H2  UNL     1      -2.258  -2.204   1.443  1.00  0.00     0.212 HD
ENDBRANCH   9  27
ENDBRANCH   3   4
TORSDOF 6
