REMARK  2 active torsions:
REMARK  status: ('A' for Active; 'I' for Inactive)
REMARK    1  A    between atoms: C1_2  and  N1_3 
REMARK    2  A    between atoms: N1_3  and  C2_5 
ROOT
HETATM    1  C2  UNL     1       0.283   0.605   0.325  1.00  0.00     0.036 A 
HETATM    2  C3  UNL     1      -1.034   1.008   0.380  1.00  0.00     0.046 A 
HETATM    3  C4  UNL     1      -2.064   0.223  -0.098  1.00  0.00     0.090 A 
HETATM    4  N2  UNL     1      -1.760  -0.973  -0.632  1.00  0.00    -0.375 N 
ATOM      5  H2  UNL     1      -2.515  -1.559  -0.987  1.00  0.00     0.164 HD
HETATM    6  C5  UNL     1      -0.499  -1.422  -0.714  1.00  0.00     0.090 A 
HETATM    7  C6  UNL     1       0.529  -0.633  -0.235  1.00  0.00     0.046 A 
ENDROOT
BRANCH   1   8
HETATM    8  N1  UNL     1       1.258   1.326   0.766  1.00  0.00    -0.334 N 
ATOM      9  H1  UNL     1       1.068   2.240   1.177  1.00  0.00     0.168 HD
BRANCH   8  10
HETATM   10  C1  UNL     1       2.587   0.857   0.682  1.00  0.00     0.353 C 
HETATM   11  O1  UNL     1       3.226   0.874  -0.392  1.00  0.00    -0.283 OA
ENDBRANCH   8  10
ENDBRANCH   1   8
TORSDOF 2
