REMARK  1 active torsions:
REMARK  status: ('A' for Active; 'I' for Inactive)
REMARK    1  A    between atoms: C2_2  and  C3_3 
ROOT
HETATM    1  C3  UNL     1       0.686  -0.119  -0.566  1.00  0.00     0.235 C 
HETATM    2  C4  UNL     1       0.653  -1.598  -0.231  1.00  0.00     0.069 C 
HETATM    3  C5  UNL     1      -0.814  -1.451  -0.597  1.00  0.00     0.264 C 
HETATM    4  N1  UNL     1      -0.666  -0.020  -0.293  1.00  0.00     0.019 N 
HETATM    5  C6  UNL     1      -1.258   0.452   0.859  1.00  0.00     0.279 C 
HETATM    6  C7  UNL     1      -1.829   1.562   0.032  1.00  0.00     0.172 C 
HETATM    7  N2  UNL     1      -1.406   0.814  -1.116  1.00  0.00    -0.044 NA
ENDROOT
BRANCH   1   8
HETATM    8  C2  UNL     1       1.711   0.567   0.213  1.00  0.00    -0.002 C 
HETATM    9  C1  UNL     1       2.608   0.049   0.997  1.00  0.00     0.009 C 
ENDBRANCH   1   8
TORSDOF 1
