REMARK  10 active torsions:
REMARK  status: ('A' for Active; 'I' for Inactive)
REMARK    1  A    between atoms: N1_1  and  O1_4 
REMARK    2  A    between atoms: O1_4  and  C1_5 
REMARK    3  A    between atoms: C1_5  and  C2_6 
REMARK    4  A    between atoms: C2_6  and  C3_7 
REMARK    5  A    between atoms: C3_7  and  O2_8 
REMARK    6  A    between atoms: C3_7  and  C4_10 
REMARK    7  A    between atoms: C4_10  and  O3_11 
REMARK    8  A    between atoms: C4_10  and  C5_13 
REMARK    9  A    between atoms: C6_14  and  C7_15 
REMARK   10  A    between atoms: C8_16  and  C9_17 
ROOT
HETATM    1  C4  UNL     1      -1.942  -0.141  -0.934  1.00  0.00     0.170 C 
ENDROOT
BRANCH   1   2
HETATM    2  C3  UNL     1      -2.528   0.732   0.157  1.00  0.00     0.152 C 
BRANCH   2   3
HETATM    3  C2  UNL     1      -4.024   0.788   0.093  1.00  0.00     0.063 C 
BRANCH   3   4
HETATM    4  C1  UNL     1      -4.631  -0.585   0.283  1.00  0.00     0.203 C 
BRANCH   4   5
HETATM    5  O1  UNL     1      -6.030  -0.497   0.218  1.00  0.00    -0.287 OA
BRANCH   5   6
HETATM    6  N1  UNL     1      -6.611  -1.694   0.381  1.00  0.00    -0.311 N 
ATOM      7  H12 UNL     1      -6.086  -2.555   0.533  1.00  0.00     0.184 HD
ATOM      8  H11 UNL     1      -7.628  -1.630   0.334  1.00  0.00     0.184 HD
ENDBRANCH   5   6
ENDBRANCH   4   5
ENDBRANCH   3   4
ENDBRANCH   2   3
BRANCH   2   9
HETATM    9  O2  UNL     1      -2.056   2.039  -0.027  1.00  0.00    -0.393 OA
ATOM     10  H2  UNL     1      -1.108   2.003   0.014  1.00  0.00     0.210 HD
ENDBRANCH   2   9
ENDBRANCH   1   2
BRANCH   1  11
HETATM   11  O3  UNL     1      -2.382   0.398  -2.150  1.00  0.00    -0.389 OA
ATOM     12  H3  UNL     1      -2.015  -0.149  -2.834  1.00  0.00     0.210 HD
ENDBRANCH   1  11
BRANCH   1  13
HETATM   13  C5  UNL     1      -0.476  -0.023  -0.907  1.00  0.00     0.016 C 
HETATM   14  C6  UNL     1       0.184  -0.358   0.181  1.00  0.00     0.063 C 
BRANCH  14  15
HETATM   15  C7  UNL     1       1.638  -0.254   0.245  1.00  0.00    -0.073 C 
HETATM   16  C8  UNL     1       2.838  -0.150   0.286  1.00  0.00    -0.062 C 
BRANCH  16  17
HETATM   17  C9  UNL     1       4.269  -0.017   0.315  1.00  0.00     0.018 A 
HETATM   18  C10 UNL     1       5.086  -1.012  -0.231  1.00  0.00     0.020 A 
HETATM   19  C11 UNL     1       6.460  -0.900  -0.211  1.00  0.00     0.001 A 
HETATM   20  C12 UNL     1       7.082   0.192   0.344  1.00  0.00     0.000 A 
HETATM   21  C13 UNL     1       6.282   1.185   0.888  1.00  0.00     0.001 A 
HETATM   22  C14 UNL     1       4.903   1.076   0.871  1.00  0.00     0.020 A 
ENDBRANCH  16  17
ENDBRANCH  14  15
ENDBRANCH   1  13
TORSDOF 10
