REMARK  6 active torsions:
REMARK  status: ('A' for Active; 'I' for Inactive)
REMARK    1  A    between atoms: C2_2  and  N1_3 
REMARK    2  A    between atoms: C2_2  and  C3_7 
REMARK       I    between atoms: C3_7  and  N2_9 
REMARK    3  A    between atoms: N2_9  and  C4_11 
REMARK    4  A    between atoms: C4_11  and  C5_12 
REMARK    5  A    between atoms: C4_11  and  C10_20 
REMARK       I    between atoms: C5_12  and  N3_14 
REMARK    6  A    between atoms: N3_14  and  C6_16 
ROOT
HETATM    1  C4  UNL     1       0.539  -0.789   0.312  1.00  0.00     0.180 C 
ENDROOT
BRANCH   1   2
HETATM    2  N2  UNL     1       1.682   0.060   0.534  1.00  0.00    -0.346 N 
HETATM    3  C3  UNL     1       2.902   0.210  -0.088  1.00  0.00     0.248 C 
HETATM    4  O1  UNL     1       3.349  -0.384  -1.087  1.00  0.00    -0.271 OA
ATOM      5  H2  UNL     1       1.561   0.689   1.328  1.00  0.00     0.163 HD
BRANCH   3   6
HETATM    6  C2  UNL     1       3.877   1.236   0.491  1.00  0.00     0.270 C 
HETATM    7  C1  UNL     1       4.153   2.302  -0.549  1.00  0.00     0.050 C 
BRANCH   6   8
HETATM    8  N1  UNL     1       3.319   1.864   1.650  1.00  0.00    -0.067 N 
ATOM      9  H13 UNL     1       3.907   2.617   2.008  1.00  0.00     0.275 HD
ATOM     10  H12 UNL     1       2.493   2.422   1.433  1.00  0.00     0.275 HD
ATOM     11  H11 UNL     1       3.133   1.146   2.350  1.00  0.00     0.275 HD
ENDBRANCH   6   8
ENDBRANCH   3   6
ENDBRANCH   1   2
BRANCH   1  12
HETATM   12  C5  UNL     1      -0.652   0.040   0.256  1.00  0.00     0.241 C 
HETATM   13  O2  UNL     1      -0.505   1.311   0.169  1.00  0.00    -0.271 OA
HETATM   14  N3  UNL     1      -1.983  -0.408   0.291  1.00  0.00    -0.351 N 
ATOM     15  H3  UNL     1      -2.153  -1.411   0.371  1.00  0.00     0.163 HD
BRANCH  14  16
HETATM   16  C6  UNL     1      -3.127   0.477   0.220  1.00  0.00     0.022 C 
HETATM   17  C7  UNL     1      -4.375  -0.365   0.299  1.00  0.00     0.037 C 
HETATM   18  C8  UNL     1      -3.123   1.176  -1.124  1.00  0.00     0.037 C 
HETATM   19  C9  UNL     1      -3.160   1.515   1.292  1.00  0.00     0.037 C 
ENDBRANCH  14  16
ENDBRANCH   1  12
BRANCH   1  20
HETATM   20  C10 UNL     1       0.730  -1.784  -0.795  1.00  0.00     0.009 C 
HETATM   21  C11 UNL     1       1.814  -2.774  -0.425  1.00  0.00     0.012 C 
HETATM   22  C12 UNL     1      -0.476  -2.532  -1.231  1.00  0.00     0.012 C 
ENDBRANCH   1  20
TORSDOF 6
