REMARK  5 active torsions:
REMARK  status: ('A' for Active; 'I' for Inactive)
REMARK    1  A    between atoms: C2_3  and  C3_4 
REMARK    2  A    between atoms: C3_4  and  C4_5 
REMARK    3  A    between atoms: C4_5  and  C5_6 
REMARK    4  A    between atoms: C5_6  and  C6_7 
REMARK    5  A    between atoms: N2_13  and  N3_15 
REMARK       I    between atoms: C12_17  and  N5_19 
ROOT
HETATM    1  C1  UNL     1      -4.263  -2.955  -0.345  1.00  0.00     0.241 C 
HETATM    2  N1  UNL     1      -3.243  -2.275   0.171  1.00  0.00    -0.390 NA
HETATM    3  C2  UNL     1      -2.397  -1.708   0.600  1.00  0.00     0.021 C 
ENDROOT
BRANCH   3   4
HETATM    4  C3  UNL     1      -1.294  -0.969   1.159  1.00  0.00     0.174 C 
BRANCH   4   5
HETATM    5  C4  UNL     1      -0.204  -0.781   0.166  1.00  0.00     0.021 C 
HETATM    6  N2  UNL     1       0.971  -1.259   0.368  1.00  0.00    -0.305 N 
ATOM      7  H2  UNL     1       1.175  -1.780   1.221  1.00  0.00     0.186 HD
BRANCH   5   8
HETATM    8  C5  UNL     1      -0.488  -0.027  -1.073  1.00  0.00     0.093 C 
BRANCH   8   9
HETATM    9  C6  UNL     1      -0.928   1.361  -0.695  1.00  0.00    -0.053 A 
HETATM   10  C7  UNL     1       0.033   2.301  -0.408  1.00  0.00     0.007 A 
HETATM   11  C8  UNL     1      -0.324   3.593  -0.060  1.00  0.00     0.001 A 
HETATM   12  C9  UNL     1      -1.661   3.955   0.003  1.00  0.00     0.000 A 
HETATM   13  C10 UNL     1      -2.635   3.001  -0.289  1.00  0.00     0.001 A 
HETATM   14  C11 UNL     1      -2.261   1.720  -0.633  1.00  0.00     0.007 A 
ENDBRANCH   8   9
ENDBRANCH   5   8
BRANCH   6  15
HETATM   15  N3  UNL     1       1.952  -1.063  -0.575  1.00  0.00    -0.274 N 
HETATM   16  C12 UNL     1       3.202  -0.977  -0.356  1.00  0.00     0.202 C 
HETATM   17  N4  UNL     1       4.090  -0.775  -1.426  1.00  0.00    -0.062 NA
HETATM   18  N5  UNL     1       3.698  -1.087   0.955  1.00  0.00    -0.368 N 
HETATM   19  C13 UNL     1       4.659  -0.197   1.546  1.00  0.00     0.148 C 
ATOM     20  H5  UNL     1       3.350  -1.855   1.529  1.00  0.00     0.161 HD
ATOM     21  H3  UNL     1       1.648  -0.978  -1.545  1.00  0.00     0.189 HD
ENDBRANCH   6  15
ENDBRANCH   4   5
ENDBRANCH   3   4
TORSDOF 5
