REMARK  7 active torsions:
REMARK  status: ('A' for Active; 'I' for Inactive)
REMARK    1  A    between atoms: C2_2  and  C4_4 
REMARK    2  A    between atoms: C4_4  and  C5_5 
REMARK    3  A    between atoms: C4_4  and  N2_13 
REMARK    4  A    between atoms: C5_5  and  C6_6 
REMARK    5  A    between atoms: C6_6  and  N1_7 
REMARK    6  A    between atoms: N2_13  and  O1_14 
REMARK    7  A    between atoms: N2_13  and  N3_16 
REMARK       I    between atoms: N3_16  and  C12_18 
ROOT
HETATM    1  C4  UNL     1      -1.175  -0.318  -0.685  1.00  0.00     0.138 C 
ENDROOT
BRANCH   1   2
HETATM    2  C2  UNL     1      -1.366  -1.425  -1.665  1.00  0.00     0.004 C 
HETATM    3  C1  UNL     1      -2.875  -1.729  -1.823  1.00  0.00     0.012 C 
HETATM    4  C3  UNL     1      -0.708  -2.742  -1.261  1.00  0.00     0.012 C 
ENDBRANCH   1   2
BRANCH   1   5
HETATM    5  C5  UNL     1       0.198   0.158  -0.428  1.00  0.00     0.050 C 
BRANCH   5   6
HETATM    6  C6  UNL     1       1.223  -0.748   0.104  1.00  0.00     0.130 C 
BRANCH   6   7
HETATM    7  N1  UNL     1       2.452   0.046   0.278  1.00  0.00    -0.366 N 
HETATM    8  C7  UNL     1       3.340   0.144  -0.721  1.00  0.00     0.090 A 
HETATM    9  C8  UNL     1       4.508   0.886  -0.585  1.00  0.00     0.017 A 
HETATM   10  C9  UNL     1       4.763   1.534   0.600  1.00  0.00     0.003 A 
HETATM   11  C10 UNL     1       3.852   1.433   1.624  1.00  0.00     0.017 A 
HETATM   12  C11 UNL     1       2.691   0.674   1.435  1.00  0.00     0.090 A 
ENDBRANCH   6   7
ENDBRANCH   5   6
ENDBRANCH   1   5
BRANCH   1  13
HETATM   13  N2  UNL     1      -1.926  -0.523   0.539  1.00  0.00    -0.194 N 
BRANCH  13  14
HETATM   14  O1  UNL     1      -2.581  -1.537   0.703  1.00  0.00    -0.272 OA
ATOM     15  H1  UNL     1      -3.073  -1.671   1.505  1.00  0.00     0.246 HD
ENDBRANCH  13  14
BRANCH  13  16
HETATM   16  N3  UNL     1      -1.879   0.446   1.518  1.00  0.00    -0.252 N 
HETATM   17  C12 UNL     1      -2.789   1.535   1.441  1.00  0.00     0.202 C 
HETATM   18  N4  UNL     1      -3.990   1.391   0.958  1.00  0.00    -0.372 N 
HETATM   19  N5  UNL     1      -2.420   2.818   1.887  1.00  0.00    -0.062 NA
ATOM     20  H42 UNL     1      -4.257   0.461   0.635  1.00  0.00     0.158 HD
ATOM     21  H41 UNL     1      -4.643   2.173   0.903  1.00  0.00     0.158 HD
ATOM     22  H3  UNL     1      -1.206   0.383   2.281  1.00  0.00     0.192 HD
ENDBRANCH  13  16
ENDBRANCH   1  13
TORSDOF 7
