REMARK  5 active torsions:
REMARK  status: ('A' for Active; 'I' for Inactive)
REMARK    1  A    between atoms: N1_2  and  C2_3 
REMARK    2  A    between atoms: C2_3  and  C3_4 
REMARK    3  A    between atoms: C6_7  and  N2_8 
REMARK       I    between atoms: N2_8  and  C7_10 
REMARK    4  A    between atoms: C8_13  and  C9_14 
REMARK    5  A    between atoms: C9_14  and  O2_15 
ROOT
HETATM    1  C3  UNL     1       1.057   0.441  -0.238  1.00  0.00     0.173 C 
HETATM    2  C4  UNL     1       0.523  -0.375  -1.391  1.00  0.00     0.005 C 
HETATM    3  C5  UNL     1      -0.777  -0.667  -1.279  1.00  0.00    -0.001 C 
HETATM    4  C6  UNL     1      -1.420  -0.115  -0.026  1.00  0.00     0.139 C 
HETATM    5  C8  UNL     1      -0.988   1.297   0.206  1.00  0.00     0.172 C 
HETATM    6  O3  UNL     1       0.287   1.601  -0.245  1.00  0.00    -0.370 OA
ENDROOT
BRANCH   1   7
HETATM    7  C2  UNL     1       2.520   0.757  -0.450  1.00  0.00     0.307 C 
BRANCH   7   8
HETATM    8  N1  UNL     1       3.276  -0.460  -0.436  1.00  0.00     0.048 N 
HETATM    9  C1  UNL     1       3.888  -0.797  -1.712  1.00  0.00     0.310 C 
HETATM   10  C10 UNL     1       4.031  -0.747   0.708  1.00  0.00     0.342 A 
HETATM   11  N4  UNL     1       2.984  -1.495   0.360  1.00  0.00    -0.197 N 
ATOM     12  H4  UNL     1       2.383  -2.294   0.560  1.00  0.00     0.195 HD
ENDBRANCH   7   8
ENDBRANCH   1   7
BRANCH   5  13
HETATM   13  C9  UNL     1      -1.014   1.679   1.687  1.00  0.00     0.198 C 
BRANCH  13  14
HETATM   14  O2  UNL     1      -2.232   1.433   2.275  1.00  0.00    -0.398 OA
ATOM     15  H2  UNL     1      -2.248   1.670   3.195  1.00  0.00     0.209 HD
ENDBRANCH  13  14
ENDBRANCH   5  13
BRANCH   4  16
HETATM   16  N2  UNL     1      -2.840  -0.269  -0.146  1.00  0.00    -0.335 N 
HETATM   17  C7  UNL     1      -3.529  -1.158   0.698  1.00  0.00     0.329 C 
HETATM   18  N3  UNL     1      -4.932  -1.367   0.646  1.00  0.00    -0.040 NA
HETATM   19  O1  UNL     1      -2.892  -1.818   1.558  1.00  0.00    -0.251 OA
ATOM     20  H2  UNL     1      -3.352   0.268  -0.846  1.00  0.00     0.164 HD
ENDBRANCH   4  16
TORSDOF 5
