REMARK  12 active torsions:
REMARK  status: ('A' for Active; 'I' for Inactive)
REMARK    1  A    between atoms: C2_2  and  C3_3 
REMARK    2  A    between atoms: C3_3  and  C4_4 
REMARK    3  A    between atoms: C4_4  and  C5_5 
REMARK    4  A    between atoms: C5_5  and  O1_6 
REMARK    5  A    between atoms: O1_6  and  C6_7 
REMARK    6  A    between atoms: C7_9  and  C8_10 
REMARK    7  A    between atoms: C10_12  and  C11_13 
REMARK    8  A    between atoms: C15_17  and  C17_19 
REMARK    9  A    between atoms: C27_31  and  C29_33 
REMARK   10  A    between atoms: C40_44  and  O4_45 
REMARK   11  A    between atoms: C41_47  and  O5_48 
REMARK   12  A    between atoms: C42_50  and  O6_51 
ROOT
HETATM    1  C11 UNL     1       0.282  -1.935  -0.559  1.00  0.00    -0.031 C 
HETATM    2  C12 UNL     1       0.805  -3.037   0.413  1.00  0.00     0.016 C 
HETATM    3  C13 UNL     1       0.036  -2.629  -1.856  1.00  0.00     0.011 C 
HETATM    4  C14 UNL     1      -1.451  -2.392  -2.121  1.00  0.00     0.011 C 
HETATM    5  C15 UNL     1      -2.001  -2.501  -0.698  1.00  0.00    -0.030 C 
HETATM    6  C16 UNL     1      -1.887  -3.939  -0.345  1.00  0.00     0.016 C 
HETATM    7  C29 UNL     1      -3.320   1.118   1.729  1.00  0.00    -0.019 C 
HETATM    8  C30 UNL     1      -3.617   0.812   3.194  1.00  0.00     0.018 C 
HETATM    9  C31 UNL     1      -2.674   2.468   1.748  1.00  0.00    -0.004 C 
HETATM   10  C32 UNL     1      -3.115   3.472   2.754  1.00  0.00     0.011 C 
HETATM   11  C33 UNL     1      -1.472   1.608   2.239  1.00  0.00    -0.004 C 
HETATM   12  C34 UNL     1      -0.132   2.174   1.882  1.00  0.00     0.011 C 
HETATM   13  C35 UNL     1      -2.078   0.649   1.184  1.00  0.00    -0.019 A 
HETATM   14  C36 UNL     1      -1.438   0.764  -0.075  1.00  0.00     0.022 A 
HETATM   15  C37 UNL     1      -1.586  -0.455   0.641  1.00  0.00    -0.021 A 
HETATM   16  C38 UNL     1      -0.953  -1.402   1.459  1.00  0.00     0.023 A 
HETATM   17  C39 UNL     1      -1.057  -1.542   0.025  1.00  0.00    -0.016 A 
ENDROOT
BRANCH   1  18
HETATM   18  C10 UNL     1       1.389  -0.969  -0.575  1.00  0.00     0.002 A 
HETATM   19  C8  UNL     1       1.795  -0.014  -1.607  1.00  0.00     0.022 A 
HETATM   20  C9  UNL     1       2.525  -1.342  -1.519  1.00  0.00     0.013 A 
BRANCH  19  21
HETATM   21  C7  UNL     1       2.809   1.075  -1.249  1.00  0.00     0.160 C 
HETATM   22  O2  UNL     1       3.996   0.769  -2.025  1.00  0.00    -0.350 OA
HETATM   23  C6  UNL     1       5.050   1.257  -1.243  1.00  0.00     0.291 C 
HETATM   24  C42 UNL     1       4.767   2.604  -0.675  1.00  0.00     0.204 C 
HETATM   25  C41 UNL     1       3.626   3.346  -1.292  1.00  0.00     0.183 C 
HETATM   26  C40 UNL     1       2.476   2.444  -1.732  1.00  0.00     0.178 C 
BRANCH  23  27
HETATM   27  O1  UNL     1       6.199   1.314  -2.008  1.00  0.00    -0.359 OA
BRANCH  27  28
HETATM   28  C5  UNL     1       7.214   0.486  -1.624  1.00  0.00     0.171 C 
BRANCH  28  29
HETATM   29  C4  UNL     1       7.766   0.702  -0.259  1.00  0.00     0.026 C 
BRANCH  29  30
HETATM   30  C3  UNL     1       8.879  -0.343  -0.065  1.00  0.00     0.002 C 
BRANCH  30  31
HETATM   31  C2  UNL     1       9.431  -0.128   1.325  1.00  0.00    -0.004 C 
HETATM   32  C1  UNL     1      10.536  -1.100   1.642  1.00  0.00     0.005 C 
ENDBRANCH  30  31
ENDBRANCH  29  30
ENDBRANCH  28  29
ENDBRANCH  27  28
ENDBRANCH  23  27
BRANCH  24  33
HETATM   33  O6  UNL     1       5.939   3.387  -0.671  1.00  0.00    -0.388 OA
ATOM     34  H6  UNL     1       5.758   4.246  -0.309  1.00  0.00     0.210 HD
ENDBRANCH  24  33
BRANCH  25  35
HETATM   35  O5  UNL     1       4.090   4.150  -2.330  1.00  0.00    -0.390 OA
ATOM     36  H5  UNL     1       4.806   4.711  -2.056  1.00  0.00     0.210 HD
ENDBRANCH  25  35
BRANCH  26  37
HETATM   37  O4  UNL     1       1.324   3.022  -1.309  1.00  0.00    -0.390 OA
ATOM     38  H4  UNL     1       1.112   3.895  -1.617  1.00  0.00     0.210 HD
ENDBRANCH  26  37
ENDBRANCH  19  21
ENDBRANCH   1  18
BRANCH   5  39
HETATM   39  C17 UNL     1      -3.416  -2.105  -0.624  1.00  0.00     0.003 C 
HETATM   40  C18 UNL     1      -4.010  -2.700   0.623  1.00  0.00     0.011 C 
HETATM   41  C19 UNL     1      -4.576  -1.660   1.548  1.00  0.00     0.054 C 
HETATM   42  C20 UNL     1      -5.131  -0.424   1.038  1.00  0.00     0.005 C 
HETATM   43  N1  UNL     1      -5.798  -0.716  -0.238  1.00  0.00    -0.303 N 
HETATM   44  C27 UNL     1      -4.585   0.918   0.919  1.00  0.00     0.004 C 
HETATM   45  C21 UNL     1      -5.738  -1.717  -1.218  1.00  0.00     0.077 C 
HETATM   46  C24 UNL     1      -6.767   0.349  -0.448  1.00  0.00     0.227 C 
HETATM   47  C22 UNL     1      -4.401  -2.244  -1.694  1.00  0.00     0.025 C 
HETATM   48  C23 UNL     1      -4.148  -1.611  -3.016  1.00  0.00     0.016 C 
HETATM   49  O3  UNL     1      -7.351   0.360  -1.557  1.00  0.00    -0.273 OA
HETATM   50  C25 UNL     1      -6.985   1.321   0.649  1.00  0.00     0.105 C 
HETATM   51  C26 UNL     1      -5.759   1.802   1.437  1.00  0.00     0.025 C 
HETATM   52  C28 UNL     1      -4.436   1.638  -0.404  1.00  0.00     0.022 C 
ENDBRANCH   5  39
TORSDOF 12
