REMARK  9 active torsions:
REMARK  status: ('A' for Active; 'I' for Inactive)
REMARK    1  A    between atoms: N1_2  and  S1_4 
REMARK    2  A    between atoms: S1_4  and  O2_7 
REMARK    3  A    between atoms: O2_7  and  C3_8 
REMARK    4  A    between atoms: C16_21  and  C17_22 
REMARK    5  A    between atoms: C23_29  and  C24_30 
REMARK       I    between atoms: C24_30  and  N2_32 
REMARK    6  A    between atoms: N2_32  and  C25_34 
REMARK    7  A    between atoms: C25_34  and  C27_36 
REMARK    8  A    between atoms: C27_36  and  N3_37 
REMARK    9  A    between atoms: C36_47  and  O5_48 
ROOT
HETATM    1  C3  UNL     1      -3.818  -1.892   0.088  1.00  0.00     0.152 C 
HETATM    2  C4  UNL     1      -2.329  -1.711   0.130  1.00  0.00     0.044 C 
HETATM    3  C5  UNL     1      -1.772  -0.346   0.501  1.00  0.00    -0.030 C 
HETATM    4  C6  UNL     1      -1.334  -0.459   1.928  1.00  0.00     0.016 C 
HETATM    5  C7  UNL     1      -2.948   0.560   0.411  1.00  0.00    -0.001 C 
HETATM    6  C8  UNL     1      -2.522   1.920   0.780  1.00  0.00     0.006 C 
HETATM    7  C9  UNL     1      -1.054   2.169   0.588  1.00  0.00     0.011 C 
HETATM    8  C10 UNL     1      -0.463   1.498  -0.670  1.00  0.00    -0.028 C 
HETATM    9  C11 UNL     1      -1.378   1.987  -1.806  1.00  0.00     0.016 C 
HETATM   10  C12 UNL     1       0.772   2.237  -0.957  1.00  0.00    -0.032 C 
HETATM   11  C13 UNL     1       1.477   1.972  -2.276  1.00  0.00     0.016 C 
HETATM   12  C14 UNL     1       0.337   3.699  -1.207  1.00  0.00     0.011 C 
HETATM   13  C15 UNL     1       1.141   4.602  -0.413  1.00  0.00     0.006 C 
HETATM   14  C16 UNL     1       1.638   3.786   0.767  1.00  0.00    -0.006 C 
HETATM   15  C20 UNL     1       1.835   2.486   0.042  1.00  0.00     0.001 C 
HETATM   16  C21 UNL     1       2.348   1.363   0.864  1.00  0.00     0.041 C 
HETATM   17  C22 UNL     1       3.181   0.348   0.180  1.00  0.00     0.168 A 
HETATM   18  O3  UNL     1       3.168  -0.858   1.091  1.00  0.00    -0.359 OA
HETATM   19  C23 UNL     1       2.939  -0.908  -0.246  1.00  0.00     0.167 A 
HETATM   20  C29 UNL     1       1.578  -1.357  -0.807  1.00  0.00     0.052 C 
HETATM   21  C30 UNL     1       0.426  -0.889   0.029  1.00  0.00     0.014 C 
HETATM   22  C31 UNL     1      -0.592   0.037  -0.450  1.00  0.00    -0.028 C 
HETATM   23  C32 UNL     1      -0.870  -0.568  -1.849  1.00  0.00     0.016 C 
HETATM   24  C33 UNL     1      -4.191   0.178   1.057  1.00  0.00     0.003 C 
HETATM   25  C34 UNL     1      -4.763   0.713   2.281  1.00  0.00     0.008 C 
HETATM   26  C35 UNL     1      -6.109  -0.047   2.299  1.00  0.00     0.033 C 
HETATM   27  C36 UNL     1      -6.011  -1.131   1.196  1.00  0.00     0.129 C 
HETATM   28  C37 UNL     1      -4.502  -1.283   1.221  1.00  0.00     0.013 C 
HETATM   29  C38 UNL     1      -4.317  -1.953   2.532  1.00  0.00     0.021 C 
ENDROOT
BRANCH  19  30
HETATM   30  C24 UNL     1       4.022  -1.634  -0.992  1.00  0.00     0.255 C 
HETATM   31  O4  UNL     1       3.983  -1.759  -2.239  1.00  0.00    -0.270 OA
HETATM   32  N2  UNL     1       5.116  -2.196  -0.304  1.00  0.00    -0.353 N 
ATOM     33  H2  UNL     1       5.148  -2.095   0.710  1.00  0.00     0.163 HD
BRANCH  32  34
HETATM   34  C25 UNL     1       6.198  -2.909  -0.951  1.00  0.00     0.097 C 
HETATM   35  C26 UNL     1       6.281  -4.355  -0.615  1.00  0.00     0.034 C 
BRANCH  34  36
HETATM   36  C27 UNL     1       7.486  -2.165  -0.765  1.00  0.00     0.138 C 
BRANCH  36  37
HETATM   37  N3  UNL     1       7.909  -1.950   0.569  1.00  0.00    -0.423 N 
HETATM   38  C28 UNL     1       8.331  -3.080   1.320  1.00  0.00     0.139 C 
ATOM     39  H3  UNL     1       7.911  -1.015   0.977  1.00  0.00     0.152 HD
ENDBRANCH  36  37
ENDBRANCH  34  36
ENDBRANCH  32  34
ENDBRANCH  19  30
BRANCH  14  40
HETATM   40  C17 UNL     1       2.949   4.512   1.146  1.00  0.00    -0.018 C 
HETATM   41  C18 UNL     1       2.556   6.005   1.422  1.00  0.00     0.010 C 
HETATM   42  C19 UNL     1       3.494   4.100   2.495  1.00  0.00     0.010 C 
ENDBRANCH  14  40
BRANCH   1  43
HETATM   43  O2  UNL     1      -4.440  -1.584  -1.095  1.00  0.00    -0.285 OA
BRANCH  43  44
HETATM   44  S1  UNL     1      -5.036  -2.889  -1.943  1.00  0.00     0.136 S 
HETATM   45  C2  UNL     1      -3.731  -3.745  -2.816  1.00  0.00     0.168 C 
HETATM   46  O1  UNL     1      -5.764  -3.821  -1.021  1.00  0.00    -0.222 OA
BRANCH  44  47
HETATM   47  N1  UNL     1      -6.048  -2.421  -3.024  1.00  0.00    -0.336 N 
HETATM   48  C1  UNL     1      -7.220  -3.224  -3.224  1.00  0.00     0.158 C 
ATOM     49  H1  UNL     1      -5.886  -1.575  -3.571  1.00  0.00     0.170 HD
ENDBRANCH  44  47
ENDBRANCH  43  44
ENDBRANCH   1  43
BRANCH  27  50
HETATM   50  O5  UNL     1      -6.534  -0.692   0.019  1.00  0.00    -0.395 OA
ATOM     51  H5  UNL     1      -6.474  -1.357  -0.657  1.00  0.00     0.210 HD
ENDBRANCH  27  50
TORSDOF 9
