REMARK  5 active torsions:
REMARK  status: ('A' for Active; 'I' for Inactive)
REMARK    1  A    between atoms: N3_4  and  O1_6 
REMARK    2  A    between atoms: O1_6  and  C2_7 
REMARK    3  A    between atoms: C2_7  and  C3_8 
REMARK    4  A    between atoms: C3_8  and  N4_9 
REMARK    5  A    between atoms: N4_9  and  C4_11 
ROOT
HETATM    1  C3  UNL     1       0.603   0.104   0.985  1.00  0.00     0.143 C 
ENDROOT
BRANCH   1   2
HETATM    2  C2  UNL     1      -0.879   0.371   1.133  1.00  0.00     0.220 C 
BRANCH   2   3
HETATM    3  O1  UNL     1      -1.613  -0.785   0.726  1.00  0.00    -0.277 OA
BRANCH   3   4
HETATM    4  N3  UNL     1      -2.970  -0.786   0.771  1.00  0.00    -0.241 N 
HETATM    5  C1  UNL     1      -3.742  -0.122   0.008  1.00  0.00     0.221 C 
HETATM    6  N1  UNL     1      -3.278   0.737  -1.025  1.00  0.00    -0.065 NA
HETATM    7  N2  UNL     1      -5.140  -0.235   0.188  1.00  0.00    -0.065 NA
ATOM      8  H3  UNL     1      -3.410  -1.372   1.480  1.00  0.00     0.196 HD
ENDBRANCH   3   4
ENDBRANCH   2   3
ENDBRANCH   1   2
BRANCH   1   9
HETATM    9  N4  UNL     1       0.933  -0.195  -0.366  1.00  0.00    -0.412 N 
ATOM     10  H4  UNL     1       0.216  -0.208  -1.091  1.00  0.00     0.153 HD
BRANCH   9  11
HETATM   11  C4  UNL     1       2.266  -0.470  -0.670  1.00  0.00     0.127 C 
HETATM   12  C5  UNL     1       3.298   0.618  -0.447  1.00  0.00     0.258 C 
HETATM   13  N5  UNL     1       4.257  -0.496  -0.320  1.00  0.00    -0.071 N 
HETATM   14  C6  UNL     1       3.127  -1.206   0.311  1.00  0.00     0.258 C 
ATOM     15  H52 UNL     1       4.765  -0.875  -1.119  1.00  0.00     0.277 HD
ATOM     16  H51 UNL     1       5.162  -0.390   0.138  1.00  0.00     0.277 HD
ENDBRANCH   9  11
ENDBRANCH   1   9
TORSDOF 5
