REMARK  6 active torsions:
REMARK  status: ('A' for Active; 'I' for Inactive)
REMARK    1  A    between atoms: O1_1  and  N1_3 
REMARK    2  A    between atoms: C1_5  and  C2_6 
REMARK    3  A    between atoms: C1_5  and  C10_16 
REMARK    4  A    between atoms: C2_6  and  N2_7 
REMARK    5  A    between atoms: N2_7  and  C3_9 
REMARK    6  A    between atoms: C3_9  and  C4_10 
ROOT
HETATM    1  C2  UNL     1       2.308  -0.474  -0.065  1.00  0.00     0.114 C 
ENDROOT
BRANCH   1   2
HETATM    2  C1  UNL     1       3.114   0.742  -0.140  1.00  0.00     0.100 C 
HETATM    3  N1  UNL     1       2.963   1.558  -1.116  1.00  0.00    -0.268 N 
ATOM      4  H1  UNL     1       3.533   2.403  -1.153  1.00  0.00     0.194 HD
BRANCH   3   5
HETATM    5  O1  UNL     1       2.055   1.321  -2.107  1.00  0.00    -0.290 OA
ATOM      6  H1  UNL     1       1.943   1.926  -2.831  1.00  0.00     0.244 HD
ENDBRANCH   3   5
BRANCH   2   7
HETATM    7  C10 UNL     1       4.123   1.062   0.894  1.00  0.00     0.234 C 
HETATM    8 CL1  UNL     1       3.450   1.172   2.530  1.00  0.00    -0.077 Cl
HETATM    9 CL2  UNL     1       4.979   2.526   0.425  1.00  0.00    -0.077 Cl
HETATM   10 CL3  UNL     1       5.286  -0.295   0.906  1.00  0.00    -0.077 Cl
ENDBRANCH   2   7
ENDBRANCH   1   2
BRANCH   1  11
HETATM   11  N2  UNL     1       1.450  -0.611   1.044  1.00  0.00    -0.397 N 
ATOM     12  H2  UNL     1       1.638  -1.313   1.760  1.00  0.00     0.158 HD
BRANCH  11  13
HETATM   13  C3  UNL     1       0.325   0.238   1.150  1.00  0.00     0.123 C 
BRANCH  13  14
HETATM   14  C4  UNL     1      -0.756  -0.045   0.093  1.00  0.00     0.003 C 
HETATM   15  C5  UNL     1      -1.281  -1.422   0.187  1.00  0.00     0.006 C 
HETATM   16  C6  UNL     1      -2.695  -1.652  -0.127  1.00  0.00     0.000 C 
HETATM   17  C7  UNL     1      -3.540  -0.484  -0.444  1.00  0.00     0.000 C 
HETATM   18  C8  UNL     1      -2.812   0.752  -0.895  1.00  0.00     0.000 C 
HETATM   19  C9  UNL     1      -1.785   1.038   0.196  1.00  0.00     0.006 C 
ENDBRANCH  13  14
ENDBRANCH  11  13
ENDBRANCH   1  11
TORSDOF 6
