REMARK  14 active torsions:
REMARK  status: ('A' for Active; 'I' for Inactive)
REMARK    1  A    between atoms: C2_2  and  C3_3 
REMARK    2  A    between atoms: C3_3  and  C4_4 
REMARK    3  A    between atoms: C4_4  and  C5_5 
REMARK    4  A    between atoms: C5_5  and  C6_6 
REMARK    5  A    between atoms: C6_6  and  C7_7 
REMARK    6  A    between atoms: C7_7  and  C8_8 
REMARK       I    between atoms: C8_8  and  N1_10 
REMARK    7  A    between atoms: N1_10  and  C9_11 
REMARK    8  A    between atoms: C9_11  and  C10_12 
REMARK    9  A    between atoms: C10_12  and  C11_13 
REMARK   10  A    between atoms: C11_13  and  C12_14 
REMARK   11  A    between atoms: C12_14  and  C13_15 
REMARK   12  A    between atoms: C13_15  and  C14_16 
REMARK   13  A    between atoms: C14_16  and  N6_35 
REMARK       I    between atoms: N2_17  and  C15_19 
REMARK       I    between atoms: C15_19  and  N5_31 
REMARK       I    between atoms: N3_20  and  C16_22 
REMARK       I    between atoms: C16_22  and  N4_24 
REMARK   14  A    between atoms: N5_31  and  C23_33 
REMARK       I    between atoms: N6_35  and  C25_37 
ROOT
HETATM    1  C14 UNL     1      -1.885   0.212   0.106  1.00  0.00     0.099 C 
HETATM    2  N2  UNL     1      -2.977   0.805   0.177  1.00  0.00    -0.180 N 
ATOM      3  H2  UNL     1      -3.379   0.438   1.040  1.00  0.00     0.185 HD
HETATM    4  C15 UNL     1      -3.901   1.642  -0.242  1.00  0.00     0.683 C 
HETATM    5  N3  UNL     1      -5.064   1.176  -0.678  1.00  0.00    -0.141 N 
ATOM      6  H3  UNL     1      -5.786   1.819  -1.005  1.00  0.00     0.189 HD
HETATM    7  C16 UNL     1      -5.291  -0.196  -0.686  1.00  0.00     0.337 C 
HETATM    8  O2  UNL     1      -4.394  -0.899  -1.290  1.00  0.00    -0.246 OA
HETATM    9  N4  UNL     1      -6.395  -0.857  -0.106  1.00  0.00    -0.325 N 
HETATM   10  C17 UNL     1      -6.670  -2.273  -0.145  1.00  0.00     0.137 C 
HETATM   11  C18 UNL     1      -8.085  -2.385   0.389  1.00  0.00     0.028 C 
HETATM   12  C19 UNL     1      -7.990  -2.168   1.839  1.00  0.00    -0.022 C 
HETATM   13  C20 UNL     1      -7.615  -0.898   1.995  1.00  0.00    -0.005 C 
HETATM   14  C21 UNL     1      -7.460  -0.260   0.648  1.00  0.00     0.112 C 
HETATM   15  C22 UNL     1      -8.627  -1.005  -0.040  1.00  0.00     0.039 C 
HETATM   16  N5  UNL     1      -3.862   3.083  -0.309  1.00  0.00    -0.226 N 
ATOM     17  H5  UNL     1      -3.257   3.614   0.317  1.00  0.00     0.177 HD
ENDROOT
BRANCH   1  18
HETATM   18  C13 UNL     1      -0.933   0.451  -1.003  1.00  0.00     0.077 C 
BRANCH  18  19
HETATM   19  C12 UNL     1       0.386   0.912  -0.556  1.00  0.00     0.007 C 
BRANCH  19  20
HETATM   20  C11 UNL     1       1.291   0.043   0.208  1.00  0.00     0.003 C 
BRANCH  20  21
HETATM   21  C10 UNL     1       1.811  -1.167  -0.543  1.00  0.00     0.033 C 
BRANCH  21  22
HETATM   22  C9  UNL     1       2.684  -0.660  -1.745  1.00  0.00     0.221 C 
BRANCH  22  23
HETATM   23  N1  UNL     1       3.782   0.013  -1.329  1.00  0.00    -0.415 NA
HETATM   24  C8  UNL     1       4.880   0.687  -0.921  1.00  0.00     0.289 C 
HETATM   25  O1  UNL     1       5.670   1.329  -1.657  1.00  0.00    -0.257 OA
BRANCH  24  26
HETATM   26  C7  UNL     1       5.275   0.718   0.535  1.00  0.00     0.146 C 
BRANCH  26  27
HETATM   27  C6  UNL     1       6.278   1.705   0.896  1.00  0.00    -0.016 C 
BRANCH  27  28
HETATM   28  C5  UNL     1       7.604   1.876   0.361  1.00  0.00    -0.004 C 
BRANCH  28  29
HETATM   29  C4  UNL     1       8.732   0.974   0.333  1.00  0.00    -0.004 C 
BRANCH  29  30
HETATM   30  C3  UNL     1       8.861  -0.274  -0.401  1.00  0.00    -0.027 C 
BRANCH  30  31
HETATM   31  C2  UNL     1       8.045  -1.472  -0.200  1.00  0.00     0.022 C 
HETATM   32  C1  UNL     1       8.079  -2.069   1.192  1.00  0.00     0.009 C 
ENDBRANCH  30  31
ENDBRANCH  29  30
ENDBRANCH  28  29
ENDBRANCH  27  28
ENDBRANCH  26  27
ENDBRANCH  24  26
ENDBRANCH  22  23
ENDBRANCH  21  22
ENDBRANCH  20  21
ENDBRANCH  19  20
ENDBRANCH  18  19
ENDBRANCH   1  18
BRANCH   1  33
HETATM   33  N6  UNL     1      -1.617  -0.748   1.131  1.00  0.00    -0.320 N 
HETATM   34  C25 UNL     1      -1.932  -2.116   1.069  1.00  0.00     0.187 C 
HETATM   35  N7  UNL     1      -1.522  -2.971   0.242  1.00  0.00    -0.373 N 
HETATM   36  N8  UNL     1      -2.831  -2.613   2.088  1.00  0.00    -0.064 NA
ATOM     37  H72 UNL     1      -0.888  -2.621  -0.476  1.00  0.00     0.158 HD
ATOM     38  H71 UNL     1      -1.751  -3.964   0.197  1.00  0.00     0.158 HD
ATOM     39  H6  UNL     1      -1.159  -0.412   1.978  1.00  0.00     0.169 HD
ENDBRANCH   1  33
BRANCH  16  40
HETATM   40  C23 UNL     1      -4.694   3.763  -1.278  1.00  0.00     0.133 C 
HETATM   41  C24 UNL     1      -6.155   3.625  -0.926  1.00  0.00     0.027 C 
ENDBRANCH  16  40
TORSDOF 14
