REMARK  15 active torsions:
REMARK  status: ('A' for Active; 'I' for Inactive)
REMARK    1  A    between atoms: N1_2  and  C3_4 
REMARK    2  A    between atoms: N1_2  and  C18_33 
REMARK    3  A    between atoms: C3_4  and  C4_5 
REMARK    4  A    between atoms: C4_5  and  C5_6 
REMARK    5  A    between atoms: C5_6  and  N2_7 
REMARK    6  A    between atoms: N2_7  and  C6_9 
REMARK    7  A    between atoms: N4_15  and  C10_17 
REMARK    8  A    between atoms: C10_17  and  C11_18 
REMARK    9  A    between atoms: C11_18  and  C12_19 
REMARK   10  A    between atoms: C12_19  and  C13_20 
REMARK   11  A    between atoms: C13_20  and  C14_21 
REMARK   12  A    between atoms: C14_21  and  C15_22 
REMARK   13  A    between atoms: C15_22  and  C16_23 
REMARK   14  A    between atoms: C16_23  and  N5_24 
REMARK       I    between atoms: N5_24  and  C17_26 
REMARK   15  A    between atoms: C18_33  and  C19_34 
ROOT
HETATM    1  C6  UNL     1       0.626  -1.250  -0.393  1.00  0.00     0.679 A 
HETATM    2  N3  UNL     1      -0.197  -2.092   0.238  1.00  0.00    -0.202 N 
ATOM      3  H3  UNL     1      -1.202  -2.046   0.068  1.00  0.00     0.183 HD
HETATM    4  C7  UNL     1       0.299  -2.999   1.096  1.00  0.00     0.110 A 
HETATM    5  C8  UNL     1       1.675  -3.029   1.300  1.00  0.00     0.066 A 
HETATM    6  C9  UNL     1       2.540  -2.170   0.660  1.00  0.00     0.118 A 
HETATM    7  N4  UNL     1       3.792  -2.150   0.819  1.00  0.00    -0.376 N 
ATOM      8  H4  UNL     1       4.302  -1.456   0.272  1.00  0.00     0.161 HD
HETATM    9  N8  UNL     1       1.954  -1.279  -0.197  1.00  0.00    -0.177 N 
ATOM     10  H8  UNL     1       2.543  -0.617  -0.702  1.00  0.00     0.185 HD
ENDROOT
BRANCH   1  11
HETATM   11  N2  UNL     1       0.164  -0.369  -1.214  1.00  0.00    -0.226 N 
ATOM     12  H2  UNL     1       0.829   0.253  -1.674  1.00  0.00     0.177 HD
BRANCH  11  13
HETATM   13  C5  UNL     1      -1.230  -0.210  -1.520  1.00  0.00     0.139 C 
BRANCH  13  14
HETATM   14  C4  UNL     1      -1.908   0.675  -0.482  1.00  0.00     0.048 C 
BRANCH  14  15
HETATM   15  C3  UNL     1      -3.381   0.864  -0.781  1.00  0.00     0.243 C 
BRANCH  15  16
HETATM   16  N1  UNL     1      -3.968   1.688   0.206  1.00  0.00    -0.054 N 
HETATM   17  C1  UNL     1      -3.899   1.082   1.549  1.00  0.00     0.277 C 
HETATM   18  C2  UNL     1      -3.024   2.833   0.322  1.00  0.00     0.277 C 
BRANCH  16  19
HETATM   19  C18 UNL     1      -5.206   2.298  -0.021  1.00  0.00     0.204 C 
BRANCH  19  20
HETATM   20  C19 UNL     1      -6.451   1.585  -0.256  1.00  0.00    -0.056 C 
HETATM   21  C20 UNL     1      -6.944   0.648   0.800  1.00  0.00     0.040 C 
HETATM   22  C21 UNL     1      -8.205  -0.067   0.380  1.00  0.00    -0.010 C 
HETATM   23  C22 UNL     1      -9.241   0.858  -0.168  1.00  0.00     0.005 C 
HETATM   24  C25 UNL     1      -7.802  -0.924  -0.831  1.00  0.00     0.010 C 
HETATM   25  C23 UNL     1      -9.015   0.918  -1.658  1.00  0.00     0.005 C 
HETATM   26  C24 UNL     1      -7.730   0.152  -1.881  1.00  0.00    -0.010 C 
HETATM   27  C26 UNL     1      -6.585   1.108  -1.659  1.00  0.00     0.040 C 
ENDBRANCH  19  20
ENDBRANCH  16  19
ENDBRANCH  15  16
ENDBRANCH  14  15
ENDBRANCH  13  14
ENDBRANCH  11  13
ENDBRANCH   1  11
BRANCH   7  28
HETATM   28  C10 UNL     1       4.576  -2.975   1.665  1.00  0.00     0.121 C 
BRANCH  28  29
HETATM   29  C11 UNL     1       5.550  -2.103   2.444  1.00  0.00     0.020 C 
BRANCH  29  30
HETATM   30  C12 UNL     1       6.483  -1.324   1.577  1.00  0.00     0.002 C 
BRANCH  30  31
HETATM   31  C13 UNL     1       7.309  -2.255   0.742  1.00  0.00     0.000 C 
BRANCH  31  32
HETATM   32  C14 UNL     1       8.272  -1.481  -0.147  1.00  0.00     0.002 C 
BRANCH  32  33
HETATM   33  C15 UNL     1       7.535  -0.550  -1.093  1.00  0.00     0.020 C 
BRANCH  33  34
HETATM   34  C16 UNL     1       8.589   0.156  -1.911  1.00  0.00     0.122 C 
BRANCH  34  35
HETATM   35  N5  UNL     1       9.442   0.913  -1.031  1.00  0.00    -0.365 N 
HETATM   36  C17 UNL     1       8.962   2.049  -0.358  1.00  0.00     0.181 C 
HETATM   37  N6  UNL     1       8.579   2.025   0.862  1.00  0.00    -0.374 N 
HETATM   38  N7  UNL     1       8.895   3.286  -1.048  1.00  0.00    -0.064 NA
ATOM     39  H62 UNL     1       8.627   1.135   1.358  1.00  0.00     0.158 HD
ATOM     40  H61 UNL     1       8.231   2.850   1.351  1.00  0.00     0.158 HD
ATOM     41  H5  UNL     1      10.409   0.620  -0.894  1.00  0.00     0.162 HD
ENDBRANCH  34  35
ENDBRANCH  33  34
ENDBRANCH  32  33
ENDBRANCH  31  32
ENDBRANCH  30  31
ENDBRANCH  29  30
ENDBRANCH  28  29
ENDBRANCH   7  28
TORSDOF 15
