REMARK  1 active torsions:
REMARK  status: ('A' for Active; 'I' for Inactive)
REMARK    1  A    between atoms: C2_2  and  C3_4 
ROOT
HETATM    1  C3  UNL     1       0.005   0.192   0.540  1.00  0.00     0.268 A 
HETATM    2  C4  UNL     1       1.032   1.157   0.789  1.00  0.00     0.309 A 
HETATM    3  N1  UNL     1       1.119   0.347  -0.374  1.00  0.00     0.094 N 
HETATM    4  C5  UNL     1       1.970  -0.800  -0.452  1.00  0.00     0.310 C 
ENDROOT
BRANCH   1   5
HETATM    5  C2  UNL     1      -1.338   0.502  -0.074  1.00  0.00     0.113 C 
HETATM    6  C1  UNL     1      -2.190  -0.743  -0.200  1.00  0.00     0.029 C 
HETATM    7 CL1  UNL     1      -2.193   1.767   0.873  1.00  0.00    -0.123 Cl
ENDBRANCH   1   5
TORSDOF 1
