REMARK  1 active torsions:
REMARK  status: ('A' for Active; 'I' for Inactive)
REMARK       I    between atoms: N1_3  and  C3_5 
REMARK    1  A    between atoms: C3_5  and  C4_7 
ROOT
HETATM    1  C1  UNL     1       4.295  -0.455   0.067  1.00  0.00     0.037 C 
HETATM    2  C2  UNL     1       3.150  -0.136   0.307  1.00  0.00     0.002 C 
HETATM    3  N1  UNL     1       1.824   0.211   0.587  1.00  0.00    -0.286 N 
ATOM      4  H1  UNL     1       1.632   1.065   1.110  1.00  0.00     0.179 HD
HETATM    5  C3  UNL     1       0.740  -0.598   0.160  1.00  0.00     0.233 C 
HETATM    6  O1  UNL     1       1.000  -1.645  -0.483  1.00  0.00    -0.272 OA
ENDROOT
BRANCH   5   7
HETATM    7  C4  UNL     1      -0.643  -0.226   0.457  1.00  0.00     0.079 C 
HETATM    8  C5  UNL     1      -1.054   1.132  -0.128  1.00  0.00     0.014 C 
HETATM    9  C6  UNL     1      -2.448   0.508  -0.290  1.00  0.00     0.002 C 
HETATM   10  C7  UNL     1      -1.692  -0.816  -0.494  1.00  0.00     0.014 C 
ENDBRANCH   5   7
TORSDOF 1
