REMARK  2 active torsions:
REMARK  status: ('A' for Active; 'I' for Inactive)
REMARK    1  A    between atoms: C2_2  and  C3_3 
REMARK    2  A    between atoms: C7_10  and  C9_12 
ROOT
HETATM    1  C3  UNL     1      -0.903   0.084  -0.912  1.00  0.00     0.220 C 
HETATM    2  N1  UNL     1       0.076   1.083  -1.326  1.00  0.00    -0.063 N 
ATOM      3  H11 UNL     1       0.001   1.985  -0.856  1.00  0.00     0.278 HD
ATOM      4  H12 UNL     1      -0.055   1.456  -2.266  1.00  0.00     0.278 HD
HETATM    5  C4  UNL     1       1.326   0.375  -1.110  1.00  0.00     0.183 C 
HETATM    6  C5  UNL     1       2.515   1.277  -1.219  1.00  0.00     0.040 C 
HETATM    7  C6  UNL     1       1.098  -0.089   0.337  1.00  0.00     0.048 C 
HETATM    8  C7  UNL     1      -0.276  -0.744   0.158  1.00  0.00     0.007 C 
HETATM    9  C8  UNL     1       0.005  -2.166  -0.313  1.00  0.00     0.022 C 
ENDROOT
BRANCH   8  10
HETATM   10  C9  UNL     1      -1.030  -0.827   1.408  1.00  0.00    -0.025 C 
HETATM   11  C10 UNL     1      -0.401  -0.916   2.572  1.00  0.00     0.008 C 
ENDBRANCH   8  10
BRANCH   1  12
HETATM   12  C2  UNL     1      -2.178   0.726  -0.505  1.00  0.00    -0.004 C 
HETATM   13  C1  UNL     1      -2.255   1.662   0.429  1.00  0.00     0.009 C 
ENDBRANCH   1  12
TORSDOF 2
