REMARK  10 active torsions:
REMARK  status: ('A' for Active; 'I' for Inactive)
REMARK    1  A    between atoms: C3_5  and  C4_6 
REMARK    2  A    between atoms: C4_6  and  C5_7 
REMARK    3  A    between atoms: C8_10  and  C9_11 
REMARK    4  A    between atoms: C10_12  and  S1_13 
REMARK    5  A    between atoms: S1_13  and  N2_16 
REMARK    6  A    between atoms: N2_16  and  C11_18 
REMARK    7  A    between atoms: C11_18  and  C12_19 
REMARK    8  A    between atoms: C13_20  and  C14_21 
REMARK    9  A    between atoms: C14_21  and  N3_22 
REMARK   10  A    between atoms: N3_22  and  O3_23 
ROOT
HETATM    1  C5  UNL     1      -2.806  -1.333  -0.393  1.00  0.00     0.009 C 
HETATM    2  C6  UNL     1      -1.542  -1.028  -0.446  1.00  0.00     0.031 A 
HETATM    3  C7  UNL     1      -0.645  -1.193   0.719  1.00  0.00     0.042 A 
HETATM    4  C8  UNL     1       0.577  -0.781   0.333  1.00  0.00    -0.018 A 
HETATM    5  C15 UNL     1       0.447  -0.367  -1.043  1.00  0.00     0.102 A 
HETATM    6  N4  UNL     1      -0.774  -0.511  -1.488  1.00  0.00    -0.361 N 
HETATM    7  C16 UNL     1      -1.173  -0.151  -2.860  1.00  0.00     0.155 C 
ENDROOT
BRANCH   4   8
HETATM    8  C9  UNL     1       1.690  -0.817   1.257  1.00  0.00     0.026 C 
HETATM    9  C10 UNL     1       2.912  -0.469   1.069  1.00  0.00     0.132 C 
BRANCH   9  10
HETATM   10  S1  UNL     1       3.785   0.170  -0.271  1.00  0.00     0.249 S 
HETATM   11  O1  UNL     1       3.260   1.524  -0.648  1.00  0.00    -0.201 OA
HETATM   12  O2  UNL     1       3.842  -0.700  -1.471  1.00  0.00    -0.201 OA
BRANCH  10  13
HETATM   13  N2  UNL     1       5.453   0.477   0.216  1.00  0.00    -0.305 N 
ATOM     14  H2  UNL     1       5.913   1.387   0.218  1.00  0.00     0.173 HD
BRANCH  13  15
HETATM   15  C11 UNL     1       6.067  -0.786   0.615  1.00  0.00     0.225 C 
BRANCH  15  16
HETATM   16  C12 UNL     1       7.454  -0.583   1.028  1.00  0.00    -0.085 C 
HETATM   17  C13 UNL     1       8.604  -0.436   1.374  1.00  0.00    -0.087 C 
BRANCH  17  18
HETATM   18  C14 UNL     1       9.994  -0.281   1.801  1.00  0.00     0.236 C 
BRANCH  18  19
HETATM   19  N3  UNL     1      10.684   0.740   1.060  1.00  0.00    -0.092 NA
BRANCH  19  20
HETATM   20  O3  UNL     1      10.050   1.908   1.261  1.00  0.00    -0.295 OA
ATOM     21  H3  UNL     1      10.506   2.583   0.771  1.00  0.00     0.238 HD
ENDBRANCH  19  20
ENDBRANCH  18  19
ENDBRANCH  17  18
ENDBRANCH  15  16
ENDBRANCH  13  15
ENDBRANCH  10  13
ENDBRANCH   9  10
ENDBRANCH   4   8
BRANCH   1  22
HETATM   22  C4  UNL     1      -3.805  -1.227  -1.452  1.00  0.00     0.087 C 
BRANCH  22  23
HETATM   23  C3  UNL     1      -4.829  -0.229  -0.983  1.00  0.00     0.019 A 
HETATM   24  N1  UNL     1      -4.977   1.039  -1.388  1.00  0.00    -0.362 N 
HETATM   25  C2  UNL     1      -6.023   1.588  -0.712  1.00  0.00     0.012 A 
ATOM     26  H1  UNL     1      -4.403   1.513  -2.085  1.00  0.00     0.165 HD
HETATM   27  C1  UNL     1      -6.519   2.968  -0.863  1.00  0.00     0.068 C 
HETATM   28  C19 UNL     1      -6.527   0.637   0.125  1.00  0.00    -0.032 A 
HETATM   29  C17 UNL     1      -5.781  -0.512  -0.038  1.00  0.00    -0.031 A 
HETATM   30  C20 UNL     1      -7.671   0.721   1.082  1.00  0.00     0.050 C 
HETATM   31  C18 UNL     1      -5.966  -1.812   0.671  1.00  0.00     0.051 C 
ENDBRANCH  22  23
ENDBRANCH   1  22
TORSDOF 10
