REMARK  10 active torsions:
REMARK  status: ('A' for Active; 'I' for Inactive)
REMARK    1  A    between atoms: C3_4  and  C4_5 
REMARK    2  A    between atoms: C5_6  and  C6_7 
REMARK    3  A    between atoms: C6_7  and  C7_8 
REMARK    4  A    between atoms: C7_8  and  N2_9 
REMARK    5  A    between atoms: C10_12  and  C11_13 
REMARK    6  A    between atoms: C11_13  and  C12_14 
REMARK    7  A    between atoms: C12_14  and  N3_15 
REMARK    8  A    between atoms: C16_24  and  C17_25 
REMARK    9  A    between atoms: C17_25  and  N5_26 
REMARK   10  A    between atoms: C20_29  and  C21_30 
ROOT
HETATM    1  C1  UNL     1      -3.472   3.027  -1.889  1.00  0.00     0.155 C 
HETATM    2  N1  UNL     1      -2.883   1.710  -1.906  1.00  0.00    -0.362 N 
HETATM    3  C2  UNL     1      -1.530   1.595  -1.781  1.00  0.00     0.111 A 
HETATM    4  C3  UNL     1      -0.867   0.391  -1.800  1.00  0.00     0.033 A 
HETATM    5  C14 UNL     1      -1.650  -0.731  -1.954  1.00  0.00     0.024 A 
HETATM    6  C15 UNL     1      -3.013  -0.604  -2.078  1.00  0.00     0.028 A 
HETATM    7  C16 UNL     1      -3.671   0.636  -2.056  1.00  0.00     0.029 A 
ENDROOT
BRANCH   4   8
HETATM    8  C4  UNL     1       0.562   0.293  -1.667  1.00  0.00    -0.066 C 
HETATM    9  C5  UNL     1       1.768   0.201  -1.573  1.00  0.00    -0.099 C 
BRANCH   9  10
HETATM   10  C6  UNL     1       3.223   0.076  -1.480  1.00  0.00     0.114 C 
BRANCH  10  11
HETATM   11  C7  UNL     1       3.625  -0.068  -0.020  1.00  0.00     0.141 C 
BRANCH  11  12
HETATM   12  N2  UNL     1       5.067  -0.192   0.074  1.00  0.00    -0.352 N 
HETATM   13  C8  UNL     1       5.860   0.883   0.206  1.00  0.00     0.093 A 
HETATM   14  C9  UNL     1       7.229   0.790   0.297  1.00  0.00     0.042 A 
HETATM   15  C10 UNL     1       7.805  -0.452   0.250  1.00  0.00     0.013 A 
HETATM   16  N4  UNL     1       7.007  -1.523   0.118  1.00  0.00    -0.356 N 
HETATM   17  C13 UNL     1       5.676  -1.386   0.033  1.00  0.00     0.182 A 
ATOM     18  H4  UNL     1       7.419  -2.455   0.082  1.00  0.00     0.166 HD
BRANCH  15  19
HETATM   19  C11 UNL     1       9.299  -0.607   0.345  1.00  0.00     0.084 C 
BRANCH  19  20
HETATM   20  C12 UNL     1       9.622  -0.754   1.818  1.00  0.00     0.235 C 
BRANCH  20  21
HETATM   21  N3  UNL     1       8.945  -1.911   2.322  1.00  0.00    -0.079 N 
ATOM     22  H33 UNL     1       7.941  -1.885   2.143  1.00  0.00     0.274 HD
ATOM     23  H32 UNL     1       9.161  -2.753   1.789  1.00  0.00     0.274 HD
ATOM     24  H31 UNL     1       9.162  -2.010   3.314  1.00  0.00     0.274 HD
ENDBRANCH  20  21
ENDBRANCH  19  20
ENDBRANCH  15  19
ENDBRANCH  11  12
ENDBRANCH  10  11
ENDBRANCH   9  10
ENDBRANCH   4   8
BRANCH   7  25
HETATM   25  C17 UNL     1      -5.149   0.669  -2.184  1.00  0.00     0.184 C 
BRANCH  25  26
HETATM   26  N5  UNL     1      -5.852   0.346  -0.960  1.00  0.00    -0.361 N 
HETATM   27  C18 UNL     1      -6.149  -0.951  -0.722  1.00  0.00     0.091 A 
HETATM   28  C19 UNL     1      -6.814  -1.377   0.397  1.00  0.00     0.032 A 
HETATM   29  C20 UNL     1      -7.202  -0.437   1.330  1.00  0.00     0.007 A 
HETATM   30  C22 UNL     1      -6.899   0.886   1.087  1.00  0.00     0.032 A 
HETATM   31  C23 UNL     1      -6.228   1.252  -0.058  1.00  0.00     0.091 A 
BRANCH  29  32
HETATM   32  C21 UNL     1      -7.917  -0.850   2.543  1.00  0.00     0.120 C 
HETATM   33  N6  UNL     1      -8.304  -0.034   3.446  1.00  0.00    -0.387 N 
ATOM     34  H62 UNL     1      -8.121   0.964   3.344  1.00  0.00     0.157 HD
ATOM     35  H61 UNL     1      -8.801  -0.321   4.289  1.00  0.00     0.157 HD
HETATM   36  N7  UNL     1      -8.175  -2.255   2.687  1.00  0.00    -0.082 NA
ENDBRANCH  29  32
ENDBRANCH  25  26
ENDBRANCH   7  25
TORSDOF 10
