REMARK  5 active torsions:
REMARK  status: ('A' for Active; 'I' for Inactive)
REMARK    1  A    between atoms: N1_2  and  C2_5 
REMARK    2  A    between atoms: C2_5  and  C3_6 
REMARK    3  A    between atoms: C3_6  and  C4_7 
REMARK    4  A    between atoms: C9_12  and  N2_13 
REMARK    5  A    between atoms: N2_13  and  N3_15 
ROOT
HETATM    1  C4  UNL     1       0.241   0.275   0.213  1.00  0.00    -0.036 C 
HETATM    2  C5  UNL     1       0.175  -1.076   0.827  1.00  0.00     0.014 C 
HETATM    3  C6  UNL     1      -0.875  -1.977   0.265  1.00  0.00    -0.013 C 
HETATM    4  C7  UNL     1      -2.204  -1.876   0.941  1.00  0.00     0.007 C 
HETATM    5  C8  UNL     1      -2.666  -0.523   1.279  1.00  0.00     0.033 C 
HETATM    6  C9  UNL     1      -2.263   0.570   0.340  1.00  0.00     0.048 C 
HETATM    7  C10 UNL     1      -2.371   0.200  -1.104  1.00  0.00     0.037 C 
HETATM    8  C11 UNL     1      -1.143  -0.443  -1.661  1.00  0.00    -0.011 C 
HETATM    9  C12 UNL     1      -1.006  -1.882  -1.248  1.00  0.00     0.009 C 
HETATM   10  C13 UNL     1       0.113   0.270  -1.294  1.00  0.00     0.014 C 
HETATM   11  C14 UNL     1      -0.928   1.090   0.754  1.00  0.00     0.042 C 
ENDROOT
BRANCH   6  12
HETATM   12  N2  UNL     1      -3.222   1.667   0.562  1.00  0.00    -0.313 N 
ATOM     13  H2  UNL     1      -4.029   1.552   1.176  1.00  0.00     0.182 HD
BRANCH  12  14
HETATM   14  N3  UNL     1      -3.007   2.734  -0.028  1.00  0.00    -0.253 N 
HETATM   15  N4  UNL     1      -2.881   3.946  -0.175  1.00  0.00    -0.331 N 
ATOM     16  H42 UNL     1      -3.076   4.230   0.785  1.00  0.00     0.178 HD
ATOM     17  H41 UNL     1      -2.704   4.825  -0.661  1.00  0.00     0.178 HD
ATOM     18  H3  UNL     1      -2.819   2.401  -0.974  1.00  0.00     0.207 HD
ENDBRANCH  12  14
ENDBRANCH   6  12
BRANCH   1  19
HETATM   19  C3  UNL     1       1.480   1.026   0.553  1.00  0.00     0.037 C 
BRANCH  19  20
HETATM   20  C2  UNL     1       2.757   0.382   0.135  1.00  0.00     0.232 C 
BRANCH  20  21
HETATM   21  N1  UNL     1       3.904   1.219   0.523  1.00  0.00    -0.079 N 
HETATM   22  C1  UNL     1       5.122   0.547   0.093  1.00  0.00     0.266 C 
ATOM     23  H12 UNL     1       3.909   1.444   1.518  1.00  0.00     0.276 HD
ATOM     24  H11 UNL     1       3.834   2.172   0.167  1.00  0.00     0.276 HD
ENDBRANCH  20  21
ENDBRANCH  19  20
ENDBRANCH   1  19
TORSDOF 5
