REMARK  4 active torsions:
REMARK  status: ('A' for Active; 'I' for Inactive)
REMARK    1  A    between atoms: C2_2  and  C3_3 
REMARK    2  A    between atoms: C3_3  and  O1_4 
REMARK    3  A    between atoms: O1_4  and  C4_5 
REMARK    4  A    between atoms: C8_9  and  C9_10 
ROOT
HETATM    1  C4  UNL     1       1.703   0.606   0.080  1.00  0.00     0.121 C 
HETATM    2  C5  UNL     1       1.492   2.126   0.102  1.00  0.00     0.032 C 
HETATM    3  C6  UNL     1       0.618   2.418   1.298  1.00  0.00     0.003 C 
HETATM    4  C7  UNL     1      -0.760   1.828   0.947  1.00  0.00     0.007 C 
HETATM    5  C8  UNL     1      -0.564   0.326   0.912  1.00  0.00     0.019 C 
HETATM    6  C16 UNL     1       0.331  -0.007  -0.243  1.00  0.00     0.038 C 
ENDROOT
BRANCH   5   7
HETATM    7  C9  UNL     1      -1.783  -0.448   1.060  1.00  0.00     0.198 C 
HETATM    8  N1  UNL     1      -1.490  -1.893   1.030  1.00  0.00    -0.070 N 
HETATM    9  C10 UNL     1      -2.831  -2.485   1.177  1.00  0.00     0.233 C 
ATOM     10  H12 UNL     1      -0.966  -2.210   0.214  1.00  0.00     0.277 HD
ATOM     11  H11 UNL     1      -0.803  -2.208   1.715  1.00  0.00     0.277 HD
HETATM   12  C11 UNL     1      -3.827  -1.421   0.819  1.00  0.00     0.039 C 
HETATM   13  C12 UNL     1      -2.906  -0.369   0.158  1.00  0.00    -0.010 C 
HETATM   14  C13 UNL     1      -2.795  -0.678  -1.286  1.00  0.00     0.011 C 
HETATM   15  C15 UNL     1      -3.674   0.859  -0.108  1.00  0.00     0.011 C 
HETATM   16  C14 UNL     1      -3.286   0.736  -1.580  1.00  0.00     0.002 C 
ENDBRANCH   5   7
BRANCH   1  17
HETATM   17  O1  UNL     1       2.590   0.365  -0.969  1.00  0.00    -0.386 OA
BRANCH  17  18
HETATM   18  C3  UNL     1       3.716  -0.237  -0.427  1.00  0.00     0.167 C 
BRANCH  18  19
HETATM   19  C2  UNL     1       4.754  -0.546  -1.491  1.00  0.00     0.022 C 
HETATM   20  C1  UNL     1       5.940  -1.197  -0.814  1.00  0.00     0.007 C 
ENDBRANCH  18  19
ENDBRANCH  17  18
ENDBRANCH   1  17
TORSDOF 4
