REMARK  19 active torsions:
REMARK  status: ('A' for Active; 'I' for Inactive)
REMARK    1  A    between atoms: C2_2  and  O2_4 
REMARK    2  A    between atoms: O2_4  and  C3_5 
REMARK    3  A    between atoms: C3_5  and  C4_6 
REMARK    4  A    between atoms: C4_6  and  O3_7 
REMARK    5  A    between atoms: O3_7  and  C5_8 
REMARK    6  A    between atoms: C6_10  and  C7_11 
REMARK    7  A    between atoms: C8_14  and  O7_15 
REMARK    8  A    between atoms: O7_15  and  C9_16 
REMARK    9  A    between atoms: C11_19  and  O9_20 
REMARK   10  A    between atoms: O9_20  and  S1_21 
REMARK   11  A    between atoms: C12_25  and  O13_26 
REMARK   12  A    between atoms: O13_26  and  C13_27 
REMARK   13  A    between atoms: C13_27  and  C14_29 
REMARK   14  A    between atoms: C15_30  and  C16_31 
REMARK   15  A    between atoms: C18_36  and  O15_37 
REMARK   16  A    between atoms: C19_39  and  O16_40 
REMARK   17  A    between atoms: C20_42  and  O17_43 
REMARK   18  A    between atoms: C22_46  and  O18_47 
REMARK   19  A    between atoms: O18_47  and  C23_48 
ROOT
HETATM    1  C5  UNL     1       2.522   0.046   0.036  1.00  0.00     0.293 C 
HETATM    2  O4  UNL     1       3.639  -0.791  -0.171  1.00  0.00    -0.340 OA
HETATM    3  C6  UNL     1       3.363  -2.130   0.056  1.00  0.00     0.257 C 
HETATM    4  C8  UNL     1       2.506  -2.649  -1.043  1.00  0.00     0.204 C 
HETATM    5  C11 UNL     1       1.495  -1.576  -1.548  1.00  0.00     0.212 C 
HETATM    6  C12 UNL     1       1.259  -0.701  -0.354  1.00  0.00     0.220 C 
ENDROOT
BRANCH   6   7
HETATM    7  O13 UNL     1       0.116   0.053  -0.290  1.00  0.00    -0.307 OA
BRANCH   7   8
HETATM    8  C13 UNL     1      -0.955  -0.158   0.559  1.00  0.00     0.274 C 
HETATM    9  O14 UNL     1      -0.792  -1.155   1.296  1.00  0.00    -0.264 OA
BRANCH   8  10
HETATM   10  C14 UNL     1      -2.098   0.728   0.535  1.00  0.00     0.118 C 
HETATM   11  C15 UNL     1      -1.772   2.056   1.009  1.00  0.00     0.050 C 
HETATM   12  C17 UNL     1      -1.652   2.919  -0.218  1.00  0.00     0.046 C 
HETATM   13  C18 UNL     1      -2.011   2.031  -1.407  1.00  0.00     0.157 C 
HETATM   14  C19 UNL     1      -2.761   0.994  -0.787  1.00  0.00     0.129 C 
HETATM   15  C20 UNL     1      -3.007  -0.346  -1.284  1.00  0.00     0.159 C 
HETATM   16  C21 UNL     1      -3.441  -1.070   0.004  1.00  0.00     0.069 C 
HETATM   17  C22 UNL     1      -3.259  -0.027   1.139  1.00  0.00     0.156 C 
BRANCH  11  18
HETATM   18  C16 UNL     1      -2.658   2.621   2.058  1.00  0.00     0.059 C 
HETATM   19  N1  UNL     1      -2.186   3.379   2.965  1.00  0.00    -0.411 N 
ATOM     20  H12 UNL     1      -1.188   3.590   2.957  1.00  0.00     0.155 HD
ATOM     21  H11 UNL     1      -2.795   3.767   3.686  1.00  0.00     0.155 HD
ENDBRANCH  11  18
BRANCH  13  22
HETATM   22  O15 UNL     1      -0.961   1.783  -2.235  1.00  0.00    -0.392 OA
ATOM     23  H15 UNL     1      -1.184   1.230  -2.975  1.00  0.00     0.210 HD
ENDBRANCH  13  22
BRANCH  14  24
HETATM   24  O16 UNL     1      -4.040   1.533  -0.442  1.00  0.00    -0.383 OA
ATOM     25  H16 UNL     1      -4.459   1.701  -1.278  1.00  0.00     0.210 HD
ENDBRANCH  14  24
BRANCH  15  26
HETATM   26  O17 UNL     1      -4.131  -0.344  -2.123  1.00  0.00    -0.392 OA
ATOM     27  H17 UNL     1      -4.292  -1.222  -2.449  1.00  0.00     0.210 HD
ENDBRANCH  15  26
BRANCH  17  28
HETATM   28  O18 UNL     1      -2.844  -0.660   2.312  1.00  0.00    -0.315 OA
BRANCH  28  29
HETATM   29  C23 UNL     1      -3.514  -0.626   3.497  1.00  0.00     0.255 C 
HETATM   30  C24 UNL     1      -2.949  -1.353   4.687  1.00  0.00     0.126 C 
HETATM   31  O19 UNL     1      -4.600   0.011   3.591  1.00  0.00    -0.266 OA
ENDBRANCH  28  29
ENDBRANCH  17  28
ENDBRANCH   8  10
ENDBRANCH   7   8
ENDBRANCH   6   7
BRANCH   1  32
HETATM   32  O3  UNL     1       2.688   1.255  -0.584  1.00  0.00    -0.356 OA
BRANCH  32  33
HETATM   33  C4  UNL     1       2.798   2.271   0.362  1.00  0.00     0.197 C 
BRANCH  33  34
HETATM   34  C3  UNL     1       3.012   3.615  -0.300  1.00  0.00     0.205 C 
BRANCH  34  35
HETATM   35  O2  UNL     1       3.136   4.683   0.575  1.00  0.00    -0.320 OA
BRANCH  35  36
HETATM   36  C2  UNL     1       2.230   5.143   1.486  1.00  0.00     0.254 C 
HETATM   37  C1  UNL     1       2.504   6.306   2.366  1.00  0.00     0.126 C 
HETATM   38  O1  UNL     1       1.139   4.572   1.585  1.00  0.00    -0.266 OA
ENDBRANCH  35  36
ENDBRANCH  34  35
ENDBRANCH  33  34
ENDBRANCH  32  33
ENDBRANCH   1  32
BRANCH   5  39
HETATM   39  O9  UNL     1       0.319  -2.191  -1.922  1.00  0.00    -0.246 OA
BRANCH  39  40
HETATM   40  S1  UNL     1       0.091  -2.204  -3.567  1.00  0.00     0.252 S 
HETATM   41  O10 UNL     1       1.367  -2.719  -4.208  1.00  0.00    -0.572 OA
HETATM   42  O11 UNL     1      -0.328  -0.908  -4.145  1.00  0.00    -0.572 OA
HETATM   43  O12 UNL     1      -1.110  -3.344  -3.920  1.00  0.00    -0.572 OA
ENDBRANCH  39  40
ENDBRANCH   5  39
BRANCH   4  44
HETATM   44  O7  UNL     1       1.806  -3.827  -0.724  1.00  0.00    -0.310 OA
BRANCH  44  45
HETATM   45  C9  UNL     1       1.902  -5.043  -1.327  1.00  0.00     0.255 C 
HETATM   46  C10 UNL     1       1.053  -6.155  -0.808  1.00  0.00     0.126 C 
HETATM   47  O8  UNL     1       2.698  -5.159  -2.283  1.00  0.00    -0.266 OA
ENDBRANCH  44  45
ENDBRANCH   4  44
BRANCH   3  48
HETATM   48  C7  UNL     1       4.673  -2.833   0.002  1.00  0.00     0.206 C 
HETATM   49  O5  UNL     1       5.762  -2.269  -0.242  1.00  0.00    -0.646 OA
HETATM   50  O6  UNL     1       4.691  -4.193   0.236  1.00  0.00    -0.646 OA
ENDBRANCH   3  48
TORSDOF 19
