REMARK  11 active torsions:
REMARK  status: ('A' for Active; 'I' for Inactive)
REMARK    1  A    between atoms: C3_4  and  S1_5 
REMARK    2  A    between atoms: S1_5  and  C4_6 
REMARK    3  A    between atoms: C4_6  and  C5_7 
REMARK    4  A    between atoms: C5_7  and  N2_8 
REMARK    5  A    between atoms: C5_7  and  O1_12 
REMARK    6  A    between atoms: C6_15  and  N3_16 
REMARK    7  A    between atoms: N3_16  and  C7_18 
REMARK    8  A    between atoms: C11_26  and  C12_27 
REMARK    9  A    between atoms: C12_27  and  O4_28 
REMARK   10  A    between atoms: C12_27  and  O5_30 
REMARK   11  A    between atoms: C13_32  and  O6_33 
ROOT
HETATM    1  N1  UNL     1      -1.404  -3.176  -0.126  1.00  0.00    -0.191 NA
HETATM    2  C1  UNL     1      -0.960  -2.108   0.107  1.00  0.00     0.104 C 
HETATM    3  C2  UNL     1      -0.435  -0.836   0.357  1.00  0.00     0.100 C 
HETATM    4  C3  UNL     1      -1.362   0.184   0.530  1.00  0.00     0.136 C 
HETATM    5  O2  UNL     1      -1.116   1.498   0.508  1.00  0.00    -0.281 OA
HETATM    6  C6  UNL     1      -0.080   2.147   0.035  1.00  0.00     0.198 C 
HETATM    7  C8  UNL     1       1.151   1.628  -0.365  1.00  0.00     0.234 C 
HETATM    8  O3  UNL     1       1.859   2.358  -1.086  1.00  0.00    -0.283 OA
HETATM    9  C9  UNL     1       1.691   0.410  -0.066  1.00  0.00     0.035 C 
HETATM   10  C10 UNL     1       3.034   0.472  -0.283  1.00  0.00     0.031 C 
HETATM   11  C11 UNL     1       3.869  -0.647  -0.337  1.00  0.00     0.032 C 
HETATM   12  C13 UNL     1       3.601  -1.974  -0.105  1.00  0.00     0.105 C 
HETATM   13  C14 UNL     1       2.517  -2.493   0.580  1.00  0.00     0.131 C 
HETATM   14  N7  UNL     1       2.546  -3.848   0.967  1.00  0.00    -0.095 NA
HETATM   15  C15 UNL     1       1.334  -1.845   0.970  1.00  0.00     0.211 C 
HETATM   16  O7  UNL     1       0.678  -2.378   1.873  1.00  0.00    -0.285 OA
HETATM   17  C16 UNL     1       0.922  -0.684   0.388  1.00  0.00     0.054 C 
ENDROOT
BRANCH   4  18
HETATM   18  S1  UNL     1      -2.997  -0.404   0.798  1.00  0.00    -0.099 SA
BRANCH  18  19
HETATM   19  C4  UNL     1      -3.965  -0.627  -0.684  1.00  0.00     0.142 C 
BRANCH  19  20
HETATM   20  C5  UNL     1      -5.343  -1.142  -0.260  1.00  0.00     0.325 C 
BRANCH  20  21
HETATM   21  N2  UNL     1      -5.145  -2.400   0.436  1.00  0.00    -0.052 N 
ATOM     22  H23 UNL     1      -4.619  -3.079  -0.113  1.00  0.00     0.277 HD
ATOM     23  H22 UNL     1      -4.492  -2.324   1.216  1.00  0.00     0.277 HD
ATOM     24  H21 UNL     1      -6.063  -2.743   0.718  1.00  0.00     0.277 HD
ENDBRANCH  20  21
BRANCH  20  25
HETATM   25  O1  UNL     1      -5.933  -0.248   0.629  1.00  0.00    -0.369 OA
ATOM     26  H1  UNL     1      -6.788  -0.568   0.892  1.00  0.00     0.212 HD
ENDBRANCH  20  25
ENDBRANCH  19  20
ENDBRANCH  18  19
ENDBRANCH   4  18
BRANCH   6  27
HETATM   27  N3  UNL     1      -0.210   3.448  -0.080  1.00  0.00    -0.334 N 
ATOM     28  H3  UNL     1       0.573   3.991  -0.444  1.00  0.00     0.164 HD
BRANCH  27  29
HETATM   29  C7  UNL     1      -1.412   4.129   0.288  1.00  0.00     0.308 C 
HETATM   30  N4  UNL     1      -2.648   3.568  -0.202  1.00  0.00    -0.086 NA
HETATM   31  N5  UNL     1      -3.023   4.804  -0.751  1.00  0.00    -0.033 NA
HETATM   32  N6  UNL     1      -1.688   5.201  -0.657  1.00  0.00    -0.086 NA
ENDBRANCH  27  29
ENDBRANCH   6  27
BRANCH  11  33
HETATM   33  C12 UNL     1       5.293  -0.323  -0.715  1.00  0.00     0.291 C 
BRANCH  33  34
HETATM   34  O4  UNL     1       6.180  -1.011   0.131  1.00  0.00    -0.367 OA
ATOM     35  H4  UNL     1       7.077  -0.807  -0.107  1.00  0.00     0.213 HD
ENDBRANCH  33  34
BRANCH  33  36
HETATM   36  O5  UNL     1       5.502   1.026  -0.593  1.00  0.00    -0.367 OA
ATOM     37  H5  UNL     1       6.399   1.230  -0.831  1.00  0.00     0.213 HD
ENDBRANCH  33  36
ENDBRANCH  11  33
BRANCH  12  38
HETATM   38  O6  UNL     1       4.494  -2.892  -0.597  1.00  0.00    -0.358 OA
ATOM     39  H6  UNL     1       4.309  -3.810  -0.437  1.00  0.00     0.217 HD
ENDBRANCH  12  38
TORSDOF 11
