REMARK  2 active torsions:
REMARK  status: ('A' for Active; 'I' for Inactive)
REMARK    1  A    between atoms: O1_2  and  C2_3 
REMARK    2  A    between atoms: C5_6  and  O2_7 
ROOT
HETATM    1  C2  UNL     1      -1.448   1.227  -0.499  1.00  0.00     0.156 C 
HETATM    2  C3  UNL     1      -0.965   0.693   0.857  1.00  0.00     0.154 C 
HETATM    3  C4  UNL     1       0.283   1.437   1.199  1.00  0.00     0.066 C 
HETATM    4  C5  UNL     1       1.473   0.709   1.606  1.00  0.00     0.121 C 
HETATM    5  C6  UNL     1       1.945  -0.543   1.099  1.00  0.00     0.039 C 
HETATM    6  C7  UNL     1       2.307  -0.908  -0.241  1.00  0.00     0.021 C 
HETATM    7  C8  UNL     1       3.606  -0.337  -0.835  1.00  0.00    -0.010 C 
HETATM    8  C9  UNL     1       4.649   0.143   0.046  1.00  0.00     0.010 C 
HETATM    9  C10 UNL     1       2.715   0.655  -1.548  1.00  0.00     0.037 C 
HETATM   10  C11 UNL     1       1.656  -0.462  -1.446  1.00  0.00     0.126 C 
HETATM   11  O3  UNL     1       0.440   0.007  -1.529  1.00  0.00    -0.380 OA
HETATM   12  C12 UNL     1      -0.647  -0.744  -1.748  1.00  0.00     0.132 C 
HETATM   13  C13 UNL     1      -0.780  -1.995  -0.937  1.00  0.00     0.070 C 
HETATM   14  C14 UNL     1      -1.647  -1.471   0.226  1.00  0.00     0.064 C 
HETATM   15  C15 UNL     1      -2.168  -2.617   1.052  1.00  0.00     0.046 C 
HETATM   16  O4  UNL     1      -0.915  -0.638   0.947  1.00  0.00    -0.372 OA
HETATM   17  C16 UNL     1      -2.725  -0.855  -0.646  1.00  0.00     0.025 C 
HETATM   18  C17 UNL     1      -3.897  -0.344   0.054  1.00  0.00     0.014 C 
HETATM   19  C18 UNL     1      -1.888   0.112  -1.416  1.00  0.00     0.053 C 
ENDROOT
BRANCH   1  20
HETATM   20  O1  UNL     1      -2.424   2.170  -0.400  1.00  0.00    -0.388 OA
HETATM   21  C1  UNL     1      -2.135   3.394  -0.938  1.00  0.00     0.202 C 
ENDBRANCH   1  20
BRANCH   4  22
HETATM   22  O2  UNL     1       1.358   0.517   3.024  1.00  0.00    -0.395 OA
ATOM     23  H2  UNL     1       2.136   0.041   3.290  1.00  0.00     0.210 HD
ENDBRANCH   4  22
TORSDOF 2
