REMARK  7 active torsions:
REMARK  status: ('A' for Active; 'I' for Inactive)
REMARK    1  A    between atoms: O1_2  and  C2_3 
REMARK    2  A    between atoms: C2_3  and  C3_5 
REMARK    3  A    between atoms: C3_5  and  N2_16 
REMARK       I    between atoms: N1_6  and  C4_8 
REMARK    4  A    between atoms: C4_8  and  C5_10 
REMARK    5  A    between atoms: C5_10  and  C6_11 
REMARK    6  A    between atoms: C6_11  and  C7_12 
REMARK    7  A    between atoms: N2_16  and  C11_18 
ROOT
HETATM    1  C3  UNL     1      -1.225  -1.179   0.136  1.00  0.00     0.187 C 
HETATM    2  N1  UNL     1      -0.707  -0.583   1.130  1.00  0.00    -0.304 N 
ATOM      3  H1  UNL     1      -0.914  -0.933   2.066  1.00  0.00     0.171 HD
HETATM    4  C4  UNL     1       0.128   0.523   1.008  1.00  0.00     0.246 C 
HETATM    5  O3  UNL     1      -0.395   1.658   0.956  1.00  0.00    -0.268 OA
ENDROOT
BRANCH   1   6
HETATM    6  C2  UNL     1      -1.013  -0.785  -1.218  1.00  0.00     0.327 C 
HETATM    7  O2  UNL     1      -1.550  -1.408  -2.181  1.00  0.00    -0.256 OA
BRANCH   6   8
HETATM    8  O1  UNL     1      -0.221   0.283  -1.549  1.00  0.00    -0.320 OA
HETATM    9  C1  UNL     1      -0.022   0.659  -2.897  1.00  0.00     0.213 C 
ENDBRANCH   6   8
ENDBRANCH   1   6
BRANCH   1  10
HETATM   10  N2  UNL     1      -2.061  -2.300   0.414  1.00  0.00    -0.316 N 
ATOM     11  H2  UNL     1      -1.651  -3.181   0.724  1.00  0.00     0.169 HD
BRANCH  10  12
HETATM   12  C11 UNL     1      -3.363  -2.192   0.269  1.00  0.00     0.166 A 
HETATM   13  N3  UNL     1      -4.056  -1.118  -0.124  1.00  0.00    -0.279 N 
HETATM   14  N4  UNL     1      -5.329  -1.216  -0.202  1.00  0.00    -0.296 N 
ATOM     15  H3  UNL     1      -3.583  -0.245  -0.355  1.00  0.00     0.189 HD
HETATM   16  C12 UNL     1      -5.929  -2.352   0.100  1.00  0.00     0.066 A 
ATOM     17  H4  UNL     1      -5.883  -0.413  -0.499  1.00  0.00     0.187 HD
HETATM   18  C13 UNL     1      -7.402  -2.678   0.076  1.00  0.00     0.078 C 
HETATM   19  S1  UNL     1      -4.599  -3.340   0.521  1.00  0.00    -0.038 SA
ENDBRANCH  10  12
ENDBRANCH   1  10
BRANCH   4  20
HETATM   20  C5  UNL     1       1.580   0.426   0.941  1.00  0.00     0.071 C 
BRANCH  20  21
HETATM   21  C6  UNL     1       2.305   1.504   0.828  1.00  0.00    -0.013 C 
BRANCH  21  22
HETATM   22  C7  UNL     1       3.773   1.410   0.759  1.00  0.00    -0.034 C 
HETATM   23  C8  UNL     1       4.255   0.352   1.714  1.00  0.00     0.018 C 
HETATM   24  C9  UNL     1       4.202   1.120  -0.662  1.00  0.00     0.018 C 
HETATM   25  C10 UNL     1       4.389   2.731   1.162  1.00  0.00     0.018 C 
ENDBRANCH  21  22
ENDBRANCH  20  21
ENDBRANCH   4  20
TORSDOF 7
