REMARK  7 active torsions:
REMARK  status: ('A' for Active; 'I' for Inactive)
REMARK    1  A    between atoms: C2_2  and  C3_3 
REMARK    2  A    between atoms: C3_3  and  C4_4 
REMARK    3  A    between atoms: C3_3  and  N1_6 
REMARK    4  A    between atoms: N1_6  and  C6_8 
REMARK    5  A    between atoms: C6_8  and  C7_9 
REMARK    6  A    between atoms: C7_9  and  N2_10 
REMARK    7  A    between atoms: N2_10  and  C8_12 
ROOT
HETATM    1  C6  UNL     1      -0.306   0.092   0.453  1.00  0.00     0.133 C 
ENDROOT
BRANCH   1   2
HETATM    2  N1  UNL     1      -0.876  -0.545  -0.675  1.00  0.00    -0.416 N 
ATOM      3  H1  UNL     1      -0.306  -0.943  -1.421  1.00  0.00     0.153 HD
BRANCH   2   4
HETATM    4  C3  UNL     1      -2.303  -0.592  -0.697  1.00  0.00     0.076 C 
BRANCH   4   5
HETATM    5  C2  UNL     1      -3.008   0.706  -0.692  1.00  0.00     0.020 C 
HETATM    6  C1  UNL     1      -2.579   1.719  -1.686  1.00  0.00     0.007 C 
ENDBRANCH   4   5
BRANCH   4   7
HETATM    7  C4  UNL     1      -2.802  -1.568   0.340  1.00  0.00     0.020 C 
HETATM    8  C5  UNL     1      -4.245  -1.944   0.189  1.00  0.00     0.007 C 
ENDBRANCH   4   7
ENDBRANCH   2   4
ENDBRANCH   1   2
BRANCH   1   9
HETATM    9  C7  UNL     1       1.191  -0.046   0.506  1.00  0.00     0.133 C 
BRANCH   9  10
HETATM   10  N2  UNL     1       1.777   0.502  -0.655  1.00  0.00    -0.416 N 
ATOM     11  H2  UNL     1       1.204   0.872  -1.413  1.00  0.00     0.153 HD
BRANCH  10  12
HETATM   12  C8  UNL     1       3.191   0.518  -0.727  1.00  0.00     0.076 C 
HETATM   13  C9  UNL     1       3.936   1.358   0.262  1.00  0.00     0.024 C 
HETATM   14  C10 UNL     1       5.040   0.295   0.255  1.00  0.00     0.004 C 
HETATM   15  C11 UNL     1       3.940  -0.680  -0.193  1.00  0.00     0.024 C 
ENDBRANCH  10  12
ENDBRANCH   9  10
ENDBRANCH   1   9
TORSDOF 7
