REMARK  14 active torsions:
REMARK  status: ('A' for Active; 'I' for Inactive)
REMARK    1  A    between atoms: N1_1  and  C1_4 
REMARK    2  A    between atoms: C2_7  and  N3_8 
REMARK    3  A    between atoms: C3_11  and  C4_12 
REMARK    4  A    between atoms: C7_15  and  O1_16 
REMARK    5  A    between atoms: C8_18  and  N4_19 
REMARK    6  A    between atoms: C14_25  and  O2_26 
REMARK    7  A    between atoms: C15_28  and  C16_29 
REMARK    8  A    between atoms: C16_29  and  O3_30 
REMARK    9  A    between atoms: C17_32  and  C18_33 
REMARK   10  A    between atoms: C18_33  and  N5_34 
REMARK   11  A    between atoms: N8_39  and  C19_40 
REMARK   12  A    between atoms: C19_40  and  C20_41 
REMARK   13  A    between atoms: C20_41  and  O4_42 
REMARK   14  A    between atoms: C20_41  and  C21_44 
ROOT
HETATM    1  C1  UNL     1       0.794   2.903   1.027  1.00  0.00     0.109 C 
HETATM    2  N2  UNL     1      -0.196   2.484   1.852  1.00  0.00    -0.328 N 
ATOM      3  H2  UNL     1      -0.237   2.949   2.759  1.00  0.00     0.169 HD
HETATM    4  C2  UNL     1      -1.141   1.532   1.641  1.00  0.00     0.114 C 
HETATM    5  C3  UNL     1      -1.411   0.816   0.506  1.00  0.00     0.052 C 
HETATM    6  C14 UNL     1      -0.798   0.951  -0.717  1.00  0.00     0.089 C 
HETATM    7  C15 UNL     1       0.205   1.857  -1.107  1.00  0.00     0.011 C 
HETATM    8  C17 UNL     1       1.121   2.425  -0.251  1.00  0.00     0.017 C 
ENDROOT
BRANCH   8   9
HETATM    9  C18 UNL     1       2.520   2.564  -0.588  1.00  0.00     0.199 C 
BRANCH   9  10
HETATM   10  N5  UNL     1       3.347   1.586   0.140  1.00  0.00    -0.221 N 
HETATM   11  N6  UNL     1       3.882   1.788   1.309  1.00  0.00    -0.221 N 
HETATM   12  N7  UNL     1       4.555   0.677   1.647  1.00  0.00    -0.222 N 
ATOM     13  H6  UNL     1       3.804   2.638   1.868  1.00  0.00     0.210 HD
HETATM   14  N8  UNL     1       4.450  -0.232   0.696  1.00  0.00    -0.223 N 
ATOM     15  H7  UNL     1       5.074   0.553   2.516  1.00  0.00     0.210 HD
HETATM   16  C22 UNL     1       3.675   0.361  -0.263  1.00  0.00     0.360 A 
HETATM   17  O6  UNL     1       3.365  -0.224  -1.329  1.00  0.00    -0.243 OA
BRANCH  14  18
HETATM   18  C19 UNL     1       5.021  -1.556   0.669  1.00  0.00     0.196 C 
BRANCH  18  19
HETATM   19  C20 UNL     1       6.399  -1.570   0.044  1.00  0.00     0.227 C 
BRANCH  19  20
HETATM   20  O4  UNL     1       6.404  -1.123  -1.262  1.00  0.00    -0.385 OA
ATOM     21  H4  UNL     1       7.269  -1.132  -1.654  1.00  0.00     0.210 HD
ENDBRANCH  19  20
BRANCH  19  22
HETATM   22  C21 UNL     1       7.060  -2.869   0.152  1.00  0.00     0.261 C 
HETATM   23  N9  UNL     1       7.590  -3.476  -1.011  1.00  0.00    -0.060 NA
HETATM   24  O5  UNL     1       7.176  -3.474   1.249  1.00  0.00    -0.274 OA
ENDBRANCH  19  22
ENDBRANCH  18  19
ENDBRANCH  14  18
ENDBRANCH   9  10
ENDBRANCH   8   9
BRANCH   1  25
HETATM   25  N1  UNL     1       1.497   3.853   1.520  1.00  0.00    -0.385 N 
ATOM     26  H12 UNL     1       1.259   4.200   2.449  1.00  0.00     0.157 HD
ATOM     27  H11 UNL     1       2.242   4.168   0.899  1.00  0.00     0.157 HD
ENDBRANCH   1  25
BRANCH   7  28
HETATM   28  C16 UNL     1       0.257   2.195  -2.519  1.00  0.00     0.206 C 
BRANCH  28  29
HETATM   29  O3  UNL     1       1.208   3.109  -2.925  1.00  0.00    -0.396 OA
ATOM     30  H3  UNL     1       1.242   3.330  -3.848  1.00  0.00     0.209 HD
ENDBRANCH  28  29
ENDBRANCH   7  28
BRANCH   6  31
HETATM   31  O2  UNL     1      -1.220   0.086  -1.692  1.00  0.00    -0.359 OA
ATOM     32  H2  UNL     1      -0.796   0.179  -2.537  1.00  0.00     0.217 HD
ENDBRANCH   6  31
BRANCH   4  33
HETATM   33  N3  UNL     1      -1.903   1.245   2.638  1.00  0.00    -0.385 N 
ATOM     34  H32 UNL     1      -1.702   1.779   3.484  1.00  0.00     0.157 HD
ATOM     35  H31 UNL     1      -2.613   0.530   2.480  1.00  0.00     0.157 HD
ENDBRANCH   4  33
BRANCH   5  36
HETATM   36  C4  UNL     1      -2.429  -0.184   0.591  1.00  0.00    -0.017 A 
HETATM   37  C5  UNL     1      -2.043  -1.456   1.026  1.00  0.00     0.015 A 
HETATM   38  C6  UNL     1      -2.995  -2.435   1.122  1.00  0.00     0.040 A 
HETATM   39  C7  UNL     1      -4.302  -2.196   0.806  1.00  0.00     0.092 A 
HETATM   40  C8  UNL     1      -4.693  -0.945   0.377  1.00  0.00     0.072 A 
HETATM   41  C13 UNL     1      -3.753   0.040   0.276  1.00  0.00     0.045 A 
BRANCH  39  42
HETATM   42  O1  UNL     1      -5.251  -3.196   0.909  1.00  0.00    -0.358 OA
ATOM     43  H1  UNL     1      -6.160  -3.030   0.689  1.00  0.00     0.217 HD
ENDBRANCH  39  42
BRANCH  40  44
HETATM   44  N4  UNL     1      -6.055  -0.666   0.042  1.00  0.00    -0.330 N 
HETATM   45  C9  UNL     1      -6.955  -0.185   0.923  1.00  0.00     0.097 A 
HETATM   46  C10 UNL     1      -8.162  -0.038   0.258  1.00  0.00     0.019 A 
HETATM   47  C11 UNL     1      -7.960  -0.440  -1.031  1.00  0.00     0.019 A 
HETATM   48  C12 UNL     1      -6.629  -0.831  -1.147  1.00  0.00     0.097 A 
ENDBRANCH  40  44
ENDBRANCH   5  36
TORSDOF 14
