REMARK  2 active torsions:
REMARK  status: ('A' for Active; 'I' for Inactive)
REMARK    1  A    between atoms: C6_7  and  O1_8 
REMARK    2  A    between atoms: O1_8  and  O2_9 
ROOT
HETATM    1  C1  UNL     1       3.307   1.577   0.610  1.00  0.00     0.010 C 
HETATM    2  C2  UNL     1       2.813   0.563  -0.390  1.00  0.00    -0.013 C 
HETATM    3  C3  UNL     1       1.801   1.254  -1.272  1.00  0.00     0.029 C 
HETATM    4  C4  UNL     1       0.950   0.196  -1.902  1.00  0.00     0.159 C 
HETATM    5  C5  UNL     1       0.223   0.761  -3.049  1.00  0.00     0.069 C 
HETATM    6  N1  UNL     1      -0.350   1.225  -3.955  1.00  0.00    -0.197 NA
HETATM    7  C6  UNL     1      -0.099  -0.301  -0.886  1.00  0.00     0.221 C 
HETATM    8  O3  UNL     1      -1.062   0.620  -0.897  1.00  0.00    -0.341 OA
HETATM    9  C7  UNL     1      -2.189   0.575  -0.217  1.00  0.00     0.058 C 
HETATM   10  C8  UNL     1      -2.136   1.445   1.048  1.00  0.00     0.045 C 
HETATM   11  C9  UNL     1      -3.198   1.368  -1.093  1.00  0.00     0.045 C 
HETATM   12  C10 UNL     1      -2.850  -0.683   0.128  1.00  0.00     0.041 C 
HETATM   13  C11 UNL     1      -2.498  -1.307   1.459  1.00  0.00     0.030 C 
HETATM   14  C12 UNL     1      -1.146  -1.868   1.534  1.00  0.00    -0.030 C 
HETATM   15  C13 UNL     1       0.083  -1.556   1.151  1.00  0.00    -0.020 C 
HETATM   16  C14 UNL     1       0.649  -0.416   0.425  1.00  0.00     0.079 C 
HETATM   17  C15 UNL     1       2.133  -0.617   0.270  1.00  0.00    -0.002 C 
HETATM   18  C16 UNL     1       2.681  -0.810   1.692  1.00  0.00     0.011 C 
ENDROOT
BRANCH   7  19
HETATM   19  O1  UNL     1      -0.482  -1.560  -1.377  1.00  0.00    -0.201 OA
BRANCH  19  20
HETATM   20  O2  UNL     1       0.480  -2.412  -1.467  1.00  0.00    -0.247 OA
ATOM     21  H2  UNL     1       0.221  -3.264  -1.799  1.00  0.00     0.253 HD
ENDBRANCH  19  20
ENDBRANCH   7  19
TORSDOF 2
