REMARK  12 active torsions:
REMARK  status: ('A' for Active; 'I' for Inactive)
REMARK    1  A    between atoms: C2_2  and  O1_3 
REMARK    2  A    between atoms: O1_3  and  C3_4 
REMARK    3  A    between atoms: C3_4  and  C4_5 
REMARK    4  A    between atoms: C4_5  and  O2_6 
REMARK    5  A    between atoms: O2_6  and  C5_7 
REMARK    6  A    between atoms: C8_11  and  O4_12 
REMARK    7  A    between atoms: C9_14  and  S1_15 
REMARK    8  A    between atoms: S1_15  and  C10_16 
REMARK    9  A    between atoms: C10_16  and  C11_17 
REMARK   10  A    between atoms: C14_20  and  C15_21 
REMARK   11  A    between atoms: C17_29  and  O5_30 
REMARK   12  A    between atoms: C18_32  and  O6_33 
ROOT
HETATM    1  C5  UNL     1       3.446  -0.513   0.382  1.00  0.00     0.418 C 
HETATM    2  O3  UNL     1       3.281   0.109  -0.879  1.00  0.00    -0.308 OA
HETATM    3  C6  UNL     1       1.968   0.424  -1.259  1.00  0.00     0.149 C 
HETATM    4  C7  UNL     1       1.072  -0.512  -0.963  1.00  0.00     0.008 C 
HETATM    5  C8  UNL     1      -0.341  -0.249  -1.336  1.00  0.00     0.168 C 
HETATM    6  C9  UNL     1      -1.282  -1.241  -0.693  1.00  0.00     0.111 C 
HETATM    7  C17 UNL     1      -0.647  -2.648  -0.714  1.00  0.00     0.166 C 
HETATM    8  C18 UNL     1       0.497  -2.606   0.265  1.00  0.00     0.187 C 
HETATM    9  C19 UNL     1       1.571  -1.720  -0.293  1.00  0.00     0.118 C 
HETATM   10  C20 UNL     1       2.431  -2.567  -1.230  1.00  0.00     0.054 C 
HETATM   11  O7  UNL     1       2.381  -1.316   0.755  1.00  0.00    -0.320 OA
ENDROOT
BRANCH   6  12
HETATM   12  S1  UNL     1      -1.662  -0.878   0.995  1.00  0.00    -0.158 SA
BRANCH  12  13
HETATM   13  C10 UNL     1      -2.648   0.553   1.336  1.00  0.00     0.080 C 
BRANCH  13  14
HETATM   14  C11 UNL     1      -4.093   0.460   0.930  1.00  0.00     0.021 C 
HETATM   15  C12 UNL     1      -4.756   1.781   1.311  1.00  0.00     0.009 C 
HETATM   16  C13 UNL     1      -6.239   1.590   1.181  1.00  0.00     0.039 C 
HETATM   17  C14 UNL     1      -6.617   0.791  -0.034  1.00  0.00     0.223 C 
HETATM   18  N2  UNL     1      -5.558   0.742  -1.017  1.00  0.00    -0.066 N 
HETATM   19  C16 UNL     1      -4.336   0.149  -0.496  1.00  0.00     0.238 C 
ATOM     20  H22 UNL     1      -5.866   0.262  -1.863  1.00  0.00     0.278 HD
ATOM     21  H21 UNL     1      -5.378   1.667  -1.408  1.00  0.00     0.278 HD
BRANCH  17  22
HETATM   22  C15 UNL     1      -7.777   1.465  -0.679  1.00  0.00     0.085 C 
HETATM   23  N1  UNL     1      -8.954   1.283  -0.211  1.00  0.00    -0.409 N 
ATOM     24  H12 UNL     1      -9.079   0.677   0.600  1.00  0.00     0.155 HD
ATOM     25  H11 UNL     1      -9.749   1.745  -0.653  1.00  0.00     0.155 HD
ENDBRANCH  17  22
ENDBRANCH  13  14
ENDBRANCH  12  13
ENDBRANCH   6  12
BRANCH   5  26
HETATM   26  O4  UNL     1      -0.713   1.058  -1.074  1.00  0.00    -0.390 OA
ATOM     27  H4  UNL     1      -1.617   1.226  -1.313  1.00  0.00     0.210 HD
ENDBRANCH   5  26
BRANCH   7  28
HETATM   28  O5  UNL     1      -0.264  -2.991  -1.992  1.00  0.00    -0.392 OA
ATOM     29  H5  UNL     1       0.127  -3.857  -2.005  1.00  0.00     0.210 HD
ENDBRANCH   7  28
BRANCH   8  30
HETATM   30  O6  UNL     1       0.978  -3.913   0.448  1.00  0.00    -0.390 OA
ATOM     31  H6  UNL     1       1.700  -3.887   1.065  1.00  0.00     0.210 HD
ENDBRANCH   8  30
BRANCH   1  32
HETATM   32  O2  UNL     1       3.633   0.413   1.375  1.00  0.00    -0.337 OA
BRANCH  32  33
HETATM   33  C4  UNL     1       4.824   0.359   2.047  1.00  0.00     0.199 C 
BRANCH  33  34
HETATM   34  C3  UNL     1       6.026   0.579   1.166  1.00  0.00     0.193 C 
BRANCH  34  35
HETATM   35  O1  UNL     1       5.941   1.846   0.565  1.00  0.00    -0.389 OA
BRANCH  35  36
HETATM   36  C2  UNL     1       7.047   2.050  -0.244  1.00  0.00     0.163 C 
HETATM   37  C1  UNL     1       8.282   1.969   0.624  1.00  0.00     0.033 C 
ENDBRANCH  35  36
ENDBRANCH  34  35
ENDBRANCH  33  34
ENDBRANCH  32  33
ENDBRANCH   1  32
TORSDOF 12
