REMARK  18 active torsions:
REMARK  status: ('A' for Active; 'I' for Inactive)
REMARK    1  A    between atoms: O1_2  and  C2_3 
REMARK    2  A    between atoms: C2_3  and  C3_4 
REMARK    3  A    between atoms: C2_3  and  C5_10 
REMARK    4  A    between atoms: C3_4  and  O2_5 
REMARK    5  A    between atoms: C3_4  and  C4_7 
REMARK    6  A    between atoms: C4_7  and  O3_8 
REMARK    7  A    between atoms: C5_10  and  O4_11 
REMARK    8  A    between atoms: C5_10  and  C16_50 
REMARK    9  A    between atoms: O4_11  and  N1_12 
REMARK   10  A    between atoms: C6_13  and  N2_14 
REMARK   11  A    between atoms: N2_14  and  C7_16 
REMARK   12  A    between atoms: C10_19  and  S1_20 
REMARK   13  A    between atoms: S1_20  and  N3_23 
REMARK   14  A    between atoms: N3_23  and  C11_25 
REMARK   15  A    between atoms: C12_30  and  S2_31 
REMARK   16  A    between atoms: S2_31  and  N6_32 
REMARK   17  A    between atoms: C14_43  and  O9_44 
REMARK   18  A    between atoms: C18_53  and  N10_54 
ROOT
HETATM    1  N1  UNL     1      -2.778   1.102   0.931  1.00  0.00    -0.152 N 
HETATM    2  C6  UNL     1      -1.467   1.119   0.695  1.00  0.00     0.144 A 
HETATM    3  C13 UNL     1      -0.627   2.044   1.329  1.00  0.00     0.107 A 
HETATM    4  C14 UNL     1      -1.165   2.944   2.206  1.00  0.00     0.147 A 
HETATM    5  N9  UNL     1      -2.488   2.881   2.406  1.00  0.00    -0.287 N 
ATOM      6  H9  UNL     1      -2.899   3.548   3.059  1.00  0.00     0.172 HD
HETATM    7  C15 UNL     1      -3.304   2.014   1.817  1.00  0.00     0.354 A 
HETATM    8  O10 UNL     1      -4.549   2.036   2.076  1.00  0.00    -0.244 OA
ENDROOT
BRANCH   2   9
HETATM    9  N2  UNL     1      -0.853   0.324  -0.097  1.00  0.00    -0.326 N 
ATOM     10  H2  UNL     1      -1.425  -0.371  -0.576  1.00  0.00     0.169 HD
BRANCH   9  11
HETATM   11  C7  UNL     1       0.518   0.303  -0.378  1.00  0.00     0.121 A 
HETATM   12  C8  UNL     1       1.073   1.197  -1.269  1.00  0.00     0.053 A 
HETATM   13  C9  UNL     1       2.419   1.140  -1.514  1.00  0.00     0.049 A 
HETATM   14  C10 UNL     1       3.168   0.191  -0.861  1.00  0.00     0.164 A 
HETATM   15  N7  UNL     1       2.589  -0.661   0.000  1.00  0.00    -0.287 N 
HETATM   16  N8  UNL     1       1.302  -0.600   0.229  1.00  0.00    -0.284 N 
ATOM     17  H7  UNL     1       3.156  -1.361   0.479  1.00  0.00     0.188 HD
ATOM     18  H8  UNL     1       0.884  -1.257   0.887  1.00  0.00     0.188 HD
BRANCH  14  19
HETATM   19  S1  UNL     1       4.898   0.036  -1.107  1.00  0.00     0.281 S 
HETATM   20  O5  UNL     1       5.126  -1.348  -1.673  1.00  0.00    -0.199 OA
HETATM   21  O6  UNL     1       5.307   1.095  -2.092  1.00  0.00    -0.199 OA
BRANCH  19  22
HETATM   22  N3  UNL     1       5.684   0.258   0.410  1.00  0.00    -0.257 N 
ATOM     23  H3  UNL     1       5.153   0.517   1.242  1.00  0.00     0.181 HD
BRANCH  22  24
HETATM   24  C11 UNL     1       6.981   0.085   0.467  1.00  0.00     0.175 A 
HETATM   25  N4  UNL     1       7.821  -0.253  -0.517  1.00  0.00    -0.278 N 
HETATM   26  N5  UNL     1       9.054  -0.375  -0.253  1.00  0.00    -0.281 N 
ATOM     27  H4  UNL     1       7.475  -0.410  -1.464  1.00  0.00     0.189 HD
HETATM   28  C12 UNL     1       9.497  -0.171   0.980  1.00  0.00     0.208 A 
ATOM     29  H5  UNL     1       9.709  -0.631  -0.992  1.00  0.00     0.188 HD
HETATM   30  S3  UNL     1       8.049   0.220   1.799  1.00  0.00    -0.019 SA
BRANCH  28  31
HETATM   31  S2  UNL     1      11.161  -0.286   1.580  1.00  0.00     0.280 S 
HETATM   32  O7  UNL     1      11.300   0.601   2.780  1.00  0.00    -0.199 OA
HETATM   33  O8  UNL     1      12.128   0.042   0.496  1.00  0.00    -0.199 OA
BRANCH  31  34
HETATM   34  N6  UNL     1      11.421  -1.925   2.117  1.00  0.00    -0.323 N 
ATOM     35  H62 UNL     1      10.729  -2.673   2.085  1.00  0.00     0.169 HD
ATOM     36  H61 UNL     1      12.379  -1.991   2.462  1.00  0.00     0.169 HD
ENDBRANCH  31  34
ENDBRANCH  28  31
ENDBRANCH  22  24
ENDBRANCH  19  22
ENDBRANCH  14  19
ENDBRANCH   9  11
ENDBRANCH   2   9
BRANCH   1  37
HETATM   37  O4  UNL     1      -3.625   0.258   0.371  1.00  0.00    -0.253 OA
BRANCH  37  38
HETATM   38  C5  UNL     1      -3.749  -0.274  -0.873  1.00  0.00     0.234 C 
BRANCH  38  39
HETATM   39  C2  UNL     1      -4.299  -1.676  -0.949  1.00  0.00     0.189 C 
BRANCH  39  40
HETATM   40  O1  UNL     1      -5.577  -1.681  -0.384  1.00  0.00    -0.385 OA
HETATM   41  C1  UNL     1      -6.564  -2.093  -1.242  1.00  0.00     0.202 C 
ENDBRANCH  39  40
BRANCH  39  42
HETATM   42  C3  UNL     1      -3.426  -2.737  -0.364  1.00  0.00     0.173 C 
BRANCH  42  43
HETATM   43  O2  UNL     1      -2.197  -2.745  -0.952  1.00  0.00    -0.391 OA
ATOM     44  H2  UNL     1      -1.642  -3.420  -0.580  1.00  0.00     0.210 HD
ENDBRANCH  42  43
BRANCH  42  45
HETATM   45  C4  UNL     1      -3.386  -2.750   1.147  1.00  0.00     0.198 C 
BRANCH  45  46
HETATM   46  O3  UNL     1      -2.718  -3.926   1.562  1.00  0.00    -0.398 OA
ATOM     47  H3  UNL     1      -2.693  -3.934   2.512  1.00  0.00     0.209 HD
ENDBRANCH  45  46
ENDBRANCH  42  45
ENDBRANCH  39  42
ENDBRANCH  38  39
BRANCH  38  48
HETATM   48  C16 UNL     1      -4.770   0.605  -1.639  1.00  0.00     0.052 A 
HETATM   49  C17 UNL     1      -4.557   0.921  -2.945  1.00  0.00     0.081 A 
HETATM   50  S4  UNL     1      -5.920   1.893  -3.307  1.00  0.00    -0.064 SA
HETATM   51  C18 UNL     1      -6.671   1.834  -1.777  1.00  0.00     0.142 A 
HETATM   52  N11 UNL     1      -5.848   1.076  -1.059  1.00  0.00    -0.338 N 
ATOM     53  H11 UNL     1      -6.050   0.866  -0.081  1.00  0.00     0.168 HD
BRANCH  51  54
HETATM   54  N10 UNL     1      -7.797   2.411  -1.414  1.00  0.00    -0.380 N 
ATOM     55 2H10 UNL     1      -8.428   2.993  -1.965  1.00  0.00     0.158 HD
ATOM     56 1H10 UNL     1      -8.246   2.376  -0.499  1.00  0.00     0.158 HD
ENDBRANCH  51  54
ENDBRANCH  38  48
ENDBRANCH  37  38
ENDBRANCH   1  37
BRANCH   4  57
HETATM   57  O9  UNL     1      -0.375   3.895   2.873  1.00  0.00    -0.346 OA
ATOM     58  H9  UNL     1      -0.749   4.520   3.482  1.00  0.00     0.219 HD
ENDBRANCH   4  57
TORSDOF 18
