REMARK  9 active torsions:
REMARK  status: ('A' for Active; 'I' for Inactive)
REMARK    1  A    between atoms: N1_2  and  C2_4 
REMARK    2  A    between atoms: C3_5  and  N2_6 
REMARK    3  A    between atoms: N3_8  and  O1_10 
REMARK    4  A    between atoms: O1_10  and  C4_11 
REMARK    5  A    between atoms: C4_11  and  C5_13 
REMARK    6  A    between atoms: C5_13  and  O3_15 
REMARK    7  A    between atoms: C9_22  and  N5_23 
REMARK    8  A    between atoms: C10_28  and  N7_29 
REMARK    9  A    between atoms: N9_35  and  N10_36 
ROOT
HETATM    1  C2  UNL     1      -1.078   1.207  -0.923  1.00  0.00     0.170 C 
HETATM    2  C3  UNL     1      -0.172   0.220  -1.169  1.00  0.00     0.171 C 
HETATM    3  N4  UNL     1      -0.391  -1.092  -1.387  1.00  0.00    -0.304 N 
ATOM      4  H4  UNL     1       0.296  -1.590  -1.953  1.00  0.00     0.171 HD
HETATM    5  C7  UNL     1      -1.447  -1.810  -0.919  1.00  0.00     0.265 C 
HETATM    6  O4  UNL     1      -1.453  -3.008  -1.295  1.00  0.00    -0.267 OA
HETATM    7  C8  UNL     1      -2.475  -1.389  -0.106  1.00  0.00     0.122 A 
HETATM    8  C9  UNL     1      -3.210  -2.455   0.363  1.00  0.00     0.134 A 
HETATM    9  N6  UNL     1      -4.245  -2.183   1.170  1.00  0.00    -0.176 N 
ATOM     10  H6  UNL     1      -4.797  -2.964   1.525  1.00  0.00     0.186 HD
HETATM   11  C10 UNL     1      -4.597  -0.939   1.538  1.00  0.00     0.679 A 
HETATM   12  N8  UNL     1      -3.863   0.086   1.066  1.00  0.00    -0.174 N 
ATOM     13  H8  UNL     1      -4.114   1.037   1.335  1.00  0.00     0.186 HD
HETATM   14  C11 UNL     1      -2.810  -0.104   0.252  1.00  0.00     0.163 A 
HETATM   15  N9  UNL     1      -2.185   1.022  -0.130  1.00  0.00    -0.225 N 
ENDROOT
BRANCH   2  16
HETATM   16  N2  UNL     1       1.194   0.655  -1.195  1.00  0.00    -0.262 N 
HETATM   17  N3  UNL     1       1.944   0.236  -0.244  1.00  0.00    -0.197 N 
ATOM     18  H3  UNL     1       1.554  -0.373   0.476  1.00  0.00     0.216 HD
ATOM     19  H2  UNL     1       1.550   1.265  -1.931  1.00  0.00     0.190 HD
BRANCH  17  20
HETATM   20  O1  UNL     1       3.272   0.600  -0.184  1.00  0.00    -0.181 OA
BRANCH  20  21
HETATM   21  C4  UNL     1       4.241  -0.367  -0.058  1.00  0.00     0.310 C 
HETATM   22  O2  UNL     1       3.878  -1.570  -0.001  1.00  0.00    -0.260 OA
BRANCH  21  23
HETATM   23  C5  UNL     1       5.698  -0.003   0.011  1.00  0.00     0.215 C 
HETATM   24  C6  UNL     1       6.328  -0.569   1.241  1.00  0.00     0.050 C 
BRANCH  23  25
HETATM   25  O3  UNL     1       5.850   1.359  -0.069  1.00  0.00    -0.386 OA
ATOM     26  H3  UNL     1       6.771   1.589  -0.025  1.00  0.00     0.210 HD
ENDBRANCH  23  25
ENDBRANCH  21  23
ENDBRANCH  20  21
ENDBRANCH  17  20
ENDBRANCH   2  16
BRANCH   1  27
HETATM   27  N1  UNL     1      -0.947   2.356  -1.434  1.00  0.00    -0.376 N 
HETATM   28  C1  UNL     1       0.087   2.789  -2.289  1.00  0.00     0.148 C 
ATOM     29  H1  UNL     1      -1.665   3.042  -1.203  1.00  0.00     0.160 HD
ENDBRANCH   1  27
BRANCH  15  30
HETATM   30  N10 UNL     1      -2.773   2.181   0.365  1.00  0.00    -0.335 N 
ATOM     31 2H10 UNL     1      -2.298   3.036   0.075  1.00  0.00     0.177 HD
ATOM     32 1H10 UNL     1      -3.595   2.044   0.954  1.00  0.00     0.177 HD
ENDBRANCH  15  30
BRANCH   8  33
HETATM   33  N5  UNL     1      -2.893  -3.675   0.023  1.00  0.00    -0.384 N 
ATOM     34  H52 UNL     1      -2.105  -3.882  -0.591  1.00  0.00     0.157 HD
ATOM     35  H51 UNL     1      -3.437  -4.465   0.370  1.00  0.00     0.157 HD
ENDBRANCH   8  33
BRANCH  11  36
HETATM   36  N7  UNL     1      -5.621  -0.733   2.331  1.00  0.00    -0.234 N 
ATOM     37  H72 UNL     1      -6.177  -1.510   2.689  1.00  0.00     0.174 HD
ATOM     38  H71 UNL     1      -5.888   0.211   2.610  1.00  0.00     0.174 HD
ENDBRANCH  11  36
TORSDOF 9
