REMARK  12 active torsions:
REMARK  status: ('A' for Active; 'I' for Inactive)
REMARK    1  A    between atoms: C3_5  and  N2_6 
REMARK    2  A    between atoms: C4_10  and  N3_11 
REMARK       I    between atoms: N3_11  and  C5_13 
REMARK    3  A    between atoms: C5_13  and  C6_15 
REMARK    4  A    between atoms: C6_15  and  N4_16 
REMARK    5  A    between atoms: C8_18  and  N5_19 
REMARK    6  A    between atoms: C9_24  and  N8_25 
REMARK    7  A    between atoms: C10_30  and  N10_31 
REMARK    8  A    between atoms: N10_31  and  O2_32 
REMARK    9  A    between atoms: N11_34  and  O3_36 
REMARK   10  A    between atoms: O3_36  and  C11_37 
REMARK   11  A    between atoms: C11_37  and  N13_41 
REMARK   12  A    between atoms: N13_41  and  N14_43 
ROOT
HETATM    1  N4  UNL     1      -0.202  -0.686   1.211  1.00  0.00    -0.290 N 
HETATM    2  C7  UNL     1       0.089  -1.891   0.675  1.00  0.00     0.148 A 
HETATM    3  C8  UNL     1       1.231  -1.799  -0.093  1.00  0.00     0.143 A 
HETATM    4  C10 UNL     1       1.624  -0.480   0.001  1.00  0.00     0.200 A 
HETATM    5  N15 UNL     1       0.739   0.159   0.793  1.00  0.00    -0.278 N 
ATOM      6  H15 UNL     1       0.784   1.148   1.037  1.00  0.00     0.189 HD
ENDROOT
BRANCH   1   7
HETATM    7  C6  UNL     1      -1.290  -0.308   2.073  1.00  0.00     0.251 C 
BRANCH   7   8
HETATM    8  C5  UNL     1      -2.473   0.144   1.195  1.00  0.00     0.242 C 
HETATM    9  N3  UNL     1      -3.629   0.555   1.789  1.00  0.00    -0.318 N 
ATOM     10  H3  UNL     1      -3.587   0.526   2.808  1.00  0.00     0.169 HD
HETATM   11  O1  UNL     1      -2.212   0.074  -0.007  1.00  0.00    -0.271 OA
BRANCH   9  12
HETATM   12  C4  UNL     1      -4.869   1.011   1.302  1.00  0.00     0.102 A 
HETATM   13  C2  UNL     1      -5.509   1.179   0.126  1.00  0.00     0.041 A 
HETATM   14  C1  UNL     1      -4.872   0.730  -1.188  1.00  0.00     0.071 C 
HETATM   15  N1  UNL     1      -6.711   1.707   0.116  1.00  0.00    -0.338 N 
HETATM   16  C3  UNL     1      -7.277   2.065   1.256  1.00  0.00     0.144 A 
ATOM     17  H1  UNL     1      -7.205   1.840  -0.766  1.00  0.00     0.168 HD
HETATM   18  S1  UNL     1      -6.116   1.663   2.403  1.00  0.00    -0.035 SA
BRANCH  16  19
HETATM   19  N2  UNL     1      -8.472   2.604   1.408  1.00  0.00    -0.380 N 
ATOM     20  H22 UNL     1      -9.177   2.848   0.712  1.00  0.00     0.158 HD
ATOM     21  H21 UNL     1      -8.909   2.880   2.287  1.00  0.00     0.158 HD
ENDBRANCH  16  19
ENDBRANCH   9  12
ENDBRANCH   7   8
ENDBRANCH   1   7
BRANCH   3  22
HETATM   22  N5  UNL     1       1.874  -2.865  -0.834  1.00  0.00    -0.162 N 
HETATM   23  N6  UNL     1       1.636  -3.160  -2.094  1.00  0.00    -0.206 N 
HETATM   24  N7  UNL     1       2.385  -4.171  -2.442  1.00  0.00    -0.115 N 
ATOM     25  H6  UNL     1       0.973  -2.677  -2.701  1.00  0.00     0.211 HD
HETATM   26  C9  UNL     1       3.117  -4.532  -1.390  1.00  0.00     0.707 A 
ATOM     27  H7  UNL     1       2.406  -4.610  -3.363  1.00  0.00     0.207 HD
HETATM   28  N9  UNL     1       2.779  -3.701  -0.397  1.00  0.00    -0.108 N 
ATOM     29  H9  UNL     1       3.165  -3.717   0.547  1.00  0.00     0.208 HD
BRANCH  26  30
HETATM   30  N8  UNL     1       3.971  -5.479  -1.329  1.00  0.00    -0.232 N 
ATOM     31  H82 UNL     1       4.229  -6.112  -2.086  1.00  0.00     0.174 HD
ATOM     32  H81 UNL     1       4.532  -5.756  -0.523  1.00  0.00     0.174 HD
ENDBRANCH  26  30
ENDBRANCH   3  22
BRANCH   4  33
HETATM   33  N10 UNL     1       2.758   0.079  -0.631  1.00  0.00    -0.122 N 
HETATM   34  N11 UNL     1       3.037   1.310  -0.482  1.00  0.00    -0.170 N 
ATOM     35  H11 UNL     1       2.434   1.892   0.099  1.00  0.00     0.219 HD
BRANCH  33  36
HETATM   36  O2  UNL     1       3.579  -0.688  -1.415  1.00  0.00    -0.265 OA
ATOM     37  H2  UNL     1       4.341  -0.312  -1.840  1.00  0.00     0.247 HD
ENDBRANCH  33  36
BRANCH  34  38
HETATM   38  O3  UNL     1       4.135   1.872  -1.088  1.00  0.00    -0.182 OA
BRANCH  38  39
HETATM   39  C11 UNL     1       5.342   1.771  -0.420  1.00  0.00     0.257 C 
HETATM   40  N12 UNL     1       5.473   0.900   0.506  1.00  0.00    -0.363 N 
ATOM     41 2H12 UNL     1       4.692   0.289   0.744  1.00  0.00     0.159 HD
ATOM     42 1H12 UNL     1       6.363   0.826   0.999  1.00  0.00     0.159 HD
BRANCH  39  43
HETATM   43  N13 UNL     1       6.419   2.613  -0.748  1.00  0.00    -0.270 N 
ATOM     44  H13 UNL     1       7.313   2.509  -0.268  1.00  0.00     0.190 HD
BRANCH  43  45
HETATM   45  N14 UNL     1       6.264   3.589  -1.729  1.00  0.00    -0.342 N 
ATOM     46 2H14 UNL     1       5.364   3.680  -2.200  1.00  0.00     0.176 HD
ATOM     47 1H14 UNL     1       7.045   4.200  -1.967  1.00  0.00     0.176 HD
ENDBRANCH  43  45
ENDBRANCH  39  43
ENDBRANCH  38  39
ENDBRANCH  34  38
ENDBRANCH   4  33
TORSDOF 12
