REMARK  7 active torsions:
REMARK  status: ('A' for Active; 'I' for Inactive)
REMARK    1  A    between atoms: C5_10  and  S1_11 
REMARK    2  A    between atoms: S1_11  and  C6_12 
REMARK    3  A    between atoms: N4_14  and  C7_15 
REMARK       I    between atoms: N6_18  and  C8_19 
REMARK       I    between atoms: C8_19  and  N7_20 
REMARK       I    between atoms: C8_19  and  N8_24 
REMARK    4  A    between atoms: C9_28  and  C10_29 
REMARK    5  A    between atoms: N9_30  and  N10_32 
REMARK       I    between atoms: N10_32  and  C11_34 
REMARK       I    between atoms: C11_34  and  N12_38 
REMARK    6  A    between atoms: N12_38  and  N13_40 
REMARK    7  A    between atoms: C12_44  and  N14_45 
ROOT
HETATM    1  N1  UNL     1      -1.663   5.664   0.645  1.00  0.00    -0.188 NA
HETATM    2  C1  UNL     1      -2.240   4.680   0.452  1.00  0.00     0.137 C 
HETATM    3  C2  UNL     1      -2.965   3.446   0.197  1.00  0.00     0.191 A 
HETATM    4  N2  UNL     1      -2.317   2.272   0.075  1.00  0.00    -0.317 N 
ATOM      5  H2  UNL     1      -1.301   2.243   0.162  1.00  0.00     0.169 HD
HETATM    6  C3  UNL     1      -2.994   1.148  -0.158  1.00  0.00     0.150 A 
HETATM    7  C4  UNL     1      -4.367   1.226  -0.268  1.00  0.00     0.123 A 
HETATM    8  N3  UNL     1      -4.799  -0.014  -0.498  1.00  0.00    -0.330 N 
ATOM      9  H3  UNL     1      -5.771  -0.294  -0.629  1.00  0.00     0.168 HD
HETATM   10  C5  UNL     1      -3.725  -0.836  -0.528  1.00  0.00     0.163 A 
HETATM   11  N4  UNL     1      -2.600  -0.128  -0.319  1.00  0.00    -0.238 N 
HETATM   12  C12 UNL     1      -5.017   2.452  -0.138  1.00  0.00     0.132 A 
HETATM   13  N15 UNL     1      -4.301   3.567   0.097  1.00  0.00    -0.318 N 
ATOM     14  H15 UNL     1      -4.757   4.474   0.196  1.00  0.00     0.169 HD
ENDROOT
BRANCH  12  15
HETATM   15  N14 UNL     1      -6.307   2.536  -0.240  1.00  0.00    -0.383 N 
ATOM     16 2H14 UNL     1      -6.850   1.691  -0.418  1.00  0.00     0.157 HD
ATOM     17 1H14 UNL     1      -6.783   3.433  -0.145  1.00  0.00     0.157 HD
ENDBRANCH  12  15
BRANCH  11  18
HETATM   18  C7  UNL     1      -1.255  -0.650  -0.279  1.00  0.00     0.251 C 
HETATM   19  N5  UNL     1      -0.831  -1.679   0.343  1.00  0.00    -0.261 N 
HETATM   20  N6  UNL     1       0.538  -1.889   0.157  1.00  0.00    -0.237 N 
ATOM     21  H5  UNL     1      -1.425  -2.282   0.913  1.00  0.00     0.190 HD
HETATM   22  C8  UNL     1       1.323  -2.824   0.940  1.00  0.00     0.499 C 
HETATM   23  C9  UNL     1       0.930  -1.014  -0.920  1.00  0.00     0.293 C 
HETATM   24  N7  UNL     1       0.811  -4.185   0.797  1.00  0.00    -0.031 N 
HETATM   25  N8  UNL     1       2.692  -2.833   0.534  1.00  0.00    -0.031 N 
ATOM     26  H73 UNL     1      -0.181  -4.240   1.028  1.00  0.00     0.279 HD
ATOM     27  H72 UNL     1       0.757  -4.466  -0.182  1.00  0.00     0.279 HD
ATOM     28  H71 UNL     1       1.363  -4.843   1.348  1.00  0.00     0.279 HD
ATOM     29  H83 UNL     1       2.783  -3.017  -0.465  1.00  0.00     0.279 HD
ATOM     30  H82 UNL     1       3.094  -1.896   0.561  1.00  0.00     0.279 HD
ATOM     31  H81 UNL     1       3.244  -3.491   1.085  1.00  0.00     0.279 HD
HETATM   32  O2  UNL     1      -0.170  -0.096  -0.937  1.00  0.00    -0.288 OA
BRANCH  23  33
HETATM   33  C10 UNL     1       2.157  -0.246  -0.635  1.00  0.00     0.136 C 
HETATM   34  N9  UNL     1       2.414   0.300   0.491  1.00  0.00    -0.297 N 
ATOM     35  H9  UNL     1       1.720   0.192   1.230  1.00  0.00     0.186 HD
BRANCH  34  36
HETATM   36  N10 UNL     1       3.545   1.020   0.792  1.00  0.00    -0.132 N 
HETATM   37  C11 UNL     1       4.251   1.648  -0.259  1.00  0.00     0.704 C 
HETATM   38  N11 UNL     1       3.845   2.778  -0.710  1.00  0.00    -0.232 N 
HETATM   39  N12 UNL     1       5.402   1.049  -0.824  1.00  0.00    -0.138 N 
ATOM     40 2H11 UNL     1       3.015   3.210  -0.303  1.00  0.00     0.174 HD
ATOM     41 1H11 UNL     1       4.355   3.231  -1.469  1.00  0.00     0.174 HD
ATOM     42  H12 UNL     1       5.320   0.354  -1.566  1.00  0.00     0.205 HD
ATOM     43  H10 UNL     1       3.869   1.100   1.756  1.00  0.00     0.205 HD
BRANCH  39  44
HETATM   44  N13 UNL     1       6.643   1.431  -0.343  1.00  0.00    -0.331 N 
ATOM     45 2H13 UNL     1       6.709   2.127   0.400  1.00  0.00     0.177 HD
ATOM     46 1H13 UNL     1       7.473   0.999  -0.750  1.00  0.00     0.177 HD
ENDBRANCH  39  44
ENDBRANCH  34  36
ENDBRANCH  23  33
ENDBRANCH  11  18
BRANCH  10  47
HETATM   47  S1  UNL     1      -3.723  -2.612  -0.801  1.00  0.00    -0.024 SA
BRANCH  47  48
HETATM   48  C6  UNL     1      -3.882  -3.390   0.792  1.00  0.00     0.312 C 
HETATM   49  O1  UNL     1      -4.490  -2.859   1.678  1.00  0.00    -0.295 OA
ENDBRANCH  47  48
ENDBRANCH  10  47
TORSDOF 7
