REMARK  9 active torsions:
REMARK  status: ('A' for Active; 'I' for Inactive)
REMARK    1  A    between atoms: N1_1  and  C1_5 
REMARK    2  A    between atoms: C1_5  and  C2_6 
REMARK    3  A    between atoms: C1_5  and  C11_28 
REMARK       I    between atoms: C2_6  and  N2_8 
REMARK    4  A    between atoms: C4_11  and  C5_12 
REMARK    5  A    between atoms: C5_12  and  O2_13 
REMARK    6  A    between atoms: C5_12  and  O3_15 
REMARK    7  A    between atoms: C7_19  and  C8_20 
REMARK    8  A    between atoms: C7_19  and  C9_23 
REMARK    9  A    between atoms: C9_23  and  C10_25 
ROOT
HETATM    1  C2  UNL     1       1.131  -0.455  -0.498  1.00  0.00     0.260 C 
HETATM    2  O1  UNL     1       1.246  -1.225  -1.500  1.00  0.00    -0.270 OA
HETATM    3  N2  UNL     1      -0.091   0.188  -0.304  1.00  0.00    -0.329 N 
ATOM      4  H2  UNL     1      -0.228   1.085  -0.771  1.00  0.00     0.168 HD
HETATM    5  C3  UNL     1      -1.082  -0.269   0.433  1.00  0.00     0.036 C 
HETATM    6  C4  UNL     1      -0.943  -1.550   1.124  1.00  0.00     0.149 C 
HETATM    7  S1  UNL     1      -2.066  -1.282   2.554  1.00  0.00    -0.151 SA
HETATM    8  C6  UNL     1      -3.190  -0.171   1.664  1.00  0.00     0.110 C 
HETATM    9  C7  UNL     1      -2.319   0.469   0.584  1.00  0.00     0.167 C 
ENDROOT
BRANCH   6  10
HETATM   10  C5  UNL     1      -1.395  -2.762   0.391  1.00  0.00     0.273 C 
BRANCH  10  11
HETATM   11  O2  UNL     1      -2.742  -2.709   0.059  1.00  0.00    -0.370 OA
ATOM     12  H2  UNL     1      -3.031  -3.483  -0.409  1.00  0.00     0.212 HD
ENDBRANCH  10  11
BRANCH  10  13
HETATM   13  O3  UNL     1      -1.251  -3.858   1.275  1.00  0.00    -0.370 OA
ATOM     14  H3  UNL     1      -1.540  -4.632   0.807  1.00  0.00     0.212 HD
ENDBRANCH  10  13
ENDBRANCH   6  10
BRANCH   9  15
HETATM   15  C8  UNL     1      -3.127   0.471  -0.691  1.00  0.00     0.197 C 
HETATM   16  O4  UNL     1      -4.332   0.198  -0.610  1.00  0.00    -0.647 OA
HETATM   17  O5  UNL     1      -2.550   0.765  -1.889  1.00  0.00    -0.647 OA
ENDBRANCH   9  15
BRANCH   9  18
HETATM   18  C9  UNL     1      -2.163   1.881   0.972  1.00  0.00     0.250 C 
HETATM   19  O6  UNL     1      -2.655   2.210   2.124  1.00  0.00    -0.284 OA
BRANCH  18  20
HETATM   20  C10 UNL     1      -1.548   2.967   0.275  1.00  0.00     0.248 C 
HETATM   21  O7  UNL     1      -1.036   2.859  -0.844  1.00  0.00    -0.642 OA
HETATM   22  O8  UNL     1      -1.478   4.263   0.825  1.00  0.00    -0.642 OA
ENDBRANCH  18  20
ENDBRANCH   9  18
BRANCH   1  23
HETATM   23  C1  UNL     1       2.313  -0.301   0.392  1.00  0.00     0.343 C 
BRANCH  23  24
HETATM   24  N1  UNL     1       2.025   0.620   1.463  1.00  0.00    -0.059 N 
ATOM     25  H13 UNL     1       1.696   1.519   1.111  1.00  0.00     0.275 HD
ATOM     26  H12 UNL     1       1.192   0.346   1.984  1.00  0.00     0.275 HD
ATOM     27  H11 UNL     1       2.835   0.726   2.073  1.00  0.00     0.275 HD
ENDBRANCH  23  24
BRANCH  23  28
HETATM   28  C11 UNL     1       3.454   0.211  -0.430  1.00  0.00     0.140 A 
HETATM   29  N3  UNL     1       3.630   1.471  -0.876  1.00  0.00    -0.283 N 
HETATM   30  N4  UNL     1       4.748   1.561  -1.571  1.00  0.00    -0.250 N 
ATOM     31  H3  UNL     1       2.989   2.245  -0.701  1.00  0.00     0.188 HD
HETATM   32  C12 UNL     1       5.323   0.353  -1.590  1.00  0.00     0.340 A 
ATOM     33  H4  UNL     1       5.111   2.404  -2.016  1.00  0.00     0.192 HD
HETATM   34  O9  UNL     1       6.405   0.062  -2.160  1.00  0.00    -0.245 OA
HETATM   35  N5  UNL     1       4.522  -0.472  -0.886  1.00  0.00    -0.294 N 
ATOM     36  H5  UNL     1       4.698  -1.463  -0.723  1.00  0.00     0.172 HD
ENDBRANCH  23  28
ENDBRANCH   1  23
TORSDOF 9
