REMARK  12 active torsions:
REMARK  status: ('A' for Active; 'I' for Inactive)
REMARK    1  A    between atoms: C2_2  and  C3_3 
REMARK    2  A    between atoms: C3_3  and  C4_4 
REMARK    3  A    between atoms: C4_4  and  O1_5 
REMARK    4  A    between atoms: O1_5  and  C5_6 
REMARK       I    between atoms: C5_6  and  N1_8 
REMARK    5  A    between atoms: N1_8  and  C6_10 
REMARK    6  A    between atoms: C6_10  and  C8_12 
REMARK    7  A    between atoms: C8_12  and  N2_14 
REMARK       I    between atoms: N2_14  and  C10_16 
REMARK    8  A    between atoms: C10_16  and  C11_18 
REMARK    9  A    between atoms: C11_18  and  O4_19 
REMARK   10  A    between atoms: C11_18  and  C12_21 
REMARK   11  A    between atoms: C12_21  and  C13_22 
REMARK   12  A    between atoms: C13_22  and  C16_25 
ROOT
HETATM    1  C16 UNL     1       8.031  -2.148  -0.600  1.00  0.00     0.132 C 
HETATM    2  C17 UNL     1       9.404  -2.268  -1.068  1.00  0.00     0.059 C 
HETATM    3  N3  UNL     1      10.478  -2.372  -1.415  1.00  0.00    -0.197 NA
ENDROOT
BRANCH   1   4
HETATM    4  C13 UNL     1       7.626  -0.705  -0.371  1.00  0.00    -0.033 C 
HETATM    5  C14 UNL     1       7.819   0.016  -1.686  1.00  0.00     0.016 C 
HETATM    6  C15 UNL     1       8.565  -0.155   0.708  1.00  0.00     0.016 C 
BRANCH   4   7
HETATM    7  C12 UNL     1       6.215  -0.715   0.101  1.00  0.00     0.051 C 
BRANCH   7   8
HETATM    8  C11 UNL     1       5.620   0.635   0.338  1.00  0.00     0.210 C 
BRANCH   8   9
HETATM    9  C10 UNL     1       4.216   0.568   0.803  1.00  0.00     0.246 C 
HETATM   10  N2  UNL     1       3.275   1.518   0.285  1.00  0.00    -0.353 N 
ATOM     11  H2  UNL     1       3.593   2.213  -0.391  1.00  0.00     0.163 HD
HETATM   12  O3  UNL     1       3.828  -0.293   1.638  1.00  0.00    -0.271 OA
BRANCH  10  13
HETATM   13  C8  UNL     1       1.899   1.518   0.691  1.00  0.00     0.102 C 
HETATM   14  C9  UNL     1       1.694   2.728   1.593  1.00  0.00     0.034 C 
BRANCH  13  15
HETATM   15  C6  UNL     1       0.901   1.497  -0.416  1.00  0.00     0.105 C 
HETATM   16  C7  UNL     1       0.998   2.814  -1.219  1.00  0.00     0.034 C 
BRANCH  15  17
HETATM   17  N1  UNL     1      -0.456   1.429   0.037  1.00  0.00    -0.331 N 
HETATM   18  C5  UNL     1      -1.438   0.581  -0.555  1.00  0.00     0.360 C 
HETATM   19  O2  UNL     1      -1.071  -0.126  -1.530  1.00  0.00    -0.239 OA
ATOM     20  H1  UNL     1      -0.734   2.017   0.823  1.00  0.00     0.165 HD
BRANCH  18  21
HETATM   21  O1  UNL     1      -2.740   0.489  -0.134  1.00  0.00    -0.303 OA
BRANCH  21  22
HETATM   22  C4  UNL     1      -3.708  -0.356  -0.745  1.00  0.00     0.193 C 
BRANCH  22  23
HETATM   23  C3  UNL     1      -4.974  -0.229   0.024  1.00  0.00     0.013 C 
HETATM   24  C18 UNL     1      -5.407   1.251   0.112  1.00  0.00     0.180 C 
HETATM   25  O5  UNL     1      -6.744   1.200   0.494  1.00  0.00    -0.389 OA
HETATM   26  C19 UNL     1      -7.259  -0.039   0.195  1.00  0.00     0.177 C 
HETATM   27  C20 UNL     1      -6.203  -0.770  -0.615  1.00  0.00    -0.007 C 
HETATM   28  C21 UNL     1      -6.367  -2.227  -0.694  1.00  0.00     0.012 C 
HETATM   29  C24 UNL     1      -6.364  -0.289  -2.034  1.00  0.00     0.012 C 
HETATM   30  C22 UNL     1      -7.583  -2.351  -1.627  1.00  0.00     0.001 C 
HETATM   31  C23 UNL     1      -7.596  -1.108  -2.462  1.00  0.00     0.001 C 
BRANCH  23  32
HETATM   32  C2  UNL     1      -4.832  -0.640   1.473  1.00  0.00     0.010 C 
HETATM   33  C1  UNL     1      -4.405  -2.047   1.662  1.00  0.00     0.006 C 
ENDBRANCH  23  32
ENDBRANCH  22  23
ENDBRANCH  21  22
ENDBRANCH  18  21
ENDBRANCH  15  17
ENDBRANCH  13  15
ENDBRANCH  10  13
ENDBRANCH   8   9
BRANCH   8  34
HETATM   34  O4  UNL     1       5.826   1.569  -0.643  1.00  0.00    -0.386 OA
ATOM     35  H4  UNL     1       6.727   1.612  -0.941  1.00  0.00     0.210 HD
ENDBRANCH   8  34
ENDBRANCH   7   8
ENDBRANCH   4   7
ENDBRANCH   1   4
TORSDOF 12
