REMARK  4 active torsions:
REMARK  status: ('A' for Active; 'I' for Inactive)
REMARK    1  A    between atoms: S1_2  and  C2_3 
REMARK    2  A    between atoms: C6_7  and  O1_8 
REMARK    3  A    between atoms: C6_7  and  O2_10 
REMARK    4  A    between atoms: C13_18  and  O3_19 
ROOT
HETATM    1  C2  UNL     1       2.683   0.542  -0.147  1.00  0.00    -0.006 A 
HETATM    2  C3  UNL     1       1.632   1.316   0.025  1.00  0.00    -0.052 A 
HETATM    3  C4  UNL     1       0.721   2.472   0.069  1.00  0.00     0.042 C 
HETATM    4  C5  UNL     1      -0.622   2.195   0.676  1.00  0.00     0.073 C 
HETATM    5  C6  UNL     1      -1.639   1.540  -0.171  1.00  0.00     0.169 C 
HETATM    6  C7  UNL     1      -1.869   0.055   0.031  1.00  0.00     0.038 C 
HETATM    7  C8  UNL     1      -3.125  -0.189   0.845  1.00  0.00     0.024 C 
HETATM    8  C9  UNL     1      -1.919  -0.689  -1.288  1.00  0.00     0.017 C 
HETATM    9  C10 UNL     1      -1.222  -2.005  -1.359  1.00  0.00     0.002 C 
HETATM   10  C11 UNL     1       0.222  -2.007  -0.837  1.00  0.00     0.009 C 
HETATM   11  C12 UNL     1       0.369  -0.653  -0.264  1.00  0.00     0.033 C 
HETATM   12  C13 UNL     1      -0.734  -0.570   0.788  1.00  0.00     0.137 C 
HETATM   13  C14 UNL     1       1.580  -0.168   0.363  1.00  0.00     0.020 A 
HETATM   14  C15 UNL     1       1.724  -0.522   1.857  1.00  0.00     0.026 C 
ENDROOT
BRANCH   5  15
HETATM   15  O1  UNL     1      -2.915   2.134   0.043  1.00  0.00    -0.365 OA
ATOM     16  H1  UNL     1      -3.569   1.713  -0.502  1.00  0.00     0.213 HD
ENDBRANCH   5  15
BRANCH   5  17
HETATM   17  O2  UNL     1      -1.370   1.871  -1.508  1.00  0.00    -0.365 OA
ATOM     18  H2  UNL     1      -2.024   1.450  -2.053  1.00  0.00     0.213 HD
ENDBRANCH   5  17
BRANCH  12  19
HETATM   19  O3  UNL     1      -1.168  -1.860   1.183  1.00  0.00    -0.394 OA
ATOM     20  H3  UNL     1      -0.449  -2.256   1.662  1.00  0.00     0.210 HD
ENDBRANCH  12  19
BRANCH   1  21
HETATM   21  S1  UNL     1       4.406   0.521  -0.704  1.00  0.00    -0.137 SA
HETATM   22  C1  UNL     1       5.086  -1.127  -0.575  1.00  0.00     0.095 C 
ENDBRANCH   1  21
TORSDOF 4
