REMARK  16 active torsions:
REMARK  status: ('A' for Active; 'I' for Inactive)
REMARK    1  A    between atoms: N1_1  and  C1_5 
REMARK    2  A    between atoms: C4_8  and  N2_9 
REMARK    3  A    between atoms: N3_12  and  C7_13 
REMARK    4  A    between atoms: N6_21  and  C11_22 
REMARK    5  A    between atoms: C11_22  and  C12_23 
REMARK    6  A    between atoms: C12_23  and  O1_24 
REMARK    7  A    between atoms: C12_23  and  C13_26 
REMARK    8  A    between atoms: C13_26  and  C14_27 
REMARK    9  A    between atoms: C14_27  and  O2_28 
REMARK   10  A    between atoms: C15_30  and  N7_31 
REMARK   11  A    between atoms: N7_31  and  C16_33 
REMARK   12  A    between atoms: C18_35  and  N8_36 
REMARK   13  A    between atoms: C19_40  and  O3_41 
REMARK   14  A    between atoms: C20_43  and  O4_44 
REMARK   15  A    between atoms: C20_43  and  C21_46 
REMARK   16  A    between atoms: C21_46  and  O5_47 
ROOT
HETATM    1  C7  UNL     1      -0.004   0.425   0.094  1.00  0.00     0.683 A 
HETATM    2  N4  UNL     1      -0.337   1.687   0.441  1.00  0.00    -0.174 N 
ATOM      3  H4  UNL     1       0.405   2.355   0.652  1.00  0.00     0.186 HD
HETATM    4  C8  UNL     1      -1.611   2.087   0.516  1.00  0.00     0.155 A 
HETATM    5  C9  UNL     1      -2.591   1.163   0.226  1.00  0.00     0.123 A 
HETATM    6  N5  UNL     1      -3.766   1.787   0.368  1.00  0.00    -0.346 N 
ATOM      7  H5  UNL     1      -4.687   1.374   0.223  1.00  0.00     0.167 HD
HETATM    8  C10 UNL     1      -3.515   3.057   0.736  1.00  0.00     0.185 A 
HETATM    9  N6  UNL     1      -2.193   3.270   0.835  1.00  0.00    -0.324 N 
HETATM   10  C15 UNL     1      -2.277  -0.132  -0.132  1.00  0.00     0.148 A 
HETATM   11  N9  UNL     1      -0.960  -0.457  -0.185  1.00  0.00    -0.174 N 
ATOM     12  H9  UNL     1      -0.695  -1.407  -0.447  1.00  0.00     0.186 HD
ENDROOT
BRANCH  10  13
HETATM   13  N7  UNL     1      -3.188  -1.002  -0.403  1.00  0.00    -0.369 N 
ATOM     14  H7  UNL     1      -4.162  -0.704  -0.345  1.00  0.00     0.161 HD
BRANCH  13  15
HETATM   15  C16 UNL     1      -2.928  -2.361  -0.781  1.00  0.00     0.088 C 
HETATM   16  C17 UNL     1      -2.495  -3.227   0.357  1.00  0.00     0.060 C 
HETATM   17  C18 UNL     1      -3.588  -3.973   1.058  1.00  0.00     0.217 C 
HETATM   18  C19 UNL     1      -4.626  -4.565   0.165  1.00  0.00     0.185 C 
HETATM   19  C20 UNL     1      -5.210  -3.436  -0.661  1.00  0.00     0.108 C 
HETATM   20  C22 UNL     1      -4.122  -2.900  -1.528  1.00  0.00     0.068 C 
BRANCH  17  21
HETATM   21  N8  UNL     1      -2.965  -5.062   1.802  1.00  0.00    -0.072 N 
ATOM     22  H83 UNL     1      -2.384  -5.663   1.217  1.00  0.00     0.274 HD
ATOM     23  H82 UNL     1      -2.231  -4.743   2.435  1.00  0.00     0.274 HD
ATOM     24  H81 UNL     1      -3.709  -5.570   2.279  1.00  0.00     0.274 HD
ENDBRANCH  17  21
BRANCH  18  25
HETATM   25  O3  UNL     1      -5.639  -5.089   0.970  1.00  0.00    -0.390 OA
ATOM     26  H3  UNL     1      -6.300  -5.466   0.401  1.00  0.00     0.210 HD
ENDBRANCH  18  25
BRANCH  19  27
HETATM   27  O4  UNL     1      -6.186  -3.969  -1.536  1.00  0.00    -0.385 OA
ATOM     28  H4  UNL     1      -6.552  -3.261  -2.054  1.00  0.00     0.210 HD
ENDBRANCH  19  27
BRANCH  19  29
HETATM   29  C21 UNL     1      -5.901  -2.409   0.175  1.00  0.00     0.204 C 
BRANCH  29  30
HETATM   30  O5  UNL     1      -6.931  -3.070   0.874  1.00  0.00    -0.398 OA
ATOM     31  H5  UNL     1      -7.370  -2.417   1.406  1.00  0.00     0.209 HD
ENDBRANCH  29  30
ENDBRANCH  19  29
ENDBRANCH  13  15
ENDBRANCH  10  13
BRANCH   1  32
HETATM   32  N3  UNL     1       1.406   0.091   0.036  1.00  0.00    -0.214 N 
HETATM   33  C6  UNL     1       1.813  -1.262  -0.251  1.00  0.00     0.171 C 
HETATM   34  C5  UNL     1       3.158  -1.500   0.420  1.00  0.00     0.293 C 
HETATM   35  N2  UNL     1       4.051  -0.470  -0.001  1.00  0.00     0.096 N 
HETATM   36  C24 UNL     1       3.704   0.733   0.727  1.00  0.00     0.293 C 
HETATM   37  C23 UNL     1       2.357   1.163   0.261  1.00  0.00     0.171 C 
BRANCH  35  38
HETATM   38  C4  UNL     1       5.447  -0.824   0.176  1.00  0.00     0.225 C 
HETATM   39  C3  UNL     1       5.705  -2.035  -0.715  1.00  0.00     0.038 C 
HETATM   40  C2  UNL     1       7.140  -1.895  -1.176  1.00  0.00     0.035 C 
HETATM   41  C1  UNL     1       7.524  -0.459  -1.006  1.00  0.00     0.185 C 
HETATM   42  C25 UNL     1       6.280   0.224  -0.528  1.00  0.00     0.068 C 
BRANCH  41  43
HETATM   43  N1  UNL     1       7.938   0.169  -2.251  1.00  0.00    -0.075 N 
ATOM     44  H13 UNL     1       8.690  -0.359  -2.693  1.00  0.00     0.274 HD
ATOM     45  H12 UNL     1       7.219   0.066  -2.967  1.00  0.00     0.274 HD
ATOM     46  H11 UNL     1       8.200   1.148  -2.135  1.00  0.00     0.274 HD
ENDBRANCH  41  43
ENDBRANCH  35  38
ENDBRANCH   1  32
BRANCH   9  47
HETATM   47  C11 UNL     1      -1.465   4.452   1.191  1.00  0.00     0.163 C 
BRANCH  47  48
HETATM   48  C12 UNL     1      -1.145   5.298  -0.030  1.00  0.00     0.138 C 
BRANCH  48  49
HETATM   49  O1  UNL     1      -0.376   4.543  -0.907  1.00  0.00    -0.394 OA
ATOM     50  H1  UNL     1      -0.176   5.072  -1.670  1.00  0.00     0.210 HD
ENDBRANCH  48  49
BRANCH  48  51
HETATM   51  C13 UNL     1      -0.428   6.523   0.453  1.00  0.00     0.059 C 
BRANCH  51  52
HETATM   52  C14 UNL     1      -0.056   7.451  -0.688  1.00  0.00     0.166 C 
BRANCH  52  53
HETATM   53  O2  UNL     1      -1.176   7.882  -1.380  1.00  0.00    -0.401 OA
ATOM     54  H2  UNL     1      -0.943   8.463  -2.095  1.00  0.00     0.209 HD
ENDBRANCH  52  53
ENDBRANCH  51  52
ENDBRANCH  48  51
ENDBRANCH  47  48
ENDBRANCH   9  47
TORSDOF 16
