REMARK  1 active torsions:
REMARK  status: ('A' for Active; 'I' for Inactive)
REMARK    1  A    between atoms: C1_2  and  C2_4 
ROOT
HETATM    1  C2  UNL     1       0.435   0.306   0.254  1.00  0.00     0.083 C 
HETATM    2  C3  UNL     1      -0.799   0.341   1.104  1.00  0.00    -0.001 C 
HETATM    3  C4  UNL     1      -1.385  -0.646   0.151  1.00  0.00     0.011 C 
HETATM    4  C5  UNL     1      -0.648   0.319  -0.744  1.00  0.00    -0.001 C 
HETATM    5  C6  UNL     1      -1.284   1.388   0.125  1.00  0.00     0.011 C 
ENDROOT
BRANCH   1   6
HETATM    6  C1  UNL     1       1.322  -0.843   0.368  1.00  0.00     0.236 C 
HETATM    7  N1  UNL     1       2.479  -0.862  -0.481  1.00  0.00    -0.062 NA
HETATM    8  O1  UNL     1       1.189  -1.829   1.132  1.00  0.00    -0.276 OA
ENDBRANCH   1   6
TORSDOF 1
