REMARK  4 active torsions:
REMARK  status: ('A' for Active; 'I' for Inactive)
REMARK    1  A    between atoms: C2_2  and  C3_3 
REMARK    2  A    between atoms: N1_12  and  C10_13 
REMARK    3  A    between atoms: C10_13  and  C11_14 
REMARK    4  A    between atoms: C23_26  and  O1_27 
ROOT
HETATM    1  C11 UNL     1      -0.202  -0.053   0.249  1.00  0.00    -0.027 C 
HETATM    2  C12 UNL     1      -0.907   0.377   1.282  1.00  0.00    -0.019 C 
HETATM    3  C13 UNL     1      -2.156   1.133   1.079  1.00  0.00     0.033 C 
HETATM    4  C14 UNL     1      -2.980   0.682  -0.076  1.00  0.00     0.008 C 
HETATM    5  C15 UNL     1      -4.323   0.226   0.411  1.00  0.00    -0.043 C 
HETATM    6  C16 UNL     1      -5.340  -0.000  -0.658  1.00  0.00     0.015 C 
HETATM    7  C17 UNL     1      -4.874   1.269   1.354  1.00  0.00     0.015 C 
HETATM    8  C18 UNL     1      -4.086  -1.048   1.188  1.00  0.00     0.009 C 
HETATM    9  C19 UNL     1      -3.429  -2.111   0.393  1.00  0.00     0.002 C 
HETATM   10  C20 UNL     1      -2.329  -1.703  -0.523  1.00  0.00     0.012 C 
HETATM   11  C21 UNL     1      -2.315  -0.312  -0.988  1.00  0.00    -0.009 C 
HETATM   12  C22 UNL     1      -2.872  -0.119  -2.378  1.00  0.00     0.018 C 
HETATM   13  C23 UNL     1      -0.856   0.223  -1.090  1.00  0.00     0.157 C 
ENDROOT
BRANCH   1  14
HETATM   14  C10 UNL     1       1.047  -0.805   0.365  1.00  0.00     0.309 C 
BRANCH  14  15
HETATM   15  N1  UNL     1       2.233  -0.150  -0.164  1.00  0.00     0.097 N 
HETATM   16  C3  UNL     1       3.293  -1.111  -0.248  1.00  0.00     0.223 C 
HETATM   17  C4  UNL     1       4.684  -0.604  -0.182  1.00  0.00     0.036 C 
HETATM   18  C5  UNL     1       5.040   0.439  -1.201  1.00  0.00     0.008 C 
HETATM   19  C6  UNL     1       5.021   1.842  -0.637  1.00  0.00     0.079 C 
HETATM   20  C7  UNL     1       3.769   2.565  -0.996  1.00  0.00     0.245 C 
HETATM   21  F1  UNL     1       3.545   2.335  -2.352  1.00  0.00    -0.206 F 
HETATM   22  F2  UNL     1       4.004   3.939  -0.908  1.00  0.00    -0.206 F 
HETATM   23  C8  UNL     1       2.564   2.257  -0.168  1.00  0.00     0.109 C 
HETATM   24  C9  UNL     1       2.589   1.007   0.619  1.00  0.00     0.279 C 
BRANCH  16  25
HETATM   25  C2  UNL     1       3.192  -2.312   0.637  1.00  0.00     0.031 C 
HETATM   26  C1  UNL     1       3.524  -2.065   2.084  1.00  0.00     0.007 C 
ENDBRANCH  16  25
ENDBRANCH  14  15
ENDBRANCH   1  14
BRANCH  13  27
HETATM   27  O1  UNL     1      -0.998   1.582  -1.232  1.00  0.00    -0.390 OA
ATOM     28  H1  UNL     1      -1.408   1.755  -2.071  1.00  0.00     0.210 HD
ENDBRANCH  13  27
TORSDOF 4
