REMARK  3 active torsions:
REMARK  status: ('A' for Active; 'I' for Inactive)
REMARK    1  A    between atoms: C1_2  and  N1_3 
REMARK    2  A    between atoms: N1_3  and  C2_5 
REMARK    3  A    between atoms: N2_8  and  C5_9 
ROOT
HETATM    1  C2  UNL     1       0.314  -0.151   0.867  1.00  0.00     0.103 C 
HETATM    2  C3  UNL     1       0.129  -1.287  -0.145  1.00  0.00     0.046 C 
HETATM    3  C4  UNL     1      -1.193  -0.888  -0.767  1.00  0.00     0.127 C 
HETATM    4  N2  UNL     1      -1.019   0.540  -0.945  1.00  0.00    -0.357 N 
HETATM    5  C6  UNL     1      -0.105   1.042   0.062  1.00  0.00     0.150 C 
ENDROOT
BRANCH   1   6
HETATM    6  N1  UNL     1       1.653  -0.072   1.358  1.00  0.00    -0.362 N 
ATOM      7  H1  UNL     1       2.425   0.124   0.721  1.00  0.00     0.162 HD
BRANCH   6   8
HETATM    8  C1  UNL     1       1.899  -0.270   2.744  1.00  0.00     0.348 C 
HETATM    9  O1  UNL     1       1.002  -0.510   3.567  1.00  0.00    -0.284 OA
ENDBRANCH   6   8
ENDBRANCH   1   6
BRANCH   4  10
HETATM   10  C5  UNL     1      -1.648   1.307  -1.947  1.00  0.00     0.350 C 
HETATM   11  O2  UNL     1      -1.436   2.558  -2.029  1.00  0.00    -0.284 OA
ENDBRANCH   4  10
TORSDOF 3
