REMARK  8 active torsions:
REMARK  status: ('A' for Active; 'I' for Inactive)
REMARK    1  A    between atoms: C2_2  and  C3_3 
REMARK    2  A    between atoms: C3_3  and  O1_4 
REMARK    3  A    between atoms: O1_4  and  C4_5 
REMARK    4  A    between atoms: C5_7  and  C6_8 
REMARK    5  A    between atoms: C6_8  and  O3_9 
REMARK    6  A    between atoms: C8_11  and  C9_12 
REMARK    7  A    between atoms: C9_12  and  C10_13 
REMARK    8  A    between atoms: C17_21  and  O5_23 
ROOT
HETATM    1  C4  UNL     1      -0.881  -0.066  -0.609  1.00  0.00     0.182 C 
HETATM    2  O2  UNL     1       0.220   0.152  -1.280  1.00  0.00    -0.342 OA
HETATM    3  C5  UNL     1       1.463   0.302  -0.731  1.00  0.00     0.178 C 
HETATM    4  C8  UNL     1       1.643  -0.175   0.628  1.00  0.00    -0.049 C 
HETATM    5  C12 UNL     1       0.962  -1.183   1.238  1.00  0.00     0.013 C 
HETATM    6  C13 UNL     1      -0.095  -1.969   0.573  1.00  0.00    -0.037 C 
HETATM    7  C14 UNL     1      -0.067  -3.248   1.005  1.00  0.00     0.058 C 
HETATM    8  C15 UNL     1      -1.067  -4.104   0.384  1.00  0.00     0.152 C 
HETATM    9  O4  UNL     1      -1.816  -4.811   1.041  1.00  0.00    -0.293 OA
HETATM   10  C16 UNL     1      -1.011  -3.973  -1.112  1.00  0.00     0.121 C 
HETATM   11  C17 UNL     1      -1.176  -2.491  -1.550  1.00  0.00     0.078 C 
HETATM   12  C18 UNL     1      -2.513  -2.647  -2.281  1.00  0.00     0.047 C 
HETATM   13  C19 UNL     1      -1.129  -1.577  -0.421  1.00  0.00     0.075 C 
HETATM   14  C20 UNL     1      -2.537  -1.412   0.205  1.00  0.00     0.024 C 
HETATM   15  C21 UNL     1      -3.210  -0.397  -0.712  1.00  0.00     0.011 C 
HETATM   16  C22 UNL     1      -2.113   0.249  -1.465  1.00  0.00     0.045 C 
HETATM   17  C23 UNL     1      -2.365   1.721  -1.670  1.00  0.00     0.015 C 
ENDROOT
BRANCH   1  18
HETATM   18  O1  UNL     1      -1.070   0.376   0.671  1.00  0.00    -0.353 OA
BRANCH  18  19
HETATM   19  C3  UNL     1      -1.087   1.570   1.154  1.00  0.00     0.171 C 
BRANCH  19  20
HETATM   20  C2  UNL     1      -1.346   1.497   2.691  1.00  0.00     0.022 C 
HETATM   21  C1  UNL     1      -1.369   2.874   3.268  1.00  0.00     0.007 C 
ENDBRANCH  19  20
ENDBRANCH  18  19
ENDBRANCH   1  18
BRANCH   3  22
HETATM   22  C6  UNL     1       1.929   1.685  -1.055  1.00  0.00     0.203 C 
BRANCH  22  23
HETATM   23  O3  UNL     1       2.054   1.872  -2.447  1.00  0.00    -0.393 OA
HETATM   24  C7  UNL     1       2.497   3.209  -2.584  1.00  0.00     0.201 C 
ENDBRANCH  22  23
ENDBRANCH   3  22
BRANCH  11  25
HETATM   25  O5  UNL     1      -0.165  -2.318  -2.501  1.00  0.00    -0.388 OA
ATOM     26  H5  UNL     1      -0.266  -1.412  -2.769  1.00  0.00     0.210 HD
ENDBRANCH  11  25
BRANCH   4  27
HETATM   27  C9  UNL     1       2.632   0.413   1.513  1.00  0.00     0.036 C 
BRANCH  27  28
HETATM   28  C10 UNL     1       4.064   0.256   1.113  1.00  0.00    -0.000 C 
HETATM   29  C11 UNL     1       4.993   0.941   2.126  1.00  0.00     0.005 C 
ENDBRANCH  27  28
ENDBRANCH   4  27
TORSDOF 8
