REMARK  8 active torsions:
REMARK  status: ('A' for Active; 'I' for Inactive)
REMARK    1  A    between atoms: C2_2  and  C4_4 
REMARK    2  A    between atoms: C4_4  and  C5_5 
REMARK    3  A    between atoms: C5_5  and  S1_6 
REMARK    4  A    between atoms: C5_5  and  C9_18 
REMARK    5  A    between atoms: S1_6  and  C6_7 
REMARK    6  A    between atoms: C6_7  and  C7_8 
REMARK    7  A    between atoms: C7_8  and  C8_9 
REMARK       I    between atoms: C9_18  and  N5_20 
REMARK    8  A    between atoms: N5_20  and  C10_22 
ROOT
HETATM    1  C10 UNL     1      -2.448  -0.640   0.444  1.00  0.00     0.128 C 
HETATM    2  C11 UNL     1      -2.884  -0.876   1.844  1.00  0.00     0.091 C 
HETATM    3  N6  UNL     1      -3.212  -1.049   2.951  1.00  0.00    -0.195 NA
HETATM    4  C12 UNL     1      -3.319   0.363  -0.189  1.00  0.00     0.025 C 
HETATM    5  C13 UNL     1      -3.010   1.812   0.056  1.00  0.00     0.014 C 
HETATM    6  C14 UNL     1      -4.730   0.142   0.367  1.00  0.00     0.008 C 
HETATM    7  C15 UNL     1      -5.229  -1.235   0.085  1.00  0.00     0.001 C 
HETATM    8  C16 UNL     1      -4.216  -2.315   0.218  1.00  0.00     0.008 C 
HETATM    9  C17 UNL     1      -2.846  -1.983  -0.262  1.00  0.00     0.025 C 
HETATM   10  C18 UNL     1      -2.813  -1.826  -1.746  1.00  0.00     0.014 C 
ENDROOT
BRANCH   1  11
HETATM   11  N5  UNL     1      -1.044  -0.492   0.377  1.00  0.00    -0.337 N 
HETATM   12  C9  UNL     1      -0.209   0.406   1.079  1.00  0.00     0.233 C 
HETATM   13  O1  UNL     1      -0.628   1.236   1.909  1.00  0.00    -0.272 OA
ATOM     14  H5  UNL     1      -0.567  -1.121  -0.268  1.00  0.00     0.164 HD
BRANCH  12  15
HETATM   15  C5  UNL     1       1.281   0.394   0.843  1.00  0.00     0.139 C 
BRANCH  15  16
HETATM   16  C4  UNL     1       1.910   1.593   1.459  1.00  0.00     0.028 C 
BRANCH  16  17
HETATM   17  C2  UNL     1       1.488   2.880   0.805  1.00  0.00    -0.021 C 
HETATM   18  C1  UNL     1       2.143   4.084   1.449  1.00  0.00     0.009 C 
HETATM   19  C3  UNL     1       1.869   2.884  -0.683  1.00  0.00     0.009 C 
ENDBRANCH  16  17
ENDBRANCH  15  16
BRANCH  15  20
HETATM   20  S1  UNL     1       1.846  -1.147   1.633  1.00  0.00    -0.154 SA
BRANCH  20  21
HETATM   21  C6  UNL     1       3.606  -1.439   1.328  1.00  0.00     0.082 C 
BRANCH  21  22
HETATM   22  C7  UNL     1       3.766  -1.699  -0.152  1.00  0.00     0.089 C 
BRANCH  22  23
HETATM   23  C8  UNL     1       5.187  -1.952  -0.505  1.00  0.00     0.113 A 
HETATM   24  N1  UNL     1       6.269  -1.974   0.272  1.00  0.00    -0.272 N 
HETATM   25  N2  UNL     1       7.295  -2.249  -0.538  1.00  0.00    -0.227 N 
ATOM     26  H1  UNL     1       6.306  -1.814   1.279  1.00  0.00     0.190 HD
HETATM   27  N3  UNL     1       6.888  -2.395  -1.772  1.00  0.00    -0.227 N 
ATOM     28  H2  UNL     1       8.265  -2.334  -0.235  1.00  0.00     0.210 HD
HETATM   29  N4  UNL     1       5.580  -2.213  -1.765  1.00  0.00    -0.272 N 
ATOM     30  H3  UNL     1       7.468  -2.608  -2.583  1.00  0.00     0.210 HD
ATOM     31  H4  UNL     1       4.969  -2.262  -2.580  1.00  0.00     0.190 HD
ENDBRANCH  22  23
ENDBRANCH  21  22
ENDBRANCH  20  21
ENDBRANCH  15  20
ENDBRANCH  12  15
ENDBRANCH   1  11
TORSDOF 8
