REMARK  11 active torsions:
REMARK  status: ('A' for Active; 'I' for Inactive)
REMARK    1  A    between atoms: C2_5  and  O2_6 
REMARK    2  A    between atoms: C4_9  and  N2_10 
REMARK    3  A    between atoms: C7_13  and  C8_14 
REMARK    4  A    between atoms: C8_14  and  N3_15 
REMARK    5  A    between atoms: N3_15  and  N4_17 
REMARK       I    between atoms: N4_17  and  C9_19 
REMARK       I    between atoms: C9_19  and  N6_24 
REMARK    6  A    between atoms: N5_20  and  O3_22 
REMARK    7  A    between atoms: N6_24  and  N7_26 
REMARK    8  A    between atoms: C10_28  and  C11_29 
REMARK    9  A    between atoms: C13_31  and  N8_32 
REMARK   10  A    between atoms: C15_36  and  O6_37 
REMARK   11  A    between atoms: C16_39  and  O7_40 
ROOT
HETATM    1  N4  UNL     1      -0.233   0.617   0.734  1.00  0.00    -0.129 N 
ATOM      2  H4  UNL     1       0.180  -0.291   0.520  1.00  0.00     0.205 HD
HETATM    3  C9  UNL     1       0.554   1.516   1.480  1.00  0.00     0.731 C 
HETATM    4  N5  UNL     1       0.496   1.592   2.769  1.00  0.00    -0.096 N 
ATOM      5  H5  UNL     1      -0.142   0.981   3.279  1.00  0.00     0.213 HD
HETATM    6  N6  UNL     1       1.448   2.375   0.784  1.00  0.00    -0.129 N 
ATOM      7  H6  UNL     1       1.353   3.389   0.848  1.00  0.00     0.205 HD
ENDROOT
BRANCH   1   8
HETATM    8  N3  UNL     1      -1.504   0.847   0.267  1.00  0.00    -0.296 N 
ATOM      9  H3  UNL     1      -1.681   1.648  -0.339  1.00  0.00     0.186 HD
BRANCH   8  10
HETATM   10  C8  UNL     1      -2.472   0.065   0.584  1.00  0.00     0.127 C 
BRANCH  10  11
HETATM   11  C7  UNL     1      -3.818   0.327   0.077  1.00  0.00     0.075 A 
HETATM   12  C1  UNL     1      -4.049   1.409  -0.739  1.00  0.00     0.261 A 
HETATM   13  O1  UNL     1      -3.070   2.151  -1.026  1.00  0.00    -0.267 OA
HETATM   14  N1  UNL     1      -5.288   1.638  -1.198  1.00  0.00    -0.303 N 
HETATM   15  C2  UNL     1      -6.271   0.812  -0.853  1.00  0.00     0.144 A 
ATOM     16  H1  UNL     1      -5.474   2.437  -1.805  1.00  0.00     0.171 HD
HETATM   17  C3  UNL     1      -6.092  -0.280  -0.043  1.00  0.00     0.086 A 
HETATM   18  C4  UNL     1      -4.846  -0.548   0.445  1.00  0.00     0.051 A 
BRANCH  15  19
HETATM   19  O2  UNL     1      -7.561   1.058  -1.336  1.00  0.00    -0.346 OA
ATOM     20  H2  UNL     1      -8.263   0.468  -1.089  1.00  0.00     0.219 HD
ENDBRANCH  15  19
BRANCH  18  21
HETATM   21  N2  UNL     1      -4.572  -1.664   1.296  1.00  0.00    -0.377 N 
HETATM   22  C5  UNL     1      -4.148  -2.370   2.473  1.00  0.00     0.143 A 
HETATM   23  C6  UNL     1      -4.634  -3.179   1.342  1.00  0.00     0.143 A 
ENDBRANCH  18  21
ENDBRANCH  10  11
ENDBRANCH   8  10
ENDBRANCH   1   8
BRANCH   4  24
HETATM   24  O3  UNL     1       1.278   2.480   3.464  1.00  0.00    -0.276 OA
ATOM     25  H3  UNL     1       1.235   2.536   4.411  1.00  0.00     0.245 HD
ENDBRANCH   4  24
BRANCH   6  26
HETATM   26  N7  UNL     1       2.461   1.798   0.009  1.00  0.00    -0.297 N 
HETATM   27  C10 UNL     1       3.236   0.961   0.575  1.00  0.00     0.122 C 
ATOM     28  H7  UNL     1       2.574   2.040  -0.975  1.00  0.00     0.186 HD
BRANCH  27  29
HETATM   29  C11 UNL     1       4.310   0.335  -0.206  1.00  0.00     0.019 A 
HETATM   30  C12 UNL     1       5.183  -0.575   0.332  1.00  0.00     0.052 A 
HETATM   31  C13 UNL     1       6.205  -1.182  -0.379  1.00  0.00     0.106 A 
HETATM   32  C14 UNL     1       6.365  -0.861  -1.707  1.00  0.00     0.075 A 
HETATM   33  C15 UNL     1       5.502   0.050  -2.271  1.00  0.00     0.102 A 
HETATM   34  C16 UNL     1       4.491   0.647  -1.559  1.00  0.00     0.110 A 
BRANCH  31  35
HETATM   35  N8  UNL     1       7.077  -2.116   0.234  1.00  0.00    -0.116 N 
HETATM   36  O4  UNL     1       6.899  -2.385   1.455  1.00  0.00    -0.532 OA
HETATM   37  O5  UNL     1       8.063  -2.685  -0.498  1.00  0.00    -0.532 OA
ENDBRANCH  31  35
BRANCH  33  38
HETATM   38  O6  UNL     1       5.652   0.380  -3.604  1.00  0.00    -0.358 OA
ATOM     39  H6  UNL     1       5.056   1.009  -3.993  1.00  0.00     0.217 HD
ENDBRANCH  33  38
BRANCH  34  40
HETATM   40  O7  UNL     1       3.592   1.568  -2.071  1.00  0.00    -0.357 OA
ATOM     41  H7  UNL     1       3.715   1.780  -2.989  1.00  0.00     0.217 HD
ENDBRANCH  34  40
ENDBRANCH  27  29
ENDBRANCH   6  26
TORSDOF 11
