REMARK  5 active torsions:
REMARK  status: ('A' for Active; 'I' for Inactive)
REMARK    1  A    between atoms: C2_2  and  C3_3 
REMARK    2  A    between atoms: C2_2  and  N3_10 
REMARK    3  A    between atoms: C3_3  and  N1_4 
REMARK    4  A    between atoms: N1_4  and  N2_6 
REMARK    5  A    between atoms: N2_6  and  C4_8 
ROOT
HETATM    1  N3  UNL     1      -0.492   0.111   0.152  1.00  0.00    -0.321 N 
HETATM    2  C5  UNL     1      -0.174   1.404   0.282  1.00  0.00     0.185 A 
HETATM    3  N4  UNL     1      -1.274   2.163   0.258  1.00  0.00    -0.345 N 
ATOM      4  H4  UNL     1      -1.308   3.179   0.338  1.00  0.00     0.167 HD
HETATM    5  C6  UNL     1      -2.318   1.350   0.110  1.00  0.00     0.146 A 
HETATM    6  C7  UNL     1      -3.677   1.564   0.021  1.00  0.00     0.277 A 
HETATM    7  O2  UNL     1      -4.154   2.719   0.078  1.00  0.00    -0.266 OA
HETATM    8  N5  UNL     1      -4.475   0.494  -0.130  1.00  0.00    -0.318 N 
ATOM      9  H5  UNL     1      -5.480   0.653  -0.196  1.00  0.00     0.169 HD
HETATM   10  C8  UNL     1      -4.031  -0.774  -0.200  1.00  0.00     0.185 A 
HETATM   11  N6  UNL     1      -2.719  -0.984  -0.114  1.00  0.00    -0.336 N 
ATOM     12  H6  UNL     1      -2.363  -1.939  -0.165  1.00  0.00     0.168 HD
HETATM   13  C9  UNL     1      -1.854   0.030   0.038  1.00  0.00     0.142 A 
ENDROOT
BRANCH   1  14
HETATM   14  C2  UNL     1       0.344  -1.041   0.118  1.00  0.00     0.107 C 
HETATM   15  C1  UNL     1       0.481  -1.648  -1.284  1.00  0.00     0.034 C 
BRANCH  14  16
HETATM   16  C3  UNL     1       1.685  -0.913   0.746  1.00  0.00     0.164 C 
BRANCH  16  17
HETATM   17  N1  UNL     1       2.567  -0.080  -0.004  1.00  0.00    -0.332 N 
ATOM     18  H1  UNL     1       2.278   0.372  -0.872  1.00  0.00     0.180 HD
BRANCH  17  19
HETATM   19  N2  UNL     1       3.829   0.075   0.515  1.00  0.00    -0.282 N 
ATOM     20  H2  UNL     1       4.313  -0.713   0.946  1.00  0.00     0.189 HD
BRANCH  19  21
HETATM   21  C4  UNL     1       4.448   1.347   0.442  1.00  0.00     0.368 C 
HETATM   22  O1  UNL     1       3.880   2.335  -0.080  1.00  0.00    -0.282 OA
ENDBRANCH  19  21
ENDBRANCH  17  19
ENDBRANCH  16  17
ENDBRANCH  14  16
ENDBRANCH   1  14
TORSDOF 5
