REMARK  6 active torsions:
REMARK  status: ('A' for Active; 'I' for Inactive)
REMARK    1  A    between atoms: C2_2  and  O1_3 
REMARK    2  A    between atoms: C2_2  and  C3_5 
REMARK    3  A    between atoms: C2_2  and  N3_12 
REMARK    4  A    between atoms: C4_6  and  N1_7 
REMARK    5  A    between atoms: N1_7  and  N2_9 
REMARK    6  A    between atoms: N3_12  and  S1_14 
ROOT
HETATM    1  C1  UNL     1      -0.735  -1.312   1.059  1.00  0.00     0.087 C 
HETATM    2  C2  UNL     1      -0.542   0.063   0.506  1.00  0.00     0.207 C 
ENDROOT
BRANCH   2   3
HETATM    3  O1  UNL     1      -0.907   1.055   1.446  1.00  0.00    -0.360 OA
ATOM      4  H1  UNL     1      -0.784   1.929   1.094  1.00  0.00     0.213 HD
ENDBRANCH   2   3
BRANCH   2   5
HETATM    5  C3  UNL     1       0.893   0.266   0.217  1.00  0.00    -0.021 C 
HETATM    6  C4  UNL     1       2.060   0.439  -0.017  1.00  0.00     0.030 C 
BRANCH   6   7
HETATM    7  N1  UNL     1       3.415   0.657  -0.291  1.00  0.00    -0.265 N 
ATOM      8  H1  UNL     1       3.738   1.622  -0.354  1.00  0.00     0.197 HD
BRANCH   7   9
HETATM    9  N2  UNL     1       4.347  -0.349  -0.483  1.00  0.00    -0.338 N 
ATOM     10  H22 UNL     1       4.006  -1.308  -0.417  1.00  0.00     0.177 HD
ATOM     11  H21 UNL     1       5.335  -0.190  -0.683  1.00  0.00     0.177 HD
ENDBRANCH   7   9
ENDBRANCH   6   7
ENDBRANCH   2   5
BRANCH   2  12
HETATM   12  N3  UNL     1      -1.274   0.221  -0.706  1.00  0.00    -0.257 N 
ATOM     13  H3  UNL     1      -0.850   0.401  -1.616  1.00  0.00     0.179 HD
BRANCH  12  14
HETATM   14  S1  UNL     1      -2.965   0.069  -0.436  1.00  0.00     0.207 S 
HETATM   15  O2  UNL     1      -3.641  -0.443  -1.688  1.00  0.00    -0.578 OA
HETATM   16  O3  UNL     1      -3.309  -0.782   0.745  1.00  0.00    -0.578 OA
HETATM   17  O4  UNL     1      -3.559   1.635  -0.137  1.00  0.00    -0.578 OA
ENDBRANCH  12  14
ENDBRANCH   2  12
TORSDOF 6
