REMARK  4 active torsions:
REMARK  status: ('A' for Active; 'I' for Inactive)
REMARK    1  A    between atoms: N1_1  and  C1_4 
REMARK    2  A    between atoms: N5_9  and  C2_10 
REMARK    3  A    between atoms: C2_10  and  C3_11 
REMARK       I    between atoms: C3_11  and  N6_13 
REMARK    4  A    between atoms: N6_13  and  N7_15 
REMARK       I    between atoms: N7_15  and  C4_17 
ROOT
HETATM    1  C2  UNL     1      -0.916  -1.323  -0.441  1.00  0.00     0.269 C 
ENDROOT
BRANCH   1   2
HETATM    2  N5  UNL     1      -2.176  -0.568  -0.463  1.00  0.00    -0.100 N 
HETATM    3  C1  UNL     1      -2.852  -0.058   0.577  1.00  0.00     0.704 A 
HETATM    4  N2  UNL     1      -3.976   0.589   0.164  1.00  0.00    -0.117 N 
HETATM    5  N3  UNL     1      -3.968   0.459  -1.165  1.00  0.00     0.007 NA
ATOM      6  H2  UNL     1      -4.669   1.066   0.740  1.00  0.00     0.202 HD
HETATM    7  N4  UNL     1      -2.887  -0.236  -1.545  1.00  0.00     0.009 NA
BRANCH   3   8
HETATM    8  N1  UNL     1      -2.487  -0.166   1.808  1.00  0.00    -0.232 N 
ATOM      9  H12 UNL     1      -3.001   0.222   2.599  1.00  0.00     0.174 HD
ATOM     10  H11 UNL     1      -1.645  -0.651   2.118  1.00  0.00     0.174 HD
ENDBRANCH   3   8
ENDBRANCH   1   2
BRANCH   1  11
HETATM   11  C3  UNL     1       0.239  -0.403  -0.558  1.00  0.00     0.256 C 
HETATM   12  O1  UNL     1       0.006   0.840  -0.641  1.00  0.00    -0.270 OA
HETATM   13  N6  UNL     1       1.553  -0.881  -0.580  1.00  0.00    -0.265 N 
ATOM     14  H6  UNL     1       1.759  -1.878  -0.519  1.00  0.00     0.190 HD
BRANCH  13  15
HETATM   15  N7  UNL     1       2.584   0.083  -0.691  1.00  0.00    -0.251 N 
HETATM   16  C4  UNL     1       3.272   0.488   0.466  1.00  0.00     0.347 C 
HETATM   17  N8  UNL     1       4.294   1.453   0.361  1.00  0.00    -0.038 NA
HETATM   18  O2  UNL     1       2.984   0.002   1.574  1.00  0.00    -0.249 OA
ATOM     19  H7  UNL     1       2.825   0.479  -1.600  1.00  0.00     0.191 HD
ENDBRANCH  13  15
ENDBRANCH   1  11
TORSDOF 4
