REMARK  4 active torsions:
REMARK  status: ('A' for Active; 'I' for Inactive)
REMARK    1  A    between atoms: S1_2  and  N1_5 
REMARK    2  A    between atoms: N1_5  and  N2_7 
REMARK    3  A    between atoms: N2_7  and  C2_9 
REMARK    4  A    between atoms: N6_21  and  N7_23 
ROOT
HETATM    1  C2  UNL     1      -0.701   0.238  -0.187  1.00  0.00     0.171 C 
HETATM    2  N3  UNL     1      -0.694  -0.925  -0.853  1.00  0.00    -0.290 N 
ATOM      3  H3  UNL     1      -0.033  -0.988  -1.627  1.00  0.00     0.172 HD
HETATM    4  C3  UNL     1      -1.454  -2.036  -0.632  1.00  0.00     0.329 C 
HETATM    5  O3  UNL     1      -1.318  -2.973  -1.446  1.00  0.00    -0.246 OA
HETATM    6  N4  UNL     1      -2.345  -2.230   0.378  1.00  0.00    -0.260 N 
ATOM      7  H4  UNL     1      -2.781  -3.152   0.383  1.00  0.00     0.175 HD
HETATM    8  C4  UNL     1      -2.751  -1.418   1.371  1.00  0.00     0.329 C 
HETATM    9  O4  UNL     1      -3.413  -1.941   2.327  1.00  0.00    -0.246 OA
HETATM   10  N5  UNL     1      -2.517  -0.095   1.441  1.00  0.00    -0.290 N 
ATOM     11  H5  UNL     1      -3.017   0.402   2.178  1.00  0.00     0.172 HD
HETATM   12  C5  UNL     1      -1.709   0.668   0.667  1.00  0.00     0.170 C 
HETATM   13  N6  UNL     1      -1.903   1.940   0.735  1.00  0.00    -0.289 N 
ATOM     14  H6  UNL     1      -2.634   2.296   1.351  1.00  0.00     0.188 HD
ENDROOT
BRANCH   1  15
HETATM   15  N2  UNL     1       0.282   1.058  -0.316  1.00  0.00    -0.273 N 
ATOM     16  H2  UNL     1       0.247   1.935   0.203  1.00  0.00     0.189 HD
BRANCH  15  17
HETATM   17  N1  UNL     1       1.385   0.819  -1.119  1.00  0.00    -0.226 N 
ATOM     18  H1  UNL     1       1.242   0.574  -2.099  1.00  0.00     0.200 HD
BRANCH  17  19
HETATM   19  S1  UNL     1       2.986   0.924  -0.508  1.00  0.00     0.240 S 
HETATM   20  C1  UNL     1       3.554  -0.630   0.133  1.00  0.00     0.187 C 
HETATM   21  O1  UNL     1       3.910   1.316  -1.622  1.00  0.00    -0.205 OA
HETATM   22  O2  UNL     1       3.083   1.965   0.553  1.00  0.00    -0.205 OA
ENDBRANCH  17  19
ENDBRANCH  15  17
ENDBRANCH   1  15
BRANCH  13  23
HETATM   23  N7  UNL     1      -1.148   2.841  -0.005  1.00  0.00    -0.344 N 
ATOM     24  H72 UNL     1      -0.422   2.468  -0.616  1.00  0.00     0.176 HD
ATOM     25  H71 UNL     1      -1.302   3.848   0.049  1.00  0.00     0.176 HD
ENDBRANCH  13  23
TORSDOF 4
