REMARK  10 active torsions:
REMARK  status: ('A' for Active; 'I' for Inactive)
REMARK    1  A    between atoms: C2_2  and  C3_3 
REMARK    2  A    between atoms: C3_3  and  N1_4 
REMARK    3  A    between atoms: C10_11  and  C11_12 
REMARK    4  A    between atoms: C12_13  and  C13_14 
REMARK    5  A    between atoms: N2_20  and  O1_21 
REMARK    6  A    between atoms: C22_27  and  C23_28 
REMARK    7  A    between atoms: C23_28  and  O3_30 
REMARK    8  A    between atoms: C25_32  and  C26_33 
REMARK    9  A    between atoms: C26_33  and  O5_35 
REMARK   10  A    between atoms: O5_35  and  C27_36 
ROOT
HETATM    1  N1  UNL     1      -1.283  -0.939  -1.160  1.00  0.00    -0.364 N 
HETATM    2  C4  UNL     1      -1.928   0.236  -1.535  1.00  0.00     0.073 C 
HETATM    3  C5  UNL     1      -2.400   1.120  -0.451  1.00  0.00     0.068 C 
HETATM    4  C6  UNL     1      -1.426   2.051   0.171  1.00  0.00     0.054 C 
HETATM    5  C7  UNL     1      -0.078   1.444   0.191  1.00  0.00    -0.051 A 
HETATM    6  C8  UNL     1       0.810   2.439  -0.226  1.00  0.00     0.009 A 
HETATM    7  C9  UNL     1       2.176   2.167  -0.295  1.00  0.00     0.021 A 
HETATM    8  C10 UNL     1       2.681   0.930   0.041  1.00  0.00     0.018 A 
HETATM    9  C18 UNL     1       1.783  -0.032   0.448  1.00  0.00     0.028 A 
HETATM   10  C19 UNL     1       0.427   0.203   0.527  1.00  0.00    -0.048 A 
HETATM   11  C20 UNL     1      -0.195  -1.059   1.001  1.00  0.00     0.069 C 
HETATM   12  C21 UNL     1      -1.409  -1.330   0.203  1.00  0.00     0.132 C 
HETATM   13  C22 UNL     1      -2.698  -0.867   0.864  1.00  0.00     0.053 C 
HETATM   14  C25 UNL     1      -3.195   0.311   0.563  1.00  0.00     0.041 C 
ENDROOT
BRANCH   8  15
HETATM   15  C11 UNL     1       4.083   0.654  -0.017  1.00  0.00    -0.060 C 
HETATM   16  C12 UNL     1       5.282   0.422  -0.040  1.00  0.00    -0.041 C 
BRANCH  16  17
HETATM   17  C13 UNL     1       6.694   0.159  -0.039  1.00  0.00     0.118 A 
HETATM   18  C14 UNL     1       7.627   1.052  -0.542  1.00  0.00     0.083 A 
HETATM   19  C15 UNL     1       8.973   0.788  -0.530  1.00  0.00     0.120 A 
HETATM   20  F1  UNL     1       9.818   1.702  -1.036  1.00  0.00    -0.206 F 
HETATM   21  C16 UNL     1       9.413  -0.401  -0.003  1.00  0.00     0.062 A 
HETATM   22  C17 UNL     1       8.489  -1.289   0.496  1.00  0.00     0.127 A 
HETATM   23  N2  UNL     1       7.182  -0.994   0.467  1.00  0.00    -0.228 N 
BRANCH  23  24
HETATM   24  O1  UNL     1       6.239  -1.879   0.967  1.00  0.00    -0.282 OA
ATOM     25  H1  UNL     1       6.582  -2.690   1.323  1.00  0.00     0.245 HD
ENDBRANCH  23  24
ENDBRANCH  16  17
ENDBRANCH   8  15
BRANCH   1  26
HETATM   26  C3  UNL     1      -1.317  -1.988  -2.095  1.00  0.00     0.063 C 
BRANCH  26  27
HETATM   27  C2  UNL     1      -0.485  -1.832  -3.320  1.00  0.00     0.040 C 
HETATM   28  C1  UNL     1      -0.779  -0.710  -4.238  1.00  0.00     0.010 C 
ENDBRANCH  26  27
ENDBRANCH   1  26
BRANCH  13  29
HETATM   29  C23 UNL     1      -3.238  -1.846   1.800  1.00  0.00     0.291 C 
HETATM   30  O2  UNL     1      -4.256  -1.724   2.465  1.00  0.00    -0.260 OA
BRANCH  29  31
HETATM   31  O3  UNL     1      -2.557  -3.080   1.998  1.00  0.00    -0.323 OA
HETATM   32  C24 UNL     1      -3.113  -4.014   2.921  1.00  0.00     0.213 C 
ENDBRANCH  29  31
ENDBRANCH  13  29
BRANCH  14  33
HETATM   33  C26 UNL     1      -4.389   0.956   1.058  1.00  0.00     0.290 C 
HETATM   34  O4  UNL     1      -5.184   0.521   1.867  1.00  0.00    -0.260 OA
BRANCH  33  35
HETATM   35  O5  UNL     1      -4.684   2.247   0.552  1.00  0.00    -0.318 OA
BRANCH  35  36
HETATM   36  C27 UNL     1      -5.864   2.902   1.032  1.00  0.00     0.174 C 
HETATM   37  C28 UNL     1      -5.717   3.050   2.519  1.00  0.00     0.034 C 
ENDBRANCH  35  36
ENDBRANCH  33  35
ENDBRANCH  14  33
TORSDOF 10
