REMARK  14 active torsions:
REMARK  status: ('A' for Active; 'I' for Inactive)
REMARK    1  A    between atoms: N1_2  and  C2_3 
REMARK    2  A    between atoms: N1_2  and  C6_11 
REMARK    3  A    between atoms: C2_3  and  C3_4 
REMARK    4  A    between atoms: C3_4  and  C4_5 
REMARK    5  A    between atoms: C4_5  and  N2_6 
REMARK    6  A    between atoms: C6_11  and  O1_12 
REMARK    7  A    between atoms: C6_11  and  C7_14 
REMARK    8  A    between atoms: C7_14  and  N5_15 
REMARK    9  A    between atoms: C7_14  and  C8_18 
REMARK   10  A    between atoms: C7_14  and  C16_28 
REMARK   11  A    between atoms: C8_18  and  C9_19 
REMARK   12  A    between atoms: C9_19  and  C10_20 
REMARK       I    between atoms: C10_20  and  N6_22 
REMARK   13  A    between atoms: C16_28  and  O3_29 
REMARK   14  A    between atoms: C16_28  and  N7_31 
ROOT
HETATM    1  C7  UNL     1      -0.348   0.850  -0.559  1.00  0.00     0.155 C 
ENDROOT
BRANCH   1   2
HETATM    2  C6  UNL     1      -1.220   2.057  -0.536  1.00  0.00     0.150 C 
BRANCH   2   3
HETATM    3  N1  UNL     1      -2.423   2.370  -1.109  1.00  0.00    -0.367 N 
HETATM    4  C1  UNL     1      -2.869   3.794  -0.919  1.00  0.00     0.151 C 
BRANCH   3   5
HETATM    5  C2  UNL     1      -3.354   1.547  -1.787  1.00  0.00     0.125 C 
BRANCH   5   6
HETATM    6  C3  UNL     1      -4.495   1.015  -0.947  1.00  0.00     0.039 C 
BRANCH   6   7
HETATM    7  C4  UNL     1      -4.060   0.204   0.204  1.00  0.00     0.123 C 
BRANCH   7   8
HETATM    8  N2  UNL     1      -5.078  -0.313   1.064  1.00  0.00    -0.367 N 
HETATM    9  C5  UNL     1      -6.324  -0.326   0.926  1.00  0.00     0.196 C 
HETATM   10  N3  UNL     1      -7.083  -0.936   1.998  1.00  0.00    -0.067 NA
HETATM   11  N4  UNL     1      -7.099   0.176  -0.141  1.00  0.00    -0.067 NA
ATOM     12  H2  UNL     1      -4.737  -0.738   1.926  1.00  0.00     0.161 HD
ENDBRANCH   7   8
ENDBRANCH   6   7
ENDBRANCH   5   6
ENDBRANCH   3   5
ENDBRANCH   2   3
BRANCH   2  13
HETATM   13  O1  UNL     1      -0.675   3.013   0.205  1.00  0.00    -0.347 OA
ATOM     14  H1  UNL     1       0.160   2.796   0.603  1.00  0.00     0.219 HD
ENDBRANCH   2  13
ENDBRANCH   1   2
BRANCH   1  15
HETATM   15  N5  UNL     1      -0.730  -0.076  -1.507  1.00  0.00    -0.409 N 
ATOM     16  H52 UNL     1      -1.531   0.066  -2.122  1.00  0.00     0.151 HD
ATOM     17  H51 UNL     1      -0.133  -0.903  -1.523  1.00  0.00     0.151 HD
ENDBRANCH   1  15
BRANCH   1  18
HETATM   18  C8  UNL     1       1.040   1.468  -0.898  1.00  0.00     0.057 C 
BRANCH  18  19
HETATM   19  C9  UNL     1       2.122   0.466  -0.985  1.00  0.00     0.106 C 
BRANCH  19  20
HETATM   20  C10 UNL     1       3.419   1.112  -1.310  1.00  0.00     0.219 C 
HETATM   21  O2  UNL     1       3.500   2.364  -1.476  1.00  0.00    -0.273 OA
HETATM   22  N6  UNL     1       4.610   0.358  -1.445  1.00  0.00    -0.352 N 
HETATM   23  C11 UNL     1       5.875   0.946  -1.755  1.00  0.00     0.125 C 
HETATM   24  C15 UNL     1       4.603  -1.099  -1.271  1.00  0.00     0.125 C 
HETATM   25  C12 UNL     1       6.893   0.723  -0.676  1.00  0.00     0.020 C 
HETATM   26  C13 UNL     1       6.716  -0.619  -0.052  1.00  0.00     0.003 C 
HETATM   27  C14 UNL     1       6.027  -1.582  -0.996  1.00  0.00     0.020 C 
ENDBRANCH  19  20
ENDBRANCH  18  19
ENDBRANCH   1  18
BRANCH   1  28
HETATM   28  C16 UNL     1      -0.235   0.397   0.851  1.00  0.00     0.150 C 
BRANCH  28  29
HETATM   29  O3  UNL     1      -0.146   1.350   1.756  1.00  0.00    -0.347 OA
ATOM     30  H3  UNL     1      -0.074   1.060   2.658  1.00  0.00     0.219 HD
ENDBRANCH  28  29
BRANCH  28  31
HETATM   31  N7  UNL     1      -0.203  -0.877   1.399  1.00  0.00    -0.360 N 
HETATM   32  C17 UNL     1      -0.246  -2.088   0.656  1.00  0.00     0.152 C 
HETATM   33  C18 UNL     1       0.306  -3.275   1.430  1.00  0.00     0.252 C 
HETATM   34  N8  UNL     1      -0.022  -3.334   2.800  1.00  0.00    -0.072 N 
HETATM   35  C19 UNL     1      -0.902  -2.267   3.169  1.00  0.00     0.252 C 
ATOM     36  H82 UNL     1      -0.408  -4.243   3.054  1.00  0.00     0.277 HD
ATOM     37  H81 UNL     1       0.813  -3.350   3.385  1.00  0.00     0.277 HD
HETATM   38  C20 UNL     1      -0.128  -0.969   2.891  1.00  0.00     0.152 C 
ENDBRANCH  28  31
ENDBRANCH   1  28
TORSDOF 14
