REMARK  11 active torsions:
REMARK  status: ('A' for Active; 'I' for Inactive)
REMARK    1  A    between atoms: C5_6  and  S1_7 
REMARK    2  A    between atoms: S1_7  and  C6_8 
REMARK    3  A    between atoms: C6_8  and  C7_10 
REMARK    4  A    between atoms: C7_10  and  N2_11 
REMARK    5  A    between atoms: N2_11  and  C8_12 
REMARK    6  A    between atoms: C8_12  and  C9_13 
REMARK    7  A    between atoms: C9_13  and  O2_14 
REMARK    8  A    between atoms: C13_22  and  C14_23 
REMARK    9  A    between atoms: C14_23  and  C15_24 
REMARK   10  A    between atoms: C15_24  and  C16_25 
REMARK   11  A    between atoms: C16_25  and  N4_26 
ROOT
HETATM    1  N2  UNL     1       1.755  -1.683  -1.538  1.00  0.00     0.001 N 
HETATM    2  C10 UNL     1       2.444  -3.003  -1.380  1.00  0.00     0.260 C 
HETATM    3  C11 UNL     1       3.306  -3.329  -2.563  1.00  0.00     0.132 C 
HETATM    4  C12 UNL     1       4.252  -2.177  -2.809  1.00  0.00     0.224 C 
HETATM    5  O3  UNL     1       5.200  -2.246  -3.616  1.00  0.00    -0.273 OA
HETATM    6  N3  UNL     1       3.943  -1.026  -2.028  1.00  0.00    -0.310 N 
ATOM      7  H3  UNL     1       4.684  -0.333  -1.924  1.00  0.00     0.170 HD
HETATM    8  C13 UNL     1       2.832  -0.771  -1.443  1.00  0.00     0.192 C 
ENDROOT
BRANCH   1   9
HETATM    9  C7  UNL     1       0.867  -1.671  -0.413  1.00  0.00     0.272 C 
BRANCH   9  10
HETATM   10  C6  UNL     1      -0.188  -0.684  -0.347  1.00  0.00     0.233 C 
HETATM   11  O1  UNL     1      -0.495   0.181  -1.145  1.00  0.00    -0.279 OA
BRANCH  10  12
HETATM   12  S1  UNL     1      -1.243  -0.696   1.137  1.00  0.00    -0.082 SA
BRANCH  12  13
HETATM   13  C5  UNL     1      -2.486   0.592   1.067  1.00  0.00     0.059 C 
HETATM   14  C4  UNL     1      -3.514   0.388  -0.022  1.00  0.00     0.043 C 
HETATM   15  C3  UNL     1      -4.608   1.411   0.195  1.00  0.00     0.237 C 
HETATM   16  N1  UNL     1      -5.311   1.138   1.428  1.00  0.00    -0.075 N 
HETATM   17  C1  UNL     1      -5.789   2.378   2.048  1.00  0.00     0.272 C 
HETATM   18  C2  UNL     1      -6.487   0.360   1.100  1.00  0.00     0.272 C 
HETATM   19  C19 UNL     1      -4.525   0.393   2.377  1.00  0.00     0.237 C 
HETATM   20  C18 UNL     1      -3.098   0.892   2.400  1.00  0.00     0.043 C 
ENDBRANCH  12  13
ENDBRANCH  10  12
ENDBRANCH   9  10
ENDBRANCH   1   9
BRANCH   1  21
HETATM   21  C8  UNL     1       1.073  -1.642  -2.795  1.00  0.00     0.277 C 
BRANCH  21  22
HETATM   22  C9  UNL     1      -0.080  -2.577  -2.914  1.00  0.00     0.193 C 
BRANCH  22  23
HETATM   23  O2  UNL     1      -0.701  -2.473  -4.186  1.00  0.00    -0.399 OA
ATOM     24  H2  UNL     1      -1.437  -3.069  -4.262  1.00  0.00     0.209 HD
ENDBRANCH  22  23
ENDBRANCH  21  22
ENDBRANCH   1  21
BRANCH   8  25
HETATM   25  C14 UNL     1       2.734   0.497  -0.684  1.00  0.00     0.086 C 
BRANCH  25  26
HETATM   26  C15 UNL     1       4.115   1.176  -0.625  1.00  0.00     0.027 C 
BRANCH  26  27
HETATM   27  C16 UNL     1       3.891   2.465   0.175  1.00  0.00     0.122 C 
BRANCH  27  28
HETATM   28  N4  UNL     1       3.402   2.176   1.508  1.00  0.00    -0.367 N 
HETATM   29  C17 UNL     1       4.236   2.060   2.462  1.00  0.00     0.196 C 
HETATM   30  N5  UNL     1       5.626   2.202   2.266  1.00  0.00    -0.067 NA
HETATM   31  N6  UNL     1       3.757   1.779   3.761  1.00  0.00    -0.067 NA
ATOM     32  H4  UNL     1       2.402   2.067   1.679  1.00  0.00     0.161 HD
ENDBRANCH  27  28
ENDBRANCH  26  27
ENDBRANCH  25  26
ENDBRANCH   8  25
TORSDOF 11
