REMARK  1 active torsions:
REMARK  status: ('A' for Active; 'I' for Inactive)
REMARK    1  A    between atoms: C2_2  and  N1_3 
ROOT
HETATM    1  N1  UNL     1       0.396   0.172   0.045  1.00  0.00    -0.055 N 
HETATM    2  C3  UNL     1       0.940   1.233   0.912  1.00  0.00     0.273 C 
HETATM    3  C4  UNL     1      -0.689  -0.481   0.531  1.00  0.00     0.248 A 
HETATM    4  C5  UNL     1      -2.057  -0.088   0.914  1.00  0.00     0.268 C 
HETATM    5  N2  UNL     1      -2.773  -0.317  -0.358  1.00  0.00    -0.071 N 
ATOM      6  H21 UNL     1      -3.495   0.376  -0.553  1.00  0.00     0.277 HD
ATOM      7  H22 UNL     1      -3.388  -1.130  -0.341  1.00  0.00     0.277 HD
HETATM    8  C6  UNL     1      -1.722  -0.388  -1.396  1.00  0.00     0.268 C 
HETATM    9  C7  UNL     1      -0.678   0.428  -0.739  1.00  0.00     0.248 A 
ENDROOT
BRANCH   1  10
HETATM   10  C2  UNL     1       1.490  -0.584  -0.561  1.00  0.00     0.234 C 
HETATM   11  C1  UNL     1       2.768  -0.468   0.207  1.00  0.00     0.035 C 
ENDBRANCH   1  10
TORSDOF 1
