REMARK  12 active torsions:
REMARK  status: ('A' for Active; 'I' for Inactive)
REMARK    1  A    between atoms: C2_2  and  C3_3 
REMARK    2  A    between atoms: C4_5  and  O2_7 
REMARK    3  A    between atoms: O2_7  and  C6_8 
REMARK    4  A    between atoms: C7_10  and  C8_11 
REMARK    5  A    between atoms: C8_11  and  N1_12 
REMARK    6  A    between atoms: C9_16  and  O4_17 
REMARK    7  A    between atoms: C11_20  and  N2_21 
REMARK    8  A    between atoms: C12_25  and  C13_26 
REMARK    9  A    between atoms: C13_26  and  N3_27 
REMARK       I    between atoms: N3_27  and  C14_28 
REMARK   10  A    between atoms: C16_31  and  O6_32 
REMARK   11  A    between atoms: O6_32  and  C17_33 
REMARK   12  A    between atoms: C19_35  and  N4_36 
ROOT
HETATM    1  C3  UNL     1       0.558   0.518  -1.299  1.00  0.00     0.154 C 
HETATM    2  O1  UNL     1      -0.157   1.690  -1.220  1.00  0.00    -0.347 OA
HETATM    3  C4  UNL     1      -1.198   1.410  -0.331  1.00  0.00     0.175 C 
HETATM    4  C5  UNL     1      -1.815   2.658   0.210  1.00  0.00     0.080 C 
HETATM    5  C12 UNL     1      -0.481   0.662   0.745  1.00  0.00     0.132 C 
HETATM    6  C16 UNL     1       0.714   0.058   0.104  1.00  0.00     0.168 C 
ENDROOT
BRANCH   3   7
HETATM    7  O2  UNL     1      -2.107   0.539  -0.876  1.00  0.00    -0.323 OA
BRANCH   7   8
HETATM    8  C6  UNL     1      -2.777   0.729  -1.998  1.00  0.00     0.294 C 
HETATM    9  O3  UNL     1      -2.702  -0.317  -2.910  1.00  0.00    -0.350 OA
HETATM   10  C7  UNL     1      -3.312  -1.442  -2.453  1.00  0.00     0.178 C 
HETATM   11  C9  UNL     1      -4.409  -1.296  -1.511  1.00  0.00     0.151 C 
HETATM   12  C10 UNL     1      -5.032   0.035  -1.259  1.00  0.00     0.072 C 
HETATM   13  C11 UNL     1      -4.253   1.149  -1.932  1.00  0.00     0.240 C 
BRANCH  10  14
HETATM   14  C8  UNL     1      -2.286  -2.480  -1.973  1.00  0.00     0.264 C 
BRANCH  14  15
HETATM   15  N1  UNL     1      -3.011  -3.633  -1.520  1.00  0.00    -0.077 N 
ATOM     16  H13 UNL     1      -3.709  -3.409  -0.811  1.00  0.00     0.274 HD
ATOM     17  H12 UNL     1      -3.649  -4.003  -2.225  1.00  0.00     0.274 HD
ATOM     18  H11 UNL     1      -2.330  -4.322  -1.201  1.00  0.00     0.274 HD
ENDBRANCH  14  15
ENDBRANCH  10  14
BRANCH  11  19
HETATM   19  O4  UNL     1      -3.967  -1.795  -0.243  1.00  0.00    -0.393 OA
ATOM     20  H4  UNL     1      -4.684  -1.700   0.373  1.00  0.00     0.210 HD
ENDBRANCH  11  19
BRANCH  13  21
HETATM   21  N2  UNL     1      -4.752   1.175  -3.324  1.00  0.00    -0.070 N 
ATOM     22  H23 UNL     1      -4.193   1.765  -3.941  1.00  0.00     0.274 HD
ATOM     23  H22 UNL     1      -4.606   0.296  -3.820  1.00  0.00     0.274 HD
ATOM     24  H21 UNL     1      -5.732   1.454  -3.280  1.00  0.00     0.274 HD
ENDBRANCH  13  21
ENDBRANCH   7   8
ENDBRANCH   3   7
BRANCH   5  25
HETATM   25  C13 UNL     1      -0.252   1.456   1.989  1.00  0.00     0.171 C 
BRANCH  25  26
HETATM   26  N3  UNL     1       0.404   2.604   2.033  1.00  0.00    -0.387 NA
HETATM   27  C14 UNL     1       1.095   3.812   2.079  1.00  0.00     0.286 C 
HETATM   28  C15 UNL     1       1.598   4.440   0.782  1.00  0.00     0.135 C 
HETATM   29  O5  UNL     1       1.414   4.537   3.062  1.00  0.00    -0.258 OA
ENDBRANCH  25  26
ENDBRANCH   5  25
BRANCH   1  30
HETATM   30  C2  UNL     1       1.750   0.628  -2.169  1.00  0.00     0.030 C 
HETATM   31  C1  UNL     1       2.781   1.634  -1.823  1.00  0.00     0.007 C 
ENDBRANCH   1  30
BRANCH   6  32
HETATM   32  O6  UNL     1       1.900   0.174   0.728  1.00  0.00    -0.358 OA
BRANCH  32  33
HETATM   33  C17 UNL     1       2.548  -0.987   1.073  1.00  0.00     0.224 C 
HETATM   34  C18 UNL     1       2.560  -1.327   2.553  1.00  0.00     0.086 C 
HETATM   35  C19 UNL     1       3.269  -2.670   2.632  1.00  0.00     0.194 C 
HETATM   36  C20 UNL     1       4.763  -2.290   2.534  1.00  0.00     0.105 C 
HETATM   37  C21 UNL     1       4.852  -1.668   1.161  1.00  0.00     0.092 C 
HETATM   38  N5  UNL     1       6.113  -1.685   0.483  1.00  0.00    -0.088 NA
HETATM   39  N6  UNL     1       3.885  -1.127   0.581  1.00  0.00    -0.355 N 
ATOM     40  H6  UNL     1       4.070  -0.743  -0.346  1.00  0.00     0.163 HD
BRANCH  35  41
HETATM   41  N4  UNL     1       3.025  -3.446   3.789  1.00  0.00    -0.074 N 
ATOM     42  H43 UNL     1       3.237  -2.896   4.622  1.00  0.00     0.274 HD
ATOM     43  H42 UNL     1       2.021  -3.581   3.906  1.00  0.00     0.274 HD
ATOM     44  H41 UNL     1       3.501  -4.347   3.842  1.00  0.00     0.274 HD
ENDBRANCH  35  41
ENDBRANCH  32  33
ENDBRANCH   6  32
TORSDOF 12
