REMARK  12 active torsions:
REMARK  status: ('A' for Active; 'I' for Inactive)
REMARK    1  A    between atoms: C2_2  and  C3_3 
REMARK    2  A    between atoms: C3_3  and  C4_4 
REMARK    3  A    between atoms: C4_4  and  C5_5 
REMARK    4  A    between atoms: C5_5  and  N1_6 
REMARK    5  A    between atoms: C8_13  and  C9_14 
REMARK    6  A    between atoms: C9_14  and  C10_15 
REMARK    7  A    between atoms: C10_15  and  C11_16 
REMARK    8  A    between atoms: C11_16  and  N3_17 
REMARK    9  A    between atoms: C14_26  and  C15_27 
REMARK   10  A    between atoms: C15_27  and  C16_28 
REMARK   11  A    between atoms: C16_28  and  C17_29 
REMARK   12  A    between atoms: C17_29  and  N7_30 
ROOT
HETATM    1  N1  UNL     1      -1.498  -1.148  -1.865  1.00  0.00    -0.320 N 
HETATM    2  C6  UNL     1      -0.562  -2.182  -1.601  1.00  0.00     0.325 C 
HETATM    3  O1  UNL     1      -0.765  -3.221  -2.318  1.00  0.00    -0.247 OA
HETATM    4  N2  UNL     1       0.567  -2.406  -0.750  1.00  0.00    -0.277 N 
ATOM      5  H2  UNL     1       0.934  -3.356  -0.802  1.00  0.00     0.173 HD
HETATM    6  C7  UNL     1       1.291  -1.557   0.167  1.00  0.00     0.248 C 
HETATM    7  O2  UNL     1       2.047  -2.248   0.896  1.00  0.00    -0.271 OA
HETATM    8  C8  UNL     1       1.320  -0.102   0.412  1.00  0.00     0.177 C 
HETATM    9  N6  UNL     1       0.998   0.714  -0.712  1.00  0.00    -0.346 N 
ATOM     10  H6  UNL     1       1.618   1.523  -0.752  1.00  0.00     0.163 HD
HETATM   11  C13 UNL     1       0.068   0.744  -1.803  1.00  0.00     0.241 C 
HETATM   12  O3  UNL     1       0.633   1.361  -2.773  1.00  0.00    -0.271 OA
HETATM   13  C14 UNL     1      -1.292   0.270  -2.066  1.00  0.00     0.181 C 
ENDROOT
BRANCH   8  14
HETATM   14  C9  UNL     1       2.741   0.241   0.860  1.00  0.00     0.036 C 
BRANCH  14  15
HETATM   15  C10 UNL     1       3.755  -0.113  -0.198  1.00  0.00     0.022 C 
BRANCH  15  16
HETATM   16  C11 UNL     1       5.140   0.244   0.288  1.00  0.00     0.122 C 
BRANCH  16  17
HETATM   17  N3  UNL     1       5.498  -0.455   1.494  1.00  0.00    -0.367 N 
HETATM   18  C12 UNL     1       6.744  -0.568   1.807  1.00  0.00     0.196 C 
HETATM   19  N4  UNL     1       7.080  -1.264   3.006  1.00  0.00    -0.067 NA
HETATM   20  N5  UNL     1       7.800  -0.040   1.029  1.00  0.00    -0.067 NA
ATOM     21  H3  UNL     1       4.776  -0.856   2.093  1.00  0.00     0.161 HD
ENDBRANCH  16  17
ENDBRANCH  15  16
ENDBRANCH  14  15
ENDBRANCH   8  14
BRANCH  13  22
HETATM   22  C15 UNL     1      -2.263   1.150  -1.362  1.00  0.00     0.037 C 
BRANCH  22  23
HETATM   23  C16 UNL     1      -1.833   2.590  -1.713  1.00  0.00     0.022 C 
BRANCH  23  24
HETATM   24  C17 UNL     1      -2.737   3.584  -1.063  1.00  0.00     0.122 C 
BRANCH  24  25
HETATM   25  N7  UNL     1      -2.733   3.473   0.373  1.00  0.00    -0.367 N 
HETATM   26  C18 UNL     1      -3.031   4.492   1.102  1.00  0.00     0.196 C 
HETATM   27  N8  UNL     1      -3.369   5.741   0.498  1.00  0.00    -0.067 NA
HETATM   28  N9  UNL     1      -3.030   4.393   2.511  1.00  0.00    -0.067 NA
ATOM     29  H7  UNL     1      -2.493   2.585   0.814  1.00  0.00     0.161 HD
ENDBRANCH  24  25
ENDBRANCH  23  24
ENDBRANCH  22  23
ENDBRANCH  13  22
BRANCH   1  30
HETATM   30  C5  UNL     1      -2.835  -1.616  -1.940  1.00  0.00     0.128 C 
BRANCH  30  31
HETATM   31  C4  UNL     1      -3.651  -1.621  -0.710  1.00  0.00     0.020 C 
BRANCH  31  32
HETATM   32  C3  UNL     1      -3.252  -2.455   0.438  1.00  0.00     0.001 C 
BRANCH  32  33
HETATM   33  C2  UNL     1      -3.272  -3.944   0.227  1.00  0.00    -0.004 C 
HETATM   34  C1  UNL     1      -2.833  -4.656   1.495  1.00  0.00     0.005 C 
ENDBRANCH  32  33
ENDBRANCH  31  32
ENDBRANCH  30  31
ENDBRANCH   1  30
TORSDOF 12
