REMARK  6 active torsions:
REMARK  status: ('A' for Active; 'I' for Inactive)
REMARK    1  A    between atoms: C2_2  and  O1_3 
REMARK    2  A    between atoms: C2_2  and  O2_5 
REMARK    3  A    between atoms: O2_5  and  C3_6 
REMARK    4  A    between atoms: C6_11  and  N2_12 
REMARK    5  A    between atoms: C6_11  and  C7_16 
REMARK    6  A    between atoms: N4_19  and  O3_20 
ROOT
HETATM    1  C7  UNL     1      -3.069   0.891  -0.785  1.00  0.00     0.187 C 
HETATM    2  C8  UNL     1      -3.577   2.146  -0.238  1.00  0.00     0.063 C 
HETATM    3  N3  UNL     1      -3.960   3.144   0.202  1.00  0.00    -0.197 NA
ENDROOT
BRANCH   1   4
HETATM    4  C6  UNL     1      -2.590  -0.053   0.264  1.00  0.00     0.234 C 
HETATM    5  C5  UNL     1      -1.444   0.546   1.101  1.00  0.00     0.096 C 
HETATM    6  C4  UNL     1      -0.341   0.414   0.100  1.00  0.00     0.136 C 
HETATM    7  N1  UNL     1       0.951   0.208   0.613  1.00  0.00    -0.364 N 
HETATM    8  C9  UNL     1      -0.647  -0.903  -0.522  1.00  0.00     0.046 C 
HETATM    9  C3  UNL     1       1.565  -0.747   0.052  1.00  0.00     0.122 C 
ATOM     10  H1  UNL     1       1.354   0.771   1.362  1.00  0.00     0.162 HD
HETATM   11  C10 UNL     1       0.703  -1.354  -0.988  1.00  0.00     0.141 C 
HETATM   12  N4  UNL     1      -1.881  -1.144  -0.425  1.00  0.00    -0.228 N 
BRANCH   9  13
HETATM   13  O2  UNL     1       2.893  -1.189   0.362  1.00  0.00    -0.309 OA
BRANCH  13  14
HETATM   14  C2  UNL     1       3.734  -0.236   0.983  1.00  0.00     0.260 C 
HETATM   15  C1  UNL     1       3.922   0.996   0.103  1.00  0.00     0.071 C 
BRANCH  14  16
HETATM   16  O1  UNL     1       4.969  -0.863   1.187  1.00  0.00    -0.371 OA
ATOM     17  H1  UNL     1       4.852  -1.630   1.735  1.00  0.00     0.212 HD
ENDBRANCH  14  16
ENDBRANCH  13  14
ENDBRANCH   9  13
BRANCH  12  18
HETATM   18  O3  UNL     1      -2.494  -2.287  -0.905  1.00  0.00    -0.285 OA
ATOM     19  H3  UNL     1      -2.037  -2.991  -1.350  1.00  0.00     0.245 HD
ENDBRANCH  12  18
BRANCH   4  20
HETATM   20  N2  UNL     1      -3.604  -0.642   1.071  1.00  0.00    -0.049 N 
ATOM     21  H23 UNL     1      -3.211  -1.337   1.705  1.00  0.00     0.277 HD
ATOM     22  H22 UNL     1      -3.960   0.024   1.757  1.00  0.00     0.277 HD
ATOM     23  H21 UNL     1      -4.363  -1.039   0.517  1.00  0.00     0.277 HD
ENDBRANCH   4  20
ENDBRANCH   1   4
TORSDOF 6
