REMARK  1 active torsions:
REMARK  status: ('A' for Active; 'I' for Inactive)
REMARK       I    between atoms: N3_13  and  C9_14 
REMARK       I    between atoms: C9_14  and  N4_16 
REMARK    1  A    between atoms: N4_16  and  O2_18 
ROOT
HETATM    1  C1  UNL     1      -2.199  -1.819  -1.849  1.00  0.00     0.028 C 
HETATM    2  C2  UNL     1      -1.621  -0.994  -0.992  1.00  0.00     0.011 A 
HETATM    3  C3  UNL     1      -2.372  -0.035  -0.399  1.00  0.00    -0.003 A 
HETATM    4  C4  UNL     1      -3.654   0.163  -0.601  1.00  0.00     0.026 C 
HETATM    5  C5  UNL     1      -1.786   0.849   0.513  1.00  0.00     0.072 A 
HETATM    6  N1  UNL     1      -2.539   1.783   1.112  1.00  0.00    -0.350 N 
ATOM      7  H1  UNL     1      -3.528   1.834   0.870  1.00  0.00     0.166 HD
HETATM    8  C6  UNL     1      -2.060   2.652   2.012  1.00  0.00     0.180 A 
HETATM    9  N2  UNL     1      -0.763   2.552   2.304  1.00  0.00    -0.360 N 
ATOM     10  H2  UNL     1      -0.363   3.196   2.986  1.00  0.00     0.166 HD
HETATM   11  C7  UNL     1       0.061   1.607   1.717  1.00  0.00     0.121 A 
HETATM   12  C8  UNL     1      -0.432   0.721   0.793  1.00  0.00     0.088 A 
HETATM   13  N3  UNL     1       0.334  -0.221   0.216  1.00  0.00    -0.244 N 
HETATM   14  C9  UNL     1       1.714  -0.279   0.431  1.00  0.00     0.352 C 
HETATM   15  O1  UNL     1       2.286   0.669   1.071  1.00  0.00    -0.244 OA
HETATM   16  N4  UNL     1       2.660  -1.259   0.051  1.00  0.00    -0.216 N 
ATOM     17  H4  UNL     1       2.366  -2.089  -0.463  1.00  0.00     0.199 HD
HETATM   18  C11 UNL     1      -0.281  -1.076  -0.679  1.00  0.00     0.120 A 
HETATM   19  N5  UNL     1       0.419  -1.944  -1.234  1.00  0.00    -0.384 N 
ATOM     20  H51 UNL     1       1.411  -2.005  -1.002  1.00  0.00     0.157 HD
ATOM     21  H52 UNL     1      -0.035  -2.575  -1.895  1.00  0.00     0.157 HD
ENDROOT
BRANCH  16  22
HETATM   22  O2  UNL     1       4.000  -1.075   0.388  1.00  0.00    -0.281 OA
HETATM   23  C10 UNL     1       4.501   0.074  -0.170  1.00  0.00     0.237 C 
ENDBRANCH  16  22
TORSDOF 1
