REMARK  7 active torsions:
REMARK  status: ('A' for Active; 'I' for Inactive)
REMARK    1  A    between atoms: C1_4  and  N2_5 
REMARK    2  A    between atoms: C1_4  and  C10_28 
REMARK    3  A    between atoms: C7_20  and  O3_21 
REMARK    4  A    between atoms: N6_23  and  C8_24 
REMARK    5  A    between atoms: C8_24  and  C9_25 
REMARK    6  A    between atoms: C10_28  and  N8_29 
REMARK    7  A    between atoms: C10_28  and  N9_33 
ROOT
HETATM    1  N2  UNL     1      -2.581   0.144  -0.320  1.00  0.00    -0.337 N 
ATOM      2  H2  UNL     1      -3.536  -0.212  -0.281  1.00  0.00     0.167 HD
HETATM    3  C2  UNL     1      -1.740  -0.611  -0.834  1.00  0.00     0.133 C 
HETATM    4  C3  UNL     1      -2.192  -1.864  -1.303  1.00  0.00     0.278 C 
HETATM    5  O1  UNL     1      -3.404  -1.857  -1.594  1.00  0.00    -0.265 OA
HETATM    6  N3  UNL     1      -1.455  -2.961  -1.438  1.00  0.00    -0.273 N 
ATOM      7  H3  UNL     1      -1.944  -3.760  -1.841  1.00  0.00     0.173 HD
HETATM    8  C4  UNL     1      -0.166  -3.185  -1.127  1.00  0.00     0.328 C 
HETATM    9  O2  UNL     1       0.163  -4.397  -1.150  1.00  0.00    -0.247 OA
HETATM   10  N4  UNL     1       0.818  -2.298  -0.795  1.00  0.00    -0.292 N 
ATOM     11  H4  UNL     1       1.697  -2.681  -0.447  1.00  0.00     0.172 HD
HETATM   12  C5  UNL     1       0.721  -0.955  -0.891  1.00  0.00     0.144 A 
HETATM   13  C6  UNL     1      -0.437  -0.170  -0.912  1.00  0.00     0.113 A 
HETATM   14  N5  UNL     1      -0.012   1.094  -1.027  1.00  0.00    -0.317 N 
ATOM     15  H5  UNL     1      -0.627   1.906  -1.070  1.00  0.00     0.169 HD
HETATM   16  C7  UNL     1       1.328   1.155  -1.079  1.00  0.00     0.226 A 
HETATM   17  N6  UNL     1       1.767  -0.125  -0.994  1.00  0.00    -0.288 N 
ENDROOT
BRANCH   1  18
HETATM   18  C1  UNL     1      -2.382   1.415   0.210  1.00  0.00     0.134 C 
HETATM   19  N1  UNL     1      -2.669   2.473  -0.514  1.00  0.00    -0.386 N 
ATOM     20  H12 UNL     1      -3.013   2.312  -1.461  1.00  0.00     0.157 HD
ATOM     21  H11 UNL     1      -2.523   3.405  -0.125  1.00  0.00     0.157 HD
BRANCH  18  22
HETATM   22  C10 UNL     1      -1.878   1.651   1.598  1.00  0.00     0.444 C 
BRANCH  22  23
HETATM   23  N8  UNL     1      -1.712   3.072   1.805  1.00  0.00    -0.043 N 
ATOM     24  H83 UNL     1      -1.115   3.500   1.097  1.00  0.00     0.277 HD
ATOM     25  H82 UNL     1      -2.565   3.595   1.608  1.00  0.00     0.277 HD
ATOM     26  H81 UNL     1      -1.368   3.233   2.752  1.00  0.00     0.277 HD
ENDBRANCH  22  23
BRANCH  22  27
HETATM   27  N9  UNL     1      -2.858   1.213   2.583  1.00  0.00    -0.043 N 
ATOM     28  H93 UNL     1      -3.767   1.650   2.432  1.00  0.00     0.277 HD
ATOM     29  H92 UNL     1      -3.129   0.240   2.440  1.00  0.00     0.277 HD
ATOM     30  H91 UNL     1      -2.514   1.374   3.530  1.00  0.00     0.277 HD
ENDBRANCH  22  27
ENDBRANCH  18  22
ENDBRANCH   1  18
BRANCH  17  31
HETATM   31  C8  UNL     1       3.148  -0.552  -1.009  1.00  0.00     0.233 C 
BRANCH  31  32
HETATM   32  C9  UNL     1       3.714  -0.603   0.362  1.00  0.00     0.249 C 
HETATM   33  N7  UNL     1       2.976  -0.271   1.526  1.00  0.00    -0.061 NA
HETATM   34  O4  UNL     1       4.918  -0.964   0.468  1.00  0.00    -0.275 OA
ENDBRANCH  31  32
ENDBRANCH  17  31
BRANCH  16  35
HETATM   35  O3  UNL     1       2.142   2.275  -1.196  1.00  0.00    -0.332 OA
ATOM     36  H3  UNL     1       3.090   2.318  -1.233  1.00  0.00     0.221 HD
ENDBRANCH  16  35
TORSDOF 7
