REMARK  7 active torsions:
REMARK  status: ('A' for Active; 'I' for Inactive)
REMARK    1  A    between atoms: N1_1  and  N2_4 
REMARK    2  A    between atoms: N2_4  and  C1_6 
REMARK    3  A    between atoms: C2_9  and  N4_10 
REMARK    4  A    between atoms: N4_10  and  N5_12 
REMARK    5  A    between atoms: C3_14  and  C4_15 
REMARK    6  A    between atoms: C6_19  and  C7_20 
REMARK    7  A    between atoms: N7_21  and  N8_23 
ROOT
HETATM    1  N4  UNL     1      -1.978  -0.318   0.309  1.00  0.00    -0.131 N 
ATOM      2  H4  UNL     1      -1.035  -0.700   0.243  1.00  0.00     0.205 HD
ENDROOT
BRANCH   1   3
HETATM    3  C2  UNL     1      -3.001  -0.932  -0.207  1.00  0.00     0.713 A 
HETATM    4  N3  UNL     1      -4.250  -0.466  -0.142  1.00  0.00    -0.169 N 
HETATM    5  C1  UNL     1      -5.280  -1.128  -0.687  1.00  0.00     0.175 A 
ATOM      6  H3  UNL     1      -4.425   0.418   0.335  1.00  0.00     0.186 HD
HETATM    7  C9  UNL     1      -5.052  -2.340  -1.342  1.00  0.00     0.164 A 
HETATM    8  N12 UNL     1      -3.782  -2.800  -1.400  1.00  0.00    -0.272 N 
HETATM    9 CL1  UNL     1      -6.397  -3.215  -2.059  1.00  0.00    -0.059 Cl
HETATM   10  N11 UNL     1      -2.813  -2.112  -0.851  1.00  0.00    -0.129 N 
ATOM     11  H12 UNL     1      -3.579  -3.682  -1.871  1.00  0.00     0.188 HD
ATOM     12  H11 UNL     1      -1.865  -2.483  -0.910  1.00  0.00     0.205 HD
BRANCH   5  13
HETATM   13  N2  UNL     1      -6.477  -0.706  -0.639  1.00  0.00    -0.289 N 
ATOM     14  H2  UNL     1      -7.181  -1.292  -1.088  1.00  0.00     0.188 HD
BRANCH  13  15
HETATM   15  N1  UNL     1      -6.932   0.448  -0.053  1.00  0.00    -0.344 N 
ATOM     16  H12 UNL     1      -6.214   1.021   0.390  1.00  0.00     0.176 HD
ATOM     17  H11 UNL     1      -7.893   0.787  -0.014  1.00  0.00     0.176 HD
ENDBRANCH  13  15
ENDBRANCH   5  13
ENDBRANCH   1   3
BRANCH   1  18
HETATM   18  N5  UNL     1      -2.234   0.885   0.955  1.00  0.00    -0.293 N 
HETATM   19  C3  UNL     1      -1.289   1.668   1.290  1.00  0.00     0.164 C 
ATOM     20  H5  UNL     1      -3.198   1.145   1.165  1.00  0.00     0.186 HD
BRANCH  19  21
HETATM   21  C4  UNL     1       0.099   1.281   0.980  1.00  0.00     0.165 A 
HETATM   22  N6  UNL     1       0.526   0.173   0.371  1.00  0.00    -0.343 N 
HETATM   23  C5  UNL     1       1.874   0.205   0.283  1.00  0.00     0.129 A 
ATOM     24  H6  UNL     1      -0.071  -0.579   0.026  1.00  0.00     0.167 HD
HETATM   25  C6  UNL     1       2.282   1.371   0.858  1.00  0.00     0.110 A 
HETATM   26  O1  UNL     1       1.163   1.983   1.264  1.00  0.00    -0.290 OA
BRANCH  25  27
HETATM   27  C7  UNL     1       3.573   1.979   1.074  1.00  0.00     0.145 C 
HETATM   28  N7  UNL     1       4.666   1.454   0.716  1.00  0.00    -0.307 N 
ATOM     29  H7  UNL     1       5.519   1.974   0.921  1.00  0.00     0.186 HD
BRANCH  28  30
HETATM   30  N8  UNL     1       4.807   0.259   0.083  1.00  0.00    -0.276 N 
HETATM   31  C8  UNL     1       5.951  -0.137  -0.371  1.00  0.00     0.215 C 
HETATM   32  N9  UNL     1       6.084  -1.390  -1.031  1.00  0.00    -0.065 NA
HETATM   33  N10 UNL     1       7.098   0.717  -0.197  1.00  0.00    -0.065 NA
ATOM     34  H8  UNL     1       3.990  -0.340  -0.037  1.00  0.00     0.189 HD
ENDBRANCH  28  30
ENDBRANCH  25  27
ENDBRANCH  19  21
ENDBRANCH   1  18
TORSDOF 7
