REMARK  4 active torsions:
REMARK  status: ('A' for Active; 'I' for Inactive)
REMARK       I    between atoms: N1_5  and  C5_7 
REMARK    1  A    between atoms: C5_7  and  C6_9 
REMARK    2  A    between atoms: C9_14  and  C10_15 
REMARK    3  A    between atoms: N4_21  and  C14_22 
REMARK    4  A    between atoms: C14_22  and  C15_23 
ROOT
HETATM    1  C15 UNL     1      -3.134  -0.372   0.592  1.00  0.00    -0.039 A 
HETATM    2  C16 UNL     1      -2.506   0.753   0.119  1.00  0.00     0.011 A 
HETATM    3  C17 UNL     1      -3.188   1.930  -0.176  1.00  0.00     0.031 A 
HETATM    4  C18 UNL     1      -4.548   1.995   0.006  1.00  0.00     0.042 A 
HETATM    5  N5  UNL     1      -5.247   3.129  -0.272  1.00  0.00    -0.364 N 
ATOM      6  H5  UNL     1      -4.744   3.944  -0.622  1.00  0.00     0.165 HD
HETATM    7  C19 UNL     1      -6.579   3.212  -0.101  1.00  0.00     0.111 A 
HETATM    8  C20 UNL     1      -7.273   2.120   0.372  1.00  0.00     0.060 A 
HETATM    9  C21 UNL     1      -8.683   2.127   0.581  1.00  0.00     0.101 C 
HETATM   10  N6  UNL     1      -9.842   2.140   0.757  1.00  0.00    -0.191 NA
HETATM   11  C22 UNL     1      -6.580   0.942   0.665  1.00  0.00     0.038 A 
HETATM   12  C23 UNL     1      -5.197   0.887   0.477  1.00  0.00    -0.007 A 
HETATM   13  C24 UNL     1      -4.495  -0.289   0.769  1.00  0.00     0.022 A 
ENDROOT
BRANCH   1  14
HETATM   14  C14 UNL     1      -2.388  -1.641   0.927  1.00  0.00     0.169 C 
BRANCH  14  15
HETATM   15  N4  UNL     1      -2.072  -2.428  -0.234  1.00  0.00    -0.328 N 
HETATM   16  C10 UNL     1      -0.976  -2.389  -0.990  1.00  0.00     0.096 A 
HETATM   17  C11 UNL     1      -1.253  -3.279  -2.070  1.00  0.00     0.123 A 
HETATM   18  N3  UNL     1      -2.454  -3.769  -1.878  1.00  0.00    -0.354 N 
HETATM   19  C12 UNL     1      -3.006  -3.281  -0.761  1.00  0.00     0.080 A 
ATOM     20  H3  UNL     1      -2.909  -4.437  -2.500  1.00  0.00     0.166 HD
HETATM   21  C13 UNL     1      -4.344  -3.660  -0.269  1.00  0.00     0.089 C 
BRANCH  16  22
HETATM   22  C9  UNL     1       0.262  -1.634  -0.978  1.00  0.00     0.141 A 
HETATM   23  N2  UNL     1       0.600  -0.984  -2.145  1.00  0.00    -0.343 N 
HETATM   24  C7  UNL     1       1.736  -0.327  -2.323  1.00  0.00     0.025 A 
ATOM     25  H2  UNL     1      -0.065  -1.010  -2.918  1.00  0.00     0.167 HD
HETATM   26  C6  UNL     1       2.620  -0.296  -1.288  1.00  0.00     0.081 A 
HETATM   27  C8  UNL     1       2.000   0.349  -3.643  1.00  0.00     0.069 C 
HETATM   28  C29 UNL     1       2.316  -0.936  -0.112  1.00  0.00     0.059 A 
HETATM   29  N7  UNL     1       1.133  -1.598   0.021  1.00  0.00    -0.304 N 
HETATM   30  C28 UNL     1       3.031  -1.103   1.059  1.00  0.00     0.055 A 
HETATM   31  C25 UNL     1       1.146  -2.163   1.264  1.00  0.00     0.121 A 
HETATM   32  C26 UNL     1       2.305  -1.876   1.935  1.00  0.00     0.062 A 
HETATM   33  C27 UNL     1       2.654  -2.306   3.268  1.00  0.00     0.101 C 
HETATM   34  N8  UNL     1       2.940  -2.668   4.336  1.00  0.00    -0.191 NA
BRANCH  26  35
HETATM   35  C5  UNL     1       3.874   0.411  -1.431  1.00  0.00     0.261 C 
HETATM   36  N1  UNL     1       4.013   1.783  -1.095  1.00  0.00    -0.308 N 
HETATM   37  C4  UNL     1       5.006   2.180  -0.361  1.00  0.00     0.124 A 
ATOM     38  H1  UNL     1       3.329   2.460  -1.432  1.00  0.00     0.170 HD
HETATM   39  C3  UNL     1       6.036   1.453   0.199  1.00  0.00     0.076 A 
HETATM   40  N9  UNL     1       5.251   3.462   0.029  1.00  0.00    -0.285 N 
HETATM   41  C2  UNL     1       6.882   2.294   0.913  1.00  0.00     0.025 A 
HETATM   42  C1  UNL     1       8.108   1.930   1.668  1.00  0.00     0.070 C 
HETATM   43  N10 UNL     1       6.343   3.518   0.769  1.00  0.00    -0.304 N 
ATOM     44  H10 UNL     1       6.725   4.372   1.176  1.00  0.00     0.186 HD
ATOM     45  H9  UNL     1       4.672   4.265  -0.216  1.00  0.00     0.188 HD
HETATM   46  O1  UNL     1       4.863  -0.245  -1.874  1.00  0.00    -0.267 OA
ENDBRANCH  26  35
ENDBRANCH  16  22
ENDBRANCH  14  15
ENDBRANCH   1  14
TORSDOF 4
