REMARK  2 active torsions:
REMARK  status: ('A' for Active; 'I' for Inactive)
REMARK    1  A    between atoms: C3_11  and  C4_12 
REMARK    2  A    between atoms: C5_15  and  N5_16 
ROOT
HETATM    1  N1  UNL     1      -2.725   0.641  -0.709  1.00  0.00    -0.383 N 
ATOM      2  H11 UNL     1      -2.688   1.659  -0.768  1.00  0.00     0.157 HD
ATOM      3  H12 UNL     1      -3.588   0.152  -0.947  1.00  0.00     0.157 HD
HETATM    4  C1  UNL     1      -1.733   0.019  -0.359  1.00  0.00     0.139 A 
HETATM    5  N2  UNL     1      -1.783  -1.359  -0.279  1.00  0.00    -0.293 N 
ATOM      6  H2  UNL     1      -2.651  -1.840  -0.516  1.00  0.00     0.172 HD
HETATM    7  C2  UNL     1      -0.749  -2.060   0.092  1.00  0.00     0.326 A 
HETATM    8  O1  UNL     1      -0.896  -3.334   0.136  1.00  0.00    -0.247 OA
HETATM    9  N3  UNL     1       0.402  -1.459   0.412  1.00  0.00    -0.302 N 
ATOM     10  H3  UNL     1       1.200  -2.026   0.699  1.00  0.00     0.171 HD
HETATM   11  C3  UNL     1       0.529  -0.096   0.362  1.00  0.00     0.139 A 
HETATM   12  C5  UNL     1      -0.534   0.698  -0.029  1.00  0.00     0.178 A 
ENDROOT
BRANCH  12  13
HETATM   13  N5  UNL     1      -0.449   2.110  -0.159  1.00  0.00    -0.109 N 
HETATM   14  O3  UNL     1       0.657   2.673  -0.297  1.00  0.00    -0.532 OA
HETATM   15  O4  UNL     1      -1.555   2.915  -0.133  1.00  0.00    -0.532 OA
ENDBRANCH  12  13
BRANCH  11  16
HETATM   16  C4  UNL     1       1.841   0.468   0.710  1.00  0.00     0.284 C 
HETATM   17  N4  UNL     1       2.983   0.057  -0.027  1.00  0.00    -0.056 NA
HETATM   18  O2  UNL     1       1.903   1.312   1.659  1.00  0.00    -0.269 OA
ENDBRANCH  11  16
TORSDOF 2
