REMARK  9 active torsions:
REMARK  status: ('A' for Active; 'I' for Inactive)
REMARK    1  A    between atoms: O1_2  and  C2_3 
REMARK    2  A    between atoms: C2_3  and  O2_4 
REMARK    3  A    between atoms: C2_3  and  C3_6 
REMARK    4  A    between atoms: C4_7  and  N1_8 
REMARK    5  A    between atoms: C6_13  and  N2_14 
REMARK    6  A    between atoms: C7_18  and  O3_19 
REMARK    7  A    between atoms: O3_19  and  C8_20 
REMARK    8  A    between atoms: C11_33  and  O4_34 
REMARK    9  A    between atoms: C11_33  and  N8_36 
ROOT
HETATM    1  C3  UNL     1      -1.618  -0.136   0.879  1.00  0.00     0.129 C 
HETATM    2  C4  UNL     1      -1.917  -1.516   1.327  1.00  0.00     0.199 C 
HETATM    3  C5  UNL     1      -0.993  -2.598   0.884  1.00  0.00     0.069 C 
HETATM    4  C6  UNL     1       0.365  -2.177   0.467  1.00  0.00     0.219 C 
HETATM    5  C7  UNL     1       0.560  -0.776   0.068  1.00  0.00     0.218 C 
HETATM    6  C11 UNL     1      -0.668   0.047  -0.247  1.00  0.00     0.168 C 
ENDROOT
BRANCH   5   7
HETATM    7  O3  UNL     1       1.224  -0.110   1.159  1.00  0.00    -0.309 OA
BRANCH   7   8
HETATM    8  C8  UNL     1       2.447   0.483   1.040  1.00  0.00     0.240 A 
HETATM    9  N3  UNL     1       3.186   0.528  -0.084  1.00  0.00    -0.295 N 
HETATM   10  C9  UNL     1       4.391   1.154  -0.066  1.00  0.00     0.209 A 
ATOM     11  H3  UNL     1       2.844   0.096  -0.942  1.00  0.00     0.172 HD
HETATM   12  N4  UNL     1       5.129   1.178  -1.259  1.00  0.00    -0.062 NA
HETATM   13  N5  UNL     1       4.886   1.734   1.026  1.00  0.00    -0.163 N 
HETATM   14  C10 UNL     1       4.150   1.693   2.158  1.00  0.00     0.681 A 
ATOM     15  H5  UNL     1       5.795   2.196   1.008  1.00  0.00     0.187 HD
HETATM   16  N6  UNL     1       4.571   2.232   3.237  1.00  0.00    -0.234 N 
HETATM   17  N7  UNL     1       2.958   1.073   2.136  1.00  0.00    -0.155 N 
ATOM     18  H62 UNL     1       5.476   2.703   3.254  1.00  0.00     0.174 HD
ATOM     19  H61 UNL     1       4.015   2.201   4.092  1.00  0.00     0.174 HD
ATOM     20  H7  UNL     1       2.411   1.048   2.997  1.00  0.00     0.188 HD
ENDBRANCH   7   8
ENDBRANCH   5   7
BRANCH   4  21
HETATM   21  N2  UNL     1       0.886  -3.050  -0.592  1.00  0.00    -0.072 N 
ATOM     22  H23 UNL     1       0.865  -4.031  -0.314  1.00  0.00     0.274 HD
ATOM     23  H22 UNL     1       0.248  -3.100  -1.386  1.00  0.00     0.274 HD
ATOM     24  H21 UNL     1       1.821  -2.760  -0.879  1.00  0.00     0.274 HD
ENDBRANCH   4  21
BRANCH   6  25
HETATM   25  O4  UNL     1      -0.187   1.391  -0.061  1.00  0.00    -0.368 OA
ATOM     26  H4  UNL     1       0.421   1.508  -0.782  1.00  0.00     0.212 HD
ENDBRANCH   6  25
BRANCH   6  27
HETATM   27  N8  UNL     1      -1.101   0.053  -1.560  1.00  0.00    -0.389 N 
HETATM   28  C12 UNL     1      -1.706  -0.985  -2.247  1.00  0.00     0.145 C 
HETATM   29  C13 UNL     1      -0.198   0.738  -2.472  1.00  0.00     0.145 C 
ENDBRANCH   6  27
BRANCH   1  30
HETATM   30  C2  UNL     1      -2.887   0.685   0.802  1.00  0.00     0.267 C 
BRANCH  30  31
HETATM   31  O1  UNL     1      -2.684   1.997   0.387  1.00  0.00    -0.366 OA
HETATM   32  C1  UNL     1      -3.626   2.292  -0.590  1.00  0.00     0.204 C 
ENDBRANCH  30  31
BRANCH  30  33
HETATM   33  O2  UNL     1      -3.355   0.878   2.148  1.00  0.00    -0.371 OA
ATOM     34  H2  UNL     1      -3.494  -0.018   2.431  1.00  0.00     0.212 HD
ENDBRANCH  30  33
ENDBRANCH   1  30
BRANCH   2  35
HETATM   35  N1  UNL     1      -3.319  -1.901   1.157  1.00  0.00    -0.074 N 
ATOM     36  H13 UNL     1      -3.934  -1.232   1.620  1.00  0.00     0.274 HD
ATOM     37  H12 UNL     1      -3.614  -1.765   0.190  1.00  0.00     0.274 HD
ATOM     38  H11 UNL     1      -3.525  -2.851   1.465  1.00  0.00     0.274 HD
ENDBRANCH   2  35
TORSDOF 9
