REMARK  1 active torsions:
REMARK  status: ('A' for Active; 'I' for Inactive)
REMARK    1  A    between atoms: O1_1  and  C1_3 
ROOT
HETATM    1  C1  UNL     1       0.121   3.167  -1.463  1.00  0.00     0.066 A 
HETATM    2  C2  UNL     1       1.399   2.976  -1.874  1.00  0.00     0.039 A 
HETATM    3  C3  UNL     1       2.015   1.781  -1.568  1.00  0.00     0.034 A 
HETATM    4  C4  UNL     1       1.369   0.792  -0.865  1.00  0.00     0.051 A 
HETATM    5  C5  UNL     1       0.047   1.007  -0.448  1.00  0.00     0.022 A 
HETATM    6  C6  UNL     1      -0.587   2.190  -0.742  1.00  0.00     0.052 A 
HETATM    7  C7  UNL     1      -0.625   0.028   0.260  1.00  0.00     0.064 A 
HETATM    8  N1  UNL     1      -1.844  -0.093   0.790  1.00  0.00    -0.321 N 
HETATM    9  C8  UNL     1      -2.910   0.700   0.842  1.00  0.00     0.097 A 
HETATM   10  C9  UNL     1      -4.088   0.306   1.481  1.00  0.00     0.018 A 
HETATM   11  C10 UNL     1      -4.205  -0.914   2.084  1.00  0.00     0.004 A 
HETATM   12  C11 UNL     1      -3.102  -1.737   2.030  1.00  0.00     0.030 A 
HETATM   13  C12 UNL     1      -1.942  -1.320   1.388  1.00  0.00     0.040 A 
HETATM   14  C13 UNL     1      -0.775  -2.011   1.249  1.00  0.00     0.046 A 
HETATM   15  C14 UNL     1       0.107  -1.216   0.543  1.00  0.00     0.021 A 
HETATM   16  C15 UNL     1       1.382  -1.353   0.109  1.00  0.00     0.051 A 
HETATM   17  C16 UNL     1       2.015  -2.538   0.404  1.00  0.00     0.031 A 
HETATM   18  C17 UNL     1       3.304  -2.731  -0.010  1.00  0.00     0.004 A 
HETATM   19  C18 UNL     1       3.914  -1.721  -0.708  1.00  0.00     0.018 A 
HETATM   20  C19 UNL     1       3.264  -0.537  -0.996  1.00  0.00     0.097 A 
HETATM   21  N2  UNL     1       1.998  -0.385  -0.572  1.00  0.00    -0.321 N 
ENDROOT
BRANCH   1  22
HETATM   22  O1  UNL     1      -0.548   4.363  -1.749  1.00  0.00    -0.361 OA
ATOM     23  H1  UNL     1      -1.443   4.497  -1.461  1.00  0.00     0.217 HD
ENDBRANCH   1  22
TORSDOF 1
