REMARK  1 active torsions:
REMARK  status: ('A' for Active; 'I' for Inactive)
REMARK    1  A    between atoms: N1_2  and  C2_4 
ROOT
HETATM    1  C2  UNL     1      -1.812  -0.531   0.370  1.00  0.00     0.058 A 
HETATM    2  C3  UNL     1      -0.464  -0.171   0.114  1.00  0.00     0.047 A 
HETATM    3  C4  UNL     1      -0.122   1.045  -0.378  1.00  0.00     0.060 A 
HETATM    4  N2  UNL     1      -1.101   1.925  -0.626  1.00  0.00    -0.354 N 
ATOM      5  H2  UNL     1      -0.857   2.844  -0.996  1.00  0.00     0.166 HD
HETATM    6  C5  UNL     1      -2.400   1.635  -0.402  1.00  0.00     0.045 A 
HETATM    7  C6  UNL     1      -3.358   2.611  -0.688  1.00  0.00     0.030 A 
HETATM    8  C7  UNL     1      -4.702   2.404  -0.491  1.00  0.00     0.002 A 
HETATM    9  C8  UNL     1      -5.044   1.168   0.009  1.00  0.00     0.001 A 
HETATM   10  C9  UNL     1      -4.119   0.181   0.302  1.00  0.00     0.016 A 
HETATM   11  C10 UNL     1      -2.773   0.420   0.093  1.00  0.00     0.018 A 
HETATM   12  C11 UNL     1       1.314   0.695  -0.372  1.00  0.00     0.020 A 
HETATM   13  C12 UNL     1       2.640   1.027  -0.615  1.00  0.00     0.029 A 
HETATM   14  C13 UNL     1       3.616   0.102  -0.349  1.00  0.00    -0.009 A 
HETATM   15  C14 UNL     1       4.934   0.402  -0.579  1.00  0.00     0.014 A 
HETATM   16  C15 UNL     1       5.952  -0.498  -0.327  1.00  0.00     0.001 A 
HETATM   17  C16 UNL     1       5.602  -1.732   0.173  1.00  0.00     0.002 A 
HETATM   18  C17 UNL     1       4.277  -2.022   0.400  1.00  0.00     0.030 A 
HETATM   19  C18 UNL     1       3.246  -1.128   0.151  1.00  0.00     0.043 A 
HETATM   20  N3  UNL     1       1.945  -1.431   0.381  1.00  0.00    -0.354 N 
ATOM     21  H3  UNL     1       1.705  -2.350   0.752  1.00  0.00     0.166 HD
HETATM   22  C19 UNL     1       0.949  -0.534   0.127  1.00  0.00     0.060 A 
ENDROOT
BRANCH   1  23
HETATM   23  N1  UNL     1      -2.030  -1.631   0.807  1.00  0.00    -0.374 N 
HETATM   24  C1  UNL     1      -2.876  -2.589   1.246  1.00  0.00     0.118 C 
ATOM     25  H1  UNL     1      -1.106  -2.057   0.886  1.00  0.00     0.164 HD
ENDBRANCH   1  23
TORSDOF 1
