REMARK  12 active torsions:
REMARK  status: ('A' for Active; 'I' for Inactive)
REMARK       I    between atoms: C1_4  and  N3_6 
REMARK    1  A    between atoms: N3_6  and  C2_8 
REMARK    2  A    between atoms: C2_8  and  O1_9 
REMARK    3  A    between atoms: C2_8  and  C3_11 
REMARK    4  A    between atoms: C3_11  and  O2_12 
REMARK    5  A    between atoms: O2_12  and  C4_13 
REMARK    6  A    between atoms: C5_16  and  N5_17 
REMARK    7  A    between atoms: N7_23  and  C7_25 
REMARK    8  A    between atoms: C7_25  and  C8_26 
REMARK    9  A    between atoms: C8_26  and  O3_27 
REMARK   10  A    between atoms: C9_29  and  C10_30 
REMARK   11  A    between atoms: C10_30  and  N8_31 
REMARK   12  A    between atoms: C13_36  and  N10_37 
ROOT
HETATM    1  C4  UNL     1       0.344  -1.038  -1.050  1.00  0.00     0.173 A 
HETATM    2  N4  UNL     1       1.438  -1.887  -1.039  1.00  0.00    -0.170 N 
ATOM      3  H4  UNL     1       2.279  -1.634  -1.558  1.00  0.00     0.186 HD
HETATM    4  C5  UNL     1       1.404  -3.031  -0.357  1.00  0.00     0.679 A 
HETATM    5  N6  UNL     1       0.315  -3.386   0.330  1.00  0.00    -0.176 N 
ATOM      6  H6  UNL     1       0.306  -4.266   0.846  1.00  0.00     0.186 HD
HETATM    7  C6  UNL     1      -0.755  -2.602   0.345  1.00  0.00     0.133 A 
HETATM    8  N7  UNL     1      -1.809  -2.951   0.999  1.00  0.00    -0.373 N 
ATOM      9  H7  UNL     1      -2.609  -2.319   0.986  1.00  0.00     0.161 HD
HETATM   10  C9  UNL     1      -0.787  -1.374  -0.355  1.00  0.00     0.076 A 
ENDROOT
BRANCH  10  11
HETATM   11  C10 UNL     1      -1.998  -0.588  -0.275  1.00  0.00     0.119 C 
BRANCH  11  12
HETATM   12  N8  UNL     1      -2.063   0.525   0.615  1.00  0.00    -0.301 N 
HETATM   13  C11 UNL     1      -2.231   0.478   1.967  1.00  0.00     0.190 A 
HETATM   14  N9  UNL     1      -2.201   1.715   2.465  1.00  0.00    -0.346 N 
HETATM   15  C12 UNL     1      -2.016   2.574   1.467  1.00  0.00     0.122 A 
ATOM     16  H9  UNL     1      -2.303   1.961   3.449  1.00  0.00     0.167 HD
HETATM   17  C13 UNL     1      -1.923   3.949   1.361  1.00  0.00     0.131 A 
HETATM   18  C15 UNL     1      -1.930   1.819   0.301  1.00  0.00     0.144 A 
HETATM   19  N11 UNL     1      -1.758   4.589   0.204  1.00  0.00    -0.337 N 
HETATM   20  C14 UNL     1      -1.677   3.857  -0.921  1.00  0.00     0.183 A 
ATOM     21  H11 UNL     1      -1.695   5.607   0.173  1.00  0.00     0.168 HD
HETATM   22  N12 UNL     1      -1.765   2.530  -0.826  1.00  0.00    -0.336 N 
ATOM     23  H12 UNL     1      -1.701   2.002  -1.696  1.00  0.00     0.168 HD
BRANCH  17  24
HETATM   24  N10 UNL     1      -2.003   4.644   2.448  1.00  0.00    -0.383 N 
ATOM     25 2H10 UNL     1      -2.129   4.154   3.334  1.00  0.00     0.157 HD
ATOM     26 1H10 UNL     1      -1.934   5.659   2.370  1.00  0.00     0.157 HD
ENDBRANCH  17  24
ENDBRANCH  11  12
ENDBRANCH  10  11
BRANCH   1  27
HETATM   27  O2  UNL     1       0.393   0.104  -1.742  1.00  0.00    -0.330 OA
BRANCH  27  28
HETATM   28  C3  UNL     1       1.128   0.902  -2.511  1.00  0.00     0.231 C 
BRANCH  28  29
HETATM   29  C2  UNL     1       2.378   1.546  -2.022  1.00  0.00     0.244 C 
BRANCH  29  30
HETATM   30  N3  UNL     1       2.163   2.380  -0.842  1.00  0.00    -0.337 N 
HETATM   31  C1  UNL     1       3.242   3.074  -0.259  1.00  0.00     0.183 C 
HETATM   32  N1  UNL     1       3.272   4.369  -0.247  1.00  0.00    -0.374 N 
HETATM   33  N2  UNL     1       4.322   2.363   0.330  1.00  0.00    -0.064 NA
ATOM     34  H12 UNL     1       4.053   4.871   0.175  1.00  0.00     0.158 HD
ATOM     35  H11 UNL     1       2.497   4.879  -0.670  1.00  0.00     0.158 HD
ATOM     36  H3  UNL     1       1.229   2.460  -0.439  1.00  0.00     0.164 HD
ENDBRANCH  29  30
BRANCH  29  37
HETATM   37  O1  UNL     1       3.500   0.757  -1.948  1.00  0.00    -0.375 OA
ATOM     38  H1  UNL     1       3.640   0.215  -2.715  1.00  0.00     0.212 HD
ENDBRANCH  29  37
ENDBRANCH  28  29
ENDBRANCH  27  28
ENDBRANCH   1  27
BRANCH   8  39
HETATM   39  C7  UNL     1      -1.930  -4.171   1.744  1.00  0.00     0.147 C 
BRANCH  39  40
HETATM   40  C8  UNL     1      -2.313  -5.315   0.808  1.00  0.00     0.183 C 
BRANCH  40  41
HETATM   41  O3  UNL     1      -2.417  -6.469   1.576  1.00  0.00    -0.399 OA
ATOM     42  H3  UNL     1      -2.655  -7.181   0.994  1.00  0.00     0.209 HD
ENDBRANCH  40  41
ENDBRANCH  39  40
ENDBRANCH   8  39
BRANCH   4  43
HETATM   43  N5  UNL     1       2.470  -3.769  -0.398  1.00  0.00    -0.234 N 
ATOM     44  H52 UNL     1       3.302  -3.498  -0.923  1.00  0.00     0.174 HD
ATOM     45  H51 UNL     1       2.444  -4.645   0.124  1.00  0.00     0.174 HD
ENDBRANCH   4  43
TORSDOF 12
