REMARK  5 active torsions:
REMARK  status: ('A' for Active; 'I' for Inactive)
REMARK    1  A    between atoms: C7_7  and  O1_8 
REMARK    2  A    between atoms: C14_16  and  C15_17 
REMARK    3  A    between atoms: C15_17  and  C16_18 
REMARK    4  A    between atoms: C15_17  and  C20_22 
REMARK    5  A    between atoms: C16_18  and  C17_19 
ROOT
HETATM    1  C1  UNL     1       0.318   0.379   2.006  1.00  0.00     0.021 C 
HETATM    2  C2  UNL     1       0.454   0.516   0.510  1.00  0.00    -0.013 C 
HETATM    3  C3  UNL     1       1.130   1.808   0.177  1.00  0.00     0.041 C 
HETATM    4  C4  UNL     1       2.600   1.826   0.212  1.00  0.00    -0.022 C 
HETATM    5  C5  UNL     1       3.402   0.864   0.541  1.00  0.00    -0.077 C 
HETATM    6  C6  UNL     1       4.867   0.980   0.546  1.00  0.00     0.065 C 
HETATM    7  C7  UNL     1       5.541  -0.113  -0.206  1.00  0.00     0.122 C 
HETATM    8  C8  UNL     1       4.682  -1.314  -0.424  1.00  0.00     0.032 C 
HETATM    9  C9  UNL     1       3.689  -1.564   0.677  1.00  0.00     0.012 C 
HETATM   10  C10 UNL     1       2.774  -0.422   0.931  1.00  0.00     0.019 C 
HETATM   11  C11 UNL     1       1.538  -0.563   0.171  1.00  0.00     0.007 C 
HETATM   12  C12 UNL     1       1.555  -0.474  -1.298  1.00  0.00     0.011 C 
HETATM   13  C13 UNL     1       0.152   0.005  -1.703  1.00  0.00     0.036 C 
HETATM   14  C14 UNL     1      -0.568  -0.022  -0.325  1.00  0.00    -0.064 C 
ENDROOT
BRANCH  14  15
HETATM   15  C15 UNL     1      -2.002   0.117  -0.423  1.00  0.00    -0.051 C 
BRANCH  15  16
HETATM   16  C16 UNL     1      -2.725   1.343  -0.660  1.00  0.00    -0.014 C 
BRANCH  16  17
HETATM   17  C17 UNL     1      -2.861   2.572   0.054  1.00  0.00     0.009 A 
HETATM   18  C18 UNL     1      -3.482   2.487   1.488  1.00  0.00     0.009 A 
HETATM   19  C19 UNL     1      -2.256   3.244   1.173  1.00  0.00     0.009 A 
ENDBRANCH  16  17
ENDBRANCH  15  16
BRANCH  15  20
HETATM   20  C20 UNL     1      -2.790  -0.933   0.386  1.00  0.00     0.041 C 
HETATM   21  C21 UNL     1      -4.262  -0.761   0.201  1.00  0.00    -0.021 C 
HETATM   22  C22 UNL     1      -4.896  -1.393  -0.789  1.00  0.00    -0.030 C 
HETATM   23  C23 UNL     1      -4.294  -2.292  -1.782  1.00  0.00     0.027 C 
HETATM   24  C24 UNL     1      -2.904  -2.706  -1.423  1.00  0.00     0.005 C 
HETATM   25  C25 UNL     1      -2.557  -2.337  -0.018  1.00  0.00     0.013 C 
ENDBRANCH  15  20
ENDBRANCH  14  15
BRANCH   7  26
HETATM   26  O1  UNL     1       5.975   0.345  -1.452  1.00  0.00    -0.395 OA
ATOM     27  H1  UNL     1       6.405  -0.353  -1.932  1.00  0.00     0.210 HD
ENDBRANCH   7  26
TORSDOF 5
