REMARK  11 active torsions:
REMARK  status: ('A' for Active; 'I' for Inactive)
REMARK    1  A    between atoms: C2_2  and  C3_3 
REMARK    2  A    between atoms: C3_3  and  C4_4 
REMARK    3  A    between atoms: C4_4  and  C5_5 
REMARK    4  A    between atoms: C5_5  and  S1_6 
REMARK    5  A    between atoms: C7_9  and  C12_15 
REMARK    6  A    between atoms: C8_11  and  C9_12 
REMARK    7  A    between atoms: C15_18  and  O3_19 
REMARK       I    between atoms: N1_21  and  C16_22 
REMARK    8  A    between atoms: C16_22  and  C17_24 
REMARK    9  A    between atoms: C17_24  and  N2_25 
REMARK   10  A    between atoms: N2_25  and  C18_28 
REMARK   11  A    between atoms: C20_30  and  O5_31 
ROOT
HETATM    1  C9  UNL     1       0.062   1.325   0.535  1.00  0.00     0.076 C 
HETATM    2  C10 UNL     1      -0.273   0.881   1.913  1.00  0.00    -0.018 C 
HETATM    3  C11 UNL     1       0.067  -0.344   2.266  1.00  0.00    -0.018 C 
HETATM    4  C12 UNL     1       0.766  -1.234   1.291  1.00  0.00     0.077 C 
HETATM    5  C13 UNL     1       1.863  -0.381   0.711  1.00  0.00     0.015 A 
HETATM    6  C14 UNL     1       1.498   0.900   0.336  1.00  0.00     0.015 A 
HETATM    7  C15 UNL     1       2.625   1.485  -0.152  1.00  0.00     0.159 A 
HETATM    8  N1  UNL     1       3.671   0.644  -0.104  1.00  0.00    -0.239 N 
HETATM    9  C16 UNL     1       5.018   0.893  -0.526  1.00  0.00     0.257 C 
HETATM   10  O4  UNL     1       5.275   2.026  -1.000  1.00  0.00    -0.271 OA
HETATM   11  C20 UNL     1       3.188  -0.511   0.433  1.00  0.00     0.159 A 
ENDROOT
BRANCH   7  12
HETATM   12  O3  UNL     1       2.643   2.805  -0.636  1.00  0.00    -0.345 OA
ATOM     13  H3  UNL     1       3.430   3.214  -0.977  1.00  0.00     0.219 HD
ENDBRANCH   7  12
BRANCH   9  14
HETATM   14  C17 UNL     1       6.088  -0.095  -0.430  1.00  0.00     0.335 C 
BRANCH  14  15
HETATM   15  N2  UNL     1       7.319   0.473  -0.938  1.00  0.00    -0.067 N 
ATOM     16  H22 UNL     1       7.217   0.837  -1.885  1.00  0.00     0.277 HD
ATOM     17  H21 UNL     1       7.563   1.348  -0.474  1.00  0.00     0.277 HD
BRANCH  15  18
HETATM   18  C18 UNL     1       8.384  -0.527  -0.837  1.00  0.00     0.228 C 
HETATM   19  C19 UNL     1       9.664   0.062  -1.366  1.00  0.00     0.034 C 
ENDBRANCH  15  18
ENDBRANCH  14  15
ENDBRANCH   9  14
BRANCH  11  20
HETATM   20  O5  UNL     1       3.921  -1.675   0.676  1.00  0.00    -0.345 OA
ATOM     21  H5  UNL     1       4.846  -1.766   0.482  1.00  0.00     0.219 HD
ENDBRANCH  11  20
BRANCH   1  22
HETATM   22  C8  UNL     1      -0.716   0.535  -0.503  1.00  0.00     0.152 C 
HETATM   23  O2  UNL     1      -0.018  -0.624  -0.889  1.00  0.00    -0.375 OA
HETATM   24  C7  UNL     1      -0.158  -1.545   0.133  1.00  0.00     0.165 C 
HETATM   25  C6  UNL     1      -1.621  -1.377   0.522  1.00  0.00     0.184 C 
HETATM   26  O1  UNL     1      -2.452  -1.914  -0.451  1.00  0.00    -0.322 OA
HETATM   27  C21 UNL     1      -2.014   0.006   0.053  1.00  0.00     0.126 C 
HETATM   28  S1  UNL     1      -3.354  -0.594  -1.144  1.00  0.00    -0.079 SA
BRANCH  28  29
HETATM   29  C5  UNL     1      -5.246  -0.154  -1.051  1.00  0.00     0.092 C 
BRANCH  29  30
HETATM   30  C4  UNL     1      -5.624   0.056   0.378  1.00  0.00     0.012 C 
BRANCH  30  31
HETATM   31  C3  UNL     1      -7.090   0.406   0.540  1.00  0.00     0.000 C 
BRANCH  31  32
HETATM   32  C2  UNL     1      -8.000  -0.658   0.021  1.00  0.00    -0.005 C 
HETATM   33  C1  UNL     1      -9.433  -0.194   0.240  1.00  0.00     0.005 C 
ENDBRANCH  31  32
ENDBRANCH  30  31
ENDBRANCH  29  30
ENDBRANCH  28  29
ENDBRANCH   1  22
TORSDOF 11
