REMARK  9 active torsions:
REMARK  status: ('A' for Active; 'I' for Inactive)
REMARK    1  A    between atoms: C2_2  and  C3_3 
REMARK    2  A    between atoms: C3_3  and  C5_5 
REMARK    3  A    between atoms: C5_5  and  O1_6 
REMARK    4  A    between atoms: O1_6  and  C6_7 
REMARK       I    between atoms: N1_10  and  C9_12 
REMARK    5  A    between atoms: C13_20  and  C14_21 
REMARK    6  A    between atoms: C14_21  and  C16_23 
REMARK    7  A    between atoms: C19_29  and  C20_30 
REMARK    8  A    between atoms: C20_30  and  C22_32 
REMARK    9  A    between atoms: C24_36  and  O5_37 
ROOT
HETATM    1  C6  UNL     1       2.314   0.140   0.424  1.00  0.00     0.228 C 
HETATM    2  C7  UNL     1       2.153  -1.264  -0.041  1.00  0.00     0.110 C 
HETATM    3  C8  UNL     1       1.026  -1.543  -0.921  1.00  0.00     0.039 C 
HETATM    4  N1  UNL     1       1.038  -2.569  -1.691  1.00  0.00    -0.331 N 
ATOM      5  H1  UNL     1       0.245  -2.757  -2.304  1.00  0.00     0.168 HD
HETATM    6  C9  UNL     1       2.157  -3.442  -1.688  1.00  0.00     0.217 C 
HETATM    7  C10 UNL     1       3.204  -3.391  -2.720  1.00  0.00     0.117 C 
HETATM    8  O2  UNL     1       2.224  -4.286  -0.745  1.00  0.00    -0.274 OA
HETATM    9  C11 UNL     1      -0.182  -0.606  -0.927  1.00  0.00     0.218 C 
HETATM   10  N2  UNL     1      -0.997  -0.986  -2.048  1.00  0.00    -0.330 N 
ATOM     11  H2  UNL     1      -0.668  -0.684  -2.965  1.00  0.00     0.164 HD
HETATM   12  C12 UNL     1      -2.189  -1.721  -2.032  1.00  0.00     0.242 C 
HETATM   13  O3  UNL     1      -2.270  -2.751  -2.760  1.00  0.00    -0.271 OA
HETATM   14  C13 UNL     1      -3.391  -1.391  -1.221  1.00  0.00     0.180 C 
HETATM   15  N3  UNL     1      -3.758  -0.003  -1.388  1.00  0.00    -0.346 N 
ATOM     16  H3  UNL     1      -4.495   0.221  -2.056  1.00  0.00     0.163 HD
HETATM   17  C18 UNL     1      -3.145   1.082  -0.667  1.00  0.00     0.241 C 
HETATM   18  O4  UNL     1      -2.903   2.130  -1.319  1.00  0.00    -0.271 OA
HETATM   19  C19 UNL     1      -2.808   1.007   0.743  1.00  0.00     0.179 C 
HETATM   20  N4  UNL     1      -1.565   0.327   1.063  1.00  0.00    -0.358 N 
ATOM     21  H4  UNL     1      -1.160   0.603   1.958  1.00  0.00     0.162 HD
HETATM   22  C24 UNL     1      -0.829  -0.622   0.385  1.00  0.00     0.157 C 
HETATM   23  C25 UNL     1       0.491   0.713  -1.211  1.00  0.00     0.262 C 
HETATM   24  O6  UNL     1       0.233   1.436  -2.192  1.00  0.00    -0.270 OA
HETATM   25  N5  UNL     1       1.469   1.094  -0.263  1.00  0.00    -0.331 N 
ATOM     26  H5  UNL     1       1.584   2.086  -0.054  1.00  0.00     0.165 HD
ENDROOT
BRANCH  22  27
HETATM   27  O5  UNL     1      -0.663  -1.758   1.015  1.00  0.00    -0.347 OA
ATOM     28  H5  UNL     1      -1.083  -1.768   1.867  1.00  0.00     0.219 HD
ENDBRANCH  22  27
BRANCH   1  29
HETATM   29  O1  UNL     1       3.627   0.596   0.248  1.00  0.00    -0.366 OA
BRANCH  29  30
HETATM   30  C5  UNL     1       4.219   0.975   1.448  1.00  0.00     0.174 C 
BRANCH  30  31
HETATM   31  C3  UNL     1       5.616   1.451   1.171  1.00  0.00     0.005 C 
HETATM   32  C4  UNL     1       5.622   2.683   0.276  1.00  0.00     0.012 C 
BRANCH  31  33
HETATM   33  C2  UNL     1       6.463   0.368   0.535  1.00  0.00     0.002 C 
HETATM   34  C1  UNL     1       7.894   0.823   0.349  1.00  0.00     0.005 C 
ENDBRANCH  31  33
ENDBRANCH  30  31
ENDBRANCH  29  30
ENDBRANCH   1  29
BRANCH  14  35
HETATM   35  C14 UNL     1      -4.581  -2.225  -1.660  1.00  0.00     0.013 C 
HETATM   36  C15 UNL     1      -4.331  -3.701  -1.514  1.00  0.00     0.012 C 
BRANCH  35  37
HETATM   37  C16 UNL     1      -5.763  -1.852  -0.802  1.00  0.00     0.002 C 
HETATM   38  C17 UNL     1      -5.529  -2.111   0.668  1.00  0.00     0.005 C 
ENDBRANCH  35  37
ENDBRANCH  14  35
BRANCH  19  39
HETATM   39  C20 UNL     1      -2.916   2.299   1.524  1.00  0.00     0.013 C 
HETATM   40  C21 UNL     1      -2.563   2.004   2.980  1.00  0.00     0.012 C 
BRANCH  39  41
HETATM   41  C22 UNL     1      -2.134   3.456   1.014  1.00  0.00     0.002 C 
HETATM   42  C23 UNL     1      -2.392   4.617   1.996  1.00  0.00     0.005 C 
ENDBRANCH  39  41
ENDBRANCH  19  39
TORSDOF 9
