REMARK  7 active torsions:
REMARK  status: ('A' for Active; 'I' for Inactive)
REMARK    1  A    between atoms: O1_2  and  C2_3 
REMARK    2  A    between atoms: C2_3  and  C3_4 
REMARK    3  A    between atoms: C3_4  and  C4_5 
REMARK    4  A    between atoms: C4_5  and  C5_6 
REMARK    5  A    between atoms: C6_7  and  C7_8 
REMARK    6  A    between atoms: C12_18  and  C13_19 
REMARK    7  A    between atoms: C17_25  and  C18_26 
ROOT
HETATM    1  C7  UNL     1      -2.861   1.440   0.409  1.00  0.00     0.135 C 
HETATM    2  C8  UNL     1      -3.534   2.747   0.107  1.00  0.00     0.231 C 
HETATM    3  O2  UNL     1      -4.765   2.926   0.172  1.00  0.00    -0.273 OA
HETATM    4  N1  UNL     1      -2.534   3.726  -0.259  1.00  0.00    -0.332 N 
HETATM    5  C9  UNL     1      -2.768   5.147  -0.136  1.00  0.00     0.155 C 
HETATM    6  C10 UNL     1      -1.439   2.930  -0.696  1.00  0.00     0.226 C 
HETATM    7  C11 UNL     1      -1.422   1.900   0.433  1.00  0.00     0.245 C 
HETATM    8  N2  UNL     1      -0.478   0.915   0.061  1.00  0.00    -0.056 N 
ATOM      9  H21 UNL     1      -0.621   0.546  -0.879  1.00  0.00     0.278 HD
ATOM     10  H22 UNL     1      -0.592   0.031   0.557  1.00  0.00     0.278 HD
HETATM   11  C12 UNL     1       0.851   1.540   0.258  1.00  0.00     0.241 C 
HETATM   12  C23 UNL     1       1.034   2.679  -0.701  1.00  0.00     0.155 C 
HETATM   13  C24 UNL     1       2.088   3.645  -0.198  1.00  0.00     0.155 C 
HETATM   14  C25 UNL     1       3.146   3.949  -1.243  1.00  0.00     0.042 C 
HETATM   15  O4  UNL     1       1.406   4.909  -0.018  1.00  0.00    -0.297 OA
HETATM   16  C26 UNL     1       0.310   4.855  -0.916  1.00  0.00     0.365 C 
HETATM   17  O5  UNL     1      -0.140   5.767  -1.656  1.00  0.00    -0.238 OA
HETATM   18  N6  UNL     1      -0.147   3.508  -0.764  1.00  0.00    -0.295 N 
ENDROOT
BRANCH  11  19
HETATM   19  C13 UNL     1       1.897   0.496   0.149  1.00  0.00    -0.041 A 
HETATM   20  C14 UNL     1       2.885   0.282  -0.658  1.00  0.00     0.035 A 
HETATM   21  C15 UNL     1       3.644  -0.921  -0.328  1.00  0.00     0.040 A 
HETATM   22  N3  UNL     1       4.688  -1.714  -0.646  1.00  0.00    -0.353 N 
HETATM   23  C21 UNL     1       3.057  -1.473   0.767  1.00  0.00    -0.013 A 
HETATM   24  C16 UNL     1       4.778  -2.737   0.208  1.00  0.00     0.077 A 
ATOM     25  H3  UNL     1       5.321  -1.554  -1.430  1.00  0.00     0.166 HD
HETATM   26  C17 UNL     1       5.488  -3.879   0.548  1.00  0.00     0.125 A 
HETATM   27  C20 UNL     1       3.754  -2.599   1.107  1.00  0.00     0.017 A 
HETATM   28  N5  UNL     1       4.869  -4.390   1.640  1.00  0.00    -0.359 N 
HETATM   29  C19 UNL     1       3.819  -3.635   1.996  1.00  0.00     0.103 A 
ATOM     30  H5  UNL     1       5.163  -5.237   2.127  1.00  0.00     0.165 HD
HETATM   31  C22 UNL     1       1.904  -0.642   1.140  1.00  0.00     0.078 A 
BRANCH  26  32
HETATM   32  C18 UNL     1       6.652  -4.426  -0.114  1.00  0.00     0.283 C 
HETATM   33  N4  UNL     1       7.207  -3.793  -1.248  1.00  0.00    -0.056 NA
HETATM   34  O3  UNL     1       7.172  -5.471   0.324  1.00  0.00    -0.269 OA
ENDBRANCH  26  32
ENDBRANCH  11  19
BRANCH   1  35
HETATM   35  C6  UNL     1      -3.185   0.504  -0.662  1.00  0.00    -0.015 C 
HETATM   36  C5  UNL     1      -3.632  -0.707  -0.531  1.00  0.00    -0.030 C 
BRANCH  36  37
HETATM   37  C4  UNL     1      -3.901  -1.377   0.747  1.00  0.00     0.029 C 
BRANCH  37  38
HETATM   38  C3  UNL     1      -5.346  -1.804   0.920  1.00  0.00     0.030 C 
BRANCH  38  39
HETATM   39  C2  UNL     1      -5.741  -2.770  -0.167  1.00  0.00     0.167 C 
BRANCH  39  40
HETATM   40  O1  UNL     1      -4.995  -3.917  -0.210  1.00  0.00    -0.396 OA
HETATM   41  C1  UNL     1      -5.021  -4.696   0.917  1.00  0.00     0.201 C 
ENDBRANCH  39  40
ENDBRANCH  38  39
ENDBRANCH  37  38
ENDBRANCH  36  37
ENDBRANCH   1  35
TORSDOF 7
