REMARK  3 active torsions:
REMARK  status: ('A' for Active; 'I' for Inactive)
REMARK       I    between atoms: N1_1  and  C1_4 
REMARK       I    between atoms: C1_4  and  N2_5 
REMARK    1  A    between atoms: C2_7  and  N3_8 
REMARK       I    between atoms: N5_12  and  C4_14 
REMARK       I    between atoms: C4_14  and  N6_16 
REMARK    2  A    between atoms: C7_19  and  C8_20 
REMARK    3  A    between atoms: C8_20  and  C9_21 
ROOT
HETATM    1  N1  UNL     1       4.194   3.000   1.792  1.00  0.00    -0.234 N 
ATOM      2  H11 UNL     1       4.012   3.538   0.945  1.00  0.00     0.174 HD
ATOM      3  H12 UNL     1       4.801   3.721   2.184  1.00  0.00     0.174 HD
HETATM    4  C1  UNL     1       3.470   2.142   1.322  1.00  0.00     0.680 C 
HETATM    5  N2  UNL     1       3.786   1.206   2.797  1.00  0.00    -0.188 N 
ATOM      6  H2  UNL     1       3.256   1.162   3.667  1.00  0.00     0.185 HD
HETATM    7  C2  UNL     1       4.859   0.604   2.467  1.00  0.00     0.198 C 
HETATM    8  N5  UNL     1       2.683   1.207   0.814  1.00  0.00    -0.141 N 
ATOM      9  H5  UNL     1       2.492   0.361   1.350  1.00  0.00     0.189 HD
HETATM   10  C4  UNL     1       2.083   1.378  -0.514  1.00  0.00     0.336 C 
HETATM   11  O1  UNL     1       2.350   2.431  -1.121  1.00  0.00    -0.246 OA
HETATM   12  N6  UNL     1       1.241   0.399  -1.081  1.00  0.00    -0.333 N 
HETATM   13  C5  UNL     1       0.587   0.520  -2.400  1.00  0.00     0.128 C 
HETATM   14  C6  UNL     1      -0.846   0.201  -1.956  1.00  0.00     0.026 C 
HETATM   15  C7  UNL     1      -0.678  -0.938  -1.006  1.00  0.00     0.005 C 
HETATM   16  C15 UNL     1       0.807  -0.897  -0.609  1.00  0.00     0.132 C 
ENDROOT
BRANCH  15  17
HETATM   17  C8  UNL     1      -1.473  -0.826   0.230  1.00  0.00     0.011 C 
BRANCH  17  18
HETATM   18  C9  UNL     1      -2.946  -0.753   0.125  1.00  0.00    -0.014 C 
HETATM   19  C10 UNL     1      -3.599  -1.932  -0.561  1.00  0.00     0.005 C 
HETATM   20  C11 UNL     1      -4.919  -1.538  -1.192  1.00  0.00     0.000 C 
HETATM   21  C12 UNL     1      -5.714  -0.602  -0.351  1.00  0.00     0.000 C 
HETATM   22  C13 UNL     1      -4.975   0.577   0.197  1.00  0.00     0.000 C 
HETATM   23  C14 UNL     1      -3.544   0.521  -0.364  1.00  0.00     0.005 C 
ENDBRANCH  17  18
ENDBRANCH  15  17
BRANCH   7  24
HETATM   24  N3  UNL     1       5.560   0.692   1.258  1.00  0.00    -0.350 N 
HETATM   25  C3  UNL     1       6.736   0.279   1.056  1.00  0.00     0.190 C 
HETATM   26  N4  UNL     1       7.489  -0.335   2.066  1.00  0.00    -0.097 NA
ATOM     27  H3  UNL     1       5.078   1.128   0.472  1.00  0.00     0.167 HD
ENDBRANCH   7  24
TORSDOF 3
