REMARK  8 active torsions:
REMARK  status: ('A' for Active; 'I' for Inactive)
REMARK    1  A    between atoms: C2_2  and  C3_3 
REMARK    2  A    between atoms: C3_3  and  C4_4 
REMARK    3  A    between atoms: C3_3  and  N1_6 
REMARK    4  A    between atoms: N5_19  and  C11_20 
REMARK    5  A    between atoms: C14_24  and  C15_25 
REMARK    6  A    between atoms: C15_25  and  C17_27 
REMARK    7  A    between atoms: C17_27  and  C18_28 
REMARK    8  A    between atoms: C18_28  and  C19_29 
ROOT
HETATM    1  N1  UNL     1      -2.786   0.620   0.233  1.00  0.00    -0.370 N 
ATOM      2  H1  UNL     1      -2.285   1.475  -0.009  1.00  0.00     0.161 HD
HETATM    3  C6  UNL     1      -2.065  -0.288  -0.116  1.00  0.00     0.133 A 
HETATM    4  N2  UNL     1      -2.319  -1.603   0.004  1.00  0.00    -0.337 N 
ATOM      5  H2  UNL     1      -3.201  -1.891   0.429  1.00  0.00     0.168 HD
HETATM    6  C7  UNL     1      -1.458  -2.566  -0.413  1.00  0.00     0.183 A 
HETATM    7  N3  UNL     1      -0.280  -2.263  -0.981  1.00  0.00    -0.336 N 
ATOM      8  H3  UNL     1       0.354  -3.001  -1.288  1.00  0.00     0.168 HD
HETATM    9  C8  UNL     1       0.049  -0.968  -1.138  1.00  0.00     0.141 A 
HETATM   10  C9  UNL     1      -0.817   0.005  -0.718  1.00  0.00     0.122 A 
HETATM   11  N4  UNL     1      -0.255   1.170  -0.987  1.00  0.00    -0.346 N 
ATOM     12  H4  UNL     1      -0.651   2.090  -0.794  1.00  0.00     0.167 HD
HETATM   13  C10 UNL     1       0.943   0.918  -1.566  1.00  0.00     0.185 A 
HETATM   14  N5  UNL     1       1.177  -0.391  -1.681  1.00  0.00    -0.319 N 
ENDROOT
BRANCH  14  15
HETATM   15  C11 UNL     1       2.240  -1.153  -2.222  1.00  0.00     0.131 C 
HETATM   16  C12 UNL     1       3.025  -0.540  -3.379  1.00  0.00     0.194 C 
HETATM   17  F1  UNL     1       2.605   0.649  -3.859  1.00  0.00    -0.247 F 
HETATM   18  C13 UNL     1       4.180  -0.444  -2.365  1.00  0.00     0.046 C 
HETATM   19  C14 UNL     1       3.489  -1.411  -1.472  1.00  0.00     0.018 C 
BRANCH  19  20
HETATM   20  C15 UNL     1       3.612  -1.428  -0.032  1.00  0.00    -0.012 C 
HETATM   21  C16 UNL     1       5.108  -1.757   0.357  1.00  0.00     0.010 C 
BRANCH  20  22
HETATM   22  C17 UNL     1       3.238  -0.367   0.891  1.00  0.00     0.013 C 
BRANCH  22  23
HETATM   23  C18 UNL     1       3.887   0.966   0.813  1.00  0.00     0.117 C 
BRANCH  23  24
HETATM   24  C19 UNL     1       3.286   1.804   1.953  1.00  0.00     0.387 C 
HETATM   25  F2  UNL     1       3.872   3.036   1.898  1.00  0.00    -0.171 F 
HETATM   26  F3  UNL     1       1.914   1.873   1.852  1.00  0.00    -0.171 F 
HETATM   27  F4  UNL     1       3.591   1.228   3.166  1.00  0.00    -0.171 F 
ENDBRANCH  23  24
ENDBRANCH  22  23
ENDBRANCH  20  22
ENDBRANCH  19  20
ENDBRANCH  14  15
BRANCH   1  28
HETATM   28  C3  UNL     1      -3.971   1.037   0.806  1.00  0.00     0.082 C 
BRANCH  28  29
HETATM   29  C2  UNL     1      -4.761  -0.062   1.416  1.00  0.00     0.021 C 
HETATM   30  C1  UNL     1      -5.989   0.326   2.188  1.00  0.00     0.007 C 
ENDBRANCH  28  29
BRANCH  28  31
HETATM   31  C4  UNL     1      -4.738   1.844  -0.218  1.00  0.00     0.021 C 
HETATM   32  C5  UNL     1      -5.942   2.562   0.238  1.00  0.00     0.007 C 
ENDBRANCH  28  31
ENDBRANCH   1  28
TORSDOF 8
