REMARK  2 active torsions:
REMARK  status: ('A' for Active; 'I' for Inactive)
REMARK       I    between atoms: C1_2  and  N1_3 
REMARK    1  A    between atoms: C1_2  and  C7_12 
REMARK    2  A    between atoms: N1_3  and  C2_5 
ROOT
HETATM    1  C7  UNL     1      -0.308  -0.817   0.572  1.00  0.00     0.144 A 
HETATM    2  C8  UNL     1       0.809  -0.300   1.193  1.00  0.00     0.058 A 
HETATM    3  C9  UNL     1       1.760  -0.129   0.214  1.00  0.00     0.012 A 
HETATM    4  C10 UNL     1       1.177  -0.550  -0.957  1.00  0.00     0.087 A 
HETATM    5  C11 UNL     1       1.931  -0.482  -2.114  1.00  0.00     0.039 A 
HETATM    6  C12 UNL     1       3.225  -0.017  -2.144  1.00  0.00     0.015 A 
HETATM    7  C13 UNL     1       3.803   0.404  -0.965  1.00  0.00    -0.025 A 
HETATM    8  C14 UNL     1       5.098   0.873  -0.970  1.00  0.00     0.012 A 
HETATM    9  C15 UNL     1       5.634   1.282   0.230  1.00  0.00     0.001 A 
HETATM   10  C16 UNL     1       4.897   1.223   1.399  1.00  0.00     0.001 A 
HETATM   11  C17 UNL     1       3.602   0.752   1.400  1.00  0.00     0.013 A 
HETATM   12  C18 UNL     1       3.048   0.335   0.190  1.00  0.00    -0.013 A 
HETATM   13  O2  UNL     1      -0.062  -0.956  -0.709  1.00  0.00    -0.304 OA
ENDROOT
BRANCH   1  14
HETATM   14  C1  UNL     1      -1.588  -1.167   1.218  1.00  0.00     0.281 C 
HETATM   15  O1  UNL     1      -1.699  -0.988   2.450  1.00  0.00    -0.265 OA
HETATM   16  N1  UNL     1      -2.657  -1.694   0.445  1.00  0.00    -0.307 N 
ATOM     17  H1  UNL     1      -2.577  -2.633   0.056  1.00  0.00     0.170 HD
BRANCH  16  18
HETATM   18  C2  UNL     1      -3.716  -1.014   0.228  1.00  0.00     0.107 A 
HETATM   19  C3  UNL     1      -3.871   0.259   0.732  1.00  0.00     0.048 A 
HETATM   20  C4  UNL     1      -5.015   1.009   0.505  1.00  0.00     0.005 A 
HETATM   21  C5  UNL     1      -6.010   0.446  -0.247  1.00  0.00     0.017 A 
HETATM   22  C6  UNL     1      -5.838  -0.840  -0.748  1.00  0.00     0.089 A 
HETATM   23  N2  UNL     1      -4.716  -1.533  -0.506  1.00  0.00    -0.352 N 
ATOM     24  H2  UNL     1      -4.619  -2.474  -0.887  1.00  0.00     0.166 HD
ENDBRANCH  16  18
ENDBRANCH   1  14
TORSDOF 2
