REMARK  2 active torsions:
REMARK  status: ('A' for Active; 'I' for Inactive)
REMARK    1  A    between atoms: C8_9  and  C9_10 
REMARK    2  A    between atoms: C10_11  and  C11_12 
ROOT
HETATM    1  N1  UNL     1       7.479  -0.237  -3.063  1.00  0.00    -0.191 NA
HETATM    2  C1  UNL     1       6.746  -0.175  -2.182  1.00  0.00     0.099 C 
HETATM    3  C2  UNL     1       5.840  -0.099  -1.070  1.00  0.00     0.045 A 
HETATM    4  C3  UNL     1       6.326  -0.023   0.220  1.00  0.00     0.023 A 
HETATM    5  C4  UNL     1       5.505   0.052   1.319  1.00  0.00     0.014 A 
HETATM    6  C5  UNL     1       4.120   0.051   1.142  1.00  0.00    -0.026 A 
HETATM    7  C6  UNL     1       3.287   0.125   2.235  1.00  0.00     0.014 A 
HETATM    8  C7  UNL     1       1.930   0.121   2.020  1.00  0.00     0.021 A 
HETATM    9  C8  UNL     1       1.383   0.046   0.745  1.00  0.00     0.019 A 
HETATM   10  C18 UNL     1       2.221  -0.028  -0.346  1.00  0.00     0.032 A 
HETATM   11  C19 UNL     1       3.603  -0.025  -0.133  1.00  0.00    -0.023 A 
HETATM   12  C20 UNL     1       4.474  -0.098  -1.221  1.00  0.00     0.035 A 
ENDROOT
BRANCH   9  13
HETATM   13  C9  UNL     1      -0.032   0.041   0.502  1.00  0.00    -0.059 C 
HETATM   14  C10 UNL     1      -1.238   0.033   0.316  1.00  0.00    -0.025 C 
BRANCH  14  15
HETATM   15  C11 UNL     1      -2.654   0.016   0.123  1.00  0.00     0.163 A 
HETATM   16  N2  UNL     1      -3.633  -0.086   1.050  1.00  0.00    -0.333 N 
HETATM   17  C12 UNL     1      -4.825  -0.065   0.479  1.00  0.00     0.061 A 
ATOM     18  H2  UNL     1      -3.473  -0.168   2.054  1.00  0.00     0.168 HD
HETATM   19  C13 UNL     1      -6.098  -0.139   0.993  1.00  0.00     0.032 A 
HETATM   20  C17 UNL     1      -4.617   0.056  -0.879  1.00  0.00     0.061 A 
HETATM   21  C14 UNL     1      -7.197  -0.091   0.123  1.00  0.00     0.002 A 
HETATM   22  C15 UNL     1      -7.006   0.030  -1.234  1.00  0.00     0.002 A 
HETATM   23  C16 UNL     1      -5.708   0.103  -1.730  1.00  0.00     0.032 A 
HETATM   24  N3  UNL     1      -3.271   0.103  -1.067  1.00  0.00    -0.333 N 
ATOM     25  H3  UNL     1      -2.804   0.191  -1.969  1.00  0.00     0.168 HD
ENDBRANCH  14  15
ENDBRANCH   9  13
TORSDOF 2
