REMARK  9 active torsions:
REMARK  status: ('A' for Active; 'I' for Inactive)
REMARK    1  A    between atoms: O1_2  and  C2_3 
REMARK    2  A    between atoms: C2_3  and  C3_5 
REMARK    3  A    between atoms: C3_5  and  C4_6 
REMARK    4  A    between atoms: C7_9  and  O3_10 
REMARK    5  A    between atoms: O3_10  and  C8_11 
REMARK    6  A    between atoms: C9_13  and  C10_14 
REMARK    7  A    between atoms: C12_17  and  O6_18 
REMARK    8  A    between atoms: C14_21  and  O7_22 
REMARK    9  A    between atoms: O7_22  and  C15_23 
ROOT
HETATM    1  C8  UNL     1      -1.870   0.205  -0.626  1.00  0.00     0.290 C 
HETATM    2  O4  UNL     1      -2.239   1.188  -1.525  1.00  0.00    -0.343 OA
HETATM    3  C9  UNL     1      -3.102   2.128  -0.990  1.00  0.00     0.222 C 
HETATM    4  C12 UNL     1      -4.263   1.549  -0.257  1.00  0.00     0.157 C 
HETATM    5  C13 UNL     1      -4.010   0.274   0.470  1.00  0.00     0.072 C 
HETATM    6  C14 UNL     1      -3.133  -0.616  -0.364  1.00  0.00     0.189 C 
ENDROOT
BRANCH   1   7
HETATM    7  O3  UNL     1      -0.823  -0.541  -1.088  1.00  0.00    -0.353 OA
BRANCH   7   8
HETATM    8  C7  UNL     1       0.299  -0.423  -0.279  1.00  0.00     0.124 C 
HETATM    9  C6  UNL     1       1.413   0.147  -1.144  1.00  0.00     0.032 C 
HETATM   10  C5  UNL     1       2.605   0.501  -0.247  1.00  0.00     0.007 C 
HETATM   11  C4  UNL     1       3.128  -0.802   0.303  1.00  0.00    -0.005 C 
HETATM   12  C18 UNL     1       2.016  -1.447   1.102  1.00  0.00     0.007 C 
HETATM   13  C17 UNL     1       0.795  -1.737   0.258  1.00  0.00     0.032 C 
BRANCH  11  14
HETATM   14  C3  UNL     1       4.299  -0.592   1.238  1.00  0.00     0.115 C 
BRANCH  14  15
HETATM   15  C2  UNL     1       5.446   0.071   0.590  1.00  0.00     0.258 C 
HETATM   16  O2  UNL     1       5.409   1.299   0.377  1.00  0.00    -0.265 OA
BRANCH  15  17
HETATM   17  O1  UNL     1       6.557  -0.649   0.218  1.00  0.00    -0.326 OA
HETATM   18  C1  UNL     1       7.681  -0.056  -0.406  1.00  0.00     0.213 C 
ENDBRANCH  15  17
ENDBRANCH  14  15
ENDBRANCH  11  14
ENDBRANCH   7   8
ENDBRANCH   1   7
BRANCH   6  19
HETATM   19  O7  UNL     1      -2.859  -1.854   0.220  1.00  0.00    -0.311 OA
BRANCH  19  20
HETATM   20  C15 UNL     1      -3.236  -3.011  -0.440  1.00  0.00     0.255 C 
HETATM   21  C16 UNL     1      -2.964  -4.363   0.143  1.00  0.00     0.126 C 
HETATM   22  O8  UNL     1      -3.821  -2.900  -1.557  1.00  0.00    -0.266 OA
ENDBRANCH  19  20
ENDBRANCH   6  19
BRANCH   3  23
HETATM   23  C10 UNL     1      -2.375   3.184  -0.233  1.00  0.00     0.154 C 
HETATM   24  C11 UNL     1      -3.044   4.324   0.438  1.00  0.00     0.094 C 
HETATM   25  O5  UNL     1      -1.163   3.126  -0.150  1.00  0.00    -0.295 OA
ENDBRANCH   3  23
BRANCH   4  26
HETATM   26  O6  UNL     1      -4.803   2.454   0.659  1.00  0.00    -0.392 OA
ATOM     27  H6  UNL     1      -5.543   2.085   1.126  1.00  0.00     0.210 HD
ENDBRANCH   4  26
TORSDOF 9
