REMARK  7 active torsions:
REMARK  status: ('A' for Active; 'I' for Inactive)
REMARK    1  A    between atoms: C2_2  and  O1_3 
REMARK    2  A    between atoms: O1_3  and  C3_4 
REMARK    3  A    between atoms: C3_4  and  C4_5 
REMARK    4  A    between atoms: C4_5  and  C5_7 
REMARK    5  A    between atoms: C5_7  and  O2_8 
REMARK    6  A    between atoms: O2_8  and  N1_9 
REMARK    7  A    between atoms: N1_9  and  O3_11 
ROOT
HETATM    1  C1  UNL     1       2.628  -0.975  -1.702  1.00  0.00     0.046 C 
HETATM    2  C2  UNL     1       2.533  -0.806  -0.181  1.00  0.00     0.062 C 
HETATM    3  C6  UNL     1       1.993  -2.076   0.380  1.00  0.00     0.043 C 
HETATM    4  C7  UNL     1       0.747  -1.675   1.166  1.00  0.00     0.077 C 
HETATM    5  C8  UNL     1       0.272  -0.453   0.454  1.00  0.00     0.232 C 
HETATM    6  C9  UNL     1       1.527   0.299   0.150  1.00  0.00     0.112 C 
HETATM    7  O4  UNL     1      -0.563   0.342   1.239  1.00  0.00    -0.194 OA
HETATM    8  O5  UNL     1      -1.746  -0.193   1.424  1.00  0.00    -0.192 OA
HETATM    9  C10 UNL     1      -2.403  -0.317   0.187  1.00  0.00     0.254 C 
HETATM   10  O6  UNL     1      -1.600  -1.130  -0.602  1.00  0.00    -0.192 OA
HETATM   11  O7  UNL     1      -0.387  -0.710  -0.737  1.00  0.00    -0.194 OA
HETATM   12  C11 UNL     1      -2.431   1.045  -0.431  1.00  0.00     0.060 C 
HETATM   13  C12 UNL     1      -3.065   2.082   0.468  1.00  0.00     0.015 C 
HETATM   14  C13 UNL     1      -4.432   2.234  -0.156  1.00  0.00    -0.013 C 
HETATM   15  C14 UNL     1      -4.037   2.350  -1.636  1.00  0.00     0.010 C 
HETATM   16  C15 UNL     1      -3.148   1.103  -1.748  1.00  0.00    -0.004 C 
HETATM   17  C16 UNL     1      -4.139  -0.064  -1.858  1.00  0.00     0.011 C 
HETATM   18  C17 UNL     1      -4.748  -0.238  -0.504  1.00  0.00     0.014 C 
HETATM   19  C18 UNL     1      -5.293   1.017   0.060  1.00  0.00     0.011 C 
HETATM   20  C19 UNL     1      -3.745  -0.941   0.374  1.00  0.00     0.111 C 
HETATM   21  C20 UNL     1      -4.181  -1.041   1.810  1.00  0.00     0.038 C 
HETATM   22  C21 UNL     1      -3.695  -2.343  -0.119  1.00  0.00     0.075 C 
HETATM   23  N2  UNL     1      -3.641  -3.428  -0.517  1.00  0.00    -0.196 NA
ENDROOT
BRANCH   2  24
HETATM   24  O1  UNL     1       3.749  -0.400   0.303  1.00  0.00    -0.378 OA
BRANCH  24  25
HETATM   25  C3  UNL     1       4.800  -1.248   0.064  1.00  0.00     0.208 C 
BRANCH  25  26
HETATM   26  C4  UNL     1       6.106  -0.720   0.631  1.00  0.00     0.220 C 
HETATM   27  F1  UNL     1       7.132  -1.605   0.366  1.00  0.00    -0.245 F 
BRANCH  26  28
HETATM   28  C5  UNL     1       6.422   0.656   0.054  1.00  0.00     0.242 C 
BRANCH  28  29
HETATM   29  O2  UNL     1       7.631   1.157   0.571  1.00  0.00    -0.257 OA
BRANCH  29  30
HETATM   30  N1  UNL     1       8.152   2.361   0.229  1.00  0.00    -0.174 N 
ATOM     31  H1  UNL     1       8.003   3.155   0.852  1.00  0.00     0.223 HD
BRANCH  30  32
HETATM   32  O3  UNL     1       8.814   2.536  -0.830  1.00  0.00    -0.269 OA
ATOM     33  H3  UNL     1       9.179   3.380  -1.070  1.00  0.00     0.246 HD
ENDBRANCH  30  32
ENDBRANCH  29  30
ENDBRANCH  28  29
ENDBRANCH  26  28
ENDBRANCH  25  26
ENDBRANCH  24  25
ENDBRANCH   2  24
TORSDOF 7
