REMARK  4 active torsions:
REMARK  status: ('A' for Active; 'I' for Inactive)
REMARK       I    between atoms: C1_4  and  N3_6 
REMARK    1  A    between atoms: N4_9  and  C4_10 
REMARK    2  A    between atoms: C4_10  and  C5_11 
REMARK    3  A    between atoms: C8_14  and  N5_15 
REMARK       I    between atoms: N5_15  and  C9_17 
REMARK       I    between atoms: C9_17  and  N6_19 
REMARK    4  A    between atoms: N6_19  and  C10_21 
ROOT
HETATM    1  C5  UNL     1      -0.183  -1.299   2.091  1.00  0.00     0.034 C 
HETATM    2  C6  UNL     1       0.647  -1.347   3.358  1.00  0.00     0.010 C 
HETATM    3  C7  UNL     1       1.433  -2.447   2.675  1.00  0.00     0.026 C 
HETATM    4  C8  UNL     1       1.068  -1.762   1.375  1.00  0.00     0.091 C 
ENDROOT
BRANCH   1   5
HETATM    5  C4  UNL     1      -0.674   0.060   1.702  1.00  0.00     0.246 C 
BRANCH   5   6
HETATM    6  N4  UNL     1      -1.444   0.104   0.527  1.00  0.00    -0.039 N 
HETATM    7  C3  UNL     1      -1.481  -1.038  -0.307  1.00  0.00     0.268 C 
HETATM    8  C2  UNL     1      -2.811  -0.930  -1.072  1.00  0.00     0.277 C 
HETATM    9  N3  UNL     1      -3.292   0.342  -0.635  1.00  0.00     0.018 N 
HETATM   10  C1  UNL     1      -4.636   0.592  -0.818  1.00  0.00     0.288 C 
HETATM   11  C14 UNL     1      -2.395   1.356  -1.151  1.00  0.00     0.277 C 
HETATM   12  C15 UNL     1      -2.878   0.332   0.780  1.00  0.00     0.483 C 
HETATM   13  N1  UNL     1      -5.554   0.142  -0.044  1.00  0.00    -0.367 N 
HETATM   14  N2  UNL     1      -5.062   1.397  -1.923  1.00  0.00    -0.057 NA
ATOM     15  H12 UNL     1      -6.548   0.327  -0.179  1.00  0.00     0.158 HD
ATOM     16  H11 UNL     1      -5.251  -0.431   0.743  1.00  0.00     0.158 HD
HETATM   17  C13 UNL     1      -1.145   1.262  -0.298  1.00  0.00     0.268 C 
ENDBRANCH   5   6
ENDBRANCH   1   5
BRANCH   4  18
HETATM   18  N5  UNL     1       2.025  -0.711   1.090  1.00  0.00    -0.338 N 
HETATM   19  C9  UNL     1       2.620  -0.656  -0.193  1.00  0.00     0.317 C 
HETATM   20  O1  UNL     1       2.301  -1.519  -1.044  1.00  0.00    -0.247 OA
HETATM   21  N6  UNL     1       3.564   0.328  -0.571  1.00  0.00    -0.328 N 
ATOM     22  H6  UNL     1       3.825   1.031   0.120  1.00  0.00     0.165 HD
ATOM     23  H5  UNL     1       2.266  -0.022   1.803  1.00  0.00     0.164 HD
BRANCH  21  24
HETATM   24  C10 UNL     1       4.179   0.398  -1.871  1.00  0.00     0.196 C 
HETATM   25  C11 UNL     1       5.687   0.650  -1.835  1.00  0.00     0.157 C 
HETATM   26  N7  UNL     1       5.414   2.056  -1.737  1.00  0.00    -0.357 N 
HETATM   27  C12 UNL     1       4.150   1.795  -2.375  1.00  0.00     0.242 C 
ATOM     28  H7  UNL     1       5.900   2.877  -1.375  1.00  0.00     0.162 HD
HETATM   29  O2  UNL     1       3.414   2.535  -3.056  1.00  0.00    -0.271 OA
ENDBRANCH  21  24
ENDBRANCH   4  18
TORSDOF 4
