REMARK  13 active torsions:
REMARK  status: ('A' for Active; 'I' for Inactive)
REMARK    1  A    between atoms: N1_1  and  C1_5 
REMARK    2  A    between atoms: C1_5  and  N2_6 
REMARK    3  A    between atoms: N2_6  and  C2_8 
REMARK    4  A    between atoms: C2_8  and  C3_9 
REMARK    5  A    between atoms: C2_8  and  N3_19 
REMARK    6  A    between atoms: C3_9  and  C4_10 
REMARK    7  A    between atoms: C7_13  and  C8_14 
REMARK    8  A    between atoms: C8_14  and  O1_15 
REMARK    9  A    between atoms: C11_21  and  C12_22 
REMARK   10  A    between atoms: C12_22  and  N4_23 
REMARK   11  A    between atoms: N4_23  and  N5_24 
REMARK   12  A    between atoms: N4_23  and  C13_27 
REMARK   13  A    between atoms: C16_30  and  N6_31 
ROOT
HETATM    1  C2  UNL     1      -1.074  -1.544  -0.669  1.00  0.00     0.202 C 
ENDROOT
BRANCH   1   2
HETATM    2  N2  UNL     1      -1.236  -2.131   0.569  1.00  0.00    -0.377 N 
ATOM      3  H2  UNL     1      -2.106  -1.928   1.060  1.00  0.00     0.157 HD
BRANCH   2   4
HETATM    4  C1  UNL     1      -0.345  -2.962   1.210  1.00  0.00     0.349 C 
BRANCH   4   5
HETATM    5  N1  UNL     1      -1.100  -4.224   1.620  1.00  0.00    -0.064 N 
ATOM      6  H13 UNL     1      -1.930  -4.026   2.179  1.00  0.00     0.276 HD
ATOM      7  H12 UNL     1      -1.571  -4.676   0.836  1.00  0.00     0.276 HD
ATOM      8  H11 UNL     1      -0.440  -4.840   2.095  1.00  0.00     0.276 HD
ENDBRANCH   4   5
ENDBRANCH   2   4
ENDBRANCH   1   2
BRANCH   1   9
HETATM    9  C3  UNL     1      -1.681  -0.280  -0.992  1.00  0.00     0.030 C 
BRANCH   9  10
HETATM   10  C4  UNL     1      -3.047   0.151  -0.887  1.00  0.00    -0.036 A 
HETATM   11  C5  UNL     1      -3.497   0.676   0.363  1.00  0.00     0.012 A 
HETATM   12  C6  UNL     1      -4.696   1.277   0.503  1.00  0.00     0.010 A 
HETATM   13  C7  UNL     1      -5.569   1.423  -0.534  1.00  0.00    -0.035 A 
HETATM   14  C9  UNL     1      -5.162   0.928  -1.750  1.00  0.00     0.010 A 
HETATM   15  C10 UNL     1      -3.960   0.320  -1.921  1.00  0.00     0.012 A 
BRANCH  13  16
HETATM   16  C8  UNL     1      -6.865   2.165  -0.436  1.00  0.00     0.202 C 
BRANCH  16  17
HETATM   17  O1  UNL     1      -6.816   2.943   0.764  1.00  0.00    -0.396 OA
ATOM     18  H1  UNL     1      -7.639   3.414   0.826  1.00  0.00     0.209 HD
ENDBRANCH  16  17
ENDBRANCH  13  16
ENDBRANCH   9  10
ENDBRANCH   1   9
BRANCH   1  19
HETATM   19  N3  UNL     1       0.409  -1.322  -0.991  1.00  0.00    -0.374 N 
HETATM   20  C11 UNL     1       0.933  -0.286  -0.538  1.00  0.00     0.104 C 
ATOM     21  H3  UNL     1       0.941  -1.990  -1.549  1.00  0.00     0.161 HD
BRANCH  20  22
HETATM   22  C12 UNL     1       2.328   0.232  -0.662  1.00  0.00     0.127 C 
BRANCH  22  23
HETATM   23  N4  UNL     1       3.343  -0.424   0.056  1.00  0.00    -0.302 N 
BRANCH  23  24
HETATM   24  N5  UNL     1       3.025  -1.479   0.856  1.00  0.00    -0.343 N 
ATOM     25  H52 UNL     1       2.222  -2.021   0.537  1.00  0.00     0.177 HD
ATOM     26  H51 UNL     1       3.761  -1.955   1.377  1.00  0.00     0.177 HD
ENDBRANCH  23  24
BRANCH  23  27
HETATM   27  C13 UNL     1       4.446   0.320   0.494  1.00  0.00     0.137 C 
HETATM   28  C14 UNL     1       5.760  -0.418   0.434  1.00  0.00     0.031 C 
HETATM   29  C15 UNL     1       6.410   0.964   0.242  1.00  0.00     0.037 C 
HETATM   30  C16 UNL     1       5.057   1.387  -0.352  1.00  0.00     0.208 C 
BRANCH  30  31
HETATM   31  N6  UNL     1       4.715   2.752   0.079  1.00  0.00    -0.073 N 
ATOM     32  H63 UNL     1       3.703   2.870   0.132  1.00  0.00     0.274 HD
ATOM     33  H62 UNL     1       4.954   2.890   1.061  1.00  0.00     0.274 HD
ATOM     34  H61 UNL     1       5.133   3.481  -0.499  1.00  0.00     0.274 HD
ENDBRANCH  30  31
ENDBRANCH  23  27
ENDBRANCH  22  23
ENDBRANCH  20  22
ENDBRANCH   1  19
TORSDOF 13
