REMARK  7 active torsions:
REMARK  status: ('A' for Active; 'I' for Inactive)
REMARK    1  A    between atoms: C2_2  and  C3_3 
REMARK    2  A    between atoms: C2_2  and  C12_18 
REMARK    3  A    between atoms: C3_3  and  N2_8 
REMARK    4  A    between atoms: N1_4  and  O1_6 
REMARK    5  A    between atoms: N2_8  and  C4_10 
REMARK    6  A    between atoms: C4_10  and  C5_11 
REMARK    7  A    between atoms: C5_11  and  C6_12 
ROOT
HETATM    1  C12 UNL     1      -4.818  -0.424   0.801  1.00  0.00     0.210 C 
HETATM    2  C13 UNL     1      -5.461  -1.716   1.007  1.00  0.00     0.079 C 
HETATM    3  N3  UNL     1      -5.990  -2.732   1.165  1.00  0.00    -0.196 NA
HETATM    4  C14 UNL     1      -5.567   0.405  -0.147  1.00  0.00     0.079 C 
HETATM    5  N4  UNL     1      -6.149   1.070  -0.901  1.00  0.00    -0.196 NA
ENDROOT
BRANCH   1   6
HETATM    6  C2  UNL     1      -3.368  -0.617   0.385  1.00  0.00     0.082 C 
HETATM    7  C1  UNL     1      -3.286  -1.405  -0.906  1.00  0.00     0.020 C 
BRANCH   6   8
HETATM    8  C3  UNL     1      -2.692   0.678   0.294  1.00  0.00     0.103 C 
HETATM    9  N1  UNL     1      -3.414   1.755   0.521  1.00  0.00    -0.257 N 
ATOM     10  H1  UNL     1      -4.405   1.673   0.750  1.00  0.00     0.195 HD
BRANCH   9  11
HETATM   11  O1  UNL     1      -2.811   3.007   0.445  1.00  0.00    -0.288 OA
ATOM     12  H1  UNL     1      -3.332   3.784   0.609  1.00  0.00     0.244 HD
ENDBRANCH   9  11
BRANCH   8  13
HETATM   13  N2  UNL     1      -1.348   0.899  -0.005  1.00  0.00    -0.378 N 
ATOM     14  H2  UNL     1      -1.141   1.732  -0.556  1.00  0.00     0.160 HD
BRANCH  13  15
HETATM   15  C4  UNL     1      -0.208   0.082   0.377  1.00  0.00     0.121 C 
BRANCH  15  16
HETATM   16  C5  UNL     1       1.019   0.843  -0.015  1.00  0.00     0.024 C 
BRANCH  16  17
HETATM   17  C6  UNL     1       2.337   0.242   0.272  1.00  0.00    -0.013 C 
HETATM   18  C7  UNL     1       2.568  -1.061  -0.419  1.00  0.00     0.005 C 
HETATM   19  C8  UNL     1       3.988  -1.548  -0.358  1.00  0.00     0.000 C 
HETATM   20  C9  UNL     1       5.008  -0.472  -0.208  1.00  0.00     0.000 C 
HETATM   21  C10 UNL     1       4.467   0.764  -0.942  1.00  0.00     0.000 C 
HETATM   22  C11 UNL     1       3.381   1.298  -0.059  1.00  0.00     0.005 C 
ENDBRANCH  16  17
ENDBRANCH  15  16
ENDBRANCH  13  15
ENDBRANCH   8  13
ENDBRANCH   6   8
ENDBRANCH   1   6
TORSDOF 7
