REMARK  1 active torsions:
REMARK  status: ('A' for Active; 'I' for Inactive)
REMARK    1  A    between atoms: N3_10  and  C5_11 
ROOT
HETATM    1  C1  UNL     1       1.356   1.732   0.105  1.00  0.00     0.047 C 
HETATM    2  C2  UNL     1       1.069   0.446   0.075  1.00  0.00     0.070 A 
HETATM    3  C3  UNL     1       2.032  -0.653   0.069  1.00  0.00     0.126 A 
HETATM    4  N1  UNL     1       3.330  -0.514   0.082  1.00  0.00    -0.384 N 
ATOM      5  H11 UNL     1       4.002  -1.281   0.078  1.00  0.00     0.157 HD
ATOM      6  H12 UNL     1       3.894   0.336   0.099  1.00  0.00     0.157 HD
HETATM    7  N2  UNL     1       1.252  -1.828   0.045  1.00  0.00    -0.337 N 
ATOM      8  H2  UNL     1       1.603  -2.786   0.035  1.00  0.00     0.168 HD
HETATM    9  C4  UNL     1      -0.115  -1.432   0.037  1.00  0.00     0.185 A 
HETATM   10  N3  UNL     1      -0.245  -0.156   0.053  1.00  0.00    -0.341 N 
ENDROOT
BRANCH  10  11
HETATM   11  C5  UNL     1      -1.434   0.661   0.059  1.00  0.00     0.125 C 
HETATM   12  C6  UNL     1      -2.685  -0.121  -0.222  1.00  0.00     0.027 C 
ENDBRANCH  10  11
TORSDOF 1
