REMARK  2 active torsions:
REMARK  status: ('A' for Active; 'I' for Inactive)
REMARK    1  A    between atoms: C4_7  and  C5_8 
REMARK    2  A    between atoms: C5_8  and  N3_9 
ROOT
HETATM    1  C1  UNL     1      -0.789   1.732   0.476  1.00  0.00     0.157 C 
HETATM    2  N1  UNL     1      -0.858   0.290   0.197  1.00  0.00    -0.348 N 
HETATM    3  C2  UNL     1      -1.885  -0.536   0.458  1.00  0.00     0.108 A 
HETATM    4  C3  UNL     1      -1.526  -1.796   0.036  1.00  0.00     0.106 A 
HETATM    5  N2  UNL     1      -0.287  -1.706  -0.472  1.00  0.00    -0.353 N 
ATOM      6  H2  UNL     1       0.253  -2.476  -0.866  1.00  0.00     0.166 HD
HETATM    7  C4  UNL     1       0.121  -0.433  -0.374  1.00  0.00     0.108 A 
ENDROOT
BRANCH   7   8
HETATM    8  C5  UNL     1       1.422   0.101  -0.813  1.00  0.00     0.305 C 
BRANCH   8   9
HETATM    9  N3  UNL     1       2.421   0.035   0.251  1.00  0.00    -0.073 N 
ATOM     10  H33 UNL     1       2.094   0.501   1.097  1.00  0.00     0.274 HD
ATOM     11  H32 UNL     1       2.513  -0.913   0.617  1.00  0.00     0.274 HD
ATOM     12  H31 UNL     1       3.322   0.405  -0.053  1.00  0.00     0.274 HD
ENDBRANCH   8   9
ENDBRANCH   7   8
TORSDOF 2
