REMARK  2 active torsions:
REMARK  status: ('A' for Active; 'I' for Inactive)
REMARK    1  A    between atoms: C4_5  and  C5_6 
REMARK    2  A    between atoms: C8_10  and  C9_12 
ROOT
HETATM    1  C1  UNL     1      -1.268  -0.993  -1.317  1.00  0.00     0.030 C 
HETATM    2  C2  UNL     1      -0.991  -0.635   0.107  1.00  0.00     0.046 C 
HETATM    3  C3  UNL     1      -2.029  -1.298   1.004  1.00  0.00     0.030 C 
HETATM    4  S1  UNL     1       0.541  -1.557   0.558  1.00  0.00    -0.150 SA
HETATM    5  C4  UNL     1       1.829  -0.606  -0.222  1.00  0.00     0.062 C 
HETATM    6  C6  UNL     1       1.702   0.871  -0.092  1.00  0.00     0.020 C 
HETATM    7  C7  UNL     1       0.404   1.496  -0.001  1.00  0.00     0.056 C 
HETATM    8  C8  UNL     1      -0.825   0.811   0.394  1.00  0.00     0.216 C 
HETATM    9  F1  UNL     1      -0.960   0.886   1.799  1.00  0.00    -0.232 F 
ENDROOT
BRANCH   8  10
HETATM   10  C9  UNL     1      -2.019   1.604  -0.105  1.00  0.00     0.424 C 
HETATM   11  F2  UNL     1      -2.172   1.460  -1.450  1.00  0.00    -0.167 F 
HETATM   12  F3  UNL     1      -1.663   2.949   0.098  1.00  0.00    -0.167 F 
HETATM   13  F4  UNL     1      -3.155   1.408   0.614  1.00  0.00    -0.167 F 
ENDBRANCH   8  10
BRANCH   5  14
HETATM   14  C5  UNL     1       3.160  -1.101   0.370  1.00  0.00     0.130 C 
HETATM   15 CL1  UNL     1       4.521  -0.212  -0.345  1.00  0.00    -0.129 Cl
ENDBRANCH   5  14
TORSDOF 2
