REMARK  5 active torsions:
REMARK  status: ('A' for Active; 'I' for Inactive)
REMARK    1  A    between atoms: N1_2  and  C2_4 
REMARK    2  A    between atoms: C2_4  and  O1_5 
REMARK    3  A    between atoms: C2_4  and  C3_7 
REMARK    4  A    between atoms: C3_7  and  N2_8 
REMARK    5  A    between atoms: C3_7  and  C13_23 
REMARK       I    between atoms: N2_8  and  C4_10 
REMARK       I    between atoms: C4_10  and  N5_15 
ROOT
HETATM    1  N2  UNL     1       0.847  -1.268  -0.915  1.00  0.00    -0.207 N 
ATOM      2  H2  UNL     1       0.598  -1.201  -1.902  1.00  0.00     0.179 HD
HETATM    3  C4  UNL     1      -0.207  -1.245   0.078  1.00  0.00     0.686 C 
HETATM    4  N3  UNL     1      -0.340  -2.220   0.830  1.00  0.00    -0.126 N 
ATOM      5  H3  UNL     1       0.333  -2.968   0.666  1.00  0.00     0.197 HD
HETATM    6  C5  UNL     1      -1.226  -2.475   1.840  1.00  0.00     0.196 C 
HETATM    7  N4  UNL     1      -1.956  -2.713   2.695  1.00  0.00    -0.171 NA
HETATM    8  N5  UNL     1      -1.034  -0.099   0.133  1.00  0.00    -0.208 N 
HETATM    9  C6  UNL     1      -1.541   0.638  -1.045  1.00  0.00     0.102 C 
HETATM   10  C7  UNL     1      -3.029   0.584  -1.169  1.00  0.00     0.026 C 
HETATM   11  C8  UNL     1      -3.686  -0.028   0.053  1.00  0.00     0.004 C 
HETATM   12  C9  UNL     1      -3.079   0.551   1.299  1.00  0.00     0.026 C 
HETATM   13  C10 UNL     1      -1.572   0.663   1.236  1.00  0.00     0.102 C 
HETATM   14  C11 UNL     1      -1.257   2.107   0.790  1.00  0.00     0.028 C 
HETATM   15  C12 UNL     1      -1.120   2.043  -0.704  1.00  0.00     0.028 C 
ENDROOT
BRANCH   1  16
HETATM   16  C3  UNL     1       2.224  -1.382  -0.555  1.00  0.00     0.248 C 
BRANCH  16  17
HETATM   17  C2  UNL     1       2.658  -0.353   0.467  1.00  0.00     0.247 C 
BRANCH  17  18
HETATM   18  N1  UNL     1       2.555   0.985  -0.025  1.00  0.00    -0.399 N 
HETATM   19  C1  UNL     1       3.386   1.286  -1.145  1.00  0.00     0.142 C 
ATOM     20  H1  UNL     1       1.932   1.675   0.395  1.00  0.00     0.155 HD
ENDBRANCH  17  18
BRANCH  17  21
HETATM   21  O1  UNL     1       1.943  -0.443   1.660  1.00  0.00    -0.374 OA
ATOM     22  H1  UNL     1       2.011  -1.332   1.987  1.00  0.00     0.212 HD
ENDBRANCH  17  21
ENDBRANCH  16  17
BRANCH  16  23
HETATM   23  C13 UNL     1       2.671  -2.744  -0.303  1.00  0.00     0.201 C 
HETATM   24  O2  UNL     1       1.865  -3.700  -0.447  1.00  0.00    -0.646 OA
HETATM   25  O3  UNL     1       3.943  -3.111   0.095  1.00  0.00    -0.646 OA
ENDBRANCH  16  23
ENDBRANCH   1  16
TORSDOF 5
