REMARK  6 active torsions:
REMARK  status: ('A' for Active; 'I' for Inactive)
REMARK    1  A    between atoms: C2_2  and  C17_29 
REMARK    2  A    between atoms: N1_3  and  N2_5 
REMARK       I    between atoms: N2_5  and  C3_7 
REMARK    3  A    between atoms: C3_7  and  C4_9 
REMARK    4  A    between atoms: C9_16  and  O2_17 
REMARK    5  A    between atoms: N4_19  and  C10_20 
REMARK    6  A    between atoms: C16_26  and  O3_27 
ROOT
HETATM    1  C4  UNL     1       0.409   0.737  -1.222  1.00  0.00     0.120 C 
HETATM    2  C5  UNL     1       0.545   0.794  -2.724  1.00  0.00     0.039 C 
HETATM    3  C6  UNL     1       0.027  -0.421  -3.410  1.00  0.00     0.121 C 
HETATM    4  N3  UNL     1      -1.046  -1.101  -2.730  1.00  0.00    -0.386 N 
ATOM      5  H3  UNL     1      -1.369  -2.004  -3.077  1.00  0.00     0.159 HD
HETATM    6  C7  UNL     1      -1.652  -0.538  -1.599  1.00  0.00     0.091 A 
HETATM    7  C8  UNL     1      -0.964   0.369  -0.832  1.00  0.00     0.037 A 
HETATM    8  C9  UNL     1      -1.829   0.724   0.194  1.00  0.00     0.154 A 
HETATM    9  N4  UNL     1      -2.987   0.062   0.054  1.00  0.00    -0.301 N 
HETATM   10  C16 UNL     1      -2.929  -0.727  -1.033  1.00  0.00     0.172 A 
ENDROOT
BRANCH   1  11
HETATM   11  C3  UNL     1       1.438  -0.145  -0.668  1.00  0.00     0.244 C 
HETATM   12  N2  UNL     1       2.805   0.096  -0.967  1.00  0.00    -0.270 N 
ATOM     13  H2  UNL     1       3.049   0.884  -1.567  1.00  0.00     0.190 HD
HETATM   14  O1  UNL     1       1.162  -1.119   0.070  1.00  0.00    -0.271 OA
BRANCH  12  15
HETATM   15  N1  UNL     1       3.825  -0.715  -0.464  1.00  0.00    -0.306 N 
HETATM   16  C2  UNL     1       4.962  -0.273  -0.082  1.00  0.00     0.004 C 
HETATM   17  C1  UNL     1       5.182   1.202  -0.192  1.00  0.00     0.065 C 
ATOM     18  H1  UNL     1       3.653  -1.718  -0.398  1.00  0.00     0.186 HD
BRANCH  16  19
HETATM   19  C17 UNL     1       5.972  -1.202   0.433  1.00  0.00     0.032 C 
HETATM   20  C18 UNL     1       6.338  -0.843   1.870  1.00  0.00     0.010 C 
HETATM   21  C19 UNL     1       7.782  -0.756   1.417  1.00  0.00     0.001 C 
HETATM   22  C20 UNL     1       7.392  -0.938  -0.013  1.00  0.00     0.010 C 
ENDBRANCH  16  19
ENDBRANCH  12  15
ENDBRANCH   1  11
BRANCH   8  23
HETATM   23  O2  UNL     1      -1.472   1.636   1.179  1.00  0.00    -0.345 OA
ATOM     24  H2  UNL     1      -2.064   1.879   1.881  1.00  0.00     0.219 HD
ENDBRANCH   8  23
BRANCH  10  25
HETATM   25  O3  UNL     1      -3.894  -1.570  -1.536  1.00  0.00    -0.344 OA
ATOM     26  H3  UNL     1      -4.755  -1.697  -1.155  1.00  0.00     0.219 HD
ENDBRANCH  10  25
BRANCH   9  27
HETATM   27  C10 UNL     1      -4.112   0.175   0.927  1.00  0.00     0.094 C 
HETATM   28  C11 UNL     1      -4.817   1.533   0.795  1.00  0.00     0.026 C 
HETATM   29  C12 UNL     1      -5.733   1.610   2.024  1.00  0.00     0.002 C 
HETATM   30  C13 UNL     1      -6.777   0.519   1.826  1.00  0.00     0.000 C 
HETATM   31  C14 UNL     1      -6.064  -0.820   1.980  1.00  0.00     0.002 C 
HETATM   32  C15 UNL     1      -5.122  -0.921   0.778  1.00  0.00     0.026 C 
ENDBRANCH   9  27
TORSDOF 6
