REMARK  7 active torsions:
REMARK  status: ('A' for Active; 'I' for Inactive)
REMARK    1  A    between atoms: O1_2  and  C2_3 
REMARK    2  A    between atoms: C2_3  and  C3_5 
REMARK    3  A    between atoms: C4_10  and  C5_11 
REMARK    4  A    between atoms: C5_11  and  O3_12 
REMARK    5  A    between atoms: C5_11  and  C6_14 
REMARK    6  A    between atoms: C6_14  and  N3_15 
REMARK    7  A    between atoms: C6_14  and  C7_19 
ROOT
HETATM    1  C6  UNL     1       1.491  -0.213   0.249  1.00  0.00     0.223 C 
ENDROOT
BRANCH   1   2
HETATM    2  C5  UNL     1       2.322   0.285  -0.886  1.00  0.00     0.217 C 
BRANCH   2   3
HETATM    3  C4  UNL     1       3.771   0.126  -0.621  1.00  0.00     0.129 A 
HETATM    4  N2  UNL     1       4.465  -0.992  -0.891  1.00  0.00    -0.285 N 
HETATM    5  N1  UNL     1       5.737  -0.831  -0.543  1.00  0.00    -0.279 N 
ATOM      6  H2  UNL     1       4.073  -1.839  -1.302  1.00  0.00     0.188 HD
HETATM    7  C3  UNL     1       5.871   0.411  -0.040  1.00  0.00     0.198 A 
ATOM      8  H1  UNL     1       6.479  -1.524  -0.640  1.00  0.00     0.189 HD
HETATM    9  N4  UNL     1       4.666   0.977  -0.096  1.00  0.00    -0.323 N 
ATOM     10  H4  UNL     1       4.454   1.924   0.216  1.00  0.00     0.169 HD
BRANCH   7  11
HETATM   11  C2  UNL     1       7.133   0.950   0.449  1.00  0.00     0.328 C 
HETATM   12  O2  UNL     1       7.175   2.118   0.903  1.00  0.00    -0.256 OA
BRANCH  11  13
HETATM   13  O1  UNL     1       8.304   0.215   0.432  1.00  0.00    -0.320 OA
HETATM   14  C1  UNL     1       9.542   0.705   0.897  1.00  0.00     0.213 C 
ENDBRANCH  11  13
ENDBRANCH   7  11
ENDBRANCH   2   3
BRANCH   2  15
HETATM   15  O3  UNL     1       1.956  -0.184  -2.131  1.00  0.00    -0.386 OA
ATOM     16  H3  UNL     1       1.027  -0.082  -2.301  1.00  0.00     0.210 HD
ENDBRANCH   2  15
ENDBRANCH   1   2
BRANCH   1  17
HETATM   17  N3  UNL     1       1.571  -1.663   0.276  1.00  0.00    -0.072 N 
ATOM     18  H33 UNL     1       1.311  -2.086  -0.615  1.00  0.00     0.274 HD
ATOM     19  H32 UNL     1       2.532  -2.002   0.316  1.00  0.00     0.274 HD
ATOM     20  H31 UNL     1       1.003  -2.003   1.052  1.00  0.00     0.274 HD
ENDBRANCH   1  17
BRANCH   1  21
HETATM   21  C7  UNL     1       0.064   0.255   0.256  1.00  0.00     0.019 C 
HETATM   22  C8  UNL     1      -0.759  -0.119  -0.911  1.00  0.00     0.007 C 
HETATM   23  C9  UNL     1      -0.984  -1.580  -1.133  1.00  0.00     0.000 C 
HETATM   24  C10 UNL     1      -2.368  -1.712  -1.780  1.00  0.00     0.000 C 
HETATM   25  C11 UNL     1      -3.427  -2.025  -0.774  1.00  0.00     0.000 C 
HETATM   26  C12 UNL     1      -4.721  -1.373  -1.209  1.00  0.00     0.000 C 
HETATM   27  C13 UNL     1      -5.361  -0.556  -0.128  1.00  0.00     0.000 C 
HETATM   28  C14 UNL     1      -5.046   0.925  -0.264  1.00  0.00     0.000 C 
HETATM   29  C15 UNL     1      -4.907   1.589   1.090  1.00  0.00     0.000 C 
HETATM   30  C16 UNL     1      -3.513   2.075   1.359  1.00  0.00     0.000 C 
HETATM   31  C17 UNL     1      -2.781   1.069   2.226  1.00  0.00     0.000 C 
HETATM   32  C18 UNL     1      -1.293   1.228   2.146  1.00  0.00     0.000 C 
HETATM   33  C19 UNL     1      -0.603   0.001   1.590  1.00  0.00     0.007 C 
ENDBRANCH   1  21
TORSDOF 7
