REMARK  4 active torsions:
REMARK  status: ('A' for Active; 'I' for Inactive)
REMARK    1  A    between atoms: O1_1  and  C1_3 
REMARK    2  A    between atoms: C1_3  and  C2_4 
REMARK    3  A    between atoms: C3_6  and  N1_7 
REMARK    4  A    between atoms: C10_17  and  O4_18 
ROOT
HETATM    1  C2  UNL     1      -1.333  -1.006   0.216  1.00  0.00     0.185 C 
HETATM    2  O2  UNL     1       0.007  -1.346   0.033  1.00  0.00    -0.352 OA
HETATM    3  C3  UNL     1       0.640  -0.165   0.442  1.00  0.00     0.275 C 
HETATM    4  C7  UNL     1      -0.063   0.846  -0.462  1.00  0.00     0.208 C 
HETATM    5  O3  UNL     1       0.029   2.126   0.006  1.00  0.00    -0.378 OA
HETATM    6  C8  UNL     1      -0.979   2.379   0.885  1.00  0.00     0.171 C 
HETATM    7  C9  UNL     1      -1.965   1.258   0.849  1.00  0.00     0.069 C 
HETATM    8  C10 UNL     1      -1.505   0.399  -0.288  1.00  0.00     0.118 C 
ENDROOT
BRANCH   3   9
HETATM    9  N1  UNL     1       2.054  -0.198   0.216  1.00  0.00    -0.272 N 
HETATM   10  C4  UNL     1       2.720  -0.077  -0.928  1.00  0.00     0.114 A 
HETATM   11  C5  UNL     1       4.081  -0.168  -0.692  1.00  0.00     0.037 A 
HETATM   12  C6  UNL     1       4.201  -0.351   0.663  1.00  0.00     0.108 A 
HETATM   13  N2  UNL     1       2.956  -0.363   1.180  1.00  0.00    -0.308 N 
ATOM     14  H2  UNL     1       2.737  -0.482   2.169  1.00  0.00     0.186 HD
ENDBRANCH   3   9
BRANCH   1  15
HETATM   15  C1  UNL     1      -2.257  -1.919  -0.550  1.00  0.00     0.199 C 
BRANCH  15  16
HETATM   16  O1  UNL     1      -2.119  -3.240  -0.157  1.00  0.00    -0.398 OA
ATOM     17  H1  UNL     1      -2.701  -3.815  -0.640  1.00  0.00     0.209 HD
ENDBRANCH  15  16
ENDBRANCH   1  15
BRANCH   8  18
HETATM   18  O4  UNL     1      -2.248   0.506  -1.428  1.00  0.00    -0.384 OA
ATOM     19  H4  UNL     1      -2.357   1.394  -1.747  1.00  0.00     0.210 HD
ENDBRANCH   8  18
TORSDOF 4
