REMARK  14 active torsions:
REMARK  status: ('A' for Active; 'I' for Inactive)
REMARK    1  A    between atoms: C2_2  and  C3_3 
REMARK    2  A    between atoms: C3_3  and  C4_4 
REMARK    3  A    between atoms: C4_4  and  C5_5 
REMARK    4  A    between atoms: C5_5  and  N1_6 
REMARK    5  A    between atoms: N1_6  and  C6_8 
REMARK    6  A    between atoms: N4_16  and  C10_17 
REMARK    7  A    between atoms: C10_17  and  C11_18 
REMARK    8  A    between atoms: C11_18  and  C12_19 
REMARK    9  A    between atoms: C12_19  and  N5_20 
REMARK   10  A    between atoms: N5_20  and  C13_23 
REMARK   11  A    between atoms: C13_23  and  C14_24 
REMARK   12  A    between atoms: C14_24  and  N6_25 
REMARK   13  A    between atoms: N6_25  and  C15_28 
REMARK   14  A    between atoms: C17_30  and  N7_31 
ROOT
HETATM    1  C6  UNL     1      -2.113  -0.279  -0.045  1.00  0.00     0.681 A 
HETATM    2  N2  UNL     1      -1.046  -0.212  -0.857  1.00  0.00    -0.174 N 
ATOM      3  H2  UNL     1      -0.567  -1.068  -1.135  1.00  0.00     0.186 HD
HETATM    4  C7  UNL     1      -0.600   0.987  -1.310  1.00  0.00     0.155 A 
HETATM    5  C8  UNL     1      -1.271   2.153  -0.919  1.00  0.00     0.123 A 
HETATM    6  N3  UNL     1      -0.616   3.152  -1.530  1.00  0.00    -0.346 N 
ATOM      7  H3  UNL     1      -0.857   4.140  -1.450  1.00  0.00     0.167 HD
HETATM    8  C9  UNL     1       0.398   2.671  -2.259  1.00  0.00     0.185 A 
HETATM    9  N4  UNL     1       0.416   1.333  -2.127  1.00  0.00    -0.327 N 
HETATM   10  C17 UNL     1      -2.363   2.091  -0.089  1.00  0.00     0.150 A 
HETATM   11  N8  UNL     1      -2.742   0.881   0.316  1.00  0.00    -0.174 N 
ATOM     12  H8  UNL     1      -3.551   0.815   0.933  1.00  0.00     0.186 HD
ENDROOT
BRANCH   9  13
HETATM   13  C10 UNL     1       1.416   0.490  -2.740  1.00  0.00     0.133 C 
BRANCH  13  14
HETATM   14  C11 UNL     1       2.661   0.485  -1.877  1.00  0.00     0.048 C 
BRANCH  14  15
HETATM   15  C12 UNL     1       2.404  -0.009  -0.497  1.00  0.00     0.234 C 
BRANCH  15  16
HETATM   16  N5  UNL     1       3.596   0.004   0.289  1.00  0.00    -0.073 N 
ATOM     17  H52 UNL     1       4.009   0.936   0.319  1.00  0.00     0.277 HD
ATOM     18  H51 UNL     1       3.387  -0.111   1.281  1.00  0.00     0.277 HD
BRANCH  16  19
HETATM   19  C13 UNL     1       4.550  -0.977  -0.162  1.00  0.00     0.259 C 
BRANCH  19  20
HETATM   20  C14 UNL     1       5.810  -0.915   0.697  1.00  0.00     0.259 C 
BRANCH  20  21
HETATM   21  N6  UNL     1       6.738  -1.904   0.242  1.00  0.00    -0.074 N 
ATOM     22  H62 UNL     1       6.332  -2.840   0.229  1.00  0.00     0.277 HD
ATOM     23  H61 UNL     1       6.936  -1.820  -0.755  1.00  0.00     0.277 HD
BRANCH  21  24
HETATM   24  C15 UNL     1       7.954  -1.836   1.059  1.00  0.00     0.228 C 
HETATM   25  C16 UNL     1       8.727  -0.587   0.825  1.00  0.00     0.034 C 
ENDBRANCH  21  24
ENDBRANCH  20  21
ENDBRANCH  19  20
ENDBRANCH  16  19
ENDBRANCH  15  16
ENDBRANCH  14  15
ENDBRANCH  13  14
ENDBRANCH   9  13
BRANCH   1  26
HETATM   26  N1  UNL     1      -2.611  -1.334   0.422  1.00  0.00    -0.223 N 
ATOM     27  H1  UNL     1      -3.422  -1.171   1.018  1.00  0.00     0.178 HD
BRANCH  26  28
HETATM   28  C5  UNL     1      -2.274  -2.703   0.288  1.00  0.00     0.165 C 
BRANCH  28  29
HETATM   29  C4  UNL     1      -3.363  -3.359  -0.471  1.00  0.00    -0.011 C 
BRANCH  29  30
HETATM   30  C3  UNL     1      -4.091  -4.308  -0.009  1.00  0.00    -0.029 C 
BRANCH  30  31
HETATM   31  C2  UNL     1      -3.993  -4.910   1.319  1.00  0.00     0.022 C 
HETATM   32  C1  UNL     1      -3.689  -6.403   1.096  1.00  0.00     0.009 C 
ENDBRANCH  30  31
ENDBRANCH  29  30
ENDBRANCH  28  29
ENDBRANCH  26  28
ENDBRANCH   1  26
BRANCH  10  33
HETATM   33  N7  UNL     1      -3.015   3.280   0.323  1.00  0.00    -0.365 N 
HETATM   34  C18 UNL     1      -3.798   4.003  -0.638  1.00  0.00     0.124 C 
HETATM   35  C19 UNL     1      -5.092   4.433   0.005  1.00  0.00     0.020 C 
HETATM   36  C20 UNL     1      -5.382   3.639   1.263  1.00  0.00     0.003 C 
HETATM   37  C21 UNL     1      -4.299   3.736   2.292  1.00  0.00     0.020 C 
HETATM   38  C22 UNL     1      -2.932   3.786   1.681  1.00  0.00     0.124 C 
ENDBRANCH  10  33
TORSDOF 14
