REMARK  12 active torsions:
REMARK  status: ('A' for Active; 'I' for Inactive)
REMARK    1  A    between atoms: C4_8  and  C5_9 
REMARK    2  A    between atoms: C5_9  and  O1_10 
REMARK    3  A    between atoms: C5_9  and  N2_12 
REMARK    4  A    between atoms: N2_12  and  C6_14 
REMARK    5  A    between atoms: C9_17  and  C10_18 
REMARK    6  A    between atoms: C13_27  and  C14_28 
REMARK    7  A    between atoms: C14_28  and  N7_29 
REMARK    8  A    between atoms: C14_28  and  C15_33 
REMARK    9  A    between atoms: C15_33  and  C16_35 
REMARK       I    between atoms: C16_35  and  N8_37 
REMARK   10  A    between atoms: C18_39  and  C19_40 
REMARK   11  A    between atoms: C19_40  and  N9_41 
REMARK   12  A    between atoms: C19_40  and  N10_45 
ROOT
HETATM    1  N1  UNL     1      -2.835   0.005   4.427  1.00  0.00    -0.385 N 
ATOM      2  H11 UNL     1      -3.678   0.459   4.074  1.00  0.00     0.157 HD
ATOM      3  H12 UNL     1      -2.841  -0.449   5.340  1.00  0.00     0.157 HD
HETATM    4  C1  UNL     1      -1.714  -0.026   3.750  1.00  0.00     0.100 A 
HETATM    5  C2  UNL     1      -0.581  -0.636   4.225  1.00  0.00     0.068 A 
HETATM    6  C3  UNL     1       0.551  -0.624   3.459  1.00  0.00     0.032 A 
HETATM    7  S1  UNL     1       2.076  -1.395   3.998  1.00  0.00    -0.051 SA
HETATM    8  C4  UNL     1       0.581   0.005   2.183  1.00  0.00     0.058 A 
HETATM    9  C13 UNL     1      -0.569   0.580   1.782  1.00  0.00     0.065 A 
HETATM   10  N13 UNL     1      -1.706   0.570   2.552  1.00  0.00    -0.343 N 
ATOM     11  H13 UNL     1      -2.553   1.022   2.207  1.00  0.00     0.167 HD
ENDROOT
BRANCH   9  12
HETATM   12  C14 UNL     1      -0.726   1.218   0.453  1.00  0.00     0.313 C 
BRANCH  12  13
HETATM   13  N7  UNL     1      -0.802   2.630   0.646  1.00  0.00    -0.062 N 
ATOM     14  H73 UNL     1      -1.536   2.899   1.302  1.00  0.00     0.275 HD
ATOM     15  H72 UNL     1      -0.008   3.000   1.169  1.00  0.00     0.275 HD
ATOM     16  H71 UNL     1      -0.910   3.069  -0.268  1.00  0.00     0.275 HD
ENDBRANCH  12  13
BRANCH  12  17
HETATM   17  C15 UNL     1      -2.071   0.699  -0.049  1.00  0.00     0.255 C 
HETATM   18  O2  UNL     1      -2.089  -0.557  -0.181  1.00  0.00    -0.284 OA
BRANCH  17  19
HETATM   19  C16 UNL     1      -3.186   1.570  -0.336  1.00  0.00     0.315 C 
HETATM   20  O3  UNL     1      -3.042   2.811  -0.166  1.00  0.00    -0.262 OA
HETATM   21  N8  UNL     1      -4.440   1.112  -0.801  1.00  0.00    -0.212 N 
HETATM   22  C17 UNL     1      -4.853  -0.138  -1.062  1.00  0.00     0.152 A 
HETATM   23  N12 UNL     1      -5.468   1.906  -1.066  1.00  0.00    -0.233 N 
HETATM   24  C18 UNL     1      -6.171  -0.102  -1.499  1.00  0.00     0.102 A 
HETATM   25  N11 UNL     1      -6.494   1.201  -1.478  1.00  0.00    -0.285 N 
ATOM     26  H11 UNL     1      -7.401   1.585  -1.743  1.00  0.00     0.188 HD
ATOM     27  H12 UNL     1      -5.462   2.921  -0.964  1.00  0.00     0.209 HD
BRANCH  24  28
HETATM   28  C19 UNL     1      -7.068  -1.188  -1.905  1.00  0.00     0.430 C 
BRANCH  28  29
HETATM   29  N9  UNL     1      -6.407  -2.138  -2.782  1.00  0.00    -0.045 N 
ATOM     30  H93 UNL     1      -5.999  -1.672  -3.592  1.00  0.00     0.277 HD
ATOM     31  H92 UNL     1      -5.553  -2.501  -2.358  1.00  0.00     0.277 HD
ATOM     32  H91 UNL     1      -7.031  -2.894  -3.065  1.00  0.00     0.277 HD
ENDBRANCH  28  29
BRANCH  28  33
HETATM   33  N10 UNL     1      -7.564  -1.950  -0.762  1.00  0.00    -0.045 N 
ATOM     34 3H10 UNL     1      -6.795  -2.300  -0.191  1.00  0.00     0.277 HD
ATOM     35 2H10 UNL     1      -8.010  -1.340  -0.077  1.00  0.00     0.277 HD
ATOM     36 1H10 UNL     1      -8.188  -2.706  -1.045  1.00  0.00     0.277 HD
ENDBRANCH  28  33
ENDBRANCH  24  28
ENDBRANCH  17  19
ENDBRANCH  12  17
ENDBRANCH   9  12
BRANCH   8  37
HETATM   37  C5  UNL     1       1.795  -0.050   1.411  1.00  0.00     0.154 C 
BRANCH  37  38
HETATM   38  O1  UNL     1       2.461  -1.157   1.605  1.00  0.00    -0.345 OA
ATOM     39  H1  UNL     1       3.262  -1.193   1.096  1.00  0.00     0.219 HD
ENDBRANCH  37  38
BRANCH  37  40
HETATM   40  N2  UNL     1       2.377   0.835   0.529  1.00  0.00    -0.336 N 
ATOM     41  H2  UNL     1       1.916   1.729   0.358  1.00  0.00     0.168 HD
BRANCH  40  42
HETATM   42  C6  UNL     1       3.593   0.555  -0.153  1.00  0.00     0.034 A 
HETATM   43  C7  UNL     1       3.931  -0.696  -0.567  1.00  0.00     0.030 A 
HETATM   44  C8  UNL     1       5.162  -0.927  -1.210  1.00  0.00     0.017 A 
HETATM   45  C9  UNL     1       6.057   0.088  -1.444  1.00  0.00     0.010 A 
HETATM   46  C11 UNL     1       5.725   1.358  -1.031  1.00  0.00     0.017 A 
HETATM   47  C12 UNL     1       4.519   1.559  -0.405  1.00  0.00     0.030 A 
BRANCH  45  48
HETATM   48  C10 UNL     1       7.324  -0.204  -2.117  1.00  0.00     0.141 A 
HETATM   49  N3  UNL     1       8.253   0.717  -2.386  1.00  0.00    -0.270 N 
HETATM   50  N4  UNL     1       9.285   0.134  -3.003  1.00  0.00    -0.007 NA
ATOM     51  H3  UNL     1       8.185   1.709  -2.157  1.00  0.00     0.185 HD
HETATM   52  N5  UNL     1       8.974  -1.153  -3.107  1.00  0.00    -0.007 NA
HETATM   53  N6  UNL     1       7.784  -1.371  -2.572  1.00  0.00    -0.270 N 
ATOM     54  H6  UNL     1       7.304  -2.270  -2.517  1.00  0.00     0.185 HD
ENDBRANCH  45  48
ENDBRANCH  40  42
ENDBRANCH  37  40
ENDBRANCH   8  37
TORSDOF 12
