REMARK  14 active torsions:
REMARK  status: ('A' for Active; 'I' for Inactive)
REMARK       I    between atoms: C2_2  and  N1_4 
REMARK    1  A    between atoms: N1_4  and  N2_6 
REMARK       I    between atoms: N2_6  and  C3_8 
REMARK    2  A    between atoms: C3_8  and  C4_10 
REMARK    3  A    between atoms: C5_13  and  N4_14 
REMARK    4  A    between atoms: C6_17  and  C7_18 
REMARK    5  A    between atoms: C7_18  and  N5_20 
REMARK    6  A    between atoms: C9_26  and  N7_27 
REMARK       I    between atoms: N7_27  and  C10_29 
REMARK    7  A    between atoms: C10_29  and  C11_31 
REMARK    8  A    between atoms: C11_31  and  S1_32 
REMARK    9  A    between atoms: S1_32  and  C12_33 
REMARK   10  A    between atoms: C13_38  and  S2_39 
REMARK   11  A    between atoms: S2_39  and  C14_40 
REMARK   12  A    between atoms: C14_40  and  C15_41 
REMARK   13  A    between atoms: C15_41  and  O5_43 
REMARK   14  A    between atoms: O5_43  and  N10_44 
ROOT
HETATM    1  C4  UNL     1      -2.840  -0.247  -0.467  1.00  0.00     0.148 A 
HETATM    2  N3  UNL     1      -3.776   0.764  -0.452  1.00  0.00    -0.334 N 
ATOM      3  H3  UNL     1      -4.615   0.663  -1.023  1.00  0.00     0.168 HD
HETATM    4  C5  UNL     1      -3.627   1.870   0.280  1.00  0.00     0.124 A 
HETATM    5  C6  UNL     1      -2.523   2.082   1.081  1.00  0.00     0.085 A 
HETATM    6  N6  UNL     1      -1.613   1.108   1.069  1.00  0.00    -0.339 N 
ATOM      7  H6  UNL     1      -0.778   1.220   1.644  1.00  0.00     0.167 HD
HETATM    8  C9  UNL     1      -1.739  -0.032   0.327  1.00  0.00     0.141 A 
ENDROOT
BRANCH   8   9
HETATM    9  N7  UNL     1      -0.654  -0.967   0.315  1.00  0.00    -0.310 N 
HETATM   10  C10 UNL     1       0.503  -0.853   1.131  1.00  0.00     0.233 C 
HETATM   11  O3  UNL     1       1.413  -1.739   0.959  1.00  0.00    -0.272 OA
ATOM     12  H7  UNL     1      -0.716  -1.764  -0.319  1.00  0.00     0.170 HD
BRANCH  10  13
HETATM   13  C11 UNL     1       0.756   0.162   2.141  1.00  0.00     0.184 C 
BRANCH  13  14
HETATM   14  S1  UNL     1       2.399  -0.026   2.904  1.00  0.00    -0.094 SA
BRANCH  14  15
HETATM   15  C12 UNL     1       3.620   0.432   1.653  1.00  0.00     0.129 A 
HETATM   16  N8  UNL     1       3.386   0.832   0.403  1.00  0.00    -0.287 N 
HETATM   17  N9  UNL     1       4.347   1.142  -0.347  1.00  0.00    -0.287 N 
ATOM     18  H8  UNL     1       2.429   0.887   0.055  1.00  0.00     0.188 HD
HETATM   19  C13 UNL     1       5.598   1.069   0.105  1.00  0.00     0.129 A 
ATOM     20  H9  UNL     1       4.168   1.450  -1.303  1.00  0.00     0.188 HD
HETATM   21  S3  UNL     1       5.324   0.518   1.709  1.00  0.00    -0.038 SA
BRANCH  19  22
HETATM   22  S2  UNL     1       7.119   1.464  -0.766  1.00  0.00    -0.093 SA
BRANCH  22  23
HETATM   23  C14 UNL     1       7.712  -0.015  -1.620  1.00  0.00     0.194 C 
BRANCH  23  24
HETATM   24  C15 UNL     1       8.141  -1.066  -0.665  1.00  0.00     0.290 C 
HETATM   25  O4  UNL     1       8.575  -2.144  -1.136  1.00  0.00    -0.262 OA
BRANCH  24  26
HETATM   26  O5  UNL     1       8.083  -0.911   0.707  1.00  0.00    -0.206 OA
BRANCH  26  27
HETATM   27  N10 UNL     1       8.519  -1.982   1.484  1.00  0.00    -0.302 N 
ATOM     28 2H10 UNL     1       8.863  -2.836   1.044  1.00  0.00     0.184 HD
ATOM     29 1H10 UNL     1       8.476  -1.868   2.497  1.00  0.00     0.184 HD
ENDBRANCH  26  27
ENDBRANCH  24  26
ENDBRANCH  23  24
ENDBRANCH  22  23
ENDBRANCH  19  22
ENDBRANCH  14  15
ENDBRANCH  13  14
ENDBRANCH  10  13
ENDBRANCH   8   9
BRANCH   1  30
HETATM   30  C3  UNL     1      -3.090  -1.446  -1.226  1.00  0.00     0.290 C 
HETATM   31  N2  UNL     1      -4.245  -1.542  -2.055  1.00  0.00    -0.262 N 
ATOM     32  H2  UNL     1      -4.884  -0.749  -2.107  1.00  0.00     0.190 HD
HETATM   33  O2  UNL     1      -2.371  -2.466  -1.240  1.00  0.00    -0.264 OA
BRANCH  31  34
HETATM   34  N1  UNL     1      -4.535  -2.716  -2.816  1.00  0.00    -0.268 N 
HETATM   35  C2  UNL     1      -5.883  -3.157  -2.936  1.00  0.00     0.232 C 
HETATM   36  C1  UNL     1      -6.259  -4.359  -3.698  1.00  0.00     0.119 C 
HETATM   37  O1  UNL     1      -6.823  -2.520  -2.379  1.00  0.00    -0.272 OA
ATOM     38  H1  UNL     1      -3.782  -3.234  -3.270  1.00  0.00     0.190 HD
ENDBRANCH  31  34
ENDBRANCH   1  30
BRANCH   5  39
HETATM   39  C7  UNL     1      -2.396   3.341   1.878  1.00  0.00     0.232 C 
HETATM   40  C8  UNL     1      -1.284   3.265   2.899  1.00  0.00     0.046 C 
BRANCH  39  41
HETATM   41  N5  UNL     1      -2.192   4.485   0.979  1.00  0.00    -0.070 N 
ATOM     42  H53 UNL     1      -1.397   4.345   0.356  1.00  0.00     0.275 HD
ATOM     43  H52 UNL     1      -2.925   4.552   0.272  1.00  0.00     0.275 HD
ATOM     44  H51 UNL     1      -2.105   5.344   1.523  1.00  0.00     0.275 HD
ENDBRANCH  39  41
ENDBRANCH   5  39
BRANCH   4  45
HETATM   45  N4  UNL     1      -4.531   2.796   0.253  1.00  0.00    -0.384 N 
ATOM     46  H42 UNL     1      -5.347   2.639  -0.339  1.00  0.00     0.157 HD
ATOM     47  H41 UNL     1      -4.417   3.641   0.812  1.00  0.00     0.157 HD
ENDBRANCH   4  45
TORSDOF 14
