REMARK  5 active torsions:
REMARK  status: ('A' for Active; 'I' for Inactive)
REMARK    1  A    between atoms: N1_2  and  C3_4 
REMARK    2  A    between atoms: N2_7  and  C6_8 
REMARK    3  A    between atoms: C9_11  and  N3_12 
REMARK    4  A    between atoms: C16_19  and  C17_20 
REMARK    5  A    between atoms: C17_20  and  N4_21 
REMARK       I    between atoms: N4_21  and  C18_23 
REMARK       I    between atoms: C18_23  and  N5_25 
ROOT
HETATM    1  N3  UNL     1       0.000  -1.267  -0.026  1.00  0.00    -0.365 N 
HETATM    2  C10 UNL     1      -0.319  -2.396  -0.730  1.00  0.00     0.090 C 
HETATM    3  C11 UNL     1       0.603  -3.477  -1.100  1.00  0.00     0.013 C 
HETATM    4  C12 UNL     1       1.758  -3.321  -1.961  1.00  0.00    -0.025 C 
HETATM    5  C13 UNL     1       2.091  -2.123  -2.741  1.00  0.00     0.027 C 
HETATM    6  C14 UNL     1       3.094  -1.134  -2.055  1.00  0.00     0.005 C 
HETATM    7  C15 UNL     1       2.440  -0.895  -0.800  1.00  0.00     0.015 C 
HETATM    8  C16 UNL     1       2.243  -0.225   0.389  1.00  0.00     0.063 C 
HETATM    9  C24 UNL     1       0.919  -0.980   0.926  1.00  0.00     0.073 C 
ENDROOT
BRANCH   1  10
HETATM   10  C9  UNL     1      -1.118  -0.347   0.032  1.00  0.00     0.088 C 
HETATM   11  C8  UNL     1      -1.573   0.195  -1.291  1.00  0.00     0.028 C 
HETATM   12  C7  UNL     1      -2.752   1.118  -0.924  1.00  0.00     0.027 C 
HETATM   13  C6  UNL     1      -3.919   0.142  -0.745  1.00  0.00     0.079 C 
HETATM   14  C26 UNL     1      -3.555  -0.975   0.176  1.00  0.00     0.027 C 
HETATM   15  C25 UNL     1      -2.254  -0.815   0.897  1.00  0.00     0.028 C 
BRANCH  13  16
HETATM   16  N2  UNL     1      -5.136   0.805  -0.449  1.00  0.00    -0.406 N 
HETATM   17  C5  UNL     1      -5.214   1.545   0.754  1.00  0.00     0.119 C 
HETATM   18  C4  UNL     1      -6.464   1.107   1.488  1.00  0.00     0.057 C 
HETATM   19  C3  UNL     1      -7.289   0.396   0.446  1.00  0.00     0.241 C 
HETATM   20  C27 UNL     1      -6.334   0.073  -0.668  1.00  0.00     0.153 C 
BRANCH  19  21
HETATM   21  N1  UNL     1      -8.386   1.157  -0.043  1.00  0.00     0.086 N 
HETATM   22  C1  UNL     1      -8.062   2.370  -0.715  1.00  0.00     0.310 C 
HETATM   23  C2  UNL     1      -9.476   1.335   0.856  1.00  0.00     0.310 C 
ENDBRANCH  19  21
ENDBRANCH  13  16
ENDBRANCH   1  10
BRANCH   8  24
HETATM   24  C17 UNL     1       3.068  -0.091   1.597  1.00  0.00     0.075 C 
BRANCH  24  25
HETATM   25  N4  UNL     1       4.339   0.487   1.463  1.00  0.00    -0.322 N 
HETATM   26  C18 UNL     1       5.458  -0.105   0.854  1.00  0.00     0.322 C 
HETATM   27  O1  UNL     1       5.395  -1.261   0.400  1.00  0.00    -0.247 OA
HETATM   28  N5  UNL     1       6.712   0.629   0.746  1.00  0.00    -0.334 N 
HETATM   29  C19 UNL     1       6.817   1.954   1.259  1.00  0.00     0.127 C 
HETATM   30  C23 UNL     1       7.793  -0.058   0.110  1.00  0.00     0.127 C 
HETATM   31  C20 UNL     1       8.169   2.547   1.292  1.00  0.00     0.020 C 
HETATM   32  C21 UNL     1       9.306   1.586   1.052  1.00  0.00     0.003 C 
HETATM   33  C22 UNL     1       8.990   0.796  -0.212  1.00  0.00     0.020 C 
ATOM     34  H4  UNL     1       4.462   1.425   1.843  1.00  0.00     0.169 HD
ENDBRANCH  24  25
ENDBRANCH   8  24
TORSDOF 5
