REMARK  5 active torsions:
REMARK  status: ('A' for Active; 'I' for Inactive)
REMARK    1  A    between atoms: N1_4  and  C4_5 
REMARK    2  A    between atoms: C14_15  and  N2_16 
REMARK       I    between atoms: N3_20  and  C18_21 
REMARK    3  A    between atoms: C18_21  and  C19_23 
REMARK    4  A    between atoms: C19_23  and  N4_24 
REMARK    5  A    between atoms: N4_24  and  C20_26 
ROOT
HETATM    1  N2  UNL     1      -0.194  -0.443  -0.007  1.00  0.00     0.093 N 
HETATM    2  C15 UNL     1       0.251  -0.565  -1.392  1.00  0.00     0.274 C 
HETATM    3  C16 UNL     1       1.780  -0.592  -1.414  1.00  0.00     0.050 C 
HETATM    4  C17 UNL     1       2.356  -1.163  -0.174  1.00  0.00     0.127 C 
HETATM    5  N3  UNL     1       3.100  -0.215   0.670  1.00  0.00    -0.351 N 
HETATM    6  C18 UNL     1       4.452  -0.504   0.772  1.00  0.00     0.237 C 
HETATM    7  O1  UNL     1       4.884  -1.531   0.132  1.00  0.00    -0.272 OA
HETATM    8  C26 UNL     1       2.579   0.926   1.398  1.00  0.00     0.127 C 
HETATM    9  C27 UNL     1       1.103   0.601   1.749  1.00  0.00     0.050 C 
HETATM   10  C28 UNL     1       0.331   0.833   0.489  1.00  0.00     0.274 C 
ENDROOT
BRANCH   1  11
HETATM   11  C14 UNL     1      -1.583  -0.594   0.235  1.00  0.00     0.230 C 
HETATM   12  C2  UNL     1      -2.447   0.605   0.338  1.00  0.00     0.043 C 
HETATM   13  C1  UNL     1      -2.757   1.401  -0.855  1.00  0.00     0.014 C 
HETATM   14  C3  UNL     1      -3.754   0.087   0.955  1.00  0.00     0.279 C 
HETATM   15  N1  UNL     1      -4.392  -0.957   0.241  1.00  0.00     0.093 N 
HETATM   16  C12 UNL     1      -3.705  -1.397  -0.936  1.00  0.00     0.275 C 
HETATM   17  C13 UNL     1      -2.234  -1.438  -0.888  1.00  0.00     0.066 C 
BRANCH  15  18
HETATM   18  C4  UNL     1      -5.772  -0.691   0.118  1.00  0.00     0.223 C 
HETATM   19  C5  UNL     1      -6.412  -0.675  -1.208  1.00  0.00     0.036 C 
HETATM   20  C6  UNL     1      -6.736   0.681  -1.745  1.00  0.00     0.002 C 
HETATM   21  C7  UNL     1      -7.393   1.620  -0.800  1.00  0.00     0.000 C 
HETATM   22  C8  UNL     1      -8.543   1.053  -0.020  1.00  0.00     0.000 C 
HETATM   23  C9  UNL     1      -8.112   0.492   1.332  1.00  0.00     0.000 C 
HETATM   24  C10 UNL     1      -7.952  -0.986   1.342  1.00  0.00     0.002 C 
HETATM   25  C11 UNL     1      -6.547  -1.491   1.145  1.00  0.00     0.036 C 
ENDBRANCH  15  18
ENDBRANCH   1  11
BRANCH   6  26
HETATM   26  C19 UNL     1       5.523   0.190   1.525  1.00  0.00     0.217 C 
BRANCH  26  27
HETATM   27  N4  UNL     1       6.793  -0.435   1.383  1.00  0.00    -0.409 N 
ATOM     28  H4  UNL     1       7.205  -0.990   2.134  1.00  0.00     0.154 HD
BRANCH  27  29
HETATM   29  C20 UNL     1       7.462  -0.246   0.135  1.00  0.00     0.077 C 
HETATM   30  C21 UNL     1       7.949   1.164  -0.100  1.00  0.00     0.024 C 
HETATM   31  C22 UNL     1       9.162   1.202  -0.965  1.00  0.00     0.002 C 
HETATM   32  C23 UNL     1      10.343   0.442  -0.456  1.00  0.00     0.000 C 
HETATM   33  C24 UNL     1       9.904  -0.608   0.541  1.00  0.00     0.002 C 
HETATM   34  C25 UNL     1       8.613  -1.232   0.049  1.00  0.00     0.024 C 
ENDBRANCH  27  29
ENDBRANCH  26  27
ENDBRANCH   6  26
TORSDOF 5
