REMARK  5 active torsions:
REMARK  status: ('A' for Active; 'I' for Inactive)
REMARK    1  A    between atoms: C2_2  and  C3_3 
REMARK    2  A    between atoms: C3_3  and  C4_4 
REMARK    3  A    between atoms: C7_7  and  N1_8 
REMARK    4  A    between atoms: C10_11  and  C11_12 
REMARK    5  A    between atoms: C12_15  and  C13_16 
ROOT
HETATM    1  C11 UNL     1      -2.914  -0.902   0.741  1.00  0.00     0.085 A 
HETATM    2  N2  UNL     1      -3.605   0.194   0.393  1.00  0.00    -0.344 N 
ATOM      3  H2  UNL     1      -3.203   0.994  -0.095  1.00  0.00     0.167 HD
HETATM    4  C12 UNL     1      -4.889   0.107   0.765  1.00  0.00     0.061 A 
HETATM    5  C19 UNL     1      -5.013  -1.121   1.386  1.00  0.00     0.119 A 
HETATM    6  N4  UNL     1      -3.799  -1.709   1.356  1.00  0.00    -0.353 N 
ATOM      7  H4  UNL     1      -3.584  -2.628   1.742  1.00  0.00     0.166 HD
ENDROOT
BRANCH   1   8
HETATM    8  C10 UNL     1      -1.486  -1.227   0.527  1.00  0.00     0.057 C 
HETATM    9  C9  UNL     1      -0.547  -0.174   1.087  1.00  0.00     0.042 C 
HETATM   10  C8  UNL     1       0.845  -0.648   0.915  1.00  0.00     0.273 C 
HETATM   11  N1  UNL     1       1.085  -1.729   0.077  1.00  0.00     0.093 N 
HETATM   12  C21 UNL     1       0.212  -1.999  -1.003  1.00  0.00     0.273 C 
HETATM   13  C20 UNL     1      -1.125  -1.314  -0.942  1.00  0.00     0.042 C 
BRANCH  11  14
HETATM   14  C7  UNL     1       2.457  -1.752  -0.464  1.00  0.00     0.223 C 
HETATM   15  C6  UNL     1       3.393  -1.889   0.654  1.00  0.00     0.036 C 
HETATM   16  C5  UNL     1       4.408  -0.788   0.803  1.00  0.00     0.007 C 
HETATM   17  C4  UNL     1       4.885  -0.364  -0.582  1.00  0.00    -0.014 C 
HETATM   18  C23 UNL     1       3.704   0.340  -1.193  1.00  0.00     0.007 C 
HETATM   19  C22 UNL     1       2.607  -0.640  -1.408  1.00  0.00     0.036 C 
BRANCH  17  20
HETATM   20  C3  UNL     1       6.084   0.525  -0.415  1.00  0.00     0.004 C 
BRANCH  20  21
HETATM   21  C2  UNL     1       5.764   1.769   0.394  1.00  0.00    -0.004 C 
HETATM   22  C1  UNL     1       7.067   2.573   0.483  1.00  0.00     0.005 C 
ENDBRANCH  20  21
ENDBRANCH  17  20
ENDBRANCH  11  14
ENDBRANCH   1   8
BRANCH   4  23
HETATM   23  C13 UNL     1      -5.973   1.088   0.571  1.00  0.00     0.024 A 
HETATM   24  C14 UNL     1      -6.775   1.084  -0.554  1.00  0.00    -0.032 A 
HETATM   25  C15 UNL     1      -6.501   0.042  -1.576  1.00  0.00     0.050 C 
HETATM   26  C16 UNL     1      -7.786   2.024  -0.698  1.00  0.00     0.097 A 
HETATM   27  N3  UNL     1      -7.982   2.945   0.271  1.00  0.00    -0.355 N 
HETATM   28  C17 UNL     1      -7.227   2.989   1.384  1.00  0.00     0.126 A 
ATOM     29  H3  UNL     1      -8.728   3.631   0.155  1.00  0.00     0.166 HD
HETATM   30 CL1  UNL     1      -7.517   4.213   2.631  1.00  0.00    -0.063 Cl
HETATM   31  C18 UNL     1      -6.225   2.055   1.522  1.00  0.00     0.085 A 
HETATM   32 CL2  UNL     1      -5.216   2.077   2.962  1.00  0.00    -0.080 Cl
ENDBRANCH   4  23
TORSDOF 5
