REMARK  10 active torsions:
REMARK  status: ('A' for Active; 'I' for Inactive)
REMARK    1  A    between atoms: O1_2  and  C2_3 
REMARK    2  A    between atoms: C2_3  and  O2_4 
REMARK    3  A    between atoms: C2_3  and  C3_6 
REMARK    4  A    between atoms: C5_8  and  O3_9 
REMARK    5  A    between atoms: O3_9  and  C6_10 
REMARK    6  A    between atoms: C14_19  and  O4_20 
REMARK    7  A    between atoms: C15_22  and  C16_23 
REMARK       I    between atoms: C16_23  and  N1_25 
REMARK    8  A    between atoms: N1_25  and  C17_27 
REMARK    9  A    between atoms: C19_29  and  O6_30 
REMARK   10  A    between atoms: C19_29  and  N2_32 
ROOT
HETATM    1  C3  UNL     1       0.531  -1.613  -0.188  1.00  0.00     0.043 A 
HETATM    2  C4  UNL     1       1.685  -1.184  -0.890  1.00  0.00     0.054 A 
HETATM    3  C5  UNL     1       1.899   0.113  -1.229  1.00  0.00     0.079 A 
HETATM    4  C13 UNL     1       0.954   1.030  -0.870  1.00  0.00     0.074 A 
HETATM    5  C14 UNL     1      -0.177   0.649  -0.189  1.00  0.00     0.085 A 
HETATM    6  C15 UNL     1      -0.418  -0.703   0.174  1.00  0.00     0.080 A 
ENDROOT
BRANCH   6   7
HETATM    7  C16 UNL     1      -1.638  -1.014   0.862  1.00  0.00     0.259 C 
HETATM    8  O5  UNL     1      -1.976  -2.133   1.256  1.00  0.00    -0.267 OA
HETATM    9  N1  UNL     1      -2.581   0.068   1.130  1.00  0.00    -0.323 N 
ATOM     10  H1  UNL     1      -2.333   0.820   1.773  1.00  0.00     0.169 HD
BRANCH   9  11
HETATM   11  C17 UNL     1      -3.759   0.064   0.532  1.00  0.00     0.059 C 
HETATM   12  C18 UNL     1      -4.124  -1.009  -0.395  1.00  0.00     0.073 C 
HETATM   13  C19 UNL     1      -4.626   1.157   0.874  1.00  0.00     0.160 C 
BRANCH  13  14
HETATM   14  O6  UNL     1      -4.145   2.036   1.732  1.00  0.00    -0.345 OA
ATOM     15  H6  UNL     1      -4.718   2.759   1.958  1.00  0.00     0.219 HD
ENDBRANCH  13  14
BRANCH  13  16
HETATM   16  N2  UNL     1      -5.911   1.440   0.439  1.00  0.00    -0.369 N 
HETATM   17  C20 UNL     1      -6.668   0.647  -0.486  1.00  0.00     0.151 C 
HETATM   18  C21 UNL     1      -6.543   2.677   0.987  1.00  0.00     0.151 C 
ENDBRANCH  13  16
ENDBRANCH   9  11
ENDBRANCH   6   7
BRANCH   1  19
HETATM   19  C2  UNL     1       0.460  -3.010   0.090  1.00  0.00     0.189 C 
BRANCH  19  20
HETATM   20  O1  UNL     1      -0.455  -3.763   0.726  1.00  0.00    -0.335 OA
HETATM   21  C1  UNL     1      -0.299  -5.184   0.882  1.00  0.00     0.212 C 
ENDBRANCH  19  20
BRANCH  19  22
HETATM   22  O2  UNL     1       1.475  -3.721  -0.352  1.00  0.00    -0.340 OA
ATOM     23  H2  UNL     1       2.121  -3.189  -0.801  1.00  0.00     0.220 HD
ENDBRANCH  19  22
ENDBRANCH   1  19
BRANCH   5  24
HETATM   24  O4  UNL     1      -1.135   1.567   0.179  1.00  0.00    -0.360 OA
ATOM     25  H4  UNL     1      -1.917   1.304   0.650  1.00  0.00     0.217 HD
ENDBRANCH   5  24
BRANCH   3  26
HETATM   26  O3  UNL     1       3.061   0.445  -1.919  1.00  0.00    -0.309 OA
BRANCH  26  27
HETATM   27  C6  UNL     1       4.230   0.795  -1.278  1.00  0.00     0.093 A 
HETATM   28  C7  UNL     1       4.268   0.822   0.109  1.00  0.00     0.039 A 
HETATM   29  C8  UNL     1       5.452   1.176   0.743  1.00  0.00     0.009 A 
HETATM   30  C9  UNL     1       6.572   1.496  -0.008  1.00  0.00    -0.061 A 
HETATM   31  C10 UNL     1       7.827   1.873   0.713  1.00  0.00     0.048 C 
HETATM   32  C11 UNL     1       6.486   1.456  -1.378  1.00  0.00     0.028 A 
HETATM   33  C12 UNL     1       5.328   1.109  -2.051  1.00  0.00     0.045 A 
HETATM   34 BR1  UNL     1       5.244   1.063  -3.959  1.00  0.00    -0.048 Br
ENDBRANCH  26  27
ENDBRANCH   3  26
TORSDOF 10
