REMARK  8 active torsions:
REMARK  status: ('A' for Active; 'I' for Inactive)
REMARK    1  A    between atoms: N5_15  and  C6_16 
REMARK    2  A    between atoms: C7_18  and  C8_19 
REMARK    3  A    between atoms: C7_18  and  N6_22 
REMARK    4  A    between atoms: C8_19  and  O2_20 
REMARK       I    between atoms: N6_22  and  C9_24 
REMARK    5  A    between atoms: C9_24  and  C10_26 
REMARK    6  A    between atoms: C10_26  and  N7_27 
REMARK    7  A    between atoms: N8_31  and  N9_32 
REMARK    8  A    between atoms: C11_35  and  O4_36 
ROOT
HETATM    1  C6  UNL     1      -0.466   0.271  -0.183  1.00  0.00     0.279 A 
HETATM    2  O1  UNL     1       0.357  -0.788   0.094  1.00  0.00    -0.315 OA
HETATM    3  C7  UNL     1       1.458  -0.338   0.812  1.00  0.00     0.241 A 
HETATM    4  N8  UNL     1       1.314   1.047   1.054  1.00  0.00    -0.149 NA
HETATM    5  C11 UNL     1       0.102   1.504   0.459  1.00  0.00     0.265 A 
ENDROOT
BRANCH   1   6
HETATM    6  N5  UNL     1      -1.842   0.029   0.271  1.00  0.00    -0.296 N 
HETATM    7  C3  UNL     1      -2.929  -0.254  -0.480  1.00  0.00     0.142 A 
HETATM    8  N3  UNL     1      -3.039  -0.388  -1.814  1.00  0.00    -0.336 N 
HETATM    9  C4  UNL     1      -4.032  -0.411   0.325  1.00  0.00     0.122 A 
HETATM   10  C2  UNL     1      -4.255  -0.676  -2.305  1.00  0.00     0.183 A 
ATOM     11  H3  UNL     1      -2.232  -0.275  -2.427  1.00  0.00     0.168 HD
HETATM   12  N2  UNL     1      -5.352  -0.836  -1.553  1.00  0.00    -0.337 N 
HETATM   13  C1  UNL     1      -5.255  -0.705  -0.225  1.00  0.00     0.131 A 
ATOM     14  H2  UNL     1      -6.249  -1.055  -1.987  1.00  0.00     0.168 HD
HETATM   15  N1  UNL     1      -6.270  -0.845   0.567  1.00  0.00    -0.383 N 
ATOM     16  H12 UNL     1      -7.179  -1.063   0.158  1.00  0.00     0.157 HD
ATOM     17  H11 UNL     1      -6.196  -0.745   1.579  1.00  0.00     0.157 HD
HETATM   18  N4  UNL     1      -3.595  -0.218   1.583  1.00  0.00    -0.346 N 
HETATM   19  C5  UNL     1      -2.293   0.043   1.538  1.00  0.00     0.188 A 
ATOM     20  H4  UNL     1      -4.166  -0.264   2.427  1.00  0.00     0.167 HD
ENDBRANCH   1   6
BRANCH   5  21
HETATM   21  O4  UNL     1       0.257   2.577  -0.421  1.00  0.00    -0.375 OA
ATOM     22  H4  UNL     1       0.616   3.357  -0.015  1.00  0.00     0.211 HD
ENDBRANCH   5  21
BRANCH   3  23
HETATM   23  C8  UNL     1       1.444  -1.126   2.126  1.00  0.00     0.245 C 
BRANCH  23  24
HETATM   24  O2  UNL     1       2.472  -0.810   2.958  1.00  0.00    -0.395 OA
ATOM     25  H2  UNL     1       2.463  -1.299   3.773  1.00  0.00     0.209 HD
ENDBRANCH  23  24
ENDBRANCH   3  23
BRANCH   3  26
HETATM   26  N6  UNL     1       2.698  -0.647   0.157  1.00  0.00    -0.312 N 
HETATM   27  C9  UNL     1       3.124  -0.280  -1.129  1.00  0.00     0.246 C 
HETATM   28  O3  UNL     1       2.361   0.398  -1.858  1.00  0.00    -0.272 OA
ATOM     29  H6  UNL     1       3.356  -1.207   0.698  1.00  0.00     0.167 HD
BRANCH  27  30
HETATM   30  C10 UNL     1       4.464  -0.671  -1.666  1.00  0.00     0.332 C 
BRANCH  30  31
HETATM   31  N7  UNL     1       4.613  -0.149  -3.010  1.00  0.00    -0.071 N 
ATOM     32  H73 UNL     1       3.851  -0.438  -3.624  1.00  0.00     0.274 HD
ATOM     33  H72 UNL     1       4.459   0.858  -3.053  1.00  0.00     0.274 HD
ATOM     34  H71 UNL     1       5.527  -0.416  -3.376  1.00  0.00     0.274 HD
ENDBRANCH  30  31
ENDBRANCH  27  30
ENDBRANCH   3  26
BRANCH   4  35
HETATM   35  N9  UNL     1       2.358   1.824   0.650  1.00  0.00    -0.357 NA
ATOM     36  H92 UNL     1       3.225   1.497   1.076  1.00  0.00     0.171 HD
ATOM     37  H91 UNL     1       2.254   2.824   0.825  1.00  0.00     0.171 HD
ENDBRANCH   4  35
TORSDOF 8
