REMARK  5 active torsions:
REMARK  status: ('A' for Active; 'I' for Inactive)
REMARK    1  A    between atoms: C2_2  and  C8_29 
REMARK    2  A    between atoms: N1_3  and  N2_5 
REMARK    3  A    between atoms: N2_5  and  C3_7 
REMARK    4  A    between atoms: N4_10  and  N5_11 
REMARK    5  A    between atoms: C4_14  and  N6_15 
REMARK       I    between atoms: N6_15  and  C5_17 
REMARK       I    between atoms: C5_17  and  N7_18 
REMARK       I    between atoms: C5_17  and  N8_22 
ROOT
HETATM    1  C3  UNL     1       0.481   0.251  -0.452  1.00  0.00     0.161 A 
HETATM    2  N3  UNL     1      -0.258   1.361  -0.575  1.00  0.00    -0.260 N 
ATOM      3  H3  UNL     1       0.134   2.285  -0.758  1.00  0.00     0.191 HD
HETATM    4  N4  UNL     1      -1.548   1.129  -0.433  1.00  0.00    -0.183 N 
HETATM    5  C4  UNL     1      -1.683  -0.186  -0.205  1.00  0.00     0.168 A 
HETATM    6  C6  UNL     1      -0.410  -0.771  -0.212  1.00  0.00     0.138 A 
HETATM    7  C7  UNL     1      -0.104  -2.168  -0.006  1.00  0.00     0.107 C 
HETATM    8  N9  UNL     1       0.140  -3.295   0.155  1.00  0.00    -0.191 NA
ENDROOT
BRANCH   1   9
HETATM    9  N2  UNL     1       1.905   0.124  -0.545  1.00  0.00    -0.283 N 
ATOM     10  H2  UNL     1       2.361  -0.051  -1.441  1.00  0.00     0.188 HD
BRANCH   9  11
HETATM   11  N1  UNL     1       2.645   0.247   0.624  1.00  0.00    -0.297 N 
HETATM   12  C2  UNL     1       3.935   0.054   0.648  1.00  0.00     0.098 C 
HETATM   13  C1  UNL     1       4.658  -0.307  -0.585  1.00  0.00     0.077 C 
ATOM     14  H1  UNL     1       2.166   0.496   1.489  1.00  0.00     0.187 HD
BRANCH  12  15
HETATM   15  C8  UNL     1       4.676   0.190   1.885  1.00  0.00     0.223 C 
HETATM   16  O1  UNL     1       4.053   0.498   2.930  1.00  0.00    -0.643 OA
HETATM   17  O2  UNL     1       6.038  -0.015   1.908  1.00  0.00    -0.643 OA
ENDBRANCH  12  15
ENDBRANCH   9  11
ENDBRANCH   1   9
BRANCH   5  18
HETATM   18  N6  UNL     1      -2.737  -0.858  -0.008  1.00  0.00    -0.323 N 
HETATM   19  C5  UNL     1      -4.093  -0.434   0.033  1.00  0.00     0.481 C 
HETATM   20  N7  UNL     1      -4.665  -0.113  -1.255  1.00  0.00    -0.033 N 
HETATM   21  N8  UNL     1      -4.973  -1.427   0.632  1.00  0.00    -0.033 N 
ATOM     22  H73 UNL     1      -4.091   0.581  -1.734  1.00  0.00     0.278 HD
ATOM     23  H72 UNL     1      -4.560  -0.900  -1.895  1.00  0.00     0.278 HD
ATOM     24  H71 UNL     1      -5.638   0.191  -1.226  1.00  0.00     0.278 HD
ATOM     25  H83 UNL     1      -4.885  -2.327   0.160  1.00  0.00     0.278 HD
ATOM     26  H82 UNL     1      -4.645  -1.695   1.560  1.00  0.00     0.278 HD
ATOM     27  H81 UNL     1      -5.946  -1.123   0.661  1.00  0.00     0.278 HD
ATOM     28  H6  UNL     1      -2.591  -1.856   0.145  1.00  0.00     0.165 HD
ENDBRANCH   5  18
BRANCH   4  29
HETATM   29  N5  UNL     1      -2.577   2.098  -0.510  1.00  0.00    -0.322 N 
ATOM     30  H52 UNL     1      -2.474   3.098  -0.683  1.00  0.00     0.179 HD
ATOM     31  H51 UNL     1      -3.575   1.919  -0.400  1.00  0.00     0.179 HD
ENDBRANCH   4  29
TORSDOF 5
