REMARK  10 active torsions:
REMARK  status: ('A' for Active; 'I' for Inactive)
REMARK    1  A    between atoms: C2_2  and  O1_4 
REMARK    2  A    between atoms: O1_4  and  C4_5 
REMARK    3  A    between atoms: N1_9  and  C7_11 
REMARK    4  A    between atoms: C7_11  and  C8_12 
REMARK    5  A    between atoms: C10_18  and  C11_19 
REMARK    6  A    between atoms: C11_19  and  O3_20 
REMARK    7  A    between atoms: C11_19  and  C12_22 
REMARK    8  A    between atoms: C13_24  and  C14_25 
REMARK    9  A    between atoms: C17_28  and  O5_29 
REMARK   10  A    between atoms: C23_37  and  O7_38 
ROOT
HETATM    1  C4  UNL     1      -3.019  -0.796   0.002  1.00  0.00     0.177 C 
HETATM    2  C5  UNL     1      -3.075   0.515   0.753  1.00  0.00     0.161 C 
HETATM    3 CL1  UNL     1      -4.549   1.421   0.401  1.00  0.00    -0.116 Cl
HETATM    4  C6  UNL     1      -1.915   1.396   0.451  1.00  0.00     0.035 C 
HETATM    5  N1  UNL     1      -1.692   2.114   1.475  1.00  0.00    -0.384 N 
ATOM      6  H1  UNL     1      -2.320   1.954   2.263  1.00  0.00     0.159 HD
HETATM    7  C9  UNL     1      -0.965   1.682  -0.657  1.00  0.00     0.197 C 
HETATM    8  O2  UNL     1       0.291   1.164  -0.446  1.00  0.00    -0.367 OA
HETATM    9  C10 UNL     1       0.429  -0.173  -0.703  1.00  0.00     0.185 C 
HETATM   10  C20 UNL     1      -0.803  -0.870  -1.183  1.00  0.00     0.185 C 
HETATM   11  O6  UNL     1      -1.543  -0.173  -2.103  1.00  0.00    -0.373 OA
HETATM   12  C21 UNL     1      -1.612   1.174  -1.927  1.00  0.00     0.152 C 
HETATM   13  C22 UNL     1      -1.048   1.960  -3.104  1.00  0.00     0.042 C 
HETATM   14  C23 UNL     1      -1.582  -1.332   0.011  1.00  0.00     0.180 C 
ENDROOT
BRANCH   9  15
HETATM   15  C11 UNL     1       1.577  -0.479  -1.647  1.00  0.00     0.181 C 
BRANCH  15  16
HETATM   16  O3  UNL     1       1.656  -1.841  -1.859  1.00  0.00    -0.390 OA
ATOM     17  H3  UNL     1       2.375  -2.033  -2.450  1.00  0.00     0.210 HD
ENDBRANCH  15  16
BRANCH  15  18
HETATM   18  C12 UNL     1       2.878  -0.000  -0.991  1.00  0.00     0.187 A 
HETATM   19  O4  UNL     1       3.981  -0.327  -1.926  1.00  0.00    -0.368 OA
HETATM   20  C13 UNL     1       3.816  -0.910  -0.545  1.00  0.00     0.186 A 
BRANCH  20  21
HETATM   21  C14 UNL     1       4.996  -0.506   0.245  1.00  0.00    -0.027 A 
HETATM   22  C15 UNL     1       5.480   0.797   0.212  1.00  0.00     0.012 A 
HETATM   23  C16 UNL     1       6.584   1.146   0.961  1.00  0.00     0.037 A 
HETATM   24  C17 UNL     1       7.249   0.236   1.762  1.00  0.00     0.065 A 
HETATM   25  C18 UNL     1       6.769  -1.060   1.794  1.00  0.00     0.037 A 
HETATM   26  C19 UNL     1       5.673  -1.400   1.049  1.00  0.00     0.012 A 
BRANCH  24  27
HETATM   27  O5  UNL     1       8.369   0.600   2.517  1.00  0.00    -0.361 OA
ATOM     28  H5  UNL     1       8.826  -0.025   3.067  1.00  0.00     0.217 HD
ENDBRANCH  24  27
ENDBRANCH  20  21
ENDBRANCH  15  18
ENDBRANCH   9  15
BRANCH  14  29
HETATM   29  O7  UNL     1      -1.593  -2.719   0.152  1.00  0.00    -0.390 OA
ATOM     30  H7  UNL     1      -0.703  -3.051   0.158  1.00  0.00     0.210 HD
ENDBRANCH  14  29
BRANCH   1  31
HETATM   31  O1  UNL     1      -3.756  -1.709   0.725  1.00  0.00    -0.377 OA
BRANCH  31  32
HETATM   32  C2  UNL     1      -4.743  -2.347   0.013  1.00  0.00     0.114 C 
HETATM   33  C1  UNL     1      -6.127  -2.115   0.508  1.00  0.00     0.039 C 
HETATM   34  C3  UNL     1      -4.515  -3.837  -0.132  1.00  0.00     0.039 C 
ENDBRANCH  31  32
ENDBRANCH   1  31
BRANCH   5  35
HETATM   35  C7  UNL     1      -0.712   3.093   1.683  1.00  0.00     0.236 C 
BRANCH  35  36
HETATM   36  C8  UNL     1      -1.429   4.433   1.905  1.00  0.00     0.403 C 
HETATM   37  F1  UNL     1      -2.197   4.769   0.807  1.00  0.00    -0.169 F 
HETATM   38  F2  UNL     1      -0.518   5.446   2.128  1.00  0.00    -0.169 F 
HETATM   39  F3  UNL     1      -2.268   4.360   2.992  1.00  0.00    -0.169 F 
ENDBRANCH  35  36
ENDBRANCH   5  35
TORSDOF 10
