REMARK  9 active torsions:
REMARK  status: ('A' for Active; 'I' for Inactive)
REMARK    1  A    between atoms: C2_2  and  C3_3 
REMARK    2  A    between atoms: C2_2  and  C11_31 
REMARK       I    between atoms: C3_3  and  N1_5 
REMARK    3  A    between atoms: C4_6  and  O2_7 
REMARK    4  A    between atoms: C5_9  and  N2_10 
REMARK    5  A    between atoms: N2_10  and  N3_12 
REMARK    6  A    between atoms: N3_12  and  C6_14 
REMARK    7  A    between atoms: C7_17  and  N5_18 
REMARK    8  A    between atoms: C11_31  and  N9_32 
REMARK    9  A    between atoms: C11_31  and  O5_36 
ROOT
HETATM    1  C3  UNL     1      -2.104   0.243  -0.812  1.00  0.00     0.242 C 
HETATM    2  O1  UNL     1      -1.725  -0.465  -1.822  1.00  0.00    -0.272 OA
HETATM    3  N1  UNL     1      -1.064   0.766  -0.001  1.00  0.00    -0.209 N 
HETATM    4  C4  UNL     1       0.232   0.452  -0.301  1.00  0.00     0.188 A 
HETATM    5  C5  UNL     1       1.283   0.941   0.435  1.00  0.00     0.169 A 
HETATM    6  C8  UNL     1       1.077   1.774   1.514  1.00  0.00     0.283 A 
HETATM    7  O3  UNL     1       2.020   2.236   2.205  1.00  0.00    -0.265 OA
HETATM    8  N8  UNL     1      -0.201   2.070   1.792  1.00  0.00    -0.268 N 
HETATM    9  C9  UNL     1      -0.478   2.951   2.928  1.00  0.00     0.164 C 
HETATM   10  C10 UNL     1      -1.227   1.576   1.051  1.00  0.00     0.340 A 
HETATM   11  O4  UNL     1      -2.374   1.920   1.399  1.00  0.00    -0.246 OA
ENDROOT
BRANCH   5  12
HETATM   12  N2  UNL     1       2.636   0.620   0.131  1.00  0.00    -0.278 N 
ATOM     13  H2  UNL     1       3.334   1.361   0.072  1.00  0.00     0.188 HD
BRANCH  12  14
HETATM   14  N3  UNL     1       2.981  -0.607  -0.070  1.00  0.00    -0.130 N 
ATOM     15  H3  UNL     1       2.287  -1.353  -0.012  1.00  0.00     0.205 HD
BRANCH  14  16
HETATM   16  C6  UNL     1       4.356  -0.915  -0.377  1.00  0.00     0.726 A 
HETATM   17  N4  UNL     1       5.406  -0.860   0.453  1.00  0.00    -0.019 N 
HETATM   18  C7  UNL     1       6.512  -1.220  -0.210  1.00  0.00     0.705 A 
ATOM     19  H4  UNL     1       5.369  -0.587   1.435  1.00  0.00     0.203 HD
HETATM   20  N6  UNL     1       6.138  -1.501  -1.470  1.00  0.00    -0.117 N 
HETATM   21  N7  UNL     1       4.834  -1.316  -1.567  1.00  0.00    -0.116 N 
ATOM     22  H6  UNL     1       6.756  -1.805  -2.223  1.00  0.00     0.206 HD
ATOM     23  H7  UNL     1       4.278  -1.455  -2.411  1.00  0.00     0.206 HD
BRANCH  18  24
HETATM   24  N5  UNL     1       7.738  -1.294   0.254  1.00  0.00    -0.233 N 
ATOM     25  H52 UNL     1       8.022  -1.081   1.210  1.00  0.00     0.174 HD
ATOM     26  H51 UNL     1       8.581  -1.568  -0.251  1.00  0.00     0.174 HD
ENDBRANCH  18  24
ENDBRANCH  14  16
ENDBRANCH  12  14
ENDBRANCH   5  12
BRANCH   4  27
HETATM   27  O2  UNL     1       0.491  -0.384  -1.379  1.00  0.00    -0.344 OA
ATOM     28  H2  UNL     1       1.392  -0.602  -1.588  1.00  0.00     0.219 HD
ENDBRANCH   4  27
BRANCH   1  29
HETATM   29  C2  UNL     1      -3.540   0.391  -0.658  1.00  0.00     0.131 C 
HETATM   30  C1  UNL     1      -4.183   0.158  -2.051  1.00  0.00     0.024 C 
BRANCH  29  31
HETATM   31  C11 UNL     1      -4.177  -0.604   0.297  1.00  0.00     0.328 C 
BRANCH  31  32
HETATM   32  N9  UNL     1      -3.935  -1.969  -0.154  1.00  0.00    -0.052 N 
ATOM     33  H93 UNL     1      -4.246  -2.112  -1.115  1.00  0.00     0.277 HD
ATOM     34  H92 UNL     1      -2.941  -2.154  -0.288  1.00  0.00     0.277 HD
ATOM     35  H91 UNL     1      -4.363  -2.637   0.487  1.00  0.00     0.277 HD
ENDBRANCH  31  32
BRANCH  31  36
HETATM   36  O5  UNL     1      -5.528  -0.325   0.359  1.00  0.00    -0.369 OA
ATOM     37  H5  UNL     1      -5.926  -0.947   0.956  1.00  0.00     0.212 HD
ENDBRANCH  31  36
ENDBRANCH  29  31
ENDBRANCH   1  29
TORSDOF 9
