REMARK  6 active torsions:
REMARK  status: ('A' for Active; 'I' for Inactive)
REMARK    1  A    between atoms: C1_2  and  C2_4 
REMARK       I    between atoms: N1_8  and  C6_9 
REMARK    2  A    between atoms: C6_9  and  C7_11 
REMARK    3  A    between atoms: N3_16  and  C9_17 
REMARK    4  A    between atoms: C9_17  and  C10_18 
REMARK    5  A    between atoms: C16_26  and  C17_27 
REMARK    6  A    between atoms: C17_27  and  O4_28 
ROOT
HETATM    1  C7  UNL     1       1.052  -0.316  -1.551  1.00  0.00     0.098 A 
HETATM    2  C8  UNL     1       0.376   0.678  -2.222  1.00  0.00     0.136 A 
HETATM    3 CL1  UNL     1       1.026   1.975  -3.205  1.00  0.00    -0.062 Cl
HETATM    4  N2  UNL     1      -0.925   0.463  -1.976  1.00  0.00    -0.287 N 
ATOM      5  H2  UNL     1      -1.687   1.036  -2.338  1.00  0.00     0.188 HD
HETATM    6  N3  UNL     1      -1.084  -0.612  -1.187  1.00  0.00    -0.292 N 
HETATM    7  C16 UNL     1       0.108  -1.127  -0.899  1.00  0.00     0.070 A 
ENDROOT
BRANCH   1   8
HETATM    8  C6  UNL     1       2.496  -0.457  -1.550  1.00  0.00     0.259 C 
HETATM    9  N1  UNL     1       3.300   0.192  -0.553  1.00  0.00    -0.333 N 
HETATM   10  C2  UNL     1       4.729   0.165  -0.398  1.00  0.00     0.188 C 
HETATM   11  C5  UNL     1       2.775   1.020   0.512  1.00  0.00     0.127 C 
HETATM   12  C3  UNL     1       5.093   1.546   0.091  1.00  0.00     0.038 C 
HETATM   13  C4  UNL     1       3.816   2.076   0.689  1.00  0.00     0.022 C 
HETATM   14  O3  UNL     1       3.103  -1.144  -2.410  1.00  0.00    -0.267 OA
BRANCH  10  15
HETATM   15  C1  UNL     1       5.086  -0.820   0.650  1.00  0.00     0.196 C 
HETATM   16  O1  UNL     1       4.255  -1.516   1.284  1.00  0.00    -0.646 OA
HETATM   17  O2  UNL     1       6.427  -0.994   0.959  1.00  0.00    -0.646 OA
ENDBRANCH  10  15
ENDBRANCH   1   8
BRANCH   7  18
HETATM   18  C17 UNL     1       0.523  -2.280  -0.098  1.00  0.00     0.224 C 
BRANCH  18  19
HETATM   19  O4  UNL     1      -0.531  -2.969   0.469  1.00  0.00    -0.395 OA
ATOM     20  H4  UNL     1      -0.262  -3.717   0.989  1.00  0.00     0.209 HD
ENDBRANCH  18  19
ENDBRANCH   7  18
BRANCH   6  21
HETATM   21  C9  UNL     1      -2.394  -1.055  -0.785  1.00  0.00     0.153 C 
BRANCH  21  22
HETATM   22  C10 UNL     1      -2.879  -0.456   0.515  1.00  0.00     0.006 C 
HETATM   23  C11 UNL     1      -4.257  -0.982   0.864  1.00  0.00     0.012 C 
HETATM   24  C12 UNL     1      -5.363  -0.248   0.183  1.00  0.00     0.079 C 
HETATM   25  C13 UNL     1      -5.229   1.247   0.209  1.00  0.00     0.243 C 
HETATM   26  F1  UNL     1      -5.365   1.749   1.495  1.00  0.00    -0.206 F 
HETATM   27  F2  UNL     1      -6.180   1.779  -0.640  1.00  0.00    -0.206 F 
HETATM   28  C14 UNL     1      -3.874   1.694  -0.299  1.00  0.00     0.079 C 
HETATM   29  C15 UNL     1      -2.826   1.039   0.544  1.00  0.00     0.012 C 
ENDBRANCH  21  22
ENDBRANCH   6  21
TORSDOF 6
