REMARK  7 active torsions:
REMARK  status: ('A' for Active; 'I' for Inactive)
REMARK    1  A    between atoms: C2_2  and  N1_3 
REMARK    2  A    between atoms: C4_8  and  N3_9 
REMARK    3  A    between atoms: C7_16  and  C8_17 
REMARK    4  A    between atoms: C8_17  and  C9_18 
REMARK    5  A    between atoms: C9_18  and  N5_19 
REMARK    6  A    between atoms: N5_19  and  C10_20 
REMARK    7  A    between atoms: N5_19  and  C12_22 
ROOT
HETATM    1  N1  UNL     1       1.969   0.994  -0.708  1.00  0.00    -0.376 N 
ATOM      2  H1  UNL     1       1.031   1.263  -1.006  1.00  0.00     0.161 HD
HETATM    3  C3  UNL     1       2.116  -0.194  -0.283  1.00  0.00     0.125 A 
HETATM    4  N2  UNL     1       3.317  -0.686   0.145  1.00  0.00    -0.177 N 
ATOM      5  H2  UNL     1       4.139  -0.082   0.128  1.00  0.00     0.186 HD
HETATM    6  C4  UNL     1       3.438  -1.941   0.585  1.00  0.00     0.677 A 
HETATM    7  N4  UNL     1       2.410  -2.821   0.647  1.00  0.00    -0.196 N 
ATOM      8  H4  UNL     1       2.537  -3.774   0.989  1.00  0.00     0.184 HD
HETATM    9  C5  UNL     1       1.214  -2.371   0.234  1.00  0.00     0.032 A 
HETATM   10  C6  UNL     1       0.050  -3.292   0.274  1.00  0.00     0.069 C 
HETATM   11  C7  UNL     1       1.061  -1.079  -0.226  1.00  0.00     0.011 A 
ENDROOT
BRANCH  11  12
HETATM   12  C8  UNL     1      -0.273  -0.580  -0.692  1.00  0.00     0.064 C 
BRANCH  12  13
HETATM   13  C9  UNL     1      -0.938   0.334   0.299  1.00  0.00     0.132 C 
BRANCH  13  14
HETATM   14  N5  UNL     1      -2.182   0.778  -0.212  1.00  0.00    -0.374 N 
BRANCH  14  15
HETATM   15  C10 UNL     1      -3.231  -0.131  -0.334  1.00  0.00     0.058 C 
HETATM   16  C11 UNL     1      -3.792  -0.636   0.978  1.00  0.00     0.055 C 
ENDBRANCH  14  15
BRANCH  14  17
HETATM   17  C12 UNL     1      -2.340   2.144  -0.434  1.00  0.00     0.058 C 
HETATM   18  C13 UNL     1      -3.686   2.453  -1.041  1.00  0.00     0.055 C 
ENDBRANCH  14  17
ENDBRANCH  13  14
ENDBRANCH  12  13
ENDBRANCH  11  12
BRANCH   1  19
HETATM   19  C2  UNL     1       2.992   1.994  -0.810  1.00  0.00     0.116 C 
HETATM   20  C1  UNL     1       3.255   2.676   0.523  1.00  0.00     0.026 C 
ENDBRANCH   1  19
BRANCH   6  21
HETATM   21  N3  UNL     1       4.588  -2.371   0.981  1.00  0.00    -0.234 N 
ATOM     22  H32 UNL     1       5.362  -1.708   0.934  1.00  0.00     0.174 HD
ATOM     23  H31 UNL     1       4.680  -3.330   1.317  1.00  0.00     0.174 HD
ENDBRANCH   6  21
TORSDOF 7
