REMARK  8 active torsions:
REMARK  status: ('A' for Active; 'I' for Inactive)
REMARK    1  A    between atoms: C2_2  and  C3_3 
REMARK    2  A    between atoms: C3_3  and  C4_4 
REMARK    3  A    between atoms: C4_4  and  N1_5 
REMARK    4  A    between atoms: C6_10  and  N3_11 
REMARK    5  A    between atoms: C8_16  and  N5_17 
REMARK    6  A    between atoms: N5_17  and  C9_19 
REMARK    7  A    between atoms: C9_19  and  C10_20 
REMARK    8  A    between atoms: C10_20  and  C11_21 
ROOT
HETATM    1  N1  UNL     1       2.442  -0.108   0.968  1.00  0.00    -0.225 N 
ATOM      2  H1  UNL     1       3.257  -0.719   0.909  1.00  0.00     0.177 HD
HETATM    3  C5  UNL     1       1.267  -0.607   0.848  1.00  0.00     0.707 A 
HETATM    4  N2  UNL     1       1.109  -1.951   0.642  1.00  0.00    -0.022 N 
ATOM      5  H2  UNL     1       1.946  -2.531   0.588  1.00  0.00     0.203 HD
HETATM    6  C6  UNL     1      -0.081  -2.546   0.508  1.00  0.00     0.706 A 
HETATM    7  N4  UNL     1      -1.168  -1.755   0.584  1.00  0.00    -0.022 N 
ATOM      8  H4  UNL     1      -2.093  -2.174   0.486  1.00  0.00     0.203 HD
HETATM    9  C8  UNL     1      -1.071  -0.433   0.785  1.00  0.00     0.707 A 
HETATM   10  N6  UNL     1       0.162   0.138   0.917  1.00  0.00    -0.022 N 
ATOM     11  H6  UNL     1       0.239   1.144   1.070  1.00  0.00     0.203 HD
ENDROOT
BRANCH   1  12
HETATM   12  C4  UNL     1       2.625   1.295   1.184  1.00  0.00     0.138 C 
BRANCH  12  13
HETATM   13  C3  UNL     1       2.573   1.970  -0.194  1.00  0.00     0.020 C 
BRANCH  13  14
HETATM   14  C2  UNL     1       3.730   1.331  -0.976  1.00  0.00    -0.003 C 
HETATM   15  C1  UNL     1       4.989   1.647  -0.203  1.00  0.00     0.005 C 
ENDBRANCH  13  14
ENDBRANCH  12  13
ENDBRANCH   1  12
BRANCH   6  16
HETATM   16  N3  UNL     1      -0.263  -3.803   0.313  1.00  0.00    -0.229 N 
HETATM   17  C7  UNL     1       0.905  -4.693   0.225  1.00  0.00     0.165 C 
ATOM     18  H3  UNL     1      -1.206  -4.179   0.220  1.00  0.00     0.177 HD
ENDBRANCH   6  16
BRANCH   9  19
HETATM   19  N5  UNL     1      -2.079   0.357   0.864  1.00  0.00    -0.225 N 
ATOM     20  H5  UNL     1      -1.880   1.345   1.019  1.00  0.00     0.177 HD
BRANCH  19  21
HETATM   21  C9  UNL     1      -3.449  -0.016   0.756  1.00  0.00     0.138 C 
BRANCH  21  22
HETATM   22  C10 UNL     1      -3.829  -0.077  -0.705  1.00  0.00     0.020 C 
BRANCH  22  23
HETATM   23  C11 UNL     1      -3.641   1.253  -1.393  1.00  0.00    -0.003 C 
HETATM   24  C12 UNL     1      -4.550   2.245  -0.654  1.00  0.00     0.005 C 
ENDBRANCH  22  23
ENDBRANCH  21  22
ENDBRANCH  19  21
ENDBRANCH   9  19
TORSDOF 8
