REMARK  0 active torsions:
REMARK  status: ('A' for Active; 'I' for Inactive)
ROOT
HETATM    1  C1  UNL     1      -0.037   0.736  -0.117  1.00  0.00     0.020 C 
HETATM    2  C2  UNL     1      -1.043  -0.377  -0.092  1.00  0.00     0.074 C 
HETATM    3  S1  UNL     1      -0.039  -1.134   1.240  1.00  0.00    -0.169 SA
HETATM    4  C3  UNL     1       1.090  -0.237   0.117  1.00  0.00     0.074 C 
ENDROOT
TORSDOF 0
