REMARK  7 active torsions:
REMARK  status: ('A' for Active; 'I' for Inactive)
REMARK    1  A    between atoms: O1_2  and  C2_3 
REMARK    2  A    between atoms: C4_5  and  O2_6 
REMARK    3  A    between atoms: C6_8  and  C7_9 
REMARK    4  A    between atoms: N1_10  and  N2_12 
REMARK       I    between atoms: N2_12  and  C8_14 
REMARK    5  A    between atoms: C8_14  and  C9_16 
REMARK    6  A    between atoms: C11_18  and  S1_19 
REMARK    7  A    between atoms: S1_19  and  N3_20 
ROOT
HETATM    1  N2  UNL     1       0.048  -0.074   1.019  1.00  0.00    -0.266 N 
ATOM      2  H2  UNL     1       0.155  -0.404   1.978  1.00  0.00     0.190 HD
HETATM    3  C8  UNL     1      -1.221   0.402   0.656  1.00  0.00     0.273 C 
HETATM    4  O3  UNL     1      -1.362   0.808  -0.544  1.00  0.00    -0.266 OA
ENDROOT
BRANCH   3   5
HETATM    5  C9  UNL     1      -2.387   0.480   1.485  1.00  0.00     0.073 A 
HETATM    6  C10 UNL     1      -3.662   0.517   0.896  1.00  0.00     0.047 A 
HETATM    7  C11 UNL     1      -4.825   0.562   1.593  1.00  0.00     0.102 A 
HETATM    8  C12 UNL     1      -4.738   0.571   2.978  1.00  0.00     0.060 A 
HETATM    9 CL1  UNL     1      -6.243   0.627   3.876  1.00  0.00    -0.083 Cl
HETATM   10  C13 UNL     1      -3.513   0.535   3.595  1.00  0.00     0.068 A 
HETATM   11  C14 UNL     1      -2.334   0.490   2.852  1.00  0.00     0.133 A 
HETATM   12  F1  UNL     1      -1.179   0.481   3.574  1.00  0.00    -0.205 F 
BRANCH   7  13
HETATM   13  S1  UNL     1      -6.394   0.603   0.798  1.00  0.00     0.258 S 
HETATM   14  O4  UNL     1      -7.172   1.826   1.108  1.00  0.00    -0.201 OA
HETATM   15  O5  UNL     1      -6.143   0.458  -0.683  1.00  0.00    -0.201 OA
BRANCH  13  16
HETATM   16  N3  UNL     1      -7.268  -0.805   1.346  1.00  0.00    -0.324 N 
ATOM     17  H32 UNL     1      -6.922  -1.507   2.001  1.00  0.00     0.169 HD
ATOM     18  H31 UNL     1      -8.178  -0.781   0.885  1.00  0.00     0.169 HD
ENDBRANCH  13  16
ENDBRANCH   7  13
ENDBRANCH   3   5
BRANCH   1  19
HETATM   19  N1  UNL     1       1.167  -0.142   0.214  1.00  0.00    -0.308 N 
HETATM   20  C7  UNL     1       1.333  -0.120  -1.018  1.00  0.00     0.129 C 
ATOM     21  H1  UNL     1       2.038  -0.228   0.738  1.00  0.00     0.186 HD
BRANCH  20  22
HETATM   22  C6  UNL     1       2.707  -0.215  -1.577  1.00  0.00     0.057 A 
HETATM   23  C4  UNL     1       3.903  -0.339  -0.927  1.00  0.00     0.089 A 
HETATM   24  C3  UNL     1       5.009  -0.401  -1.693  1.00  0.00     0.082 A 
HETATM   25  C2  UNL     1       4.840  -0.335  -3.048  1.00  0.00     0.112 A 
HETATM   26  S2  UNL     1       3.145  -0.189  -3.213  1.00  0.00    -0.061 SA
BRANCH  23  27
HETATM   27  O2  UNL     1       3.925  -0.395   0.496  1.00  0.00    -0.354 OA
HETATM   28  C5  UNL     1       5.094  -0.521   1.241  1.00  0.00     0.210 C 
ENDBRANCH  23  27
BRANCH  25  29
HETATM   29  O1  UNL     1       5.838  -0.380  -4.044  1.00  0.00    -0.349 OA
HETATM   30  C1  UNL     1       5.393  -0.292  -5.396  1.00  0.00     0.211 C 
ENDBRANCH  25  29
ENDBRANCH  20  22
ENDBRANCH   1  19
TORSDOF 7
