REMARK  10 active torsions:
REMARK  status: ('A' for Active; 'I' for Inactive)
REMARK    1  A    between atoms: C2_2  and  C3_3 
REMARK    2  A    between atoms: C3_3  and  N1_4 
REMARK    3  A    between atoms: C4_5  and  C5_6 
REMARK    4  A    between atoms: C5_6  and  C6_7 
REMARK    5  A    between atoms: C10_20  and  S1_21 
REMARK    6  A    between atoms: S1_21  and  C11_22 
REMARK    7  A    between atoms: C11_22  and  C12_23 
REMARK    8  A    between atoms: C12_23  and  O3_25 
REMARK    9  A    between atoms: O3_25  and  C13_26 
REMARK   10  A    between atoms: C13_26  and  C14_28 
ROOT
HETATM    1  N1  UNL     1      -0.345  -1.078  -1.089  1.00  0.00    -0.308 N 
HETATM    2  C4  UNL     1      -1.461  -1.759  -1.199  1.00  0.00     0.126 A 
HETATM    3  N4  UNL     1      -1.017  -3.099  -1.280  1.00  0.00    -0.283 N 
ATOM      4  H4  UNL     1      -1.627  -3.911  -1.369  1.00  0.00     0.188 HD
HETATM    5  N5  UNL     1       0.260  -3.146  -1.225  1.00  0.00    -0.278 N 
ATOM      6  H5  UNL     1       0.814  -4.001  -1.265  1.00  0.00     0.189 HD
HETATM    7  C10 UNL     1       0.766  -1.910  -1.107  1.00  0.00     0.163 A 
ENDROOT
BRANCH   7   8
HETATM    8  S1  UNL     1       2.471  -1.438  -1.076  1.00  0.00    -0.082 SA
BRANCH   8   9
HETATM    9  C11 UNL     1       3.116  -1.422   0.578  1.00  0.00     0.194 C 
BRANCH   9  10
HETATM   10  C12 UNL     1       4.575  -1.074   0.614  1.00  0.00     0.276 C 
HETATM   11  O2  UNL     1       5.475  -1.911   0.786  1.00  0.00    -0.264 OA
BRANCH  10  12
HETATM   12  O3  UNL     1       4.867   0.289   0.439  1.00  0.00    -0.241 OA
BRANCH  12  13
HETATM   13  C13 UNL     1       6.149   0.777   0.461  1.00  0.00     0.321 C 
HETATM   14  O4  UNL     1       7.113  -0.013   0.648  1.00  0.00    -0.260 OA
BRANCH  13  15
HETATM   15  C14 UNL     1       6.473   2.215   0.269  1.00  0.00     0.277 C 
HETATM   16 CL1  UNL     1       8.143   2.597   0.790  1.00  0.00    -0.073 Cl
HETATM   17 CL2  UNL     1       6.352   2.505  -1.512  1.00  0.00    -0.073 Cl
HETATM   18 CL3  UNL     1       5.369   3.289   1.142  1.00  0.00    -0.073 Cl
ENDBRANCH  13  15
ENDBRANCH  12  13
ENDBRANCH  10  12
ENDBRANCH   9  10
ENDBRANCH   8   9
ENDBRANCH   7   8
BRANCH   1  19
HETATM   19  C3  UNL     1      -0.165   0.371  -0.912  1.00  0.00     0.159 C 
BRANCH  19  20
HETATM   20  C2  UNL     1      -0.107   0.745   0.524  1.00  0.00    -0.017 C 
HETATM   21  C1  UNL     1      -0.891   1.683   1.003  1.00  0.00     0.008 C 
ENDBRANCH  19  20
ENDBRANCH   1  19
BRANCH   2  22
HETATM   22  C5  UNL     1      -2.873  -1.468  -1.362  1.00  0.00     0.081 C 
BRANCH  22  23
HETATM   23  C6  UNL     1      -3.669  -0.810  -0.347  1.00  0.00     0.062 A 
HETATM   24  N2  UNL     1      -4.102  -1.354   0.824  1.00  0.00    -0.307 N 
HETATM   25  C7  UNL     1      -4.754  -0.440   1.561  1.00  0.00     0.325 A 
ATOM     26  H2  UNL     1      -3.952  -2.323   1.103  1.00  0.00     0.170 HD
HETATM   27  O1  UNL     1      -5.271  -0.618   2.690  1.00  0.00    -0.247 OA
HETATM   28  N3  UNL     1      -4.748   0.706   0.860  1.00  0.00    -0.311 N 
HETATM   29  C8  UNL     1      -4.100   0.495  -0.287  1.00  0.00     0.036 A 
ATOM     30  H3  UNL     1      -5.168   1.588   1.155  1.00  0.00     0.170 HD
HETATM   31  C9  UNL     1      -3.938   1.545  -1.348  1.00  0.00     0.070 C 
ENDBRANCH  22  23
ENDBRANCH   2  22
TORSDOF 10
