REMARK  7 active torsions:
REMARK  status: ('A' for Active; 'I' for Inactive)
REMARK    1  A    between atoms: C2_2  and  C3_3 
REMARK    2  A    between atoms: C3_3  and  C4_4 
REMARK    3  A    between atoms: C3_3  and  N3_23 
REMARK       I    between atoms: C4_4  and  N1_6 
REMARK    4  A    between atoms: N1_6  and  C5_8 
REMARK    5  A    between atoms: C8_12  and  C9_13 
REMARK    6  A    between atoms: C10_14  and  N2_15 
REMARK    7  A    between atoms: C11_18  and  O4_19 
ROOT
HETATM    1  C4  UNL     1      -1.560  -0.295  -0.271  1.00  0.00     0.245 C 
HETATM    2  O1  UNL     1      -1.354   0.923  -0.323  1.00  0.00    -0.271 OA
HETATM    3  N1  UNL     1      -0.455  -1.156  -0.438  1.00  0.00    -0.323 N 
ATOM      4  H1  UNL     1      -0.629  -2.160  -0.399  1.00  0.00     0.169 HD
ENDROOT
BRANCH   3   5
HETATM    5  C5  UNL     1       0.871  -0.731  -0.655  1.00  0.00     0.065 A 
HETATM    6  C6  UNL     1       1.332  -0.585  -1.936  1.00  0.00     0.062 A 
HETATM    7 CL1  UNL     1       0.338  -0.928  -3.360  1.00  0.00    -0.082 Cl
HETATM    8  C7  UNL     1       2.623  -0.161  -2.094  1.00  0.00     0.040 A 
HETATM    9  C8  UNL     1       3.498   0.131  -1.019  1.00  0.00     0.001 A 
HETATM   10  C11 UNL     1       3.027  -0.022   0.253  1.00  0.00     0.086 A 
HETATM   11  C13 UNL     1       1.702  -0.455   0.406  1.00  0.00     0.001 A 
HETATM   12  C14 UNL     1       1.214  -0.610   1.799  1.00  0.00     0.054 C 
BRANCH   9  13
HETATM   13  C9  UNL     1       4.819   0.567  -1.349  1.00  0.00     0.038 C 
HETATM   14  C10 UNL     1       5.734   1.071  -0.594  1.00  0.00     0.168 C 
BRANCH  14  15
HETATM   15  N2  UNL     1       7.037   1.448  -1.144  1.00  0.00    -0.127 N 
HETATM   16  O2  UNL     1       7.092   1.752  -2.341  1.00  0.00    -0.532 OA
HETATM   17  O3  UNL     1       8.151   1.463  -0.357  1.00  0.00    -0.532 OA
ENDBRANCH  14  15
ENDBRANCH   9  13
BRANCH  10  18
HETATM   18  O4  UNL     1       3.785   0.216   1.399  1.00  0.00    -0.354 OA
HETATM   19  C12 UNL     1       4.435  -0.955   1.958  1.00  0.00     0.210 C 
ENDBRANCH  10  18
ENDBRANCH   3   5
BRANCH   1  20
HETATM   20  C3  UNL     1      -2.904  -0.922  -0.044  1.00  0.00     0.186 C 
BRANCH  20  21
HETATM   21  C2  UNL     1      -3.369  -1.383  -1.384  1.00  0.00     0.031 C 
HETATM   22  C1  UNL     1      -3.515  -0.251  -2.385  1.00  0.00     0.007 C 
ENDBRANCH  20  21
BRANCH  20  23
HETATM   23  N3  UNL     1      -3.788  -0.094   0.687  1.00  0.00    -0.293 N 
HETATM   24  C15 UNL     1      -3.313   0.739   1.673  1.00  0.00     0.144 A 
HETATM   25  C16 UNL     1      -4.138   1.552   2.403  1.00  0.00     0.199 A 
HETATM   26  F1  UNL     1      -3.682   2.375   3.374  1.00  0.00    -0.199 F 
HETATM   27  C17 UNL     1      -5.491   1.540   2.145  1.00  0.00     0.289 A 
HETATM   28  O5  UNL     1      -6.301   2.274   2.790  1.00  0.00    -0.265 OA
HETATM   29  N4  UNL     1      -5.932   0.718   1.178  1.00  0.00    -0.273 N 
HETATM   30  C18 UNL     1      -5.104  -0.089   0.456  1.00  0.00     0.330 A 
ATOM     31  H4  UNL     1      -6.931   0.697   0.975  1.00  0.00     0.173 HD
HETATM   32  O6  UNL     1      -5.710  -0.783  -0.399  1.00  0.00    -0.246 OA
ENDBRANCH  20  23
ENDBRANCH   1  20
TORSDOF 7
