REMARK  2 active torsions:
REMARK  status: ('A' for Active; 'I' for Inactive)
REMARK    1  A    between atoms: C3_3  and  C4_4 
REMARK    2  A    between atoms: C7_9  and  O2_10 
ROOT
HETATM    1  C1  UNL     1       2.302   0.974  -2.301  1.00  0.00     0.017 C 
HETATM    2  C2  UNL     1       2.426   0.218  -1.232  1.00  0.00    -0.056 C 
HETATM    3  C3  UNL     1       3.289   0.632  -0.107  1.00  0.00     0.121 C 
HETATM    4  C6  UNL     1       2.958  -0.286   1.052  1.00  0.00     0.220 C 
HETATM    5  F1  UNL     1       3.568   0.145   2.212  1.00  0.00    -0.245 F 
HETATM    6  C7  UNL     1       1.462  -0.446   1.250  1.00  0.00     0.099 C 
HETATM    7  C8  UNL     1       0.889   0.896   1.505  1.00  0.00     0.042 C 
HETATM    8  C9  UNL     1      -0.649   0.910   1.448  1.00  0.00     0.009 C 
HETATM    9  C10 UNL     1      -0.998   0.489   0.065  1.00  0.00    -0.001 C 
HETATM   10  C11 UNL     1      -0.599  -0.946  -0.104  1.00  0.00     0.003 C 
HETATM   11  C12 UNL     1      -1.423  -1.800   0.817  1.00  0.00     0.006 C 
HETATM   12  C13 UNL     1      -2.844  -1.410   0.940  1.00  0.00     0.007 C 
HETATM   13  C14 UNL     1      -3.346  -0.408  -0.026  1.00  0.00     0.011 C 
HETATM   14  C15 UNL     1      -4.560   0.271   0.595  1.00  0.00     0.096 C 
HETATM   15 BR1  UNL     1      -6.184  -0.676   0.198  1.00  0.00    -0.088 Br
HETATM   16  C16 UNL     1      -4.522   1.639  -0.005  1.00  0.00     0.185 C 
HETATM   17  F2  UNL     1      -5.179   2.541   0.818  1.00  0.00    -0.248 F 
HETATM   18  C17 UNL     1      -3.028   1.972   0.095  1.00  0.00     0.048 C 
HETATM   19  C18 UNL     1      -2.403   0.696  -0.363  1.00  0.00    -0.033 C 
HETATM   20  C19 UNL     1      -2.373   0.790  -1.901  1.00  0.00     0.016 C 
HETATM   21  C20 UNL     1       0.865  -1.211   0.112  1.00  0.00     0.014 C 
HETATM   22  C21 UNL     1       0.985  -2.696   0.507  1.00  0.00     0.020 C 
HETATM   23  C22 UNL     1       1.702  -1.067  -1.142  1.00  0.00     0.122 C 
HETATM   24 CL1  UNL     1       0.782  -1.422  -2.617  1.00  0.00    -0.119 Cl
ENDROOT
BRANCH   3  25
HETATM   25  C4  UNL     1       4.737   0.468  -0.413  1.00  0.00     0.134 C 
HETATM   26  C5  UNL     1       5.358   1.195  -1.554  1.00  0.00     0.091 C 
HETATM   27  O1  UNL     1       5.458  -0.259   0.250  1.00  0.00    -0.298 OA
ENDBRANCH   3  25
BRANCH   6  28
HETATM   28  O2  UNL     1       1.339  -1.182   2.455  1.00  0.00    -0.386 OA
ATOM     29  H2  UNL     1       0.402  -1.282   2.579  1.00  0.00     0.210 HD
ENDBRANCH   6  28
TORSDOF 2
