REMARK  13 active torsions:
REMARK  status: ('A' for Active; 'I' for Inactive)
REMARK    1  A    between atoms: C2_3  and  S1_4 
REMARK    2  A    between atoms: S1_4  and  C3_5 
REMARK    3  A    between atoms: C3_5  and  C4_6 
REMARK    4  A    between atoms: C4_6  and  S2_7 
REMARK    5  A    between atoms: S2_7  and  S3_8 
REMARK    6  A    between atoms: S3_8  and  C5_9 
REMARK    7  A    between atoms: C5_9  and  C6_10 
REMARK    8  A    between atoms: C6_10  and  C7_11 
REMARK    9  A    between atoms: C7_11  and  N2_12 
REMARK       I    between atoms: N2_12  and  C8_14 
REMARK   10  A    between atoms: C8_14  and  C9_16 
REMARK   11  A    between atoms: C12_19  and  O2_20 
REMARK   12  A    between atoms: O2_20  and  C13_21 
REMARK   13  A    between atoms: C13_21  and  C14_22 
ROOT
HETATM    1  C7  UNL     1      -0.973  -1.496   3.837  1.00  0.00     0.123 C 
ENDROOT
BRANCH   1   2
HETATM    2  C6  UNL     1      -0.465  -0.275   4.493  1.00  0.00     0.031 C 
BRANCH   2   3
HETATM    3  C5  UNL     1       0.604   0.447   3.743  1.00  0.00     0.088 C 
BRANCH   3   4
HETATM    4  S3  UNL     1       2.091  -0.524   3.564  1.00  0.00    -0.098 SA
BRANCH   4   5
HETATM    5  S2  UNL     1       1.846  -2.121   2.218  1.00  0.00    -0.097 SA
BRANCH   5   6
HETATM    6  C4  UNL     1       2.297  -1.498   0.551  1.00  0.00     0.097 C 
BRANCH   6   7
HETATM    7  C3  UNL     1       3.779  -1.201   0.589  1.00  0.00     0.093 C 
BRANCH   7   8
HETATM    8  S1  UNL     1       4.386  -0.565  -0.981  1.00  0.00    -0.093 SA
BRANCH   8   9
HETATM    9  C2  UNL     1       6.144  -0.278  -0.828  1.00  0.00     0.147 A 
HETATM   10  N1  UNL     1       6.953   0.208  -1.801  1.00  0.00    -0.330 N 
HETATM   11  C1  UNL     1       6.476   0.572  -3.117  1.00  0.00     0.158 C 
HETATM   12  C27 UNL     1       8.204   0.274  -1.308  1.00  0.00     0.063 A 
HETATM   13  C22 UNL     1       8.201  -0.172  -0.011  1.00  0.00     0.061 A 
HETATM   14  C26 UNL     1       9.396   0.697  -1.888  1.00  0.00     0.032 A 
HETATM   15  N3  UNL     1       6.925  -0.503   0.254  1.00  0.00    -0.335 N 
HETATM   16  C23 UNL     1       9.371  -0.188   0.679  1.00  0.00     0.032 A 
ATOM     17  H3  UNL     1       6.593  -0.872   1.145  1.00  0.00     0.168 HD
HETATM   18  C24 UNL     1      10.582   0.221   0.148  1.00  0.00     0.002 A 
HETATM   19  C25 UNL     1      10.566   0.666  -1.157  1.00  0.00     0.002 A 
ENDBRANCH   8   9
ENDBRANCH   7   8
ENDBRANCH   6   7
ENDBRANCH   5   6
ENDBRANCH   4   5
ENDBRANCH   3   4
ENDBRANCH   2   3
ENDBRANCH   1   2
BRANCH   1  20
HETATM   20  N2  UNL     1      -1.560  -1.218   2.532  1.00  0.00    -0.357 N 
HETATM   21  C8  UNL     1      -2.667  -0.353   2.368  1.00  0.00     0.251 C 
HETATM   22  O1  UNL     1      -3.186   0.213   3.384  1.00  0.00    -0.268 OA
ATOM     23  H2  UNL     1      -1.158  -1.663   1.707  1.00  0.00     0.162 HD
BRANCH  21  24
HETATM   24  C9  UNL     1      -3.214  -0.109   1.039  1.00  0.00     0.032 A 
HETATM   25  C10 UNL     1      -2.653  -0.546  -0.134  1.00  0.00     0.020 A 
HETATM   26  C11 UNL     1      -3.246  -0.275  -1.349  1.00  0.00     0.038 A 
HETATM   27  C12 UNL     1      -4.425   0.446  -1.452  1.00  0.00     0.069 A 
HETATM   28  C20 UNL     1      -4.993   0.888  -0.286  1.00  0.00     0.038 A 
HETATM   29  C21 UNL     1      -4.405   0.618   0.927  1.00  0.00     0.020 A 
BRANCH  27  30
HETATM   30  O2  UNL     1      -4.973   0.687  -2.721  1.00  0.00    -0.347 OA
BRANCH  30  31
HETATM   31  C13 UNL     1      -6.145   1.374  -2.982  1.00  0.00     0.214 C 
BRANCH  31  32
HETATM   32  C14 UNL     1      -7.375   0.782  -2.415  1.00  0.00    -0.034 A 
HETATM   33  C15 UNL     1      -8.465   1.622  -2.246  1.00  0.00     0.009 A 
HETATM   34  C16 UNL     1      -9.636   1.111  -1.733  1.00  0.00     0.001 A 
HETATM   35  C17 UNL     1      -9.753  -0.197  -1.387  1.00  0.00     0.000 A 
HETATM   36  C18 UNL     1      -8.690  -1.033  -1.548  1.00  0.00     0.001 A 
HETATM   37  C19 UNL     1      -7.507  -0.544  -2.060  1.00  0.00     0.009 A 
ENDBRANCH  31  32
ENDBRANCH  30  31
ENDBRANCH  27  30
ENDBRANCH  21  24
ENDBRANCH   1  20
TORSDOF 13
