REMARK  6 active torsions:
REMARK  status: ('A' for Active; 'I' for Inactive)
REMARK    1  A    between atoms: O1_2  and  C2_3 
REMARK    2  A    between atoms: N1_5  and  O2_7 
REMARK    3  A    between atoms: O2_7  and  C4_8 
REMARK    4  A    between atoms: C7_13  and  O4_14 
REMARK    5  A    between atoms: C8_16  and  O5_17 
REMARK    6  A    between atoms: C9_19  and  O6_20 
ROOT
HETATM    1  C4  UNL     1      -0.071   0.339   0.079  1.00  0.00     0.322 C 
HETATM    2  O3  UNL     1      -0.758  -0.819   0.081  1.00  0.00    -0.331 OA
HETATM    3  C5  UNL     1      -2.090  -0.835   0.148  1.00  0.00     0.146 C 
HETATM    4  C6  UNL     1      -2.616  -1.208   1.533  1.00  0.00     0.062 C 
HETATM    5  S1  UNL     1      -2.684  -2.174  -0.964  1.00  0.00    -0.053 SA
HETATM    6  C7  UNL     1      -2.810   0.409  -0.276  1.00  0.00     0.195 C 
HETATM    7  C8  UNL     1      -1.946   1.059  -1.361  1.00  0.00     0.184 C 
HETATM    8  C9  UNL     1      -0.692   1.494  -0.629  1.00  0.00     0.207 C 
ENDROOT
BRANCH   1   9
HETATM    9  O2  UNL     1       1.232   0.045  -0.433  1.00  0.00    -0.243 OA
BRANCH   9  10
HETATM   10  N1  UNL     1       2.370   0.154   0.276  1.00  0.00    -0.246 N 
HETATM   11  C2  UNL     1       3.352  -0.669   0.274  1.00  0.00     0.133 C 
HETATM   12  C3  UNL     1       3.341  -1.899  -0.555  1.00  0.00     0.099 C 
ATOM     13  H1  UNL     1       2.460   0.974   0.875  1.00  0.00     0.196 HD
BRANCH  11  14
HETATM   14  O1  UNL     1       4.444  -0.378   1.079  1.00  0.00    -0.343 OA
HETATM   15  C1  UNL     1       4.716   0.973   1.485  1.00  0.00     0.211 C 
ENDBRANCH  11  14
ENDBRANCH   9  10
ENDBRANCH   1   9
BRANCH   8  16
HETATM   16  O6  UNL     1       0.145   2.089  -1.565  1.00  0.00    -0.388 OA
ATOM     17  H6  UNL     1      -0.251   2.825  -2.016  1.00  0.00     0.210 HD
ENDBRANCH   8  16
BRANCH   7  18
HETATM   18  O5  UNL     1      -2.592   2.114  -1.967  1.00  0.00    -0.390 OA
ATOM     19  H5  UNL     1      -2.056   2.517  -2.640  1.00  0.00     0.210 HD
ENDBRANCH   7  18
BRANCH   6  20
HETATM   20  O4  UNL     1      -4.051   0.054  -0.764  1.00  0.00    -0.389 OA
ATOM     21  H4  UNL     1      -4.507   0.843  -1.033  1.00  0.00     0.210 HD
ENDBRANCH   6  20
TORSDOF 6
