REMARK  5 active torsions:
REMARK  status: ('A' for Active; 'I' for Inactive)
REMARK    1  A    between atoms: C3_4  and  O2_6 
REMARK    2  A    between atoms: C5_8  and  O3_9 
REMARK    3  A    between atoms: O3_9  and  C6_10 
REMARK    4  A    between atoms: C8_15  and  O4_16 
REMARK    5  A    between atoms: C9_18  and  O5_19 
ROOT
HETATM    1  C1  UNL     1       3.952   0.070   1.116  1.00  0.00     0.042 C 
HETATM    2  C2  UNL     1       2.515   0.120   0.699  1.00  0.00     0.152 C 
HETATM    3  O1  UNL     1       2.160  -1.062   0.081  1.00  0.00    -0.345 OA
HETATM    4  C3  UNL     1       0.829  -1.159  -0.238  1.00  0.00     0.187 C 
HETATM    5  C4  UNL     1       0.653  -1.743  -1.622  1.00  0.00     0.082 C 
HETATM    6  C5  UNL     1       0.060   0.122  -0.056  1.00  0.00     0.217 C 
HETATM    7  C8  UNL     1       0.799   1.337  -0.524  1.00  0.00     0.183 C 
HETATM    8  C9  UNL     1       2.283   1.234  -0.328  1.00  0.00     0.178 C 
ENDROOT
BRANCH   6   9
HETATM    9  O3  UNL     1      -1.135  -0.005  -0.757  1.00  0.00    -0.346 OA
BRANCH   9  10
HETATM   10  C6  UNL     1      -2.245   0.007   0.039  1.00  0.00     0.295 C 
HETATM   11  N1  UNL     1      -3.276   0.896  -0.468  1.00  0.00    -0.105 NA
HETATM   12  N2  UNL     1      -4.494   0.485   0.083  1.00  0.00    -0.135 NA
HETATM   13  C7  UNL     1      -4.783  -0.839  -0.442  1.00  0.00     0.208 C 
HETATM   14  S1  UNL     1      -3.115  -1.596  -0.233  1.00  0.00    -0.102 SA
ENDBRANCH   9  10
ENDBRANCH   6   9
BRANCH   4  15
HETATM   15  O2  UNL     1       0.254  -2.094   0.654  1.00  0.00    -0.363 OA
ATOM     16  H2  UNL     1      -0.668  -2.161   0.433  1.00  0.00     0.213 HD
ENDBRANCH   4  15
BRANCH   7  17
HETATM   17  O4  UNL     1       0.440   1.615  -1.840  1.00  0.00    -0.390 OA
ATOM     18  H4  UNL     1       0.909   2.386  -2.137  1.00  0.00     0.210 HD
ENDBRANCH   7  17
BRANCH   8  19
HETATM   19  O5  UNL     1       2.846   2.382   0.192  1.00  0.00    -0.390 OA
ATOM     20  H5  UNL     1       2.702   3.072  -0.445  1.00  0.00     0.210 HD
ENDBRANCH   8  19
TORSDOF 5
