REMARK  17 active torsions:
REMARK  status: ('A' for Active; 'I' for Inactive)
REMARK    1  A    between atoms: C2_5  and  C3_6 
REMARK    2  A    between atoms: C2_5  and  N6_14 
REMARK    3  A    between atoms: C3_6  and  C4_7 
REMARK    4  A    between atoms: C4_7  and  C5_8 
REMARK    5  A    between atoms: C5_8  and  N3_9 
REMARK    6  A    between atoms: N6_14  and  C7_16 
REMARK    7  A    between atoms: C7_16  and  C8_17 
REMARK    8  A    between atoms: C8_17  and  C9_18 
REMARK    9  A    between atoms: C9_18  and  N7_19 
REMARK   10  A    between atoms: N7_19  and  C10_21 
REMARK   11  A    between atoms: C10_21  and  C11_22 
REMARK   12  A    between atoms: C11_22  and  N8_23 
REMARK   13  A    between atoms: N8_23  and  C12_26 
REMARK   14  A    between atoms: C12_26  and  C13_27 
REMARK   15  A    between atoms: C13_27  and  O1_28 
REMARK   16  A    between atoms: O1_28  and  C14_29 
REMARK   17  A    between atoms: C14_29  and  C15_30 
ROOT
HETATM    1  N1  UNL     1      -4.932  -0.726  -3.034  1.00  0.00    -0.172 NA
HETATM    2  C1  UNL     1      -4.217  -0.466  -2.136  1.00  0.00     0.183 C 
HETATM    3  N2  UNL     1      -3.381  -0.137  -1.051  1.00  0.00    -0.283 N 
ATOM      4  H2  UNL     1      -2.432   0.192  -1.231  1.00  0.00     0.179 HD
HETATM    5  C2  UNL     1      -3.777  -0.240   0.116  1.00  0.00     0.089 C 
ENDROOT
BRANCH   5   6
HETATM    6  C3  UNL     1      -5.155  -0.715   0.489  1.00  0.00     0.082 C 
BRANCH   6   7
HETATM    7  C4  UNL     1      -6.045   0.473   0.827  1.00  0.00     0.052 C 
BRANCH   7   8
HETATM    8  C5  UNL     1      -7.399   0.020   1.340  1.00  0.00     0.063 C 
BRANCH   8   9
HETATM    9  N3  UNL     1      -8.127  -0.813   0.521  1.00  0.00    -0.347 N 
HETATM   10  C6  UNL     1      -9.145  -0.922  -0.144  1.00  0.00     0.200 C 
HETATM   11  N4  UNL     1     -10.151   0.087  -0.297  1.00  0.00    -0.067 NA
HETATM   12  N5  UNL     1      -9.402  -2.190  -0.812  1.00  0.00    -0.067 NA
ATOM     13  H3  UNL     1      -7.610  -1.688   0.436  1.00  0.00     0.167 HD
ENDBRANCH   8   9
ENDBRANCH   7   8
ENDBRANCH   6   7
ENDBRANCH   5   6
BRANCH   5  14
HETATM   14  N6  UNL     1      -2.935   0.134   1.228  1.00  0.00    -0.359 N 
ATOM     15  H6  UNL     1      -2.816  -0.555   1.970  1.00  0.00     0.166 HD
BRANCH  14  16
HETATM   16  C7  UNL     1      -2.267   1.355   1.382  1.00  0.00     0.064 C 
BRANCH  16  17
HETATM   17  C8  UNL     1      -1.052   1.725   0.673  1.00  0.00     0.063 C 
BRANCH  17  18
HETATM   18  C9  UNL     1       0.204   0.913   1.032  1.00  0.00     0.119 C 
BRANCH  18  19
HETATM   19  N7  UNL     1       1.318   1.495   0.341  1.00  0.00    -0.419 N 
ATOM     20  H7  UNL     1       1.953   2.102   0.859  1.00  0.00     0.153 HD
BRANCH  19  21
HETATM   21  C10 UNL     1       1.567   1.265  -1.005  1.00  0.00     0.141 C 
BRANCH  21  22
HETATM   22  C11 UNL     1       2.374  -0.031  -1.248  1.00  0.00     0.251 C 
BRANCH  22  23
HETATM   23  N8  UNL     1       3.624   0.136  -0.473  1.00  0.00    -0.072 N 
ATOM     24  H82 UNL     1       3.437   0.289   0.518  1.00  0.00     0.277 HD
ATOM     25  H81 UNL     1       4.142  -0.740  -0.398  1.00  0.00     0.277 HD
BRANCH  23  26
HETATM   26  C12 UNL     1       4.430   1.183  -1.029  1.00  0.00     0.258 C 
BRANCH  26  27
HETATM   27  C13 UNL     1       5.315   1.738   0.087  1.00  0.00     0.195 C 
BRANCH  27  28
HETATM   28  O1  UNL     1       6.161   1.103   0.713  1.00  0.00    -0.385 OA
BRANCH  28  29
HETATM   29  C14 UNL     1       6.851   0.306   1.370  1.00  0.00     0.206 C 
BRANCH  29  30
HETATM   30  C15 UNL     1       7.344  -0.908   0.627  1.00  0.00    -0.035 A 
HETATM   31  C16 UNL     1       8.175  -0.618  -0.452  1.00  0.00     0.009 A 
HETATM   32  C17 UNL     1       8.736  -1.655  -1.147  1.00  0.00     0.001 A 
HETATM   33  C18 UNL     1       8.473  -2.947  -0.773  1.00  0.00     0.000 A 
HETATM   34  C19 UNL     1       7.649  -3.213   0.291  1.00  0.00     0.001 A 
HETATM   35  C20 UNL     1       7.057  -2.185   1.023  1.00  0.00     0.009 A 
ENDBRANCH  29  30
ENDBRANCH  28  29
ENDBRANCH  27  28
ENDBRANCH  26  27
ENDBRANCH  23  26
ENDBRANCH  22  23
ENDBRANCH  21  22
ENDBRANCH  19  21
ENDBRANCH  18  19
ENDBRANCH  17  18
ENDBRANCH  16  17
ENDBRANCH  14  16
ENDBRANCH   5  14
TORSDOF 17
