REMARK  5 active torsions:
REMARK  status: ('A' for Active; 'I' for Inactive)
REMARK    1  A    between atoms: S1_3  and  C2_6 
REMARK    2  A    between atoms: C3_7  and  O3_8 
REMARK    3  A    between atoms: C6_14  and  O4_15 
REMARK    4  A    between atoms: C7_17  and  C8_18 
REMARK    5  A    between atoms: C8_18  and  O5_20 
ROOT
HETATM    1  N1  UNL     1       4.063   1.921  -0.705  1.00  0.00    -0.179 NA
HETATM    2  C1  UNL     1       3.242   1.225  -1.126  1.00  0.00     0.199 C 
HETATM    3  S1  UNL     1       2.009   0.181  -1.725  1.00  0.00     0.273 S 
HETATM    4  O1  UNL     1       2.561  -1.089  -2.190  1.00  0.00    -0.207 OA
HETATM    5  O2  UNL     1       1.456   0.840  -3.039  1.00  0.00    -0.207 OA
ENDROOT
BRANCH   3   6
HETATM    6  C2  UNL     1       0.634   0.065  -0.676  1.00  0.00     0.125 A 
HETATM    7  C3  UNL     1      -0.471   0.896  -0.954  1.00  0.00     0.115 A 
HETATM    8  C4  UNL     1      -1.612   0.881  -0.193  1.00  0.00     0.108 A 
HETATM    9  N2  UNL     1      -2.705   1.730  -0.500  1.00  0.00    -0.097 NA
HETATM   10  C5  UNL     1      -1.729   0.043   0.891  1.00  0.00     0.107 A 
HETATM   11  N3  UNL     1      -2.891   0.007   1.691  1.00  0.00    -0.097 NA
HETATM   12  C6  UNL     1      -0.672  -0.767   1.178  1.00  0.00     0.107 A 
HETATM   13  C7  UNL     1       0.512  -0.769   0.410  1.00  0.00     0.072 A 
BRANCH   7  14
HETATM   14  O3  UNL     1      -0.367   1.749  -2.046  1.00  0.00    -0.357 OA
ATOM     15  H3  UNL     1      -1.111   2.309  -2.233  1.00  0.00     0.217 HD
ENDBRANCH   7  14
BRANCH  12  16
HETATM   16  O4  UNL     1      -0.790  -1.618   2.277  1.00  0.00    -0.358 OA
ATOM     17  H4  UNL     1      -0.053  -2.183   2.477  1.00  0.00     0.217 HD
ENDBRANCH  12  16
BRANCH  13  18
HETATM   18  C8  UNL     1       1.559  -1.646   0.847  1.00  0.00     0.164 C 
HETATM   19  N4  UNL     1       2.845  -1.914   0.378  1.00  0.00    -0.074 NA
BRANCH  18  20
HETATM   20  O5  UNL     1       1.263  -2.354   1.915  1.00  0.00    -0.348 OA
ATOM     21  H5  UNL     1       1.957  -2.935   2.205  1.00  0.00     0.219 HD
ENDBRANCH  18  20
ENDBRANCH  13  18
ENDBRANCH   3   6
TORSDOF 5
