REMARK  4 active torsions:
REMARK  status: ('A' for Active; 'I' for Inactive)
REMARK    1  A    between atoms: N1_1  and  N2_4 
REMARK    2  A    between atoms: C1_6  and  N3_7 
REMARK    3  A    between atoms: N3_7  and  O1_9 
REMARK    4  A    between atoms: O1_9  and  C2_10 
ROOT
HETATM    1  N3  UNL     1       1.762  -1.121  -0.158  1.00  0.00    -0.261 N 
ATOM      2  H3  UNL     1       2.177  -2.053  -0.164  1.00  0.00     0.195 HD
ENDROOT
BRANCH   1   3
HETATM    3  C1  UNL     1       2.582   0.017  -0.020  1.00  0.00     0.220 C 
HETATM    4  N2  UNL     1       3.783  -0.003  -0.452  1.00  0.00    -0.301 N 
ATOM      5  H2  UNL     1       4.155  -0.841  -0.898  1.00  0.00     0.187 HD
BRANCH   4   6
HETATM    6  N1  UNL     1       4.582   1.129  -0.309  1.00  0.00    -0.344 N 
ATOM      7  H12 UNL     1       4.195   1.959   0.140  1.00  0.00     0.176 HD
ATOM      8  H11 UNL     1       5.542   1.113  -0.654  1.00  0.00     0.176 HD
ENDBRANCH   4   6
ENDBRANCH   1   3
BRANCH   1   9
HETATM    9  O1  UNL     1       0.423  -0.975  -0.282  1.00  0.00    -0.274 OA
BRANCH   9  10
HETATM   10  C2  UNL     1      -0.130  -0.237   0.756  1.00  0.00     0.152 C 
HETATM   11  C3  UNL     1      -0.735   1.005   0.161  1.00  0.00     0.034 C 
HETATM   12  C4  UNL     1      -1.909   0.731  -0.737  1.00  0.00     0.002 C 
HETATM   13  C5  UNL     1      -2.636  -0.546  -0.294  1.00  0.00     0.000 C 
HETATM   14  C6  UNL     1      -2.512  -0.550   1.226  1.00  0.00     0.002 C 
HETATM   15  C7  UNL     1      -1.121  -1.087   1.504  1.00  0.00     0.034 C 
ENDBRANCH   9  10
ENDBRANCH   1   9
TORSDOF 4
