REMARK  8 active torsions:
REMARK  status: ('A' for Active; 'I' for Inactive)
REMARK    1  A    between atoms: C2_2  and  C3_3 
REMARK    2  A    between atoms: C3_3  and  O1_4 
REMARK    3  A    between atoms: C3_3  and  C4_6 
REMARK    4  A    between atoms: C5_7  and  C6_8 
REMARK    5  A    between atoms: C7_9  and  C8_10 
REMARK    6  A    between atoms: C13_16  and  O2_17 
REMARK    7  A    between atoms: O2_17  and  C14_18 
REMARK    8  A    between atoms: C16_21  and  O4_22 
ROOT
HETATM    1  C8  UNL     1       0.791   1.714  -1.125  1.00  0.00     0.027 C 
HETATM    2  C9  UNL     1       0.390   3.169  -0.995  1.00  0.00     0.066 C 
HETATM    3 BR1  UNL     1       1.850   4.321  -0.583  1.00  0.00    -0.090 Br
HETATM    4  C10 UNL     1      -0.654   3.103   0.089  1.00  0.00     0.021 C 
HETATM    5  C11 UNL     1      -1.464   1.890  -0.317  1.00  0.00    -0.006 C 
HETATM    6  C12 UNL     1      -1.977   1.179   0.888  1.00  0.00     0.040 C 
HETATM    7  C13 UNL     1      -2.401  -0.231   0.662  1.00  0.00     0.161 C 
HETATM    8  C16 UNL     1      -2.050  -0.756  -0.717  1.00  0.00     0.150 C 
HETATM    9  C18 UNL     1      -0.585  -0.380  -0.920  1.00  0.00     0.040 C 
HETATM   10  C19 UNL     1      -0.588   1.092  -1.208  1.00  0.00     0.001 C 
ENDROOT
BRANCH   1  11
HETATM   11  C7  UNL     1       1.508   1.197   0.064  1.00  0.00    -0.021 C 
HETATM   12  C6  UNL     1       2.627   0.549   0.043  1.00  0.00    -0.004 C 
BRANCH  12  13
HETATM   13  C5  UNL     1       3.369   0.218  -1.154  1.00  0.00    -0.001 C 
HETATM   14  C4  UNL     1       4.516  -0.450  -1.122  1.00  0.00     0.008 C 
BRANCH  14  15
HETATM   15  C3  UNL     1       5.056  -0.873   0.190  1.00  0.00     0.163 C 
BRANCH  15  16
HETATM   16  C2  UNL     1       4.351  -2.084   0.689  1.00  0.00    -0.002 C 
HETATM   17  C1  UNL     1       5.021  -3.098   1.238  1.00  0.00     0.010 C 
ENDBRANCH  15  16
BRANCH  15  18
HETATM   18  O1  UNL     1       6.420  -1.221   0.060  1.00  0.00    -0.388 OA
ATOM     19  H1  UNL     1       6.870  -0.448  -0.259  1.00  0.00     0.210 HD
ENDBRANCH  15  18
ENDBRANCH  14  15
ENDBRANCH  12  13
ENDBRANCH   1  11
BRANCH   8  20
HETATM   20  O4  UNL     1      -2.766  -0.090  -1.701  1.00  0.00    -0.388 OA
HETATM   21  C17 UNL     1      -3.517  -0.944  -2.496  1.00  0.00     0.202 C 
ENDBRANCH   8  20
BRANCH   7  22
HETATM   22  O2  UNL     1      -3.755  -0.470   0.970  1.00  0.00    -0.314 OA
BRANCH  22  23
HETATM   23  C14 UNL     1      -4.172  -1.333   1.973  1.00  0.00     0.255 C 
HETATM   24  C15 UNL     1      -5.612  -1.548   2.256  1.00  0.00     0.126 C 
HETATM   25  O3  UNL     1      -3.316  -1.949   2.659  1.00  0.00    -0.266 OA
ENDBRANCH  22  23
ENDBRANCH   7  22
TORSDOF 8
