REMARK  12 active torsions:
REMARK  status: ('A' for Active; 'I' for Inactive)
REMARK    1  A    between atoms: C2_2  and  C3_3 
REMARK    2  A    between atoms: C3_3  and  C4_4 
REMARK    3  A    between atoms: C4_4  and  C5_5 
REMARK    4  A    between atoms: C5_5  and  N1_6 
REMARK    5  A    between atoms: C5_5  and  C8_15 
REMARK    6  A    between atoms: N1_6  and  S1_8 
REMARK    7  A    between atoms: S1_8  and  C6_11 
REMARK    8  A    between atoms: C6_11  and  C7_12 
REMARK    9  A    between atoms: C8_15  and  N3_16 
REMARK   10  A    between atoms: C8_15  and  C10_21 
REMARK       I    between atoms: C10_21  and  N6_23 
REMARK       I    between atoms: N6_23  and  C11_24 
REMARK       I    between atoms: C11_24  and  N7_25 
REMARK       I    between atoms: C11_24  and  N10_41 
REMARK       I    between atoms: C12_27  and  N9_29 
REMARK   11  A    between atoms: N9_29  and  C14_31 
REMARK   12  A    between atoms: N10_41  and  N11_43 
ROOT
HETATM    1  C10 UNL     1       1.879  -0.630   0.714  1.00  0.00     0.319 C 
HETATM    2  O4  UNL     1       2.311  -1.634   1.313  1.00  0.00    -0.255 OA
HETATM    3  N6  UNL     1       0.602  -0.670   0.232  1.00  0.00    -0.332 NA
HETATM    4  C11 UNL     1      -0.411  -1.060  -0.208  1.00  0.00     0.285 C 
HETATM    5  N7  UNL     1      -1.491  -0.112  -0.461  1.00  0.00    -0.289 N 
ATOM      6  H7  UNL     1      -1.627   0.240  -1.409  1.00  0.00     0.172 HD
HETATM    7  C12 UNL     1      -2.270   0.291   0.465  1.00  0.00     0.194 C 
HETATM    8  N8  UNL     1      -2.053  -0.223   1.781  1.00  0.00    -0.063 NA
HETATM    9  N9  UNL     1      -3.288   1.242   0.164  1.00  0.00    -0.350 N 
HETATM   10  C13 UNL     1      -2.769   2.571  -0.204  1.00  0.00     0.153 C 
HETATM   11  N10 UNL     1      -0.732  -2.405  -0.525  1.00  0.00    -0.175 N 
ATOM     12  H10 UNL     1      -1.028  -2.994   0.253  1.00  0.00     0.198 HD
ENDROOT
BRANCH   1  13
HETATM   13  C8  UNL     1       2.663   0.573   0.516  1.00  0.00     0.214 C 
BRANCH  13  14
HETATM   14  C5  UNL     1       4.194   0.529   0.576  1.00  0.00     0.126 C 
BRANCH  14  15
HETATM   15  C4  UNL     1       4.633  -0.105   1.844  1.00  0.00     0.028 C 
BRANCH  15  16
HETATM   16  C3  UNL     1       6.103  -0.090   2.093  1.00  0.00     0.002 C 
BRANCH  16  17
HETATM   17  C2  UNL     1       6.461  -0.787   3.404  1.00  0.00    -0.004 C 
HETATM   18  C1  UNL     1       6.041  -2.221   3.415  1.00  0.00     0.005 C 
ENDBRANCH  16  17
ENDBRANCH  15  16
ENDBRANCH  14  15
BRANCH  14  19
HETATM   19  N1  UNL     1       4.614   1.911   0.493  1.00  0.00    -0.312 N 
ATOM     20  H1  UNL     1       4.439   2.532   1.283  1.00  0.00     0.172 HD
BRANCH  19  21
HETATM   21  S1  UNL     1       5.371   2.509  -0.852  1.00  0.00     0.235 S 
HETATM   22  O1  UNL     1       4.590   3.596  -1.573  1.00  0.00    -0.205 OA
HETATM   23  O2  UNL     1       5.614   1.382  -1.902  1.00  0.00    -0.205 OA
BRANCH  21  24
HETATM   24  C6  UNL     1       6.978   3.172  -0.571  1.00  0.00     0.262 C 
BRANCH  24  25
HETATM   25  C7  UNL     1       8.031   2.267  -0.152  1.00  0.00     0.246 C 
HETATM   26  N2  UNL     1       8.136   0.990  -0.807  1.00  0.00    -0.061 NA
HETATM   27  O3  UNL     1       8.859   2.559   0.763  1.00  0.00    -0.276 OA
ENDBRANCH  24  25
ENDBRANCH  21  24
ENDBRANCH  19  21
ENDBRANCH  14  19
ENDBRANCH  13  14
BRANCH  13  28
HETATM   28  N3  UNL     1       2.251   1.210  -0.700  1.00  0.00    -0.351 N 
HETATM   29  C9  UNL     1       2.192   0.789  -1.874  1.00  0.00     0.197 C 
HETATM   30  N4  UNL     1       1.715   1.733  -2.867  1.00  0.00    -0.067 NA
HETATM   31  N5  UNL     1       2.548  -0.478  -2.373  1.00  0.00    -0.067 NA
ATOM     32  H3  UNL     1       1.953   2.179  -0.586  1.00  0.00     0.162 HD
ENDBRANCH  13  28
ENDBRANCH   1  13
BRANCH  11  33
HETATM   33  N11 UNL     1      -0.690  -3.005  -1.759  1.00  0.00     0.004 N 
HETATM   34  C24 UNL     1      -0.870  -2.118  -2.865  1.00  0.00     0.301 C 
HETATM   35  C25 UNL     1      -1.749  -4.028  -1.892  1.00  0.00     0.301 C 
HETATM   36  C26 UNL     1       0.575  -3.682  -1.892  1.00  0.00     0.301 C 
ENDBRANCH  11  33
BRANCH   9  37
HETATM   37  C14 UNL     1      -4.687   1.035   0.170  1.00  0.00     0.038 C 
HETATM   38  C15 UNL     1      -5.418   2.376  -0.007  1.00  0.00     0.032 C 
HETATM   39  C16 UNL     1      -6.670   2.286   0.853  1.00  0.00     0.011 C 
HETATM   40  C17 UNL     1      -6.734   0.830   1.252  1.00  0.00    -0.042 C 
HETATM   41  C18 UNL     1      -7.467   0.651   2.537  1.00  0.00     0.015 C 
HETATM   42  C19 UNL     1      -7.390   0.070   0.127  1.00  0.00     0.010 C 
HETATM   43  C23 UNL     1      -5.268   0.489   1.422  1.00  0.00     0.040 C 
HETATM   44  C20 UNL     1      -6.635   0.168  -1.161  1.00  0.00     0.007 C 
HETATM   45  C21 UNL     1      -5.145   0.192  -0.998  1.00  0.00     0.010 C 
HETATM   46  C22 UNL     1      -4.588  -1.206  -0.904  1.00  0.00     0.012 C 
ENDBRANCH   9  37
TORSDOF 12
