REMARK  6 active torsions:
REMARK  status: ('A' for Active; 'I' for Inactive)
REMARK    1  A    between atoms: C2_2  and  S1_3 
REMARK    2  A    between atoms: S1_3  and  C3_4 
REMARK    3  A    between atoms: C3_4  and  C4_5 
REMARK    4  A    between atoms: C7_8  and  C8_9 
REMARK    5  A    between atoms: C8_9  and  C9_10 
REMARK    6  A    between atoms: C9_10  and  N1_11 
ROOT
HETATM    1  C4  UNL     1      -0.896  -0.722   0.876  1.00  0.00     0.019 C 
HETATM    2  C5  UNL     1      -0.885   0.538   0.138  1.00  0.00     0.010 C 
HETATM    3  C6  UNL     1       0.490   1.110  -0.143  1.00  0.00     0.032 C 
HETATM    4  C7  UNL     1       1.592   0.106  -0.064  1.00  0.00     0.122 C 
HETATM    5  O1  UNL     1       1.496  -0.450   1.216  1.00  0.00    -0.385 OA
HETATM    6  C10 UNL     1       0.457  -1.366   1.119  1.00  0.00     0.173 C 
ENDROOT
BRANCH   4   7
HETATM    7  C8  UNL     1       2.895   0.804  -0.302  1.00  0.00     0.059 C 
BRANCH   7   8
HETATM    8  C9  UNL     1       4.083  -0.138  -0.241  1.00  0.00     0.232 C 
BRANCH   8   9
HETATM    9  N1  UNL     1       5.262   0.656  -0.486  1.00  0.00    -0.079 N 
ATOM     10  H13 UNL     1       5.215   1.186  -1.356  1.00  0.00     0.274 HD
ATOM     11  H12 UNL     1       5.348   1.452   0.146  1.00  0.00     0.274 HD
ATOM     12  H11 UNL     1       6.061   0.023  -0.445  1.00  0.00     0.274 HD
ENDBRANCH   8   9
ENDBRANCH   7   8
ENDBRANCH   4   7
BRANCH   1  13
HETATM   13  C3  UNL     1      -1.845  -1.787   0.429  1.00  0.00     0.080 C 
BRANCH  13  14
HETATM   14  S1  UNL     1      -3.570  -1.538   0.464  1.00  0.00    -0.169 SA
BRANCH  14  15
HETATM   15  C2  UNL     1      -4.401  -0.432  -0.598  1.00  0.00     0.069 C 
HETATM   16  C1  UNL     1      -4.260   1.027  -0.363  1.00  0.00     0.016 C 
ENDBRANCH  14  15
ENDBRANCH  13  14
ENDBRANCH   1  13
TORSDOF 6
