REMARK  8 active torsions:
REMARK  status: ('A' for Active; 'I' for Inactive)
REMARK    1  A    between atoms: C2_2  and  C4_4 
REMARK    2  A    between atoms: C4_4  and  C5_5 
REMARK    3  A    between atoms: C5_5  and  N1_6 
REMARK    4  A    between atoms: C7_8  and  C8_9 
REMARK    5  A    between atoms: C21_23  and  N2_24 
REMARK       I    between atoms: N2_24  and  C22_26 
REMARK    6  A    between atoms: C22_26  and  C23_28 
REMARK    7  A    between atoms: C23_28  and  C24_29 
REMARK    8  A    between atoms: C24_29  and  C25_30 
ROOT
HETATM    1  C8  UNL     1      -1.688  -1.937   0.056  1.00  0.00     0.028 C 
HETATM    2  C9  UNL     1      -2.529  -3.193   0.358  1.00  0.00     0.027 C 
HETATM    3  C10 UNL     1      -1.891  -4.468   0.064  1.00  0.00     0.021 C 
HETATM    4  C11 UNL     1      -2.291  -5.462   1.165  1.00  0.00     0.024 C 
HETATM    5  C12 UNL     1      -2.226  -5.057  -1.253  1.00  0.00     0.135 C 
HETATM    6  O1  UNL     1      -3.203  -5.714  -1.516  1.00  0.00    -0.297 OA
HETATM    7  C13 UNL     1      -1.164  -4.716  -2.226  1.00  0.00     0.079 C 
HETATM    8  C14 UNL     1       0.028  -4.248  -1.383  1.00  0.00     0.013 C 
HETATM    9  C15 UNL     1      -0.416  -4.326   0.031  1.00  0.00     0.006 C 
HETATM   10  C16 UNL     1       0.139  -3.294   0.965  1.00  0.00    -0.004 C 
HETATM   11  C17 UNL     1       1.610  -3.333   0.675  1.00  0.00     0.006 C 
HETATM   12  C18 UNL     1       2.413  -2.288   1.312  1.00  0.00     0.006 C 
HETATM   13  C19 UNL     1       1.676  -1.055   1.699  1.00  0.00    -0.004 C 
HETATM   14  C20 UNL     1       2.659   0.070   1.664  1.00  0.00     0.030 C 
HETATM   15  C21 UNL     1       2.874   0.663   0.302  1.00  0.00     0.084 C 
HETATM   16  C26 UNL     1       1.600   0.867  -0.469  1.00  0.00     0.026 C 
HETATM   17  C27 UNL     1       0.767  -0.392  -0.518  1.00  0.00     0.012 C 
HETATM   18  C28 UNL     1       0.421  -0.791   0.869  1.00  0.00    -0.036 C 
HETATM   19  C29 UNL     1      -0.149   0.470   1.547  1.00  0.00     0.016 C 
HETATM   20  C30 UNL     1      -0.525  -1.958   0.987  1.00  0.00     0.007 C 
ENDROOT
BRANCH   1  21
HETATM   21  C7  UNL     1      -2.713  -0.883   0.305  1.00  0.00    -0.020 A 
HETATM   22  C6  UNL     1      -3.260   0.002  -0.604  1.00  0.00     0.119 A 
HETATM   23  N1  UNL     1      -4.152   0.764   0.014  1.00  0.00    -0.303 N 
HETATM   24  N4  UNL     1      -4.202   0.408   1.275  1.00  0.00    -0.310 N 
HETATM   25  C31 UNL     1      -3.345  -0.585   1.487  1.00  0.00     0.116 A 
ATOM     26  H4  UNL     1      -4.805   0.828   1.983  1.00  0.00     0.186 HD
BRANCH  23  27
HETATM   27  C5  UNL     1      -4.942   1.829  -0.643  1.00  0.00     0.148 C 
BRANCH  27  28
HETATM   28  C4  UNL     1      -4.157   3.121  -0.539  1.00  0.00     0.025 C 
BRANCH  28  29
HETATM   29  C2  UNL     1      -4.939   4.231  -1.203  1.00  0.00    -0.021 C 
HETATM   30  C1  UNL     1      -4.142   5.513  -1.091  1.00  0.00     0.009 C 
HETATM   31  C3  UNL     1      -6.280   4.446  -0.539  1.00  0.00     0.009 C 
ENDBRANCH  28  29
ENDBRANCH  27  28
ENDBRANCH  23  27
ENDBRANCH   1  21
BRANCH  15  32
HETATM   32  N2  UNL     1       3.605   1.875   0.409  1.00  0.00    -0.356 N 
HETATM   33  C22 UNL     1       4.879   1.996  -0.193  1.00  0.00     0.218 C 
HETATM   34  O2  UNL     1       5.385   1.035  -0.831  1.00  0.00    -0.274 OA
ATOM     35  H2  UNL     1       3.210   2.663   0.923  1.00  0.00     0.162 HD
BRANCH  33  36
HETATM   36  C23 UNL     1       5.660   3.245  -0.098  1.00  0.00     0.111 C 
BRANCH  36  37
HETATM   37  C24 UNL     1       6.987   3.126  -0.830  1.00  0.00     0.109 C 
BRANCH  37  38
HETATM   38  C25 UNL     1       7.752   4.393  -0.719  1.00  0.00     0.231 C 
HETATM   39  N3  UNL     1       9.018   4.475  -1.356  1.00  0.00    -0.062 NA
HETATM   40  O3  UNL     1       7.347   5.397  -0.096  1.00  0.00    -0.277 OA
ENDBRANCH  37  38
ENDBRANCH  36  37
ENDBRANCH  33  36
ENDBRANCH  15  32
TORSDOF 8
