REMARK  8 active torsions:
REMARK  status: ('A' for Active; 'I' for Inactive)
REMARK    1  A    between atoms: C6_8  and  C7_9 
REMARK    2  A    between atoms: C11_14  and  C12_15 
REMARK    3  A    between atoms: C12_15  and  C13_16 
REMARK    4  A    between atoms: C12_15  and  C19_22 
REMARK    5  A    between atoms: C13_16  and  C14_17 
REMARK    6  A    between atoms: C14_17  and  C15_18 
REMARK    7  A    between atoms: C25_29  and  O4_30 
REMARK    8  A    between atoms: O4_30  and  C26_31 
ROOT
HETATM    1  C12 UNL     1      -0.517   0.295   1.062  1.00  0.00     0.017 C 
ENDROOT
BRANCH   1   2
HETATM    2  C11 UNL     1       0.313  -0.604   0.180  1.00  0.00    -0.004 C 
HETATM    3  C10 UNL     1       1.575  -0.273  -0.404  1.00  0.00     0.058 C 
HETATM    4  C9  UNL     1       2.726   0.129   0.437  1.00  0.00     0.166 C 
HETATM    5  C29 UNL     1       1.701   0.360  -1.755  1.00  0.00     0.301 C 
HETATM    6  C6  UNL     1       3.992   0.491  -0.235  1.00  0.00     0.071 C 
HETATM    7  O3  UNL     1       2.683   0.177   1.645  1.00  0.00    -0.292 OA
HETATM    8  C5  UNL     1       4.178   0.007  -1.618  1.00  0.00     0.071 C 
HETATM    9  C2  UNL     1       5.018  -1.187  -1.812  1.00  0.00     0.015 C 
HETATM   10  C4  UNL     1       2.955  -0.285  -2.422  1.00  0.00     0.219 C 
HETATM   11  C1  UNL     1       6.298  -1.423  -1.800  1.00  0.00     0.025 C 
HETATM   12  C3  UNL     1       4.031  -2.261  -2.080  1.00  0.00     0.289 C 
HETATM   13  O1  UNL     1       4.160  -3.503  -1.959  1.00  0.00    -0.260 OA
HETATM   14  O2  UNL     1       2.830  -1.670  -2.526  1.00  0.00    -0.305 OA
HETATM   15  F1  UNL     1       0.654   0.131  -2.599  1.00  0.00    -0.198 F 
HETATM   16  F2  UNL     1       2.045   1.695  -1.765  1.00  0.00    -0.198 F 
BRANCH   6  17
HETATM   17  C7  UNL     1       5.235   0.169   0.571  1.00  0.00     0.009 C 
HETATM   18  C8  UNL     1       5.149   0.646   2.000  1.00  0.00     0.006 C 
ENDBRANCH   6  17
ENDBRANCH   1   2
BRANCH   1  19
HETATM   19  C13 UNL     1      -0.871   1.505   0.313  1.00  0.00     0.013 C 
BRANCH  19  20
HETATM   20  C14 UNL     1      -1.697   2.607   0.835  1.00  0.00     0.028 C 
BRANCH  20  21
HETATM   21  C15 UNL     1      -1.695   3.642  -0.306  1.00  0.00    -0.025 C 
HETATM   22  C16 UNL     1      -1.229   4.855  -0.133  1.00  0.00    -0.091 C 
HETATM   23  C17 UNL     1      -0.692   5.235   1.194  1.00  0.00     0.042 C 
HETATM   24  C18 UNL     1      -1.234   5.836  -1.238  1.00  0.00     0.042 C 
ENDBRANCH  20  21
ENDBRANCH  19  20
ENDBRANCH   1  19
BRANCH   1  25
HETATM   25  C19 UNL     1      -1.701  -0.499   1.556  1.00  0.00    -0.035 C 
HETATM   26  C20 UNL     1      -2.482   0.398   2.501  1.00  0.00     0.016 C 
HETATM   27  C21 UNL     1      -1.261  -1.657   2.416  1.00  0.00     0.012 C 
HETATM   28  C22 UNL     1      -1.535  -3.020   1.968  1.00  0.00     0.028 C 
HETATM   29  C23 UNL     1      -2.838  -3.227   1.238  1.00  0.00     0.060 C 
HETATM   30  C24 UNL     1      -4.045  -3.085   2.093  1.00  0.00     0.035 C 
HETATM   31 CL1  UNL     1      -2.817  -4.881   0.577  1.00  0.00    -0.117 Cl
HETATM   32  C25 UNL     1      -2.787  -2.280   0.071  1.00  0.00     0.155 C 
HETATM   33  C28 UNL     1      -2.605  -0.858   0.431  1.00  0.00     0.044 C 
BRANCH  32  34
HETATM   34  O4  UNL     1      -4.025  -2.456  -0.631  1.00  0.00    -0.314 OA
BRANCH  34  35
HETATM   35  C26 UNL     1      -4.108  -2.992  -1.885  1.00  0.00     0.255 C 
HETATM   36  C27 UNL     1      -5.427  -3.145  -2.553  1.00  0.00     0.126 C 
HETATM   37  O5  UNL     1      -3.031  -3.346  -2.444  1.00  0.00    -0.266 OA
ENDBRANCH  34  35
ENDBRANCH  32  34
ENDBRANCH   1  25
TORSDOF 8
