REMARK  5 active torsions:
REMARK  status: ('A' for Active; 'I' for Inactive)
REMARK    1  A    between atoms: N1_2  and  C2_3 
REMARK    2  A    between atoms: N1_2  and  C7_14 
REMARK    3  A    between atoms: C2_3  and  C3_4 
REMARK    4  A    between atoms: C3_4  and  C4_5 
REMARK    5  A    between atoms: C6_8  and  N2_9 
ROOT
HETATM    1  C4  UNL     1       2.060  -0.704  -0.290  1.00  0.00     0.019 A 
HETATM    2  C5  UNL     1       2.158  -1.139  -1.584  1.00  0.00     0.078 A 
HETATM    3  S1  UNL     1       3.661  -1.933  -1.599  1.00  0.00    -0.064 SA
HETATM    4  C6  UNL     1       4.091  -1.677   0.028  1.00  0.00     0.142 A 
HETATM    5  N3  UNL     1       3.065  -0.992   0.521  1.00  0.00    -0.340 N 
ATOM      6  H3  UNL     1       3.052  -0.696   1.497  1.00  0.00     0.167 HD
ENDROOT
BRANCH   1   7
HETATM    7  C3  UNL     1       0.848   0.086   0.223  1.00  0.00     0.087 C 
BRANCH   7   8
HETATM    8  C2  UNL     1      -0.104   0.258  -0.905  1.00  0.00     0.278 C 
BRANCH   8   9
HETATM    9  N1  UNL     1      -1.273   0.984  -0.513  1.00  0.00     0.090 N 
HETATM   10  C1  UNL     1      -0.931   2.352  -0.210  1.00  0.00     0.310 C 
BRANCH   9  11
HETATM   11  C7  UNL     1      -1.982   0.318   0.520  1.00  0.00     0.242 C 
HETATM   12  C8  UNL     1      -3.326   0.975   0.817  1.00  0.00     0.122 C 
HETATM   13  S2  UNL     1      -4.275   0.770  -0.752  1.00  0.00    -0.095 SA
HETATM   14  S3  UNL     1      -3.293  -1.091  -1.296  1.00  0.00    -0.095 SA
HETATM   15  C9  UNL     1      -2.268  -1.131   0.237  1.00  0.00     0.122 C 
ENDBRANCH   9  11
ENDBRANCH   8   9
ENDBRANCH   7   8
ENDBRANCH   1   7
BRANCH   4  16
HETATM   16  N2  UNL     1       5.183  -2.067   0.648  1.00  0.00    -0.380 N 
ATOM     17  H22 UNL     1       5.971  -2.593   0.269  1.00  0.00     0.158 HD
ATOM     18  H21 UNL     1       5.441  -1.914   1.623  1.00  0.00     0.158 HD
ENDBRANCH   4  16
TORSDOF 5
