REMARK  2 active torsions:
REMARK  status: ('A' for Active; 'I' for Inactive)
REMARK    1  A    between atoms: C4_6  and  N1_7 
REMARK    2  A    between atoms: N1_7  and  C5_10 
ROOT
HETATM    1  N1  UNL     1      -0.342  -0.415   0.258  1.00  0.00    -0.067 N 
ATOM      2  H11 UNL     1      -0.306  -1.432   0.322  1.00  0.00     0.278 HD
ATOM      3  H12 UNL     1      -0.328  -0.185   1.252  1.00  0.00     0.278 HD
ENDROOT
BRANCH   1   4
HETATM    4  C4  UNL     1      -1.572   0.019  -0.354  1.00  0.00     0.189 C 
HETATM    5  C3  UNL     1      -2.460  -1.203  -0.514  1.00  0.00     0.036 C 
HETATM    6  C2  UNL     1      -3.474  -1.013   0.607  1.00  0.00     0.044 C 
HETATM    7  C1  UNL     1      -3.759   0.473   0.414  1.00  0.00     0.115 C 
HETATM    8 CL1  UNL     1      -4.445   0.638  -1.207  1.00  0.00    -0.102 Cl
HETATM    9 CL2  UNL     1      -4.820   1.134   1.644  1.00  0.00    -0.102 Cl
HETATM   10  C11 UNL     1      -2.341   1.007   0.493  1.00  0.00     0.075 C 
ENDBRANCH   1   4
BRANCH   1  11
HETATM   11  C5  UNL     1       0.839   0.105  -0.412  1.00  0.00     0.186 C 
HETATM   12  C6  UNL     1       1.847  -1.031  -0.442  1.00  0.00     0.033 C 
HETATM   13  C7  UNL     1       3.166  -0.482  -0.959  1.00  0.00     0.002 C 
HETATM   14  C8  UNL     1       3.768   0.293   0.200  1.00  0.00     0.000 C 
HETATM   15  C9  UNL     1       2.709   0.905   1.071  1.00  0.00     0.002 C 
HETATM   16  C10 UNL     1       1.447   1.258   0.337  1.00  0.00     0.033 C 
ENDBRANCH   1  11
TORSDOF 2
