REMARK  7 active torsions:
REMARK  status: ('A' for Active; 'I' for Inactive)
REMARK    1  A    between atoms: N2_3  and  C2_5 
REMARK    2  A    between atoms: C10_19  and  C11_20 
REMARK       I    between atoms: C11_20  and  N6_22 
REMARK    3  A    between atoms: N6_22  and  C12_24 
REMARK    4  A    between atoms: C12_24  and  C13_25 
REMARK    5  A    between atoms: C13_25  and  C14_26 
REMARK    6  A    between atoms: C14_26  and  C15_27 
REMARK    7  A    between atoms: C15_27  and  N7_28 
ROOT
HETATM    1  N1  UNL     1       1.529  -2.867  -1.838  1.00  0.00    -0.172 NA
HETATM    2  C1  UNL     1       0.897  -1.900  -1.849  1.00  0.00     0.177 C 
HETATM    3  N2  UNL     1       0.124  -0.757  -1.874  1.00  0.00    -0.321 N 
ATOM      4  H2  UNL     1      -0.387  -0.574  -2.737  1.00  0.00     0.172 HD
ENDROOT
BRANCH   3   5
HETATM    5  C2  UNL     1      -0.039   0.196  -0.827  1.00  0.00     0.128 C 
HETATM    6  C3  UNL     1      -0.985   1.290  -1.262  1.00  0.00     0.072 C 
HETATM    7  C4  UNL     1      -1.303   2.314  -0.250  1.00  0.00     0.057 C 
HETATM    8  N3  UNL     1      -2.475   2.122   0.506  1.00  0.00    -0.401 N 
HETATM    9  C5  UNL     1      -3.719   2.036  -0.148  1.00  0.00     0.138 C 
ATOM     10  H3  UNL     1      -2.423   2.046   1.522  1.00  0.00     0.158 HD
HETATM   11  C6  UNL     1      -4.620   1.123   0.687  1.00  0.00     0.133 C 
HETATM   12  N4  UNL     1      -5.318   0.140  -0.049  1.00  0.00    -0.420 N 
HETATM   13  C7  UNL     1      -4.570  -0.877  -0.691  1.00  0.00     0.115 C 
ATOM     14  H4  UNL     1      -6.336   0.162  -0.116  1.00  0.00     0.153 HD
HETATM   15  C8  UNL     1      -3.736  -1.742   0.212  1.00  0.00     0.038 C 
HETATM   16  C9  UNL     1      -2.246  -1.711  -0.189  1.00  0.00     0.116 C 
HETATM   17  N5  UNL     1      -1.581  -0.944   0.730  1.00  0.00    -0.408 N 
HETATM   18  C10 UNL     1      -0.325  -0.335   0.528  1.00  0.00     0.193 C 
ATOM     19  H5  UNL     1      -2.031  -0.801   1.634  1.00  0.00     0.154 HD
BRANCH  18  20
HETATM   20  C11 UNL     1       0.814  -1.113   1.064  1.00  0.00     0.242 C 
HETATM   21  O1  UNL     1       0.610  -2.234   1.583  1.00  0.00    -0.271 OA
HETATM   22  N6  UNL     1       2.135  -0.618   1.006  1.00  0.00    -0.359 N 
ATOM     23  H6  UNL     1       2.305   0.296   0.586  1.00  0.00     0.162 HD
BRANCH  22  24
HETATM   24  C12 UNL     1       3.256  -1.374   1.528  1.00  0.00     0.122 C 
BRANCH  24  25
HETATM   25  C13 UNL     1       4.536  -0.602   1.324  1.00  0.00     0.021 C 
BRANCH  25  26
HETATM   26  C14 UNL     1       4.758  -0.357  -0.152  1.00  0.00     0.029 C 
BRANCH  26  27
HETATM   27  C15 UNL     1       6.069   0.427  -0.287  1.00  0.00     0.229 C 
BRANCH  27  28
HETATM   28  N7  UNL     1       5.915   1.669   0.439  1.00  0.00    -0.079 N 
ATOM     29  H73 UNL     1       5.100   2.205   0.140  1.00  0.00     0.274 HD
ATOM     30  H72 UNL     1       5.635   1.529   1.410  1.00  0.00     0.274 HD
ATOM     31  H71 UNL     1       6.787   2.190   0.349  1.00  0.00     0.274 HD
ENDBRANCH  27  28
ENDBRANCH  26  27
ENDBRANCH  25  26
ENDBRANCH  24  25
ENDBRANCH  22  24
ENDBRANCH  18  20
ENDBRANCH   3   5
TORSDOF 7
