REMARK  10 active torsions:
REMARK  status: ('A' for Active; 'I' for Inactive)
REMARK    1  A    between atoms: O1_2  and  C2_3 
REMARK    2  A    between atoms: C12_14  and  O3_15 
REMARK    3  A    between atoms: C15_19  and  C16_20 
REMARK    4  A    between atoms: C16_20  and  O5_22 
REMARK    5  A    between atoms: O5_22  and  C17_23 
REMARK    6  A    between atoms: C17_23  and  C18_24 
REMARK    7  A    between atoms: C18_24  and  C19_25 
REMARK    8  A    between atoms: C19_25  and  C20_26 
REMARK    9  A    between atoms: C21_28  and  C23_30 
REMARK   10  A    between atoms: C23_30  and  O6_31 
ROOT
HETATM    1  C2  UNL     1      -1.277   0.740   0.322  1.00  0.00     0.106 C 
HETATM    2  C3  UNL     1      -2.103  -0.259  -0.460  1.00  0.00     0.029 C 
HETATM    3  C4  UNL     1      -3.517   0.003  -0.683  1.00  0.00     0.011 C 
HETATM    4  C5  UNL     1      -3.979   1.405  -0.708  1.00  0.00     0.041 C 
HETATM    5  C6  UNL     1      -2.909   2.431  -0.629  1.00  0.00     0.087 A 
HETATM    6  C7  UNL     1      -3.439   3.858  -0.566  1.00  0.00     0.049 C 
HETATM    7  O2  UNL     1      -1.887   2.283  -1.564  1.00  0.00    -0.366 OA
HETATM    8  C8  UNL     1      -1.605   2.130  -0.210  1.00  0.00     0.192 A 
HETATM    9  C9  UNL     1      -1.878  -1.518   0.261  1.00  0.00     0.008 C 
HETATM   10  C10 UNL     1      -2.687  -2.709   0.022  1.00  0.00     0.009 C 
HETATM   11  C11 UNL     1      -1.795  -3.771   0.689  1.00  0.00     0.033 C 
HETATM   12  C12 UNL     1      -0.398  -3.122   0.800  1.00  0.00     0.131 C 
HETATM   13  C13 UNL     1      -0.499  -2.037  -0.191  1.00  0.00     0.016 C 
HETATM   14  C14 UNL     1      -0.797  -2.746  -1.532  1.00  0.00     0.023 C 
HETATM   15  C15 UNL     1       0.519  -0.988  -0.341  1.00  0.00     0.020 C 
HETATM   16  C21 UNL     1       0.188   0.423   0.019  1.00  0.00     0.042 C 
HETATM   17  C22 UNL     1       0.567   1.372  -1.143  1.00  0.00     0.026 C 
ENDROOT
BRANCH  15  18
HETATM   18  C16 UNL     1       1.897  -1.381   0.057  1.00  0.00     0.287 C 
HETATM   19  O4  UNL     1       2.188  -2.389   0.750  1.00  0.00    -0.260 OA
BRANCH  18  20
HETATM   20  O5  UNL     1       3.018  -0.652  -0.310  1.00  0.00    -0.318 OA
BRANCH  20  21
HETATM   21  C17 UNL     1       4.329  -0.994   0.046  1.00  0.00     0.179 C 
BRANCH  21  22
HETATM   22  C18 UNL     1       5.293  -0.010  -0.528  1.00  0.00     0.028 C 
BRANCH  22  23
HETATM   23  C19 UNL     1       5.023   1.386  -0.021  1.00  0.00     0.013 C 
BRANCH  23  24
HETATM   24  C20 UNL     1       6.031   2.338  -0.636  1.00  0.00     0.085 C 
HETATM   25 BR1  UNL     1       7.815   1.778  -0.121  1.00  0.00    -0.097 Br
ENDBRANCH  23  24
ENDBRANCH  22  23
ENDBRANCH  21  22
ENDBRANCH  20  21
ENDBRANCH  18  20
ENDBRANCH  15  18
BRANCH  16  26
HETATM   26  C23 UNL     1       0.990   0.988   1.173  1.00  0.00     0.181 C 
BRANCH  26  27
HETATM   27  O6  UNL     1       0.710   0.465   2.403  1.00  0.00    -0.400 OA
ATOM     28  H6  UNL     1       1.213   0.819   3.127  1.00  0.00     0.209 HD
ENDBRANCH  26  27
ENDBRANCH  16  26
BRANCH  12  29
HETATM   29  O3  UNL     1      -0.302  -2.733   2.129  1.00  0.00    -0.394 OA
ATOM     30  H3  UNL     1       0.557  -2.334   2.197  1.00  0.00     0.210 HD
ENDBRANCH  12  29
BRANCH   1  31
HETATM   31  O1  UNL     1      -1.420   0.674   1.671  1.00  0.00    -0.381 OA
HETATM   32  C1  UNL     1      -2.582   0.917   2.286  1.00  0.00     0.202 C 
ENDBRANCH   1  31
TORSDOF 10
