REMARK  0 active torsions:
REMARK  status: ('A' for Active; 'I' for Inactive)
ROOT
HETATM    1  C1  UNL     1       2.405  -0.011   0.029  1.00  0.00     0.165 C 
HETATM    2  N1  UNL     1       1.306  -0.874  -0.289  1.00  0.00    -0.230 N 
ATOM      3  H1  UNL     1       1.523  -1.816  -0.614  1.00  0.00     0.177 HD
HETATM    4  C2  UNL     1       0.074  -0.550  -0.195  1.00  0.00     0.679 A 
HETATM    5  N2  UNL     1      -0.897  -1.431  -0.518  1.00  0.00    -0.188 N 
ATOM      6  H2  UNL     1      -0.623  -2.360  -0.839  1.00  0.00     0.185 HD
HETATM    7  C3  UNL     1      -2.208  -1.143  -0.437  1.00  0.00     0.199 A 
HETATM    8  N3  UNL     1      -2.543   0.089  -0.013  1.00  0.00    -0.348 N 
ATOM      9  H3  UNL     1      -3.525   0.353   0.063  1.00  0.00     0.167 HD
HETATM   10  C4  UNL     1      -1.576   0.977   0.312  1.00  0.00     0.199 A 
HETATM   11  N4  UNL     1      -0.261   0.682   0.229  1.00  0.00    -0.188 N 
ATOM     12  H4  UNL     1       0.452   1.368   0.478  1.00  0.00     0.185 HD
ENDROOT
TORSDOF 0
