REMARK  12 active torsions:
REMARK  status: ('A' for Active; 'I' for Inactive)
REMARK    1  A    between atoms: N1_1  and  C1_4 
REMARK    2  A    between atoms: N6_15  and  C5_16 
REMARK    3  A    between atoms: C6_17  and  O1_18 
REMARK    4  A    between atoms: C7_20  and  O2_21 
REMARK    5  A    between atoms: C8_23  and  C9_24 
REMARK    6  A    between atoms: C9_24  and  O3_25 
REMARK    7  A    between atoms: O3_25  and  C10_26 
REMARK    8  A    between atoms: C13_30  and  N7_31 
REMARK    9  A    between atoms: C14_35  and  O5_36 
REMARK   10  A    between atoms: C15_38  and  O6_39 
REMARK   11  A    between atoms: N8_42  and  N9_43 
REMARK   12  A    between atoms: N9_43  and  N10_45 
ROOT
HETATM    1  C5  UNL     1      -2.122  -0.287   0.186  1.00  0.00     0.233 C 
HETATM    2  C6  UNL     1      -1.016   0.222   1.043  1.00  0.00     0.187 C 
HETATM    3  C7  UNL     1       0.317   0.002   0.259  1.00  0.00     0.157 C 
HETATM    4  C8  UNL     1       0.549  -1.464   0.318  1.00  0.00     0.056 C 
HETATM    5  C16 UNL     1      -0.704  -2.180  -0.181  1.00  0.00     0.127 C 
HETATM    6  N8  UNL     1      -1.668  -1.277  -0.775  1.00  0.00    -0.188 NA
ENDROOT
BRANCH   4   7
HETATM    7  C9  UNL     1       1.770  -1.998  -0.324  1.00  0.00     0.177 C 
BRANCH   7   8
HETATM    8  O3  UNL     1       2.949  -1.612   0.110  1.00  0.00    -0.375 OA
BRANCH   8   9
HETATM    9  C10 UNL     1       3.467  -0.382   0.011  1.00  0.00     0.222 C 
HETATM   10  C11 UNL     1       3.999   0.095   1.329  1.00  0.00     0.160 C 
HETATM   11  O4  UNL     1       3.728  -0.516   2.321  1.00  0.00    -0.295 OA
HETATM   12  C12 UNL     1       4.836   1.298   1.370  1.00  0.00     0.116 C 
HETATM   13  C13 UNL     1       6.009   1.064   0.408  1.00  0.00     0.221 C 
HETATM   14  C14 UNL     1       5.357   0.838  -0.962  1.00  0.00     0.180 C 
HETATM   15  C15 UNL     1       4.719  -0.520  -0.914  1.00  0.00     0.185 C 
BRANCH  13  16
HETATM   16  N7  UNL     1       6.894   2.193   0.357  1.00  0.00    -0.072 N 
ATOM     17  H73 UNL     1       6.390   3.049   0.125  1.00  0.00     0.274 HD
ATOM     18  H72 UNL     1       7.224   2.448   1.288  1.00  0.00     0.274 HD
ATOM     19  H71 UNL     1       7.673   2.038  -0.282  1.00  0.00     0.274 HD
ENDBRANCH  13  16
BRANCH  14  20
HETATM   20  O5  UNL     1       6.313   0.954  -1.941  1.00  0.00    -0.391 OA
ATOM     21  H5  UNL     1       5.909   0.814  -2.789  1.00  0.00     0.210 HD
ENDBRANCH  14  20
BRANCH  15  22
HETATM   22  O6  UNL     1       5.528  -1.457  -0.275  1.00  0.00    -0.390 OA
ATOM     23  H6  UNL     1       6.289  -1.541  -0.837  1.00  0.00     0.210 HD
ENDBRANCH  15  22
ENDBRANCH   8   9
ENDBRANCH   7   8
ENDBRANCH   4   7
BRANCH   3  24
HETATM   24  O2  UNL     1       0.100   0.455  -1.047  1.00  0.00    -0.392 OA
ATOM     25  H2  UNL     1       0.911   0.321  -1.524  1.00  0.00     0.210 HD
ENDBRANCH   3  24
BRANCH   2  26
HETATM   26  O1  UNL     1      -1.120   1.593   1.273  1.00  0.00    -0.389 OA
ATOM     27  H1  UNL     1      -0.414   1.918   1.820  1.00  0.00     0.210 HD
ENDBRANCH   2  26
BRANCH   6  28
HETATM   28  N9  UNL     1      -2.774  -2.040  -1.131  1.00  0.00    -0.258 N 
ATOM     29  H9  UNL     1      -3.309  -1.780  -1.959  1.00  0.00     0.202 HD
BRANCH  28  30
HETATM   30  N10 UNL     1      -3.171  -3.145  -0.393  1.00  0.00    -0.265 N 
HETATM   31  C17 UNL     1      -4.405  -3.383  -0.165  1.00  0.00     0.216 C 
HETATM   32  N11 UNL     1      -4.853  -4.510   0.589  1.00  0.00    -0.065 NA
HETATM   33  N12 UNL     1      -5.381  -2.500  -0.678  1.00  0.00    -0.065 NA
ATOM     34  H10 UNL     1      -2.463  -3.781  -0.025  1.00  0.00     0.190 HD
ENDBRANCH  28  30
ENDBRANCH   6  28
BRANCH   1  35
HETATM   35  N6  UNL     1      -2.788   0.806  -0.486  1.00  0.00    -0.235 N 
HETATM   36  C3  UNL     1      -3.658   1.680   0.104  1.00  0.00     0.155 A 
HETATM   37  N3  UNL     1      -4.123   1.797   1.357  1.00  0.00    -0.336 N 
HETATM   38  C4  UNL     1      -4.111   2.595  -0.823  1.00  0.00     0.135 A 
HETATM   39  C2  UNL     1      -4.993   2.770   1.680  1.00  0.00     0.183 A 
ATOM     40  H3  UNL     1      -3.813   1.140   2.073  1.00  0.00     0.168 HD
HETATM   41  N2  UNL     1      -5.433   3.667   0.758  1.00  0.00    -0.337 N 
HETATM   42  C1  UNL     1      -5.002   3.601  -0.515  1.00  0.00     0.132 A 
ATOM     43  H2  UNL     1      -6.094   4.394   1.033  1.00  0.00     0.168 HD
HETATM   44  N4  UNL     1      -3.490   2.244  -1.974  1.00  0.00    -0.277 N 
HETATM   45  N5  UNL     1      -2.721   1.193  -1.752  1.00  0.00    -0.016 NA
ATOM     46  H4  UNL     1      -3.599   2.717  -2.871  1.00  0.00     0.184 HD
BRANCH  42  47
HETATM   47  N1  UNL     1      -5.419   4.452  -1.390  1.00  0.00    -0.383 N 
ATOM     48  H12 UNL     1      -6.078   5.196  -1.162  1.00  0.00     0.157 HD
ATOM     49  H11 UNL     1      -5.092   4.402  -2.355  1.00  0.00     0.157 HD
ENDBRANCH  42  47
ENDBRANCH   1  35
TORSDOF 12
