REMARK  12 active torsions:
REMARK  status: ('A' for Active; 'I' for Inactive)
REMARK    1  A    between atoms: N1_1  and  C1_4 
REMARK    2  A    between atoms: N4_13  and  C5_14 
REMARK    3  A    between atoms: C6_15  and  O2_16 
REMARK    4  A    between atoms: C7_18  and  O3_19 
REMARK    5  A    between atoms: C8_21  and  O4_22 
REMARK    6  A    between atoms: C9_24  and  C10_25 
REMARK    7  A    between atoms: C10_25  and  O5_26 
REMARK    8  A    between atoms: O5_26  and  S1_27 
REMARK    9  A    between atoms: S1_27  and  N5_30 
REMARK       I    between atoms: N5_30  and  C11_32 
REMARK   10  A    between atoms: C11_32  and  C12_34 
REMARK   11  A    between atoms: C13_36  and  O10_37 
REMARK   12  A    between atoms: C15_40  and  N6_41 
ROOT
HETATM    1  C5  UNL     1      -1.151  -0.163   0.088  1.00  0.00     0.056 C 
HETATM    2  C6  UNL     1      -1.274  -1.367  -0.767  1.00  0.00     0.198 C 
HETATM    3  C7  UNL     1       0.049  -2.209  -0.711  1.00  0.00     0.181 C 
HETATM    4  C8  UNL     1       1.163  -1.265  -1.133  1.00  0.00     0.158 C 
HETATM    5  C9  UNL     1       1.246  -0.018  -0.344  1.00  0.00     0.077 C 
HETATM    6  C13 UNL     1      -0.071   0.788  -0.289  1.00  0.00     0.175 C 
ENDROOT
BRANCH   1   7
HETATM    7  N4  UNL     1      -2.055   0.176   1.155  1.00  0.00    -0.305 N 
HETATM    8  C4  UNL     1      -1.777   0.324   2.512  1.00  0.00     0.189 A 
HETATM    9  N3  UNL     1      -2.846   0.612   3.228  1.00  0.00    -0.345 N 
HETATM   10  C3  UNL     1      -3.853   0.667   2.385  1.00  0.00     0.133 A 
ATOM     11  H3  UNL     1      -2.884   0.762   4.236  1.00  0.00     0.167 HD
HETATM   12  C2  UNL     1      -5.181   0.921   2.711  1.00  0.00     0.288 C 
HETATM   13  C14 UNL     1      -3.369   0.399   1.090  1.00  0.00     0.117 A 
HETATM   14  N2  UNL     1      -6.284   0.525   2.002  1.00  0.00    -0.154 N 
HETATM   15  O1  UNL     1      -5.368   1.576   3.758  1.00  0.00    -0.265 OA
HETATM   16  C1  UNL     1      -6.306  -0.078   0.784  1.00  0.00     0.680 C 
ATOM     17  H2  UNL     1      -7.190   0.702   2.436  1.00  0.00     0.187 HD
HETATM   18  N7  UNL     1      -5.393  -0.031  -0.199  1.00  0.00    -0.175 N 
HETATM   19  C15 UNL     1      -4.103   0.390  -0.073  1.00  0.00     0.144 C 
ATOM     20  H7  UNL     1      -5.692  -0.338  -1.124  1.00  0.00     0.186 HD
BRANCH  16  21
HETATM   21  N1  UNL     1      -7.349  -0.791   0.548  1.00  0.00    -0.234 N 
ATOM     22  H12 UNL     1      -8.043  -0.827   1.295  1.00  0.00     0.174 HD
ATOM     23  H11 UNL     1      -7.366  -1.243  -0.366  1.00  0.00     0.174 HD
ENDBRANCH  16  21
BRANCH  19  24
HETATM   24  N6  UNL     1      -3.478   0.849  -1.084  1.00  0.00    -0.383 N 
ATOM     25  H62 UNL     1      -2.512   1.164  -0.990  1.00  0.00     0.157 HD
ATOM     26  H61 UNL     1      -4.022   0.842  -1.947  1.00  0.00     0.157 HD
ENDBRANCH  19  24
ENDBRANCH   1   7
BRANCH   2  27
HETATM   27  O2  UNL     1      -1.156  -1.152  -2.171  1.00  0.00    -0.387 OA
ATOM     28  H2  UNL     1      -1.235  -1.924  -2.719  1.00  0.00     0.210 HD
ENDBRANCH   2  27
BRANCH   6  29
HETATM   29  O10 UNL     1      -0.075   1.482  -1.430  1.00  0.00    -0.389 OA
ATOM     30  H10 UNL     1       0.615   2.089  -1.671  1.00  0.00     0.210 HD
ENDBRANCH   6  29
BRANCH   3  31
HETATM   31  O3  UNL     1       0.163  -2.648   0.584  1.00  0.00    -0.390 OA
ATOM     32  H3  UNL     1       0.964  -3.158   0.618  1.00  0.00     0.210 HD
ENDBRANCH   3  31
BRANCH   5  33
HETATM   33  C10 UNL     1       2.425   0.793  -0.730  1.00  0.00     0.202 C 
BRANCH  33  34
HETATM   34  O5  UNL     1       3.582   0.047  -0.501  1.00  0.00    -0.259 OA
BRANCH  34  35
HETATM   35  S1  UNL     1       4.991   0.858  -0.859  1.00  0.00     0.364 S 
HETATM   36  O6  UNL     1       5.398   0.577  -2.257  1.00  0.00    -0.175 OA
HETATM   37  O7  UNL     1       4.746   2.357  -0.779  1.00  0.00    -0.175 OA
BRANCH  35  38
HETATM   38  N5  UNL     1       6.264   0.469   0.213  1.00  0.00    -0.225 N 
HETATM   39  C11 UNL     1       7.563   0.220  -0.292  1.00  0.00     0.294 C 
HETATM   40  O8  UNL     1       7.761   0.291  -1.521  1.00  0.00    -0.264 OA
ATOM     41  H5  UNL     1       6.088   0.416   1.216  1.00  0.00     0.184 HD
BRANCH  39  42
HETATM   42  C12 UNL     1       8.679  -0.117   0.600  1.00  0.00     0.333 C 
HETATM   43  O9  UNL     1       8.547  -0.190   1.846  1.00  0.00    -0.296 OA
ENDBRANCH  39  42
ENDBRANCH  35  38
ENDBRANCH  34  35
ENDBRANCH  33  34
ENDBRANCH   5  33
BRANCH   4  44
HETATM   44  O4  UNL     1       1.180  -1.110  -2.493  1.00  0.00    -0.392 OA
ATOM     45  H4  UNL     1       1.876  -0.520  -2.757  1.00  0.00     0.210 HD
ENDBRANCH   4  44
TORSDOF 12
