REMARK  5 active torsions:
REMARK  status: ('A' for Active; 'I' for Inactive)
REMARK    1  A    between atoms: N1_2  and  S1_4 
REMARK    2  A    between atoms: S1_4  and  N2_7 
REMARK    3  A    between atoms: N2_7  and  C2_9 
REMARK    4  A    between atoms: C2_9  and  C3_10 
REMARK    5  A    between atoms: N3_16  and  C8_17 
ROOT
HETATM    1  C2  UNL     1      -1.596  -0.966   0.026  1.00  0.00     0.139 C 
HETATM    2  C6  UNL     1      -1.475  -0.219   1.314  1.00  0.00     0.143 C 
HETATM    3  C7  UNL     1      -0.027   0.072   1.466  1.00  0.00     0.227 C 
HETATM    4  O3  UNL     1       0.509   0.545   2.539  1.00  0.00    -0.273 OA
HETATM    5  N3  UNL     1       0.654  -0.246   0.268  1.00  0.00    -0.282 N 
HETATM    6  C15 UNL     1      -0.159  -1.191  -0.452  1.00  0.00     0.353 C 
HETATM    7  F1  UNL     1      -0.069  -0.916  -1.830  1.00  0.00    -0.179 F 
HETATM    8  F2  UNL     1       0.212  -2.489  -0.244  1.00  0.00    -0.179 F 
ENDROOT
BRANCH   1   9
HETATM    9  N2  UNL     1      -2.231  -0.208  -0.974  1.00  0.00    -0.284 N 
ATOM     10  H2  UNL     1      -1.732  -0.049  -1.849  1.00  0.00     0.175 HD
BRANCH   9  11
HETATM   11  S1  UNL     1      -3.747   0.440  -0.806  1.00  0.00     0.315 S 
HETATM   12  O1  UNL     1      -4.307   0.649  -2.227  1.00  0.00    -0.183 OA
HETATM   13  O2  UNL     1      -4.749  -0.453  -0.148  1.00  0.00    -0.183 OA
BRANCH  11  14
HETATM   14  N1  UNL     1      -3.787   2.023  -0.106  1.00  0.00    -0.307 N 
HETATM   15  C1  UNL     1      -3.704   3.063  -1.084  1.00  0.00     0.161 C 
ATOM     16  H1  UNL     1      -3.862   2.195   0.897  1.00  0.00     0.173 HD
ENDBRANCH  11  14
ENDBRANCH   9  11
ENDBRANCH   1   9
BRANCH   1  17
HETATM   17  C3  UNL     1      -2.264  -2.291   0.329  1.00  0.00     0.015 C 
HETATM   18  C4  UNL     1      -2.328  -3.194  -0.867  1.00  0.00     0.012 C 
HETATM   19  C5  UNL     1      -1.610  -2.999   1.519  1.00  0.00     0.012 C 
ENDBRANCH   1  17
BRANCH   5  20
HETATM   20  C8  UNL     1       1.975   0.304  -0.131  1.00  0.00     0.094 C 
HETATM   21  C9  UNL     1       1.682   1.778  -0.339  1.00  0.00     0.036 C 
HETATM   22  C10 UNL     1       2.964   2.601  -0.694  1.00  0.00     0.082 C 
HETATM   23  C11 UNL     1       4.056   1.791  -0.348  1.00  0.00    -0.183 C 
HETATM   24  C12 UNL     1       5.099   0.928   0.010  1.00  0.00     0.080 C 
HETATM   25  C13 UNL     1       4.417  -0.409   0.472  1.00  0.00     0.013 C 
HETATM   26  C14 UNL     1       2.937  -0.187   0.814  1.00  0.00     0.026 C 
ENDBRANCH   5  20
TORSDOF 5
