REMARK  18 active torsions:
REMARK  status: ('A' for Active; 'I' for Inactive)
REMARK    1  A    between atoms: C2_2  and  C3_3 
REMARK    2  A    between atoms: C3_3  and  C4_4 
REMARK    3  A    between atoms: C4_4  and  N1_5 
REMARK       I    between atoms: N1_5  and  C5_7 
REMARK    4  A    between atoms: C5_7  and  C6_9 
REMARK    5  A    between atoms: C6_9  and  N2_10 
REMARK    6  A    between atoms: C9_16  and  C10_17 
REMARK    7  A    between atoms: C10_17  and  C11_18 
REMARK    8  A    between atoms: C11_18  and  C12_19 
REMARK    9  A    between atoms: C12_19  and  C13_20 
REMARK   10  A    between atoms: C13_20  and  S1_21 
REMARK   11  A    between atoms: S1_21  and  N4_22 
REMARK   12  A    between atoms: S1_21  and  N5_26 
REMARK       I    between atoms: N5_26  and  C14_28 
REMARK   13  A    between atoms: C14_28  and  C15_30 
REMARK   14  A    between atoms: C15_30  and  C16_31 
REMARK   15  A    between atoms: C16_31  and  C17_32 
REMARK   16  A    between atoms: C17_32  and  N6_33 
REMARK   17  A    between atoms: C18_35  and  N7_37 
REMARK   18  A    between atoms: N7_37  and  N8_39 
ROOT
HETATM    1  C13 UNL     1       0.008  -1.085   2.207  1.00  0.00     0.139 C 
ENDROOT
BRANCH   1   2
HETATM    2  C12 UNL     1      -0.008  -1.880   0.954  1.00  0.00     0.015 C 
BRANCH   2   3
HETATM    3  C11 UNL     1       0.567  -1.137  -0.215  1.00  0.00     0.004 C 
BRANCH   3   4
HETATM    4  C10 UNL     1       2.001  -0.815   0.108  1.00  0.00     0.035 C 
BRANCH   4   5
HETATM    5  C9  UNL     1       2.739  -0.085  -0.986  1.00  0.00     0.176 C 
HETATM    6  N3  UNL     1       2.763  -0.832  -2.227  1.00  0.00    -0.346 N 
HETATM    7  C8  UNL     1       3.767  -1.810  -2.422  1.00  0.00     0.236 C 
ATOM      8  H3  UNL     1       2.066  -0.655  -2.950  1.00  0.00     0.163 HD
HETATM    9  C7  UNL     1       4.592  -2.306  -1.320  1.00  0.00     0.229 C 
HETATM   10  O2  UNL     1       3.949  -2.270  -3.606  1.00  0.00    -0.272 OA
HETATM   11  N2  UNL     1       4.909  -1.222  -0.373  1.00  0.00    -0.333 N 
HETATM   12  C22 UNL     1       4.176  -0.025  -0.496  1.00  0.00     0.243 C 
HETATM   13  O5  UNL     1       4.681   1.080  -0.213  1.00  0.00    -0.271 OA
BRANCH  11  14
HETATM   14  C6  UNL     1       5.926  -1.426   0.622  1.00  0.00     0.229 C 
BRANCH  14  15
HETATM   15  C5  UNL     1       7.284  -1.053   0.138  1.00  0.00     0.239 C 
HETATM   16  N1  UNL     1       7.444  -0.549  -1.161  1.00  0.00    -0.336 N 
ATOM     17  H1  UNL     1       6.617  -0.462  -1.752  1.00  0.00     0.168 HD
HETATM   18  O1  UNL     1       8.208  -1.234   0.982  1.00  0.00    -0.271 OA
BRANCH  16  19
HETATM   19  C4  UNL     1       8.696  -0.154  -1.695  1.00  0.00     0.087 C 
BRANCH  19  20
HETATM   20  C3  UNL     1       9.420   1.015  -1.194  1.00  0.00    -0.010 C 
BRANCH  20  21
HETATM   21  C2  UNL     1       9.826   1.183   0.199  1.00  0.00     0.024 C 
HETATM   22  C1  UNL     1      10.611   2.530   0.254  1.00  0.00     0.009 C 
ENDBRANCH  20  21
ENDBRANCH  19  20
ENDBRANCH  16  19
ENDBRANCH  14  15
ENDBRANCH  11  14
ENDBRANCH   4   5
ENDBRANCH   3   4
ENDBRANCH   2   3
ENDBRANCH   1   2
BRANCH   1  23
HETATM   23  S1  UNL     1      -1.012   0.367   2.015  1.00  0.00     0.106 S 
HETATM   24  O3  UNL     1      -0.436   1.314   1.055  1.00  0.00    -0.229 OA
BRANCH  23  25
HETATM   25  N4  UNL     1      -1.004   1.068   3.423  1.00  0.00    -0.345 N 
ATOM     26  H42 UNL     1      -0.515   0.748   4.259  1.00  0.00     0.167 HD
ATOM     27  H41 UNL     1      -1.587   1.898   3.313  1.00  0.00     0.167 HD
ENDBRANCH  23  25
BRANCH  23  28
HETATM   28  N5  UNL     1      -2.585  -0.198   1.634  1.00  0.00    -0.271 N 
HETATM   29  C14 UNL     1      -3.311   0.348   0.562  1.00  0.00     0.229 C 
HETATM   30  O4  UNL     1      -2.833   1.284  -0.155  1.00  0.00    -0.273 OA
ATOM     31  H5  UNL     1      -3.000  -0.942   2.194  1.00  0.00     0.180 HD
BRANCH  29  32
HETATM   32  C15 UNL     1      -4.650  -0.190   0.281  1.00  0.00     0.105 C 
BRANCH  32  33
HETATM   33  C16 UNL     1      -5.408   0.641  -0.680  1.00  0.00     0.029 C 
BRANCH  33  34
HETATM   34  C17 UNL     1      -5.682   2.010  -0.132  1.00  0.00     0.124 C 
BRANCH  34  35
HETATM   35  N6  UNL     1      -6.408   2.002   1.088  1.00  0.00    -0.351 N 
HETATM   36  C18 UNL     1      -7.650   1.768   1.170  1.00  0.00     0.281 C 
HETATM   37  F1  UNL     1      -8.218   1.789   2.400  1.00  0.00    -0.164 F 
ATOM     38  H6  UNL     1      -5.899   2.196   1.950  1.00  0.00     0.163 HD
BRANCH  36  39
HETATM   39  N7  UNL     1      -8.415   1.490   0.014  1.00  0.00    -0.177 N 
ATOM     40  H7  UNL     1      -8.278   2.043  -0.832  1.00  0.00     0.198 HD
BRANCH  39  41
HETATM   41  N8  UNL     1      -9.356   0.462   0.029  1.00  0.00     0.003 N 
HETATM   42  C19 UNL     1      -9.642   0.092  -1.355  1.00  0.00     0.301 C 
HETATM   43  C20 UNL     1     -10.555   0.924   0.690  1.00  0.00     0.301 C 
HETATM   44  C21 UNL     1      -8.830  -0.741   0.653  1.00  0.00     0.301 C 
ENDBRANCH  39  41
ENDBRANCH  36  39
ENDBRANCH  34  35
ENDBRANCH  33  34
ENDBRANCH  32  33
ENDBRANCH  29  32
ENDBRANCH  23  28
ENDBRANCH   1  23
TORSDOF 18
