REMARK  13 active torsions:
REMARK  status: ('A' for Active; 'I' for Inactive)
REMARK    1  A    between atoms: C2_3  and  S1_4 
REMARK    2  A    between atoms: S1_4  and  C3_5 
REMARK    3  A    between atoms: C3_5  and  C4_6 
REMARK    4  A    between atoms: C5_12  and  N4_13 
REMARK    5  A    between atoms: C7_21  and  N7_22 
REMARK    6  A    between atoms: C8_27  and  N9_28 
REMARK    7  A    between atoms: N9_28  and  C9_30 
REMARK    8  A    between atoms: C9_30  and  C10_31 
REMARK    9  A    between atoms: C10_31  and  N10_32 
REMARK       I    between atoms: N10_32  and  C11_34 
REMARK   10  A    between atoms: C11_34  and  C12_36 
REMARK   11  A    between atoms: C14_38  and  C15_39 
REMARK   12  A    between atoms: C15_39  and  O3_40 
REMARK   13  A    between atoms: C16_43  and  O5_44 
ROOT
HETATM    1  C1  UNL     1       3.784   1.564   1.644  1.00  0.00     0.161 C 
HETATM    2  N1  UNL     1       3.332   1.051   0.378  1.00  0.00    -0.298 N 
HETATM    3  C2  UNL     1       4.263   0.751  -0.545  1.00  0.00     0.150 A 
HETATM    4  N5  UNL     1       3.827   0.273  -1.725  1.00  0.00    -0.321 N 
ATOM      5  H5  UNL     1       4.516   0.040  -2.440  1.00  0.00     0.169 HD
HETATM    6  C6  UNL     1       2.520   0.087  -2.006  1.00  0.00     0.142 A 
HETATM    7  N6  UNL     1       2.083  -0.391  -3.184  1.00  0.00    -0.176 N 
ATOM      8  H6  UNL     1       2.773  -0.624  -3.898  1.00  0.00     0.186 HD
HETATM    9  C7  UNL     1       0.779  -0.577  -3.468  1.00  0.00     0.679 A 
HETATM   10  N8  UNL     1      -0.151  -0.276  -2.543  1.00  0.00    -0.176 N 
ATOM     11  H8  UNL     1      -1.139  -0.415  -2.755  1.00  0.00     0.186 HD
HETATM   12  C8  UNL     1       0.217   0.212  -1.328  1.00  0.00     0.136 A 
HETATM   13  C17 UNL     1       1.558   0.394  -1.060  1.00  0.00     0.121 A 
HETATM   14  C18 UNL     1       2.010   0.885   0.149  1.00  0.00     0.267 A 
HETATM   15  O6  UNL     1       1.132   1.167   1.017  1.00  0.00    -0.267 OA
ENDROOT
BRANCH  12  16
HETATM   16  N9  UNL     1      -0.613   0.516  -0.409  1.00  0.00    -0.373 N 
ATOM     17  H9  UNL     1      -0.237   0.874   0.469  1.00  0.00     0.161 HD
BRANCH  16  18
HETATM   18  C9  UNL     1      -2.053   0.389  -0.522  1.00  0.00     0.141 C 
BRANCH  18  19
HETATM   19  C10 UNL     1      -2.622   0.691   0.846  1.00  0.00     0.142 C 
BRANCH  19  20
HETATM   20  N10 UNL     1      -4.047   0.596   0.844  1.00  0.00    -0.355 N 
HETATM   21  C11 UNL     1      -4.795  -0.562   0.535  1.00  0.00     0.256 C 
HETATM   22  O2  UNL     1      -4.191  -1.618   0.232  1.00  0.00    -0.267 OA
ATOM     23  H10 UNL     1      -4.570   1.437   1.087  1.00  0.00     0.162 HD
BRANCH  21  24
HETATM   24  C12 UNL     1      -6.252  -0.546   0.563  1.00  0.00     0.092 A 
HETATM   25  C13 UNL     1      -7.063   0.536   0.877  1.00  0.00     0.057 A 
HETATM   26  C14 UNL     1      -8.375   0.109   0.780  1.00  0.00     0.080 A 
HETATM   27  O4  UNL     1      -8.361  -1.148   0.431  1.00  0.00    -0.289 OA
HETATM   28  C16 UNL     1      -7.130  -1.575   0.292  1.00  0.00     0.199 A 
BRANCH  26  29
HETATM   29  C15 UNL     1      -9.583   0.931   1.028  1.00  0.00     0.229 C 
BRANCH  29  30
HETATM   30  O3  UNL     1     -10.011   0.894   2.337  1.00  0.00    -0.394 OA
ATOM     31  H3  UNL     1     -10.785   1.421   2.496  1.00  0.00     0.209 HD
ENDBRANCH  29  30
ENDBRANCH  26  29
BRANCH  28  32
HETATM   32  O5  UNL     1      -6.775  -2.864  -0.071  1.00  0.00    -0.340 OA
ATOM     33  H5  UNL     1      -7.380  -3.573  -0.258  1.00  0.00     0.220 HD
ENDBRANCH  28  32
ENDBRANCH  21  24
ENDBRANCH  19  20
ENDBRANCH  18  19
ENDBRANCH  16  18
ENDBRANCH  12  16
BRANCH   9  34
HETATM   34  N7  UNL     1       0.393  -1.040  -4.615  1.00  0.00    -0.234 N 
ATOM     35  H72 UNL     1       1.098  -1.268  -5.316  1.00  0.00     0.174 HD
ATOM     36  H71 UNL     1      -0.594  -1.181  -4.830  1.00  0.00     0.174 HD
ENDBRANCH   9  34
BRANCH   3  37
HETATM   37  S1  UNL     1       6.017   0.981  -0.217  1.00  0.00    -0.087 SA
BRANCH  37  38
HETATM   38  C3  UNL     1       6.736  -0.511   0.517  1.00  0.00     0.145 C 
BRANCH  38  39
HETATM   39  C4  UNL     1       8.177  -0.233   0.752  1.00  0.00     0.089 A 
HETATM   40  N2  UNL     1       8.903   0.855   0.513  1.00  0.00    -0.241 N 
HETATM   41  O1  UNL     1      10.114   0.625   0.886  1.00  0.00    -0.155 OA
ATOM     42  H2  UNL     1       8.559   1.724   0.104  1.00  0.00     0.196 HD
HETATM   43  N3  UNL     1      10.247  -0.575   1.372  1.00  0.00    -0.224 N 
HETATM   44  C5  UNL     1       9.041  -1.154   1.306  1.00  0.00     0.146 A 
ATOM     45  H3  UNL     1      11.104  -0.994   1.733  1.00  0.00     0.198 HD
BRANCH  44  46
HETATM   46  N4  UNL     1       8.752  -2.356   1.692  1.00  0.00    -0.382 N 
ATOM     47  H42 UNL     1       7.834  -2.797   1.642  1.00  0.00     0.157 HD
ATOM     48  H41 UNL     1       9.391  -3.037   2.102  1.00  0.00     0.157 HD
ENDBRANCH  44  46
ENDBRANCH  38  39
ENDBRANCH  37  38
ENDBRANCH   3  37
TORSDOF 13
