REMARK  13 active torsions:
REMARK  status: ('A' for Active; 'I' for Inactive)
REMARK    1  A    between atoms: C2_2  and  N1_4 
REMARK    2  A    between atoms: N2_5  and  C4_6 
REMARK    3  A    between atoms: C4_6  and  C5_7 
REMARK       I    between atoms: C5_7  and  N3_9 
REMARK    4  A    between atoms: N3_9  and  C6_11 
REMARK    5  A    between atoms: C6_11  and  C7_12 
REMARK    6  A    between atoms: C6_11  and  C12_19 
REMARK    7  A    between atoms: C7_12  and  O3_14 
REMARK    8  A    between atoms: O3_14  and  C8_15 
REMARK    9  A    between atoms: C16_23  and  C17_24 
REMARK       I    between atoms: C17_24  and  N4_26 
REMARK   10  A    between atoms: N4_26  and  C18_28 
REMARK   11  A    between atoms: C18_28  and  C19_29 
REMARK       I    between atoms: C19_29  and  N5_31 
REMARK   12  A    between atoms: N5_31  and  S1_33 
REMARK   13  A    between atoms: S1_33  and  C20_36 
ROOT
HETATM    1  N1  UNL     1      -0.352   2.133  -1.300  1.00  0.00    -0.131 NA
HETATM    2  N2  UNL     1      -0.123   1.252  -0.266  1.00  0.00    -0.190 NA
HETATM    3  C16 UNL     1       1.255   1.307   0.124  1.00  0.00     0.087 C 
HETATM    4  C27 UNL     1       1.977   2.515  -0.249  1.00  0.00     0.217 C 
HETATM    5  S3  UNL     1       0.751   3.446  -1.155  1.00  0.00     0.230 S 
HETATM    6  O8  UNL     1       0.239   4.560  -0.308  1.00  0.00    -0.210 OA
HETATM    7  O9  UNL     1       1.286   3.926  -2.465  1.00  0.00    -0.210 OA
ENDROOT
BRANCH   3   8
HETATM    8  C17 UNL     1       1.953   0.005  -0.111  1.00  0.00     0.262 C 
HETATM    9  O4  UNL     1       1.167  -0.943  -0.461  1.00  0.00    -0.267 OA
HETATM   10  N4  UNL     1       3.323  -0.107   0.052  1.00  0.00    -0.336 N 
ATOM     11  H4  UNL     1       3.810   0.747   0.325  1.00  0.00     0.164 HD
BRANCH  10  12
HETATM   12  C18 UNL     1       4.155  -1.285  -0.116  1.00  0.00     0.139 A 
HETATM   13  C23 UNL     1       3.845  -2.011  -1.363  1.00  0.00     0.117 A 
HETATM   14  S2  UNL     1       3.421  -3.561  -0.577  1.00  0.00    -0.154 SA
HETATM   15  C24 UNL     1       3.838  -2.443   0.730  1.00  0.00     0.036 A 
HETATM   16  C25 UNL     1       5.086  -2.970   1.461  1.00  0.00     0.030 C 
HETATM   17  C26 UNL     1       2.767  -2.259   1.802  1.00  0.00     0.030 C 
BRANCH  12  18
HETATM   18  C19 UNL     1       5.626  -0.943  -0.002  1.00  0.00     0.261 C 
HETATM   19  O5  UNL     1       5.957   0.143   0.535  1.00  0.00    -0.270 OA
HETATM   20  N5  UNL     1       6.630  -1.799  -0.484  1.00  0.00    -0.252 N 
ATOM     21  H5  UNL     1       6.331  -2.670  -0.923  1.00  0.00     0.181 HD
BRANCH  20  22
HETATM   22  S1  UNL     1       8.313  -1.501  -0.395  1.00  0.00     0.237 S 
HETATM   23  O6  UNL     1       8.703  -0.764  -1.653  1.00  0.00    -0.205 OA
HETATM   24  O7  UNL     1       9.022  -2.839  -0.402  1.00  0.00    -0.205 OA
BRANCH  22  25
HETATM   25  C20 UNL     1       8.784  -0.567   1.045  1.00  0.00     0.130 A 
HETATM   26  C21 UNL     1      10.157   0.087   0.955  1.00  0.00     0.023 A 
HETATM   27  C22 UNL     1       8.927   0.920   0.812  1.00  0.00     0.023 A 
ENDBRANCH  22  25
ENDBRANCH  20  22
ENDBRANCH  12  18
ENDBRANCH  10  12
ENDBRANCH   3   8
BRANCH   2  28
HETATM   28  C4  UNL     1      -0.937   1.737   0.853  1.00  0.00     0.218 C 
BRANCH  28  29
HETATM   29  C5  UNL     1      -2.329   1.218   0.852  1.00  0.00     0.236 C 
HETATM   30  O1  UNL     1      -3.122   1.675   1.753  1.00  0.00    -0.272 OA
HETATM   31  N3  UNL     1      -2.808   0.270  -0.055  1.00  0.00    -0.324 N 
ATOM     32  H3  UNL     1      -2.143  -0.076  -0.747  1.00  0.00     0.169 HD
BRANCH  31  33
HETATM   33  C6  UNL     1      -4.127  -0.265  -0.115  1.00  0.00     0.095 C 
BRANCH  33  34
HETATM   34  C7  UNL     1      -5.255   0.650   0.038  1.00  0.00     0.307 C 
HETATM   35  O2  UNL     1      -5.146   1.889   0.033  1.00  0.00    -0.258 OA
BRANCH  34  36
HETATM   36  O3  UNL     1      -6.516   0.131   0.199  1.00  0.00    -0.306 OA
BRANCH  36  37
HETATM   37  C8  UNL     1      -7.699   0.842   0.349  1.00  0.00     0.060 C 
HETATM   38  C9  UNL     1      -8.829  -0.185   0.524  1.00  0.00     0.046 C 
HETATM   39  C10 UNL     1      -7.752   1.788   1.499  1.00  0.00     0.046 C 
HETATM   40  C11 UNL     1      -8.078   1.611  -0.912  1.00  0.00     0.046 C 
ENDBRANCH  36  37
ENDBRANCH  34  36
ENDBRANCH  33  34
BRANCH  33  41
HETATM   41  C12 UNL     1      -4.190  -1.553   0.649  1.00  0.00    -0.003 C 
HETATM   42  C13 UNL     1      -3.855  -1.411   2.105  1.00  0.00     0.021 C 
HETATM   43  C14 UNL     1      -5.503  -2.246   0.427  1.00  0.00     0.021 C 
HETATM   44  C15 UNL     1      -3.095  -2.454   0.062  1.00  0.00     0.021 C 
ENDBRANCH  33  41
ENDBRANCH  31  33
ENDBRANCH  28  29
ENDBRANCH   2  28
BRANCH   1  45
HETATM   45  C2  UNL     1      -0.458   1.651  -2.633  1.00  0.00     0.084 C 
HETATM   46  C1  UNL     1       0.801   1.250  -3.312  1.00  0.00     0.028 C 
HETATM   47  C3  UNL     1      -1.071   2.795  -3.459  1.00  0.00     0.028 C 
ENDBRANCH   1  45
TORSDOF 13
