REMARK  1 active torsions:
REMARK  status: ('A' for Active; 'I' for Inactive)
REMARK    1  A    between atoms: C5_5  and  C6_6 
REMARK       I    between atoms: C6_6  and  N1_8 
ROOT
HETATM    1  C1  UNL     1      -4.031  -0.432  -0.047  1.00  0.00     0.012 C 
HETATM    2  C2  UNL     1      -2.838  -0.324  -0.259  1.00  0.00    -0.112 C 
HETATM    3  C3  UNL     1      -1.406  -0.193  -0.539  1.00  0.00     0.078 A 
HETATM    4  C4  UNL     1      -0.907   1.273  -0.656  1.00  0.00     0.033 A 
HETATM    5  C5  UNL     1      -0.545   0.373   0.531  1.00  0.00     0.094 A 
ENDROOT
BRANCH   5   6
HETATM    6  C6  UNL     1       0.901   0.055   0.588  1.00  0.00     0.222 C 
HETATM    7  O1  UNL     1       1.475   0.161   1.702  1.00  0.00    -0.273 OA
HETATM    8  N1  UNL     1       1.653  -0.353  -0.524  1.00  0.00    -0.365 N 
HETATM    9  C7  UNL     1       3.060  -0.651  -0.416  1.00  0.00     0.149 C 
ATOM     10  H1  UNL     1       1.194  -0.441  -1.430  1.00  0.00     0.161 HD
ENDBRANCH   5   6
TORSDOF 1
