REMARK  8 active torsions:
REMARK  status: ('A' for Active; 'I' for Inactive)
REMARK    1  A    between atoms: C2_2  and  O1_3 
REMARK    2  A    between atoms: O1_3  and  C3_4 
REMARK    3  A    between atoms: C3_4  and  C4_5 
REMARK    4  A    between atoms: C4_5  and  O2_6 
REMARK    5  A    between atoms: O2_6  and  C5_7 
REMARK    6  A    between atoms: C5_7  and  C6_9 
REMARK    7  A    between atoms: C9_18  and  C10_19 
REMARK    8  A    between atoms: C11_20  and  C12_21 
ROOT
HETATM    1  C6  UNL     1      -0.125   1.448   1.129  1.00  0.00     0.192 C 
HETATM    2  C7  UNL     1       0.653   2.714   1.077  1.00  0.00     0.038 C 
HETATM    3  N1  UNL     1       1.903   2.925   1.221  1.00  0.00    -0.402 N 
ATOM      4  H11 UNL     1       2.437   3.793   1.185  1.00  0.00     0.155 HD
ATOM      5  H12 UNL     1       2.586   2.190   1.405  1.00  0.00     0.155 HD
HETATM    6  C8  UNL     1      -0.341   3.783   0.810  1.00  0.00     0.226 C 
HETATM    7 CL1  UNL     1       0.212   4.794  -0.552  1.00  0.00    -0.096 Cl
HETATM    8  N2  UNL     1      -1.496   3.051   0.372  1.00  0.00    -0.363 N 
ATOM      9  H2  UNL     1      -2.316   3.504  -0.032  1.00  0.00     0.162 HD
HETATM   10  C9  UNL     1      -1.412   1.783   0.531  1.00  0.00     0.080 C 
ENDROOT
BRANCH   1  11
HETATM   11  C5  UNL     1       0.595   0.363   0.429  1.00  0.00     0.275 C 
HETATM   12  O3  UNL     1       0.060  -0.200  -0.550  1.00  0.00    -0.264 OA
BRANCH  11  13
HETATM   13  O2  UNL     1       1.838  -0.037   0.831  1.00  0.00    -0.318 OA
BRANCH  13  14
HETATM   14  C4  UNL     1       2.592  -1.068   0.213  1.00  0.00     0.205 C 
BRANCH  14  15
HETATM   15  C3  UNL     1       3.901  -1.202   0.953  1.00  0.00     0.194 C 
BRANCH  15  16
HETATM   16  O1  UNL     1       4.665  -0.052   0.951  1.00  0.00    -0.389 OA
BRANCH  16  17
HETATM   17  C2  UNL     1       5.000   0.336  -0.337  1.00  0.00     0.163 C 
HETATM   18  C1  UNL     1       5.776  -0.822  -0.954  1.00  0.00     0.033 C 
ENDBRANCH  16  17
ENDBRANCH  15  16
ENDBRANCH  14  15
ENDBRANCH  13  14
ENDBRANCH  11  13
ENDBRANCH   1  11
BRANCH  10  19
HETATM   19  C10 UNL     1      -2.436   0.797   0.176  1.00  0.00    -0.051 C 
HETATM   20  C11 UNL     1      -3.281  -0.019  -0.096  1.00  0.00    -0.091 C 
BRANCH  20  21
HETATM   21  C12 UNL     1      -4.305  -1.021  -0.404  1.00  0.00     0.013 C 
HETATM   22  C13 UNL     1      -5.283  -0.525  -1.448  1.00  0.00     0.028 C 
HETATM   23  C14 UNL     1      -3.576  -2.224  -0.968  1.00  0.00     0.028 C 
HETATM   24  C15 UNL     1      -5.050  -1.384   0.870  1.00  0.00     0.028 C 
ENDBRANCH  20  21
ENDBRANCH  10  19
TORSDOF 8
