REMARK  18 active torsions:
REMARK  status: ('A' for Active; 'I' for Inactive)
REMARK    1  A    between atoms: C4_4  and  C5_5 
REMARK    2  A    between atoms: C5_5  and  N1_8 
REMARK    3  A    between atoms: N1_8  and  C8_11 
REMARK    4  A    between atoms: C8_11  and  C9_12 
REMARK    5  A    between atoms: C9_12  and  O1_13 
REMARK    6  A    between atoms: C9_12  and  C10_15 
REMARK    7  A    between atoms: C10_15  and  C12_22 
REMARK    8  A    between atoms: N2_16  and  O2_18 
REMARK    9  A    between atoms: O2_18  and  C11_19 
REMARK   10  A    between atoms: C12_22  and  N3_23 
REMARK   11  A    between atoms: C12_22  and  C13_27 
REMARK       I    between atoms: C13_27  and  N4_29 
REMARK   12  A    between atoms: N4_29  and  C14_31 
REMARK   13  A    between atoms: C15_32  and  O4_33 
REMARK   14  A    between atoms: C16_35  and  O5_36 
REMARK   15  A    between atoms: C17_38  and  O6_39 
REMARK   16  A    between atoms: C18_41  and  O7_42 
REMARK   17  A    between atoms: C19_44  and  N5_45 
REMARK   18  A    between atoms: N5_45  and  N6_46 
ROOT
HETATM    1  C12 UNL     1      -0.979  -2.416  -0.462  1.00  0.00     0.324 C 
ENDROOT
BRANCH   1   2
HETATM    2  C10 UNL     1       0.461  -2.253  -0.751  1.00  0.00     0.080 C 
HETATM    3  N2  UNL     1       1.060  -2.978  -1.600  1.00  0.00    -0.264 N 
ATOM      4  H2  UNL     1       2.055  -2.812  -1.750  1.00  0.00     0.194 HD
BRANCH   2   5
HETATM    5  C9  UNL     1       1.217  -1.209  -0.020  1.00  0.00     0.194 C 
BRANCH   5   6
HETATM    6  C8  UNL     1       2.673  -1.178  -0.444  1.00  0.00     0.271 C 
BRANCH   6   7
HETATM    7  N1  UNL     1       3.345  -0.182   0.328  1.00  0.00    -0.061 N 
ATOM      8  H12 UNL     1       3.223  -0.350   1.327  1.00  0.00     0.278 HD
ATOM      9  H11 UNL     1       2.873   0.719   0.253  1.00  0.00     0.278 HD
BRANCH   7  10
HETATM   10  C5  UNL     1       4.751  -0.062  -0.012  1.00  0.00     0.136 C 
HETATM   11  C6  UNL     1       4.921   0.331  -1.461  1.00  0.00     0.050 C 
HETATM   12  C7  UNL     1       5.343  -1.455   0.159  1.00  0.00     0.050 C 
BRANCH  10  13
HETATM   13  C4  UNL     1       5.478   0.861   0.887  1.00  0.00     0.013 C 
HETATM   14  C2  UNL     1       5.324   2.163   0.932  1.00  0.00    -0.089 C 
HETATM   15  C1  UNL     1       6.115   3.026   1.888  1.00  0.00     0.042 C 
HETATM   16  C3  UNL     1       4.372   2.893   0.059  1.00  0.00     0.042 C 
ENDBRANCH  10  13
ENDBRANCH   7  10
ENDBRANCH   6   7
ENDBRANCH   5   6
BRANCH   5  17
HETATM   17  O1  UNL     1       0.684   0.054  -0.267  1.00  0.00    -0.388 OA
ATOM     18  H1  UNL     1      -0.228   0.035  -0.001  1.00  0.00     0.210 HD
ENDBRANCH   5  17
ENDBRANCH   2   5
BRANCH   3  19
HETATM   19  O2  UNL     1       0.460  -3.972  -2.332  1.00  0.00    -0.212 OA
BRANCH  19  20
HETATM   20  C11 UNL     1       1.139  -4.876  -3.145  1.00  0.00     0.522 C 
HETATM   21  F1  UNL     1       0.742  -4.666  -4.451  1.00  0.00    -0.183 F 
HETATM   22  F2  UNL     1       0.959  -6.193  -2.753  1.00  0.00    -0.183 F 
ENDBRANCH  19  20
ENDBRANCH   3  19
ENDBRANCH   1   2
BRANCH   1  23
HETATM   23  N3  UNL     1      -1.200  -2.900   0.898  1.00  0.00    -0.061 N 
ATOM     24  H33 UNL     1      -0.684  -3.761   1.076  1.00  0.00     0.275 HD
ATOM     25  H32 UNL     1      -0.747  -2.299   1.586  1.00  0.00     0.275 HD
ATOM     26  H31 UNL     1      -2.194  -3.013   1.097  1.00  0.00     0.275 HD
ENDBRANCH   1  23
BRANCH   1  27
HETATM   27  C13 UNL     1      -1.781  -1.198  -0.738  1.00  0.00     0.254 C 
HETATM   28  O3  UNL     1      -1.660  -0.667  -1.861  1.00  0.00    -0.271 OA
HETATM   29  N4  UNL     1      -2.640  -0.658   0.214  1.00  0.00    -0.350 N 
ATOM     30  H4  UNL     1      -2.689  -1.139   1.112  1.00  0.00     0.163 HD
BRANCH  29  31
HETATM   31  C14 UNL     1      -3.473   0.520   0.060  1.00  0.00     0.139 C 
HETATM   32  C15 UNL     1      -2.894   1.650   0.870  1.00  0.00     0.173 C 
HETATM   33  C16 UNL     1      -3.831   2.837   0.708  1.00  0.00     0.180 C 
HETATM   34  C17 UNL     1      -5.058   2.468   1.508  1.00  0.00     0.179 C 
HETATM   35  C18 UNL     1      -5.705   1.202   1.075  1.00  0.00     0.172 C 
HETATM   36  C19 UNL     1      -4.905   0.251   0.278  1.00  0.00     0.155 C 
BRANCH  32  37
HETATM   37  O4  UNL     1      -2.779   1.364   2.207  1.00  0.00    -0.391 OA
ATOM     38  H4  UNL     1      -2.414   2.077   2.718  1.00  0.00     0.210 HD
ENDBRANCH  32  37
BRANCH  33  39
HETATM   39  O5  UNL     1      -4.112   3.119  -0.608  1.00  0.00    -0.390 OA
ATOM     40  H5  UNL     1      -4.697   3.860  -0.709  1.00  0.00     0.210 HD
ENDBRANCH  33  39
BRANCH  34  41
HETATM   41  O6  UNL     1      -5.967   3.551   1.501  1.00  0.00    -0.390 OA
ATOM     42  H6  UNL     1      -6.739   3.319   2.004  1.00  0.00     0.210 HD
ENDBRANCH  34  41
BRANCH  35  43
HETATM   43  O7  UNL     1      -6.239   0.607   2.249  1.00  0.00    -0.391 OA
ATOM     44  H7  UNL     1      -6.653  -0.202   1.972  1.00  0.00     0.210 HD
ENDBRANCH  35  43
BRANCH  36  45
HETATM   45  N5  UNL     1      -5.603  -0.011  -0.975  1.00  0.00    -0.139 NA
BRANCH  45  46
HETATM   46  N6  UNL     1      -5.151  -1.108  -1.667  1.00  0.00    -0.348 N 
ATOM     47  H62 UNL     1      -4.385  -1.684  -1.318  1.00  0.00     0.172 HD
ATOM     48  H61 UNL     1      -5.639  -1.291  -2.544  1.00  0.00     0.172 HD
ENDBRANCH  45  46
ENDBRANCH  36  45
ENDBRANCH  29  31
ENDBRANCH   1  27
TORSDOF 18
