REMARK  9 active torsions:
REMARK  status: ('A' for Active; 'I' for Inactive)
REMARK       I    between atoms: C1_4  and  N3_6 
REMARK    1  A    between atoms: N3_6  and  C2_8 
REMARK    2  A    between atoms: C2_8  and  C3_9 
REMARK    3  A    between atoms: C3_9  and  C4_10 
REMARK    4  A    between atoms: C4_10  and  C5_11 
REMARK    5  A    between atoms: C5_11  and  N4_12 
REMARK    6  A    between atoms: C6_14  and  C7_15 
REMARK    7  A    between atoms: C7_15  and  C8_16 
REMARK    8  A    between atoms: C8_16  and  C9_17 
REMARK    9  A    between atoms: C9_17  and  N5_18 
ROOT
HETATM    1  N4  UNL     1       0.742  -0.463  -0.035  1.00  0.00    -0.223 N 
HETATM    2  O1  UNL     1      -0.426  -0.663   0.565  1.00  0.00    -0.241 OA
HETATM    3  C6  UNL     1      -1.442   0.183   0.242  1.00  0.00     0.351 C 
HETATM    4  N8  UNL     1      -1.079   1.364  -0.472  1.00  0.00    -0.038 N 
ATOM      5  H81 UNL     1      -0.599   2.021   0.143  1.00  0.00     0.280 HD
ATOM      6  H82 UNL     1      -1.908   1.914  -0.699  1.00  0.00     0.280 HD
HETATM    7  C11 UNL     1      -0.297   1.117  -1.656  1.00  0.00     0.340 C 
HETATM    8  C12 UNL     1       0.811   0.206  -1.271  1.00  0.00     0.269 C 
HETATM    9  O2  UNL     1       1.801   0.018  -2.014  1.00  0.00    -0.269 OA
ENDROOT
BRANCH   1  10
HETATM   10  C5  UNL     1       1.944  -0.968   0.649  1.00  0.00     0.159 C 
BRANCH  10  11
HETATM   11  C4  UNL     1       2.423   0.138   1.530  1.00  0.00     0.024 C 
BRANCH  11  12
HETATM   12  C3  UNL     1       3.655  -0.205   2.312  1.00  0.00     0.021 C 
BRANCH  12  13
HETATM   13  C2  UNL     1       4.830  -0.553   1.463  1.00  0.00     0.122 C 
BRANCH  13  14
HETATM   14  N3  UNL     1       5.225   0.514   0.584  1.00  0.00    -0.365 N 
HETATM   15  C1  UNL     1       6.361   0.245  -0.270  1.00  0.00     0.181 C 
HETATM   16  N1  UNL     1       6.408   0.709  -1.468  1.00  0.00    -0.374 N 
HETATM   17  N2  UNL     1       7.449  -0.536   0.193  1.00  0.00    -0.064 NA
ATOM     18  H12 UNL     1       7.209   0.519  -2.070  1.00  0.00     0.158 HD
ATOM     19  H11 UNL     1       5.625   1.271  -1.801  1.00  0.00     0.158 HD
ATOM     20  H3  UNL     1       4.733   1.407   0.564  1.00  0.00     0.162 HD
ENDBRANCH  13  14
ENDBRANCH  12  13
ENDBRANCH  11  12
ENDBRANCH  10  11
ENDBRANCH   1  10
BRANCH   3  21
HETATM   21  C7  UNL     1      -2.573  -0.508  -0.507  1.00  0.00     0.066 C 
BRANCH  21  22
HETATM   22  C8  UNL     1      -3.626   0.550  -0.798  1.00  0.00     0.024 C 
BRANCH  22  23
HETATM   23  C9  UNL     1      -4.801  -0.046  -1.548  1.00  0.00     0.122 C 
BRANCH  23  24
HETATM   24  N5  UNL     1      -5.460  -1.093  -0.830  1.00  0.00    -0.367 N 
HETATM   25  C10 UNL     1      -6.546  -0.863  -0.196  1.00  0.00     0.196 C 
HETATM   26  N6  UNL     1      -7.182  -1.943   0.517  1.00  0.00    -0.067 NA
HETATM   27  N7  UNL     1      -7.096   0.432  -0.206  1.00  0.00    -0.067 NA
ATOM     28  H5  UNL     1      -5.060  -2.031  -0.824  1.00  0.00     0.161 HD
ENDBRANCH  23  24
ENDBRANCH  22  23
ENDBRANCH  21  22
ENDBRANCH   3  21
TORSDOF 9
