REMARK  5 active torsions:
REMARK  status: ('A' for Active; 'I' for Inactive)
REMARK    1  A    between atoms: N3_7  and  C4_8 
REMARK    2  A    between atoms: C7_13  and  N5_14 
REMARK    3  A    between atoms: C8_19  and  N7_20 
REMARK    4  A    between atoms: N10_29  and  C11_31 
REMARK    5  A    between atoms: C11_31  and  C12_32 
ROOT
HETATM    1  N1  UNL     1      -3.823  -2.219   4.191  1.00  0.00    -0.191 NA
HETATM    2  C1  UNL     1      -2.757  -2.219   3.754  1.00  0.00     0.105 C 
HETATM    3  C2  UNL     1      -1.439  -2.208   3.191  1.00  0.00     0.107 A 
HETATM    4  C3  UNL     1      -0.302  -2.776   3.691  1.00  0.00     0.134 A 
HETATM    5  N2  UNL     1       0.685  -2.515   2.838  1.00  0.00    -0.300 N 
ATOM      6  H2  UNL     1       1.648  -2.825   2.969  1.00  0.00     0.186 HD
HETATM    7  N3  UNL     1       0.268  -1.802   1.793  1.00  0.00    -0.221 N 
HETATM    8  C10 UNL     1      -1.039  -1.592   1.976  1.00  0.00     0.147 A 
HETATM    9  N10 UNL     1      -1.862  -0.973   1.258  1.00  0.00    -0.371 N 
ATOM     10  H10 UNL     1      -2.812  -0.962   1.630  1.00  0.00     0.161 HD
ENDROOT
BRANCH   7  11
HETATM   11  C4  UNL     1       1.131  -1.378   0.715  1.00  0.00     0.146 A 
HETATM   12  C5  UNL     1       1.188  -2.043  -0.490  1.00  0.00     0.139 A 
HETATM   13  N4  UNL     1       2.005  -1.655  -1.485  1.00  0.00    -0.356 N 
HETATM   14  C6  UNL     1       2.811  -0.588  -1.342  1.00  0.00     0.122 A 
ATOM     15  H4  UNL     1       2.014  -2.178  -2.361  1.00  0.00     0.165 HD
HETATM   16  C7  UNL     1       3.655  -0.189  -2.370  1.00  0.00     0.145 A 
HETATM   17  C9  UNL     1       2.766   0.087  -0.142  1.00  0.00     0.153 A 
HETATM   18  N6  UNL     1       4.445   0.886  -2.183  1.00  0.00    -0.175 N 
HETATM   19  C8  UNL     1       4.389   1.537  -1.001  1.00  0.00     0.679 A 
ATOM     20  H6  UNL     1       5.074   1.203  -2.921  1.00  0.00     0.186 HD
HETATM   21  N8  UNL     1       3.574   1.152  -0.006  1.00  0.00    -0.174 N 
ATOM     22  H8  UNL     1       3.568   1.677   0.868  1.00  0.00     0.186 HD
HETATM   23  N9  UNL     1       1.938  -0.309   0.861  1.00  0.00    -0.324 N 
ATOM     24  H9  UNL     1       1.928   0.212   1.738  1.00  0.00     0.169 HD
BRANCH  16  25
HETATM   25  N5  UNL     1       3.685  -0.843  -3.505  1.00  0.00    -0.383 N 
ATOM     26  H52 UNL     1       3.087  -1.657  -3.647  1.00  0.00     0.157 HD
ATOM     27  H51 UNL     1       4.305  -0.550  -4.260  1.00  0.00     0.157 HD
ENDBRANCH  16  25
BRANCH  19  28
HETATM   28  N7  UNL     1       5.173   2.575  -0.862  1.00  0.00    -0.234 N 
ATOM     29  H72 UNL     1       5.792   2.868  -1.618  1.00  0.00     0.174 HD
ATOM     30  H71 UNL     1       5.131   3.067   0.031  1.00  0.00     0.174 HD
ENDBRANCH  19  28
ENDBRANCH   7  11
BRANCH   9  31
HETATM   31  C11 UNL     1      -1.717  -0.286   0.026  1.00  0.00     0.153 C 
BRANCH  31  32
HETATM   32  C12 UNL     1      -2.939   0.579  -0.293  1.00  0.00     0.139 C 
HETATM   33  C13 UNL     1      -2.655   1.432  -1.511  1.00  0.00     0.035 C 
HETATM   34  C14 UNL     1      -3.709   2.520  -1.346  1.00  0.00     0.029 C 
HETATM   35  C15 UNL     1      -3.873   2.555   0.150  1.00  0.00     0.168 C 
HETATM   36  O1  UNL     1      -3.141   1.526   0.686  1.00  0.00    -0.384 OA
ENDBRANCH  31  32
ENDBRANCH   9  31
TORSDOF 5
