REMARK  5 active torsions:
REMARK  status: ('A' for Active; 'I' for Inactive)
REMARK    1  A    between atoms: O1_1  and  C1_3 
REMARK    2  A    between atoms: C1_3  and  C2_4 
REMARK    3  A    between atoms: C3_5  and  C4_6 
REMARK    4  A    between atoms: C8_13  and  C9_14 
REMARK    5  A    between atoms: C10_15  and  C11_16 
ROOT
HETATM    1  C1  UNL     1      -1.058  -1.762  -0.021  1.00  0.00     0.170 C 
HETATM    2  C7  UNL     1      -0.089  -1.940   1.100  1.00  0.00     0.288 C 
HETATM    3  N1  UNL     1       0.947  -0.931   1.142  1.00  0.00    -0.049 N 
ATOM      4  H11 UNL     1       1.653  -1.135   1.849  1.00  0.00     0.279 HD
ATOM      5  H12 UNL     1       0.608  -0.048   1.523  1.00  0.00     0.279 HD
HETATM    6  C8  UNL     1       1.523  -0.771  -0.171  1.00  0.00     0.211 C 
HETATM    7  C13 UNL     1       1.714  -2.080  -0.874  1.00  0.00     0.221 C 
HETATM    8  O3  UNL     1       0.598  -2.355  -1.614  1.00  0.00    -0.378 OA
HETATM    9  C14 UNL     1      -0.372  -1.412  -1.328  1.00  0.00     0.173 C 
HETATM   10  C15 UNL     1       0.430  -0.134  -1.042  1.00  0.00     0.090 C 
ENDROOT
BRANCH   1  11
HETATM   11  O1  UNL     1      -1.754  -2.960  -0.182  1.00  0.00    -0.373 OA
ATOM     12  H1  UNL     1      -1.164  -3.666  -0.421  1.00  0.00     0.212 HD
ENDBRANCH   1  11
BRANCH   1  13
HETATM   13  C2  UNL     1      -1.975  -0.665   0.350  1.00  0.00    -0.063 C 
HETATM   14  C3  UNL     1      -2.739   0.218   0.649  1.00  0.00    -0.099 C 
BRANCH  14  15
HETATM   15  C4  UNL     1      -3.686   1.276   1.003  1.00  0.00     0.065 A 
HETATM   16  C5  UNL     1      -4.233   2.190  -0.012  1.00  0.00     0.018 A 
HETATM   17  C6  UNL     1      -5.136   1.111   0.451  1.00  0.00     0.018 A 
ENDBRANCH  14  15
ENDBRANCH   1  13
BRANCH   6  18
HETATM   18  C9  UNL     1       2.707   0.041  -0.096  1.00  0.00    -0.062 C 
HETATM   19  C10 UNL     1       3.718   0.709  -0.036  1.00  0.00    -0.070 C 
BRANCH  19  20
HETATM   20  C11 UNL     1       4.951   1.495   0.028  1.00  0.00     0.224 A 
HETATM   21  C12 UNL     1       4.892   2.724   0.852  1.00  0.00     0.214 A 
HETATM   22  O2  UNL     1       5.524   1.533   1.289  1.00  0.00    -0.368 OA
ENDBRANCH  19  20
ENDBRANCH   6  18
TORSDOF 5
