REMARK  13 active torsions:
REMARK  status: ('A' for Active; 'I' for Inactive)
REMARK    1  A    between atoms: C2_2  and  C4_4 
REMARK    2  A    between atoms: C4_4  and  C5_5 
REMARK    3  A    between atoms: C5_5  and  C6_6 
REMARK       I    between atoms: C6_6  and  N1_8 
REMARK    4  A    between atoms: N1_8  and  C7_10 
REMARK    5  A    between atoms: N2_13  and  C10_14 
REMARK    6  A    between atoms: C10_14  and  O2_15 
REMARK    7  A    between atoms: C10_14  and  C11_17 
REMARK    8  A    between atoms: C11_17  and  C12_18 
REMARK    9  A    between atoms: C11_17  and  N4_26 
REMARK   10  A    between atoms: C12_18  and  C13_19 
REMARK       I    between atoms: N4_26  and  C18_28 
REMARK       I    between atoms: C18_28  and  N5_30 
REMARK   11  A    between atoms: C20_35  and  C21_36 
REMARK       I    between atoms: C21_36  and  N8_38 
REMARK   12  A    between atoms: N8_38  and  C22_40 
REMARK   13  A    between atoms: C27_45  and  C28_46 
ROOT
HETATM    1  C7  UNL     1       2.779   0.172   0.084  1.00  0.00     0.086 C 
HETATM    2  C8  UNL     1       1.649  -0.344  -0.695  1.00  0.00     0.045 C 
HETATM    3  C9  UNL     1       0.265  -0.328  -0.189  1.00  0.00     0.128 C 
HETATM    4  N2  UNL     1      -0.343   0.877   0.242  1.00  0.00    -0.346 N 
HETATM    5  C20 UNL     1       0.325   2.116   0.621  1.00  0.00     0.183 C 
HETATM    6  C27 UNL     1       1.567   1.815   1.414  1.00  0.00     0.030 C 
HETATM    7  C29 UNL     1       2.721   1.591   0.515  1.00  0.00     0.033 C 
ENDROOT
BRANCH   4   8
HETATM    8  C10 UNL     1      -1.730   0.882   0.376  1.00  0.00     0.162 C 
BRANCH   8   9
HETATM    9  O2  UNL     1      -2.239   2.087   0.602  1.00  0.00    -0.345 OA
ATOM     10  H2  UNL     1      -3.185   2.090   0.693  1.00  0.00     0.219 HD
ENDBRANCH   8   9
BRANCH   8  11
HETATM   11  C11 UNL     1      -2.793  -0.118   0.336  1.00  0.00     0.065 C 
BRANCH  11  12
HETATM   12  C12 UNL     1      -2.483  -1.532   0.534  1.00  0.00     0.068 C 
BRANCH  12  13
HETATM   13  C13 UNL     1      -3.675  -2.506   0.483  1.00  0.00     0.010 C 
HETATM   14  C14 UNL     1      -3.118  -3.915   0.808  1.00  0.00     0.011 C 
HETATM   15  C15 UNL     1      -4.365  -4.803   0.845  1.00  0.00     0.046 C 
HETATM   16  C16 UNL     1      -4.964  -4.872  -0.544  1.00  0.00     0.071 C 
HETATM   17  N3  UNL     1      -4.476  -3.899  -1.425  1.00  0.00    -0.328 N 
HETATM   18 BR1  UNL     1      -3.712  -4.445  -3.009  1.00  0.00     0.049 Br
HETATM   19  C17 UNL     1      -4.130  -2.609  -0.939  1.00  0.00     0.140 C 
ENDBRANCH  12  13
ENDBRANCH  11  12
BRANCH  11  20
HETATM   20  N4  UNL     1      -3.935   0.279  -0.443  1.00  0.00    -0.308 N 
HETATM   21  C18 UNL     1      -5.120   0.880   0.020  1.00  0.00     0.326 C 
HETATM   22  O3  UNL     1      -5.264   1.123   1.238  1.00  0.00    -0.247 OA
HETATM   23  N5  UNL     1      -6.165   1.220  -0.869  1.00  0.00    -0.285 N 
HETATM   24  C19 UNL     1      -7.402   0.913  -0.728  1.00  0.00     0.204 C 
ATOM     25  H5  UNL     1      -5.912   1.758  -1.698  1.00  0.00     0.172 HD
HETATM   26  N6  UNL     1      -7.939   0.171   0.353  1.00  0.00    -0.066 NA
HETATM   27  N7  UNL     1      -8.305   1.354  -1.738  1.00  0.00    -0.066 NA
ATOM     28  H4  UNL     1      -3.879   0.105  -1.446  1.00  0.00     0.170 HD
ENDBRANCH  11  20
ENDBRANCH   8  11
ENDBRANCH   4   8
BRANCH   5  29
HETATM   29  C21 UNL     1       0.608   3.076  -0.411  1.00  0.00     0.241 C 
HETATM   30  O4  UNL     1       1.244   4.146  -0.107  1.00  0.00    -0.271 OA
HETATM   31  N8  UNL     1       0.243   2.960  -1.782  1.00  0.00    -0.355 N 
ATOM     32  H8  UNL     1      -0.270   2.130  -2.081  1.00  0.00     0.162 HD
BRANCH  31  33
HETATM   33  C22 UNL     1       0.566   3.966  -2.772  1.00  0.00     0.084 C 
HETATM   34  C23 UNL     1      -0.637   4.577  -3.432  1.00  0.00     0.025 C 
HETATM   35  C24 UNL     1       0.030   5.333  -4.590  1.00  0.00     0.002 C 
HETATM   36  C25 UNL     1       1.123   4.408  -5.040  1.00  0.00     0.002 C 
HETATM   37  C26 UNL     1       1.290   3.367  -3.959  1.00  0.00     0.025 C 
ENDBRANCH  31  33
ENDBRANCH   5  29
BRANCH   6  38
HETATM   38  C28 UNL     1       1.923   2.846   2.438  1.00  0.00     0.093 C 
HETATM   39  S1  UNL     1       0.550   2.974   3.612  1.00  0.00    -0.097 SA
ENDBRANCH   6  38
BRANCH   1  40
HETATM   40  N1  UNL     1       3.046  -0.682   1.217  1.00  0.00    -0.356 N 
HETATM   41  C6  UNL     1       4.247  -1.469   1.308  1.00  0.00     0.217 C 
HETATM   42  O1  UNL     1       5.050  -1.372   0.348  1.00  0.00    -0.274 OA
ATOM     43  H1  UNL     1       2.364  -0.729   1.974  1.00  0.00     0.162 HD
BRANCH  41  44
HETATM   44  C5  UNL     1       4.576  -2.356   2.433  1.00  0.00     0.103 C 
BRANCH  44  45
HETATM   45  C4  UNL     1       5.879  -3.084   2.310  1.00  0.00     0.013 C 
BRANCH  45  46
HETATM   46  C2  UNL     1       7.098  -2.220   2.252  1.00  0.00    -0.022 C 
HETATM   47  C1  UNL     1       8.334  -3.114   2.121  1.00  0.00     0.009 C 
HETATM   48  C3  UNL     1       7.304  -1.469   3.571  1.00  0.00     0.009 C 
ENDBRANCH  45  46
ENDBRANCH  44  45
ENDBRANCH  41  44
ENDBRANCH   1  40
TORSDOF 13
