REMARK  5 active torsions:
REMARK  status: ('A' for Active; 'I' for Inactive)
REMARK    1  A    between atoms: O1_2  and  C2_3 
REMARK    2  A    between atoms: C2_3  and  C3_5 
REMARK    3  A    between atoms: C4_6  and  N1_7 
REMARK       I    between atoms: N1_7  and  C5_9 
REMARK    4  A    between atoms: C5_9  and  C6_11 
REMARK    5  A    between atoms: C6_11  and  N2_12 
REMARK       I    between atoms: N2_12  and  C7_14 
ROOT
HETATM    1  C3  UNL     1      -1.670   0.599   0.061  1.00  0.00     0.088 A 
HETATM    2  C4  UNL     1      -0.871   0.965   1.098  1.00  0.00     0.096 A 
HETATM    3  S1  UNL     1      -1.736   2.358   1.737  1.00  0.00    -0.051 SA
HETATM    4  C8  UNL     1      -3.028   2.391   0.648  1.00  0.00     0.104 A 
HETATM    5  N4  UNL     1      -4.173   3.078   0.316  1.00  0.00    -0.293 N 
ATOM      6  H4  UNL     1      -4.557   3.896   0.790  1.00  0.00     0.187 HD
HETATM    7  N5  UNL     1      -4.658   2.485  -0.705  1.00  0.00    -0.303 N 
ATOM      8  H5  UNL     1      -5.514   2.771  -1.180  1.00  0.00     0.186 HD
HETATM    9  C9  UNL     1      -3.882   1.409  -1.088  1.00  0.00     0.036 A 
HETATM   10  C10 UNL     1      -4.239   0.588  -2.260  1.00  0.00     0.070 C 
HETATM   11  C11 UNL     1      -2.799   1.334  -0.197  1.00  0.00     0.042 A 
ENDROOT
BRANCH   2  12
HETATM   12  N1  UNL     1       0.456   0.665   1.524  1.00  0.00    -0.319 N 
HETATM   13  C5  UNL     1       1.583   0.288   0.794  1.00  0.00     0.240 C 
HETATM   14  O3  UNL     1       1.602   0.189  -0.454  1.00  0.00    -0.271 OA
ATOM     15  H1  UNL     1       0.606   0.738   2.530  1.00  0.00     0.169 HD
BRANCH  13  16
HETATM   16  C6  UNL     1       2.882  -0.033   1.471  1.00  0.00     0.227 C 
BRANCH  16  17
HETATM   17  N2  UNL     1       3.849  -0.385   0.467  1.00  0.00    -0.337 N 
HETATM   18  C7  UNL     1       5.168  -0.738   0.806  1.00  0.00     0.329 C 
HETATM   19  N3  UNL     1       6.103  -1.080  -0.186  1.00  0.00    -0.040 NA
HETATM   20  O4  UNL     1       5.519  -0.747   2.020  1.00  0.00    -0.251 OA
ATOM     21  H2  UNL     1       3.572  -0.379  -0.515  1.00  0.00     0.164 HD
ENDBRANCH  16  17
ENDBRANCH  13  16
ENDBRANCH   2  12
BRANCH   1  22
HETATM   22  C2  UNL     1      -1.475  -0.755  -0.548  1.00  0.00     0.296 C 
HETATM   23  O2  UNL     1      -2.059  -1.194  -1.535  1.00  0.00    -0.259 OA
BRANCH  22  24
HETATM   24  O1  UNL     1      -0.571  -1.689   0.006  1.00  0.00    -0.322 OA
HETATM   25  C1  UNL     1      -0.378  -2.977  -0.531  1.00  0.00     0.213 C 
ENDBRANCH  22  24
ENDBRANCH   1  22
TORSDOF 5
