REMARK  5 active torsions:
REMARK  status: ('A' for Active; 'I' for Inactive)
REMARK    1  A    between atoms: C2_2  and  C4_4 
REMARK    2  A    between atoms: C4_4  and  C5_5 
REMARK    3  A    between atoms: C4_4  and  C10_16 
REMARK    4  A    between atoms: C10_16  and  O3_17 
REMARK    5  A    between atoms: C10_16  and  C11_19 
ROOT
HETATM    1  C4  UNL     1      -0.536   0.886   0.509  1.00  0.00    -0.000 C 
ENDROOT
BRANCH   1   2
HETATM    2  C2  UNL     1      -0.564   1.912  -0.479  1.00  0.00    -0.061 C 
HETATM    3  C1  UNL     1       0.470   2.501  -1.038  1.00  0.00     0.019 C 
HETATM    4  C3  UNL     1      -1.895   2.523  -0.947  1.00  0.00     0.048 C 
ENDBRANCH   1   2
BRANCH   1   5
HETATM    5  C5  UNL     1      -1.205  -0.406   0.387  1.00  0.00     0.064 A 
HETATM    6  C6  UNL     1      -1.245  -1.131  -0.785  1.00  0.00     0.026 A 
HETATM    7  C7  UNL     1      -0.613  -0.681  -2.003  1.00  0.00     0.069 C 
HETATM    8  N1  UNL     1      -1.918  -2.312  -0.786  1.00  0.00    -0.312 N 
HETATM    9  C8  UNL     1      -2.553  -2.832   0.255  1.00  0.00     0.327 A 
ATOM     10  H1  UNL     1      -1.936  -2.841  -1.658  1.00  0.00     0.170 HD
HETATM   11  O1  UNL     1      -3.156  -3.939   0.186  1.00  0.00    -0.247 OA
HETATM   12  N2  UNL     1      -2.547  -2.163   1.398  1.00  0.00    -0.275 N 
HETATM   13  C9  UNL     1      -1.892  -0.981   1.454  1.00  0.00     0.262 A 
ATOM     14  H2  UNL     1      -3.027  -2.532   2.219  1.00  0.00     0.173 HD
HETATM   15  O2  UNL     1      -1.980  -0.430   2.603  1.00  0.00    -0.267 OA
ENDBRANCH   1   5
BRANCH   1  16
HETATM   16  C10 UNL     1       0.533   0.939   1.602  1.00  0.00     0.211 C 
BRANCH  16  17
HETATM   17  O3  UNL     1       0.270  -0.174   2.457  1.00  0.00    -0.384 OA
ATOM     18  H3  UNL     1       0.934  -0.141   3.136  1.00  0.00     0.211 HD
ENDBRANCH  16  17
BRANCH  16  19
HETATM   19  C11 UNL     1       1.895   0.610   1.089  1.00  0.00     0.103 A 
HETATM   20  N3  UNL     1       2.138  -0.530   0.447  1.00  0.00    -0.293 N 
HETATM   21  N4  UNL     1       3.314  -0.813   0.069  1.00  0.00    -0.279 N 
ATOM     22  H3  UNL     1       1.374  -1.179   0.258  1.00  0.00     0.187 HD
HETATM   23  C12 UNL     1       4.295   0.051   0.327  1.00  0.00     0.158 A 
ATOM     24  H4  UNL     1       3.506  -1.685  -0.423  1.00  0.00     0.189 HD
HETATM   25  N5  UNL     1       5.564  -0.048   0.021  1.00  0.00    -0.379 N 
HETATM   26  S1  UNL     1       3.420   1.296   1.150  1.00  0.00    -0.035 SA
ATOM     27  H52 UNL     1       6.080  -0.782  -0.464  1.00  0.00     0.158 HD
ATOM     28  H51 UNL     1       6.315   0.613   0.219  1.00  0.00     0.158 HD
ENDBRANCH  16  19
ENDBRANCH   1  16
TORSDOF 5
