REMARK  3 active torsions:
REMARK  status: ('A' for Active; 'I' for Inactive)
REMARK    1  A    between atoms: N1_2  and  N2_4 
REMARK    2  A    between atoms: N2_4  and  C2_6 
REMARK    3  A    between atoms: C4_11  and  N4_12 
ROOT
HETATM    1  C2  UNL     1      -0.274  -1.196  -0.031  1.00  0.00     0.170 A 
HETATM    2  N3  UNL     1       0.545  -2.136  -0.600  1.00  0.00    -0.241 N 
ATOM      3  H3  UNL     1       0.262  -3.063  -0.916  1.00  0.00     0.196 HD
HETATM    4  O1  UNL     1       1.724  -1.650  -0.666  1.00  0.00    -0.229 OA
HETATM    5  C3  UNL     1       1.798  -0.446  -0.191  1.00  0.00     0.180 A 
HETATM    6  C4  UNL     1       2.837   0.479  -0.047  1.00  0.00     0.185 A 
HETATM    7  O2  UNL     1       2.562   1.639   0.489  1.00  0.00    -0.241 OA
HETATM    8  C5  UNL     1       1.359   1.961   0.891  1.00  0.00     0.372 A 
HETATM    9  O3  UNL     1       1.122   3.108   1.413  1.00  0.00    -0.238 OA
HETATM   10  N5  UNL     1       0.332   1.110   0.774  1.00  0.00    -0.296 N 
ATOM     11  H5  UNL     1      -0.597   1.383   1.094  1.00  0.00     0.171 HD
HETATM   12  C6  UNL     1       0.531  -0.113   0.230  1.00  0.00     0.125 A 
ENDROOT
BRANCH   1  13
HETATM   13  N2  UNL     1      -1.526  -1.347   0.189  1.00  0.00    -0.287 N 
ATOM     14  H2  UNL     1      -1.939  -2.239  -0.082  1.00  0.00     0.188 HD
BRANCH  13  15
HETATM   15  N1  UNL     1      -2.352  -0.433   0.748  1.00  0.00    -0.339 N 
HETATM   16  C1  UNL     1      -3.351   0.281  -0.060  1.00  0.00     0.167 C 
ATOM     17  H1  UNL     1      -2.280  -0.236   1.746  1.00  0.00     0.179 HD
ENDBRANCH  13  15
ENDBRANCH   1  13
BRANCH   6  18
HETATM   18  N4  UNL     1       4.031   0.160  -0.446  1.00  0.00    -0.377 N 
ATOM     19  H42 UNL     1       4.246  -0.745  -0.864  1.00  0.00     0.158 HD
ATOM     20  H41 UNL     1       4.789   0.835  -0.341  1.00  0.00     0.158 HD
ENDBRANCH   6  18
TORSDOF 3
