REMARK  9 active torsions:
REMARK  status: ('A' for Active; 'I' for Inactive)
REMARK    1  A    between atoms: N1_1  and  C1_4 
REMARK    2  A    between atoms: C2_7  and  N3_8 
REMARK    3  A    between atoms: N3_8  and  C3_10 
REMARK    4  A    between atoms: C3_10  and  C4_11 
REMARK    5  A    between atoms: C4_11  and  C5_12 
REMARK    6  A    between atoms: C5_12  and  C6_13 
REMARK    7  A    between atoms: C6_13  and  N4_14 
REMARK    8  A    between atoms: C7_20  and  N6_21 
REMARK    9  A    between atoms: N6_21  and  C8_23 
ROOT
HETATM    1  C1  UNL     1      -1.275  -1.409   2.723  1.00  0.00     0.705 A 
HETATM    2  N2  UNL     1       0.049  -1.437   2.557  1.00  0.00    -0.022 N 
ATOM      3  H2  UNL     1       0.636  -1.863   3.274  1.00  0.00     0.203 HD
HETATM    4  C2  UNL     1       0.630  -0.904   1.441  1.00  0.00     0.707 A 
HETATM    5  N5  UNL     1      -0.140  -0.345   0.499  1.00  0.00    -0.022 N 
ATOM      6  H5  UNL     1       0.288   0.054  -0.337  1.00  0.00     0.203 HD
HETATM    7  C7  UNL     1      -1.498  -0.308   0.654  1.00  0.00     0.707 A 
HETATM    8  N9  UNL     1      -2.034  -0.839   1.759  1.00  0.00    -0.022 N 
ATOM      9  H9  UNL     1      -3.047  -0.813   1.878  1.00  0.00     0.203 HD
ENDROOT
BRANCH   7  10
HETATM   10  N6  UNL     1      -2.184   0.242  -0.286  1.00  0.00    -0.214 N 
ATOM     11  H6  UNL     1      -1.707   0.627  -1.102  1.00  0.00     0.178 HD
BRANCH  10  12
HETATM   12  C8  UNL     1      -3.601   0.318  -0.197  1.00  0.00     0.186 C 
HETATM   13  C9  UNL     1      -4.305  -0.961  -0.673  1.00  0.00     0.263 C 
HETATM   14  N7  UNL     1      -5.683  -0.455  -0.720  1.00  0.00    -0.068 N 
HETATM   15  C10 UNL     1      -5.534   0.716  -1.566  1.00  0.00     0.299 C 
ATOM     16  H72 UNL     1      -6.383  -1.129  -1.030  1.00  0.00     0.277 HD
ATOM     17  H71 UNL     1      -6.114  -0.283   0.188  1.00  0.00     0.277 HD
HETATM   18  C11 UNL     1      -4.170   1.294  -1.238  1.00  0.00     0.224 A 
HETATM   19  N8  UNL     1      -3.887   2.589  -1.257  1.00  0.00    -0.258 N 
HETATM   20  O1  UNL     1      -3.327   1.668  -2.256  1.00  0.00    -0.243 OA
ATOM     21  H8  UNL     1      -3.985   3.527  -0.868  1.00  0.00     0.191 HD
ENDBRANCH  10  12
ENDBRANCH   7  10
BRANCH   4  22
HETATM   22  N3  UNL     1       1.902  -0.955   1.321  1.00  0.00    -0.225 N 
ATOM     23  H3  UNL     1       2.449  -1.394   2.062  1.00  0.00     0.177 HD
BRANCH  22  24
HETATM   24  C3  UNL     1       2.582  -0.420   0.188  1.00  0.00     0.138 C 
BRANCH  24  25
HETATM   25  C4  UNL     1       4.062  -0.146   0.499  1.00  0.00     0.022 C 
BRANCH  25  26
HETATM   26  C5  UNL     1       4.659   0.413  -0.775  1.00  0.00     0.029 C 
BRANCH  26  27
HETATM   27  C6  UNL     1       6.128   0.734  -0.606  1.00  0.00     0.229 C 
BRANCH  27  28
HETATM   28  N4  UNL     1       6.604   1.260  -1.875  1.00  0.00    -0.079 N 
ATOM     29  H43 UNL     1       6.420   0.635  -2.660  1.00  0.00     0.274 HD
ATOM     30  H42 UNL     1       6.058   2.055  -2.208  1.00  0.00     0.274 HD
ATOM     31  H41 UNL     1       7.594   1.476  -1.761  1.00  0.00     0.274 HD
ENDBRANCH  27  28
ENDBRANCH  26  27
ENDBRANCH  25  26
ENDBRANCH  24  25
ENDBRANCH  22  24
ENDBRANCH   4  22
BRANCH   1  32
HETATM   32  N1  UNL     1      -1.868  -1.908   3.777  1.00  0.00    -0.234 N 
ATOM     33  H12 UNL     1      -1.296  -2.338   4.504  1.00  0.00     0.174 HD
ATOM     34  H11 UNL     1      -2.880  -1.887   3.904  1.00  0.00     0.174 HD
ENDBRANCH   1  32
TORSDOF 9
