REMARK  5 active torsions:
REMARK  status: ('A' for Active; 'I' for Inactive)
REMARK    1  A    between atoms: N5_16  and  C6_17 
REMARK    2  A    between atoms: C6_17  and  O2_18 
REMARK    3  A    between atoms: O2_18  and  C7_19 
REMARK    4  A    between atoms: C7_19  and  C8_20 
REMARK    5  A    between atoms: C8_20  and  N6_21 
ROOT
HETATM    1  C1  UNL     1      -3.538  -1.143  -0.790  1.00  0.00     0.055 C 
HETATM    2  C2  UNL     1      -2.869   0.079  -0.165  1.00  0.00     0.152 A 
HETATM    3  N1  UNL     1      -3.853   1.069   0.198  1.00  0.00    -0.204 N 
ATOM      4  H1  UNL     1      -3.888   1.994  -0.231  1.00  0.00     0.179 HD
HETATM    5  C3  UNL     1      -4.785   0.648   1.217  1.00  0.00     0.675 C 
HETATM    6  N2  UNL     1      -5.979   1.130   1.290  1.00  0.00    -0.235 N 
ATOM      7  H21 UNL     1      -6.637   0.833   2.010  1.00  0.00     0.174 HD
ATOM      8  H22 UNL     1      -6.279   1.829   0.610  1.00  0.00     0.174 HD
HETATM    9  N3  UNL     1      -4.370  -0.318   2.157  1.00  0.00    -0.155 N 
ATOM     10  H3  UNL     1      -5.022  -0.622   2.880  1.00  0.00     0.187 HD
HETATM   11  C4  UNL     1      -3.056  -0.880   2.119  1.00  0.00     0.286 C 
HETATM   12  O1  UNL     1      -2.641  -1.734   2.923  1.00  0.00    -0.265 OA
HETATM   13  C5  UNL     1      -2.162  -0.405   1.057  1.00  0.00     0.131 A 
HETATM   14  N4  UNL     1      -0.903  -0.262   0.916  1.00  0.00    -0.291 N 
ATOM     15  H4  UNL     1      -0.217  -0.530   1.622  1.00  0.00     0.187 HD
HETATM   16  N5  UNL     1      -0.573   0.302  -0.314  1.00  0.00    -0.254 N 
HETATM   17  C10 UNL     1      -1.775   0.545  -1.023  1.00  0.00     0.129 A 
HETATM   18  N9  UNL     1      -1.833   1.083  -2.204  1.00  0.00    -0.385 N 
ATOM     19  H91 UNL     1      -1.072   1.407  -2.801  1.00  0.00     0.157 HD
ATOM     20  H92 UNL     1      -2.699   1.258  -2.715  1.00  0.00     0.157 HD
ENDROOT
BRANCH  16  21
HETATM   21  C6  UNL     1       0.783   0.600  -0.809  1.00  0.00     0.318 C 
BRANCH  21  22
HETATM   22  O2  UNL     1       1.547  -0.535  -0.879  1.00  0.00    -0.369 OA
BRANCH  22  23
HETATM   23  C7  UNL     1       2.802  -0.249  -1.369  1.00  0.00     0.189 C 
BRANCH  23  24
HETATM   24  C8  UNL     1       3.499   0.725  -0.460  1.00  0.00     0.148 C 
BRANCH  24  25
HETATM   25  N6  UNL     1       3.647   0.204   0.885  1.00  0.00    -0.365 N 
HETATM   26  C9  UNL     1       4.748  -0.396   1.261  1.00  0.00     0.197 C 
HETATM   27  N7  UNL     1       5.836  -0.555   0.356  1.00  0.00    -0.067 NA
HETATM   28  N8  UNL     1       4.863  -0.896   2.585  1.00  0.00    -0.067 NA
ATOM     29  H6  UNL     1       2.880   0.307   1.550  1.00  0.00     0.161 HD
ENDBRANCH  24  25
ENDBRANCH  23  24
ENDBRANCH  22  23
ENDBRANCH  21  22
ENDBRANCH  16  21
TORSDOF 5
