REMARK  7 active torsions:
REMARK  status: ('A' for Active; 'I' for Inactive)
REMARK    1  A    between atoms: C3_3  and  C4_4 
REMARK    2  A    between atoms: C4_4  and  C5_5 
REMARK    3  A    between atoms: C6_8  and  S1_9 
REMARK    4  A    between atoms: S1_9  and  N2_12 
REMARK    5  A    between atoms: C9_17  and  C10_18 
REMARK    6  A    between atoms: C11_19  and  C12_20 
REMARK    7  A    between atoms: C12_20  and  N3_21 
ROOT
HETATM    1  C5  UNL     1       2.545   0.162  -0.769  1.00  0.00     0.034 A 
HETATM    2  N1  UNL     1       3.689  -0.247  -1.325  1.00  0.00    -0.346 N 
ATOM      3  H1  UNL     1       4.371   0.369  -1.768  1.00  0.00     0.166 HD
HETATM    4  C6  UNL     1       3.819  -1.578  -1.221  1.00  0.00     0.168 A 
HETATM    5  C8  UNL     1       2.709  -2.042  -0.569  1.00  0.00     0.071 A 
HETATM    6 BR1  UNL     1       2.287  -3.862  -0.108  1.00  0.00    -0.046 Br
HETATM    7  C9  UNL     1       1.919  -0.958  -0.290  1.00  0.00     0.061 A 
ENDROOT
BRANCH   7   8
HETATM    8  C10 UNL     1       0.632  -0.975   0.393  1.00  0.00    -0.062 C 
HETATM    9  C11 UNL     1      -0.453  -0.993   0.940  1.00  0.00    -0.073 C 
BRANCH   9  10
HETATM   10  C12 UNL     1      -1.752  -1.040   1.608  1.00  0.00     0.331 C 
BRANCH  10  11
HETATM   11  N3  UNL     1      -2.718  -0.415   0.763  1.00  0.00    -0.052 N 
HETATM   12  C13 UNL     1      -4.033  -0.828   1.286  1.00  0.00     0.266 C 
HETATM   13  C14 UNL     1      -5.098  -0.578   0.241  1.00  0.00     0.265 C 
HETATM   14  N4  UNL     1      -4.637   0.577  -0.539  1.00  0.00    -0.066 N 
HETATM   15  C15 UNL     1      -5.739   1.102  -1.287  1.00  0.00     0.272 C 
HETATM   16  C16 UNL     1      -4.046   1.541   0.364  1.00  0.00     0.265 C 
HETATM   17  C18 UNL     1      -3.612   0.053  -1.424  1.00  0.00     0.265 C 
HETATM   18  C17 UNL     1      -2.701   1.031   0.847  1.00  0.00     0.266 C 
HETATM   19  C19 UNL     1      -2.610  -0.778  -0.626  1.00  0.00     0.266 C 
ENDBRANCH  10  11
ENDBRANCH   9  10
ENDBRANCH   7   8
BRANCH   1  20
HETATM   20  C4  UNL     1       1.972   1.534  -0.641  1.00  0.00     0.085 C 
BRANCH  20  21
HETATM   21  C3  UNL     1       2.132   2.075   0.737  1.00  0.00    -0.025 C 
HETATM   22  C2  UNL     1       2.790   3.181   1.007  1.00  0.00    -0.035 C 
HETATM   23  C1  UNL     1       3.447   4.012  -0.050  1.00  0.00     0.036 C 
ENDBRANCH  20  21
ENDBRANCH   1  20
BRANCH   4  24
HETATM   24  S1  UNL     1       5.115  -2.613  -1.778  1.00  0.00     0.275 S 
HETATM   25  O1  UNL     1       6.193  -1.830  -2.448  1.00  0.00    -0.199 OA
HETATM   26  O2  UNL     1       4.517  -3.588  -2.754  1.00  0.00    -0.199 OA
BRANCH  24  27
HETATM   27  N2  UNL     1       5.780  -3.418  -0.410  1.00  0.00    -0.319 N 
HETATM   28  C7  UNL     1       6.321  -2.445   0.501  1.00  0.00     0.159 C 
ATOM     29  H2  UNL     1       5.789  -4.428  -0.267  1.00  0.00     0.171 HD
ENDBRANCH  24  27
ENDBRANCH   4  24
TORSDOF 7
