REMARK  8 active torsions:
REMARK  status: ('A' for Active; 'I' for Inactive)
REMARK    1  A    between atoms: N1_4  and  C4_5 
REMARK    2  A    between atoms: C4_5  and  N2_7 
REMARK    3  A    between atoms: N2_7  and  C5_9 
REMARK    4  A    between atoms: C14_18  and  C15_19 
REMARK       I    between atoms: C15_19  and  N3_21 
REMARK    5  A    between atoms: N3_21  and  C16_23 
REMARK    6  A    between atoms: C16_23  and  C17_24 
REMARK    7  A    between atoms: C17_24  and  C18_25 
REMARK    8  A    between atoms: C18_25  and  N4_26 
ROOT
HETATM    1  C1  UNL     1       2.374   2.304  -0.638  1.00  0.00     0.012 C 
HETATM    2  C2  UNL     1       1.489   1.253  -0.028  1.00  0.00     0.012 C 
HETATM    3  C3  UNL     1       0.115   1.393  -0.631  1.00  0.00     0.130 C 
HETATM    4  N1  UNL     1      -0.820   0.407  -0.103  1.00  0.00    -0.358 N 
HETATM    5  C12 UNL     1      -0.280  -0.754   0.562  1.00  0.00     0.126 C 
HETATM    6  C13 UNL     1       0.929  -1.170  -0.287  1.00  0.00     0.034 C 
HETATM    7  C14 UNL     1       2.006  -0.125   0.018  1.00  0.00     0.084 C 
ENDROOT
BRANCH   7   8
HETATM    8  C15 UNL     1       3.120  -0.467  -0.874  1.00  0.00     0.222 C 
HETATM    9  O1  UNL     1       3.561   0.334  -1.704  1.00  0.00    -0.273 OA
HETATM   10  N3  UNL     1       3.707  -1.745  -0.789  1.00  0.00    -0.361 N 
ATOM     11  H3  UNL     1       3.321  -2.387  -0.097  1.00  0.00     0.162 HD
BRANCH  10  12
HETATM   12  C16 UNL     1       4.791  -2.224  -1.581  1.00  0.00     0.124 C 
BRANCH  12  13
HETATM   13  C17 UNL     1       6.024  -1.402  -1.348  1.00  0.00     0.039 C 
BRANCH  13  14
HETATM   14  C18 UNL     1       6.494  -1.449   0.073  1.00  0.00     0.123 C 
BRANCH  14  15
HETATM   15  N4  UNL     1       5.583  -0.981   1.054  1.00  0.00    -0.367 N 
HETATM   16  C19 UNL     1       5.799  -0.140   1.990  1.00  0.00     0.196 C 
HETATM   17  N5  UNL     1       7.057   0.475   2.183  1.00  0.00    -0.067 NA
HETATM   18  N6  UNL     1       4.737   0.193   2.873  1.00  0.00    -0.067 NA
ATOM     19  H4  UNL     1       4.639  -1.364   1.006  1.00  0.00     0.161 HD
ENDBRANCH  14  15
ENDBRANCH  13  14
ENDBRANCH  12  13
ENDBRANCH  10  12
ENDBRANCH   7   8
BRANCH   4  20
HETATM   20  C4  UNL     1      -2.197   0.648  -0.269  1.00  0.00     0.170 C 
HETATM   21  S1  UNL     1      -2.660   1.991  -1.074  1.00  0.00    -0.041 SA
BRANCH  20  22
HETATM   22  N2  UNL     1      -3.171  -0.247   0.211  1.00  0.00    -0.362 N 
ATOM     23  H2  UNL     1      -2.880  -1.102   0.685  1.00  0.00     0.162 HD
BRANCH  22  24
HETATM   24  C5  UNL     1      -4.614   0.039   0.035  1.00  0.00     0.084 C 
HETATM   25  C6  UNL     1      -4.983   1.092   0.927  1.00  0.00     0.026 C 
HETATM   26  C7  UNL     1      -6.098   2.105   0.635  1.00  0.00     0.013 C 
HETATM   27  C8  UNL     1      -7.473   1.384   0.396  1.00  0.00     0.080 C 
HETATM   28  C9  UNL     1      -7.155   0.049   0.106  1.00  0.00    -0.183 C 
HETATM   29  C10 UNL     1      -6.793  -1.279  -0.169  1.00  0.00     0.082 C 
HETATM   30  C11 UNL     1      -5.239  -1.344   0.043  1.00  0.00     0.036 C 
ENDBRANCH  22  24
ENDBRANCH  20  22
ENDBRANCH   4  20
TORSDOF 8
