REMARK  6 active torsions:
REMARK  status: ('A' for Active; 'I' for Inactive)
REMARK    1  A    between atoms: N1_2  and  C2_4 
REMARK    2  A    between atoms: C3_7  and  S1_8 
REMARK    3  A    between atoms: C5_12  and  N4_13 
REMARK    4  A    between atoms: N4_13  and  C6_15 
REMARK    5  A    between atoms: C6_15  and  C8_17 
REMARK    6  A    between atoms: C8_17  and  N5_18 
ROOT
HETATM    1  C2  UNL     1       2.198   0.883   0.082  1.00  0.00     0.694 A 
HETATM    2  N2  UNL     1       2.456  -0.430  -0.013  1.00  0.00    -0.169 N 
ATOM      3  H2  UNL     1       3.421  -0.748  -0.106  1.00  0.00     0.186 HD
HETATM    4  C3  UNL     1       1.471  -1.322   0.013  1.00  0.00     0.174 A 
HETATM    5  N3  UNL     1       0.209  -0.870   0.136  1.00  0.00    -0.169 N 
ATOM      6  H3  UNL     1      -0.552  -1.549   0.155  1.00  0.00     0.186 HD
HETATM    7  C5  UNL     1      -0.091   0.430   0.234  1.00  0.00     0.695 A 
HETATM    8  N6  UNL     1       0.933   1.302   0.204  1.00  0.00    -0.022 N 
ATOM      9  H6  UNL     1       0.742   2.301   0.276  1.00  0.00     0.203 HD
ENDROOT
BRANCH   7  10
HETATM   10  N4  UNL     1      -1.265   0.902   0.351  1.00  0.00    -0.220 N 
ATOM     11  H4  UNL     1      -1.353   1.916   0.414  1.00  0.00     0.178 HD
BRANCH  10  12
HETATM   12  C6  UNL     1      -2.478   0.139   0.402  1.00  0.00     0.120 C 
HETATM   13  C7  UNL     1      -3.393   0.735   1.420  1.00  0.00     0.034 C 
BRANCH  12  14
HETATM   14  C8  UNL     1      -3.119  -0.032  -0.955  1.00  0.00     0.254 C 
BRANCH  14  15
HETATM   15  N5  UNL     1      -4.334  -0.820  -0.762  1.00  0.00    -0.077 N 
ATOM     16  H53 UNL     1      -4.164  -1.706  -0.286  1.00  0.00     0.274 HD
ATOM     17  H52 UNL     1      -4.966  -0.418  -0.070  1.00  0.00     0.274 HD
ATOM     18  H51 UNL     1      -4.767  -0.935  -1.678  1.00  0.00     0.274 HD
ENDBRANCH  14  15
ENDBRANCH  12  14
ENDBRANCH  10  12
ENDBRANCH   7  10
BRANCH   4  19
HETATM   19  S1  UNL     1       1.709  -3.082  -0.106  1.00  0.00    -0.097 SA
HETATM   20  C4  UNL     1       3.437  -3.534  -0.266  1.00  0.00     0.099 C 
ENDBRANCH   4  19
BRANCH   1  21
HETATM   21  N1  UNL     1       3.158   1.743   0.057  1.00  0.00    -0.230 N 
HETATM   22  C1  UNL     1       2.882   3.144   0.158  1.00  0.00     0.165 C 
ATOM     23  H1  UNL     1       4.122   1.423  -0.035  1.00  0.00     0.177 HD
ENDBRANCH   1  21
TORSDOF 6
