REMARK  10 active torsions:
REMARK  status: ('A' for Active; 'I' for Inactive)
REMARK    1  A    between atoms: C1_2  and  C2_4 
REMARK    2  A    between atoms: C3_6  and  C4_7 
REMARK    3  A    between atoms: C4_7  and  C5_8 
REMARK    4  A    between atoms: C4_7  and  C7_13 
REMARK    5  A    between atoms: C5_8  and  S1_9 
REMARK    6  A    between atoms: S1_9  and  S2_10 
REMARK    7  A    between atoms: S2_10  and  C6_11 
REMARK    8  A    between atoms: C8_16  and  O4_17 
REMARK    9  A    between atoms: C9_19  and  O5_20 
REMARK   10  A    between atoms: C10_22  and  O6_23 
ROOT
HETATM    1  C2  UNL     1      -2.162   0.725  -0.526  1.00  0.00     0.254 C 
HETATM    2  O3  UNL     1      -0.809   0.737  -0.843  1.00  0.00    -0.364 OA
HETATM    3  C3  UNL     1      -0.089  -0.218  -0.168  1.00  0.00     0.164 C 
HETATM    4  C8  UNL     1      -0.887  -0.915   0.912  1.00  0.00     0.179 C 
HETATM    5  C9  UNL     1      -2.015  -1.641   0.203  1.00  0.00     0.181 C 
HETATM    6  C10 UNL     1      -2.790  -0.641  -0.618  1.00  0.00     0.189 C 
ENDROOT
BRANCH   3   7
HETATM    7  C4  UNL     1       1.195   0.296   0.444  1.00  0.00     0.092 C 
BRANCH   7   8
HETATM    8  C5  UNL     1       2.098   0.839  -0.649  1.00  0.00     0.099 C 
BRANCH   8   9
HETATM    9  S1  UNL     1       3.646   1.460   0.059  1.00  0.00    -0.096 SA
BRANCH   9  10
HETATM   10  S2  UNL     1       4.802  -0.112   0.896  1.00  0.00    -0.083 SA
BRANCH  10  11
HETATM   11  C6  UNL     1       5.929  -0.837  -0.310  1.00  0.00     0.200 C 
HETATM   12 CL1  UNL     1       7.183   0.302  -0.823  1.00  0.00    -0.119 Cl
ENDBRANCH  10  11
ENDBRANCH   9  10
ENDBRANCH   8   9
ENDBRANCH   7   8
BRANCH   7  13
HETATM   13  C7  UNL     1       0.855   1.469   1.333  1.00  0.00     0.360 C 
HETATM   14  F1  UNL     1       1.961   2.018   1.951  1.00  0.00    -0.214 F 
HETATM   15  F2  UNL     1       0.275   2.427   0.518  1.00  0.00    -0.214 F 
ENDBRANCH   7  13
ENDBRANCH   3   7
BRANCH   4  16
HETATM   16  O4  UNL     1      -0.063  -1.895   1.471  1.00  0.00    -0.390 OA
ATOM     17  H4  UNL     1      -0.564  -2.333   2.149  1.00  0.00     0.210 HD
ENDBRANCH   4  16
BRANCH   1  18
HETATM   18  C1  UNL     1      -2.861   1.646  -1.473  1.00  0.00     0.205 C 
HETATM   19  O1  UNL     1      -2.293   2.290  -2.374  1.00  0.00    -0.646 OA
HETATM   20  O2  UNL     1      -4.254   1.792  -1.332  1.00  0.00    -0.646 OA
ENDBRANCH   1  18
BRANCH   5  21
HETATM   21  O5  UNL     1      -2.809  -2.357   1.080  1.00  0.00    -0.390 OA
ATOM     22  H5  UNL     1      -3.515  -2.812   0.636  1.00  0.00     0.210 HD
ENDBRANCH   5  21
BRANCH   6  23
HETATM   23  O6  UNL     1      -4.093  -0.524  -0.120  1.00  0.00    -0.390 OA
ATOM     24  H6  UNL     1      -4.489  -1.386  -0.178  1.00  0.00     0.210 HD
ENDBRANCH   6  23
TORSDOF 10
