REMARK  5 active torsions:
REMARK  status: ('A' for Active; 'I' for Inactive)
REMARK    1  A    between atoms: C2_3  and  N2_4 
REMARK    2  A    between atoms: C3_10  and  C4_11 
REMARK    3  A    between atoms: C4_11  and  C5_12 
REMARK    4  A    between atoms: C5_12  and  C6_13 
REMARK    5  A    between atoms: C6_13  and  N4_14 
ROOT
HETATM    1  N1  UNL     1       3.778   2.482  -0.511  1.00  0.00    -0.191 NA
HETATM    2  C1  UNL     1       3.333   1.450  -0.238  1.00  0.00     0.142 C 
HETATM    3  C2  UNL     1       2.755   0.144   0.090  1.00  0.00     0.378 C 
HETATM    4  N3  UNL     1       1.561   0.353   0.856  1.00  0.00    -0.320 N 
ATOM      5  H3  UNL     1       1.519   0.473   1.868  1.00  0.00     0.165 HD
HETATM    6  C3  UNL     1       0.556   0.365   0.062  1.00  0.00     0.092 C 
HETATM    7  N5  UNL     1       1.036   0.152  -1.261  1.00  0.00    -0.288 N 
ATOM      8  H5  UNL     1       0.570   0.407  -2.132  1.00  0.00     0.183 HD
HETATM    9  N6  UNL     1       2.284  -0.482  -1.121  1.00  0.00    -0.064 NA
ENDROOT
BRANCH   3  10
HETATM   10  N2  UNL     1       3.731  -0.670   0.785  1.00  0.00    -0.022 N 
ATOM     11  H23 UNL     1       4.600  -0.758   0.258  1.00  0.00     0.280 HD
ATOM     12  H22 UNL     1       4.104  -0.199   1.609  1.00  0.00     0.280 HD
ATOM     13  H21 UNL     1       3.329  -1.579   1.013  1.00  0.00     0.280 HD
ENDBRANCH   3  10
BRANCH   6  14
HETATM   14  C4  UNL     1      -0.882   0.558   0.459  1.00  0.00     0.079 C 
BRANCH  14  15
HETATM   15  C5  UNL     1      -1.670  -0.683   0.053  1.00  0.00     0.034 C 
BRANCH  15  16
HETATM   16  C6  UNL     1      -3.117  -0.555   0.421  1.00  0.00     0.230 C 
BRANCH  16  17
HETATM   17  N4  UNL     1      -3.681   0.597  -0.258  1.00  0.00    -0.079 N 
ATOM     18  H43 UNL     1      -3.157   1.452  -0.071  1.00  0.00     0.274 HD
ATOM     19  H42 UNL     1      -3.540   0.559  -1.267  1.00  0.00     0.274 HD
ATOM     20  H41 UNL     1      -4.666   0.684  -0.008  1.00  0.00     0.274 HD
ENDBRANCH  16  17
ENDBRANCH  15  16
ENDBRANCH  14  15
ENDBRANCH   6  14
TORSDOF 5
