REMARK  4 active torsions:
REMARK  status: ('A' for Active; 'I' for Inactive)
REMARK    1  A    between atoms: O1_2  and  C2_3 
REMARK    2  A    between atoms: C2_3  and  N1_4 
REMARK    3  A    between atoms: C7_9  and  N2_10 
REMARK       I    between atoms: N2_10  and  C8_12 
REMARK       I    between atoms: C8_12  and  N3_14 
REMARK    4  A    between atoms: N3_14  and  C9_16 
ROOT
HETATM    1  C9  UNL     1       5.195   0.391   0.080  1.00  0.00     0.189 C 
HETATM    2  C10 UNL     1       5.885   1.267  -0.939  1.00  0.00     0.048 C 
HETATM    3  C11 UNL     1       6.114  -0.703   0.443  1.00  0.00     0.084 C 
HETATM    4  N4  UNL     1       6.842  -1.568   0.712  1.00  0.00    -0.195 NA
ENDROOT
BRANCH   1   5
HETATM    5  N3  UNL     1       3.969  -0.118  -0.489  1.00  0.00    -0.326 N 
HETATM    6  C8  UNL     1       2.704   0.170   0.082  1.00  0.00     0.317 C 
HETATM    7  N2  UNL     1       1.509  -0.329  -0.479  1.00  0.00    -0.335 N 
HETATM    8  O2  UNL     1       2.619   0.884   1.111  1.00  0.00    -0.247 OA
ATOM      9  H2  UNL     1       1.584  -0.908  -1.315  1.00  0.00     0.164 HD
ATOM     10  H3  UNL     1       4.015  -0.701  -1.325  1.00  0.00     0.165 HD
BRANCH   7  11
HETATM   11  C7  UNL     1       0.196  -0.079   0.044  1.00  0.00     0.127 C 
HETATM   12  C5  UNL     1      -0.565  -1.344   0.355  1.00  0.00     0.039 C 
HETATM   13  C4  UNL     1      -1.167  -1.178   1.735  1.00  0.00     0.036 C 
HETATM   14  C6  UNL     1      -1.820  -1.478  -0.453  1.00  0.00     0.247 C 
HETATM   15  C3  UNL     1      -2.477  -0.451   1.423  1.00  0.00     0.240 C 
HETATM   16  N1  UNL     1      -2.554  -0.305  -0.007  1.00  0.00    -0.043 N 
HETATM   17  C13 UNL     1      -1.956   0.932  -0.453  1.00  0.00     0.279 C 
HETATM   18  C12 UNL     1      -0.542   0.781  -0.960  1.00  0.00     0.219 C 
HETATM   19  F1  UNL     1      -0.425   0.382  -2.248  1.00  0.00    -0.245 F 
BRANCH  16  20
HETATM   20  C2  UNL     1      -3.894  -0.464  -0.519  1.00  0.00     0.404 C 
BRANCH  20  21
HETATM   21  O1  UNL     1      -4.892   0.143   0.171  1.00  0.00    -0.369 OA
HETATM   22  C1  UNL     1      -4.859   1.500   0.295  1.00  0.00     0.203 C 
ENDBRANCH  20  21
ENDBRANCH  16  20
ENDBRANCH   7  11
ENDBRANCH   1   5
TORSDOF 4
