REMARK  15 active torsions:
REMARK  status: ('A' for Active; 'I' for Inactive)
REMARK    1  A    between atoms: C2_2  and  C3_3 
REMARK    2  A    between atoms: C3_3  and  C6_6 
REMARK    3  A    between atoms: C6_6  and  O1_7 
REMARK    4  A    between atoms: C8_10  and  O2_11 
REMARK    5  A    between atoms: O2_11  and  C9_12 
REMARK    6  A    between atoms: C9_12  and  C10_13 
REMARK    7  A    between atoms: C10_13  and  C11_14 
REMARK    8  A    between atoms: C11_14  and  O3_15 
REMARK    9  A    between atoms: O3_15  and  C12_16 
REMARK   10  A    between atoms: C13_18  and  C14_19 
REMARK   11  A    between atoms: C14_19  and  O5_20 
REMARK   12  A    between atoms: C15_22  and  O6_23 
REMARK   13  A    between atoms: C16_25  and  O7_27 
REMARK   14  A    between atoms: C18_29  and  O8_30 
REMARK   15  A    between atoms: C19_32  and  O9_33 
ROOT
HETATM    1  C12 UNL     1       2.419   0.156  -0.690  1.00  0.00     0.291 C 
HETATM    2  O4  UNL     1       2.614  -0.731   0.316  1.00  0.00    -0.348 OA
HETATM    3  C13 UNL     1       3.681  -0.632   1.113  1.00  0.00     0.180 C 
HETATM    4  C15 UNL     1       4.897  -1.407   0.714  1.00  0.00     0.185 C 
HETATM    5  C16 UNL     1       5.126  -1.587  -0.727  1.00  0.00     0.111 C 
HETATM    6  C17 UNL     1       6.191  -0.633  -1.264  1.00  0.00     0.051 C 
HETATM    7  C18 UNL     1       3.952  -1.536  -1.627  1.00  0.00     0.188 C 
HETATM    8  C19 UNL     1       3.318  -0.208  -1.845  1.00  0.00     0.205 C 
ENDROOT
BRANCH   1   9
HETATM    9  O3  UNL     1       1.070   0.070  -1.004  1.00  0.00    -0.358 OA
BRANCH   9  10
HETATM   10  C11 UNL     1       0.369   1.234  -0.939  1.00  0.00     0.173 C 
BRANCH  10  11
HETATM   11  C10 UNL     1       0.342   1.907   0.391  1.00  0.00     0.053 C 
BRANCH  11  12
HETATM   12  C9  UNL     1      -0.482   3.172   0.249  1.00  0.00     0.178 C 
BRANCH  12  13
HETATM   13  O2  UNL     1      -1.796   2.899  -0.156  1.00  0.00    -0.351 OA
BRANCH  13  14
HETATM   14  C8  UNL     1      -2.649   2.114   0.581  1.00  0.00     0.067 A 
HETATM   15  C7  UNL     1      -3.601   1.400   0.028  1.00  0.00     0.048 A 
HETATM   16  C6  UNL     1      -4.555   0.534   0.739  1.00  0.00     0.088 A 
HETATM   17  C22 UNL     1      -4.404   0.499   2.201  1.00  0.00     0.070 A 
HETATM   18  C21 UNL     1      -3.321   1.318   2.731  1.00  0.00    -0.020 A 
HETATM   19  C20 UNL     1      -2.510   2.060   2.030  1.00  0.00     0.032 A 
BRANCH  16  20
HETATM   20  C3  UNL     1      -4.560  -0.848   0.116  1.00  0.00    -0.013 C 
HETATM   21  C4  UNL     1      -3.163  -1.436   0.322  1.00  0.00     0.018 C 
HETATM   22  C5  UNL     1      -5.533  -1.776   0.755  1.00  0.00     0.018 C 
BRANCH  20  23
HETATM   23  C2  UNL     1      -4.788  -0.808  -1.364  1.00  0.00     0.007 C 
HETATM   24  C1  UNL     1      -6.134  -0.250  -1.766  1.00  0.00     0.006 C 
ENDBRANCH  20  23
ENDBRANCH  16  20
BRANCH  16  25
HETATM   25  O1  UNL     1      -5.832   1.097   0.468  1.00  0.00    -0.385 OA
ATOM     26  H1  UNL     1      -5.829   1.963   0.858  1.00  0.00     0.211 HD
ENDBRANCH  16  25
ENDBRANCH  13  14
ENDBRANCH  12  13
ENDBRANCH  11  12
ENDBRANCH  10  11
ENDBRANCH   9  10
ENDBRANCH   1   9
BRANCH   8  27
HETATM   27  O9  UNL     1       4.183   0.807  -2.198  1.00  0.00    -0.388 OA
ATOM     28  H9  UNL     1       4.749   0.578  -2.926  1.00  0.00     0.210 HD
ENDBRANCH   8  27
BRANCH   3  29
HETATM   29  C14 UNL     1       4.047   0.804   1.517  1.00  0.00     0.198 C 
BRANCH  29  30
HETATM   30  O5  UNL     1       5.171   0.793   2.347  1.00  0.00    -0.398 OA
ATOM     31  H5  UNL     1       5.397   1.681   2.597  1.00  0.00     0.209 HD
ENDBRANCH  29  30
ENDBRANCH   3  29
BRANCH   7  32
HETATM   32  O8  UNL     1       2.949  -2.443  -1.300  1.00  0.00    -0.390 OA
ATOM     33  H8  UNL     1       2.196  -2.410  -1.878  1.00  0.00     0.210 HD
ENDBRANCH   7  32
BRANCH   4  34
HETATM   34  O6  UNL     1       4.992  -2.636   1.416  1.00  0.00    -0.390 OA
ATOM     35  H6  UNL     1       5.764  -3.128   1.163  1.00  0.00     0.210 HD
ENDBRANCH   4  34
BRANCH   5  36
HETATM   36  O7  UNL     1       5.701  -2.874  -0.907  1.00  0.00    -0.385 OA
ATOM     37  H7  UNL     1       5.849  -2.990  -1.838  1.00  0.00     0.210 HD
ENDBRANCH   5  36
TORSDOF 15
