REMARK  20 active torsions:
REMARK  status: ('A' for Active; 'I' for Inactive)
REMARK    1  A    between atoms: C3_3  and  N1_4 
REMARK    2  A    between atoms: N1_4  and  C6_7 
REMARK    3  A    between atoms: C6_7  and  C7_8 
REMARK    4  A    between atoms: C7_8  and  C8_9 
REMARK    5  A    between atoms: C8_9  and  N2_10 
REMARK       I    between atoms: N2_10  and  C9_12 
REMARK       I    between atoms: C9_12  and  N4_16 
REMARK    6  A    between atoms: N4_16  and  C10_18 
REMARK    7  A    between atoms: C10_18  and  C11_19 
REMARK    8  A    between atoms: C11_19  and  N5_20 
REMARK    9  A    between atoms: N5_20  and  C12_21 
REMARK   10  A    between atoms: C12_21  and  C13_22 
REMARK   11  A    between atoms: C13_22  and  C14_23 
REMARK   12  A    between atoms: C14_23  and  N6_24 
REMARK   13  A    between atoms: N6_24  and  C15_26 
REMARK   14  A    between atoms: C15_26  and  C17_28 
REMARK   15  A    between atoms: C17_28  and  O1_29 
REMARK   16  A    between atoms: C17_28  and  N7_31 
REMARK   17  A    between atoms: N7_31  and  C18_32 
REMARK   18  A    between atoms: C18_32  and  C19_33 
REMARK   19  A    between atoms: C19_33  and  C20_34 
REMARK   20  A    between atoms: C20_34  and  N8_35 
ROOT
HETATM    1  C1  UNL     1      11.119   2.585   0.870  1.00  0.00     0.013 C 
HETATM    2  C2  UNL     1      10.445   1.875   0.240  1.00  0.00    -0.089 C 
HETATM    3  C3  UNL     1       9.551   0.996  -0.455  1.00  0.00     0.328 C 
ENDROOT
BRANCH   3   4
HETATM    4  N1  UNL     1       8.487   0.553   0.404  1.00  0.00    -0.065 N 
HETATM    5  C4  UNL     1       8.798  -0.855   0.780  1.00  0.00     0.273 C 
HETATM    6  C5  UNL     1       8.405   1.323   1.638  1.00  0.00     0.273 C 
BRANCH   4   7
HETATM    7  C6  UNL     1       7.231   0.572  -0.321  1.00  0.00     0.239 C 
BRANCH   7   8
HETATM    8  C7  UNL     1       6.260  -0.504   0.090  1.00  0.00     0.048 C 
BRANCH   8   9
HETATM    9  C8  UNL     1       4.949  -0.440  -0.593  1.00  0.00     0.139 C 
BRANCH   9  10
HETATM   10  N2  UNL     1       4.230   0.770  -0.381  1.00  0.00    -0.227 N 
HETATM   11  C9  UNL     1       2.922   1.057  -0.839  1.00  0.00     0.667 C 
HETATM   12  N3  UNL     1       2.647   1.695  -1.938  1.00  0.00    -0.235 N 
HETATM   13  N4  UNL     1       1.759   0.667  -0.078  1.00  0.00    -0.225 N 
ATOM     14  H32 UNL     1       3.469   1.971  -2.476  1.00  0.00     0.174 HD
ATOM     15  H31 UNL     1       1.704   1.902  -2.268  1.00  0.00     0.174 HD
ATOM     16  H4  UNL     1       1.531   1.099   0.818  1.00  0.00     0.177 HD
ATOM     17  H2  UNL     1       4.703   1.500   0.152  1.00  0.00     0.177 HD
BRANCH  13  18
HETATM   18  C10 UNL     1       0.924  -0.384  -0.665  1.00  0.00     0.166 C 
BRANCH  18  19
HETATM   19  C11 UNL     1      -0.109  -0.807   0.294  1.00  0.00     0.257 C 
BRANCH  19  20
HETATM   20  N5  UNL     1      -1.019  -1.815  -0.166  1.00  0.00    -0.065 N 
HETATM   21  C21 UNL     1      -1.343  -2.731   0.925  1.00  0.00     0.237 C 
HETATM   22  C22 UNL     1      -0.317  -3.858   0.893  1.00  0.00     0.029 C 
HETATM   23  C23 UNL     1       0.367  -3.709  -0.415  1.00  0.00     0.029 C 
HETATM   24  C24 UNL     1      -0.396  -2.660  -1.129  1.00  0.00     0.237 C 
BRANCH  20  25
HETATM   25  C12 UNL     1      -2.220  -1.331  -0.779  1.00  0.00     0.242 C 
BRANCH  25  26
HETATM   26  C13 UNL     1      -2.604   0.080  -0.267  1.00  0.00     0.072 C 
BRANCH  26  27
HETATM   27  C14 UNL     1      -3.804   0.448  -0.991  1.00  0.00     0.058 C 
BRANCH  27  28
HETATM   28  N6  UNL     1      -5.084  -0.201  -0.850  1.00  0.00    -0.390 N 
ATOM     29  H6  UNL     1      -5.445  -0.843  -1.556  1.00  0.00     0.159 HD
BRANCH  28  30
HETATM   30  C15 UNL     1      -5.808   0.106   0.325  1.00  0.00     0.166 C 
HETATM   31  C16 UNL     1      -5.207  -0.546   1.577  1.00  0.00     0.042 C 
BRANCH  30  32
HETATM   32  C17 UNL     1      -7.244  -0.235   0.266  1.00  0.00     0.206 C 
BRANCH  32  33
HETATM   33  O1  UNL     1      -7.605  -1.242   1.006  1.00  0.00    -0.338 OA
ATOM     34  H1  UNL     1      -8.529  -1.461   0.968  1.00  0.00     0.220 HD
ENDBRANCH  32  33
BRANCH  32  35
HETATM   35  N7  UNL     1      -8.120   0.489  -0.473  1.00  0.00    -0.427 NA
BRANCH  35  36
HETATM   36  C18 UNL     1      -9.047   1.241  -1.244  1.00  0.00     0.222 C 
BRANCH  36  37
HETATM   37  C19 UNL     1     -10.084   1.951  -0.407  1.00  0.00     0.060 C 
BRANCH  37  38
HETATM   38  C20 UNL     1      -9.379   2.978   0.505  1.00  0.00     0.232 C 
BRANCH  38  39
HETATM   39  N8  UNL     1      -8.693   3.903  -0.407  1.00  0.00    -0.079 N 
ATOM     40  H83 UNL     1      -8.067   3.441  -1.066  1.00  0.00     0.274 HD
ATOM     41  H82 UNL     1      -9.308   4.325  -1.103  1.00  0.00     0.274 HD
ATOM     42  H81 UNL     1      -8.227   4.582   0.196  1.00  0.00     0.274 HD
ENDBRANCH  38  39
ENDBRANCH  37  38
ENDBRANCH  36  37
ENDBRANCH  35  36
ENDBRANCH  32  35
ENDBRANCH  30  32
ENDBRANCH  28  30
ENDBRANCH  27  28
ENDBRANCH  26  27
ENDBRANCH  25  26
ENDBRANCH  20  25
ENDBRANCH  19  20
ENDBRANCH  18  19
ENDBRANCH  13  18
ENDBRANCH   9  10
ENDBRANCH   8   9
ENDBRANCH   7   8
ENDBRANCH   4   7
ENDBRANCH   3   4
TORSDOF 20
