REMARK  17 active torsions:
REMARK  status: ('A' for Active; 'I' for Inactive)
REMARK    1  A    between atoms: C2_2  and  C3_3 
REMARK    2  A    between atoms: C3_3  and  C4_4 
REMARK    3  A    between atoms: C4_4  and  C5_5 
REMARK    4  A    between atoms: C5_5  and  C6_6 
REMARK    5  A    between atoms: C6_6  and  C7_7 
REMARK    6  A    between atoms: C7_7  and  N1_8 
REMARK    7  A    between atoms: N2_12  and  N3_14 
REMARK    8  A    between atoms: C11_19  and  N5_20 
REMARK       I    between atoms: C12_22  and  N6_23 
REMARK       I    between atoms: C12_22  and  N7_26 
REMARK    9  A    between atoms: N7_26  and  C14_28 
REMARK   10  A    between atoms: C14_28  and  C15_29 
REMARK   11  A    between atoms: C15_29  and  C16_30 
REMARK   12  A    between atoms: C16_30  and  N8_31 
REMARK   13  A    between atoms: N8_31  and  C17_34 
REMARK   14  A    between atoms: C17_34  and  C18_35 
REMARK   15  A    between atoms: C18_35  and  C19_36 
REMARK   16  A    between atoms: C19_36  and  N9_37 
REMARK       I    between atoms: N9_37  and  C20_39 
REMARK       I    between atoms: C20_39  and  N11_43 
REMARK   17  A    between atoms: N11_43  and  C22_45 
ROOT
HETATM    1  N5  UNL     1      -1.386   0.026  -1.275  1.00  0.00    -0.199 N 
ATOM      2  H5  UNL     1      -1.086   0.375  -2.185  1.00  0.00     0.180 HD
HETATM    3  C12 UNL     1      -0.524  -0.738  -0.793  1.00  0.00     0.675 C 
HETATM    4  N6  UNL     1       0.652  -0.961  -1.579  1.00  0.00    -0.231 N 
ATOM      5  H6  UNL     1       1.280  -1.735  -1.361  1.00  0.00     0.177 HD
HETATM    6  C13 UNL     1       0.938  -0.076  -2.685  1.00  0.00     0.165 C 
HETATM    7  N7  UNL     1      -0.662  -1.410   0.443  1.00  0.00    -0.203 N 
ATOM      8  H7  UNL     1      -1.262  -2.233   0.396  1.00  0.00     0.183 HD
ENDROOT
BRANCH   1   9
HETATM    9  C11 UNL     1      -2.644   0.547  -0.937  1.00  0.00     0.253 C 
HETATM   10  N1  UNL     1      -2.905   0.575   0.441  1.00  0.00    -0.346 N 
HETATM   11  C8  UNL     1      -2.683   1.851   0.997  1.00  0.00     0.071 C 
HETATM   12  C9  UNL     1      -2.662   2.838  -0.158  1.00  0.00     0.103 C 
HETATM   13  C10 UNL     1      -2.656   1.988  -1.376  1.00  0.00     0.052 C 
HETATM   14  N2  UNL     1      -2.663   2.416  -2.572  1.00  0.00    -0.291 N 
ATOM     15  H2  UNL     1      -2.659   1.750  -3.344  1.00  0.00     0.188 HD
BRANCH  10  16
HETATM   16  C7  UNL     1      -3.785  -0.317   1.040  1.00  0.00     0.065 C 
BRANCH  16  17
HETATM   17  C6  UNL     1      -5.236  -0.056   1.071  1.00  0.00     0.045 C 
BRANCH  17  18
HETATM   18  C5  UNL     1      -5.925   0.059  -0.253  1.00  0.00     0.005 C 
BRANCH  18  19
HETATM   19  C4  UNL     1      -7.407   0.305  -0.050  1.00  0.00     0.000 C 
BRANCH  19  20
HETATM   20  C3  UNL     1      -8.100  -0.779   0.715  1.00  0.00    -0.000 C 
BRANCH  20  21
HETATM   21  C2  UNL     1      -8.032  -2.132   0.089  1.00  0.00    -0.005 C 
HETATM   22  C1  UNL     1      -8.789  -3.088   1.011  1.00  0.00     0.005 C 
ENDBRANCH  20  21
ENDBRANCH  19  20
ENDBRANCH  18  19
ENDBRANCH  17  18
ENDBRANCH  16  17
ENDBRANCH  10  16
BRANCH  14  23
HETATM   23  N3  UNL     1      -2.676   3.786  -2.844  1.00  0.00    -0.249 N 
HETATM   24  N4  UNL     1      -1.921   4.263  -3.732  1.00  0.00    -0.331 N 
ATOM     25  H42 UNL     1      -1.304   3.633  -4.245  1.00  0.00     0.178 HD
ATOM     26  H41 UNL     1      -1.930   5.263  -3.931  1.00  0.00     0.178 HD
ATOM     27  H3  UNL     1      -3.299   4.402  -2.322  1.00  0.00     0.207 HD
ENDBRANCH  14  23
ENDBRANCH   1   9
BRANCH   7  28
HETATM   28  C14 UNL     1      -0.137  -1.169   1.722  1.00  0.00     0.103 C 
BRANCH  28  29
HETATM   29  C15 UNL     1       1.248  -1.415   2.095  1.00  0.00     0.018 C 
BRANCH  29  30
HETATM   30  C16 UNL     1       2.396  -0.737   1.479  1.00  0.00     0.261 C 
BRANCH  30  31
HETATM   31  N8  UNL     1       2.364   0.714   1.548  1.00  0.00    -0.072 N 
ATOM     32  H82 UNL     1       1.558   1.102   1.058  1.00  0.00     0.277 HD
ATOM     33  H81 UNL     1       2.142   1.047   2.486  1.00  0.00     0.277 HD
BRANCH  31  34
HETATM   34  C17 UNL     1       3.614   1.265   1.058  1.00  0.00     0.234 C 
BRANCH  34  35
HETATM   35  C18 UNL     1       3.852   1.045  -0.394  1.00  0.00     0.048 C 
BRANCH  35  36
HETATM   36  C19 UNL     1       5.172   1.665  -0.774  1.00  0.00     0.139 C 
BRANCH  36  37
HETATM   37  N9  UNL     1       6.241   1.077  -0.027  1.00  0.00    -0.227 N 
HETATM   38  C20 UNL     1       6.693  -0.247  -0.181  1.00  0.00     0.669 C 
HETATM   39  N10 UNL     1       6.030  -1.220   0.331  1.00  0.00    -0.231 N 
HETATM   40  N11 UNL     1       7.889  -0.598  -0.895  1.00  0.00    -0.227 N 
HETATM   41  C21 UNL     1       6.437  -2.612   0.214  1.00  0.00     0.165 C 
ATOM     42  H10 UNL     1       5.175  -1.007   0.845  1.00  0.00     0.177 HD
ATOM     43  H11 UNL     1       7.826  -0.990  -1.834  1.00  0.00     0.177 HD
ATOM     44  H9  UNL     1       6.709   1.659   0.667  1.00  0.00     0.177 HD
BRANCH  40  45
HETATM   45  C22 UNL     1       9.179  -0.395  -0.282  1.00  0.00     0.133 C 
HETATM   46  C23 UNL     1       9.511   1.057  -0.122  1.00  0.00     0.027 C 
ENDBRANCH  40  45
ENDBRANCH  36  37
ENDBRANCH  35  36
ENDBRANCH  34  35
ENDBRANCH  31  34
ENDBRANCH  30  31
ENDBRANCH  29  30
ENDBRANCH  28  29
ENDBRANCH   7  28
TORSDOF 17
