REMARK  12 active torsions:
REMARK  status: ('A' for Active; 'I' for Inactive)
REMARK    1  A    between atoms: C4_8  and  C5_9 
REMARK    2  A    between atoms: C5_9  and  N3_10 
REMARK    3  A    between atoms: N3_10  and  C6_11 
REMARK       I    between atoms: N3_10  and  C20_54 
REMARK    4  A    between atoms: C7_12  and  C8_13 
REMARK    5  A    between atoms: C8_13  and  N5_17 
REMARK    6  A    between atoms: N5_17  and  S1_19 
REMARK    7  A    between atoms: S1_19  and  C9_22 
REMARK    8  A    between atoms: C10_23  and  C11_24 
REMARK    9  A    between atoms: C12_29  and  C13_30 
REMARK   10  A    between atoms: C13_30  and  N8_31 
REMARK   11  A    between atoms: C20_54  and  C21_56 
REMARK   12  A    between atoms: C22_62  and  N18_63 
ROOT
HETATM    1  S1  UNL     1       2.749   0.066  -1.401  1.00  0.00     0.266 S 
HETATM    2  O1  UNL     1       3.619   1.388  -1.550  1.00  0.00    -0.200 OA
HETATM    3  O2  UNL     1       3.066  -0.369  -2.852  1.00  0.00    -0.200 OA
ENDROOT
BRANCH   1   4
HETATM    4  N5  UNL     1       1.242   0.658  -1.177  1.00  0.00    -0.266 N 
ATOM      5  H5  UNL     1       1.135   1.671  -1.232  1.00  0.00     0.180 HD
BRANCH   4   6
HETATM    6  C8  UNL     1       0.026  -0.120  -0.904  1.00  0.00     0.109 C 
HETATM    7  N4  UNL     1       0.107  -0.894   0.070  1.00  0.00    -0.385 N 
ATOM      8  H42 UNL     1      -0.737  -1.434   0.260  1.00  0.00     0.157 HD
ATOM      9  H41 UNL     1       0.877  -1.103   0.706  1.00  0.00     0.157 HD
BRANCH   6  10
HETATM   10  C7  UNL     1      -1.052   0.173  -1.795  1.00  0.00     0.066 C 
HETATM   11  C6  UNL     1      -2.299  -0.421  -2.091  1.00  0.00     0.098 C 
BRANCH  11  12
HETATM   12  N3  UNL     1      -3.366  -0.543  -1.124  1.00  0.00    -0.317 N 
HETATM   13  C20 UNL     1      -3.547  -1.780  -0.460  1.00  0.00     0.280 C 
HETATM   14  O5  UNL     1      -2.728  -2.743  -0.661  1.00  0.00    -0.265 OA
BRANCH  12  15
HETATM   15  C5  UNL     1      -4.275   0.605  -0.955  1.00  0.00     0.190 C 
BRANCH  15  16
HETATM   16  C4  UNL     1      -3.882   1.402   0.203  1.00  0.00     0.051 A 
HETATM   17  C2  UNL     1      -4.518   2.604   0.586  1.00  0.00     0.030 A 
HETATM   18  C1  UNL     1      -5.616   3.241  -0.147  1.00  0.00     0.070 C 
HETATM   19  N1  UNL     1      -3.906   3.010   1.700  1.00  0.00    -0.354 N 
HETATM   20  C3  UNL     1      -2.943   2.151   2.034  1.00  0.00     0.180 A 
ATOM     21  H1  UNL     1      -4.141   3.855   2.221  1.00  0.00     0.166 HD
HETATM   22  N2  UNL     1      -2.928   1.158   1.112  1.00  0.00    -0.353 N 
ATOM     23  H2  UNL     1      -2.296   0.358   1.110  1.00  0.00     0.166 HD
ENDBRANCH  15  16
ENDBRANCH  12  15
BRANCH  13  24
HETATM   24  C21 UNL     1      -4.638  -2.022   0.452  1.00  0.00     0.169 A 
HETATM   25  N16 UNL     1      -5.651  -1.210   0.867  1.00  0.00    -0.233 N 
HETATM   26  O6  UNL     1      -6.425  -1.827   1.667  1.00  0.00    -0.155 OA
ATOM     27  H16 UNL     1      -5.772  -0.240   0.576  1.00  0.00     0.197 HD
HETATM   28  N17 UNL     1      -6.030  -3.017   1.846  1.00  0.00    -0.224 N 
HETATM   29  C22 UNL     1      -4.898  -3.209   1.105  1.00  0.00     0.155 A 
ATOM     30  H17 UNL     1      -6.480  -3.713   2.441  1.00  0.00     0.198 HD
BRANCH  29  31
HETATM   31  N18 UNL     1      -4.291  -4.331   1.109  1.00  0.00    -0.382 N 
ATOM     32 2H18 UNL     1      -3.446  -4.474   0.556  1.00  0.00     0.157 HD
ATOM     33 1H18 UNL     1      -4.483  -5.209   1.592  1.00  0.00     0.157 HD
ENDBRANCH  29  31
ENDBRANCH  13  24
ENDBRANCH  11  12
ENDBRANCH   6  10
ENDBRANCH   4   6
ENDBRANCH   1   4
BRANCH   1  34
HETATM   34  C9  UNL     1       3.631  -0.799  -0.201  1.00  0.00     0.112 A 
HETATM   35  C10 UNL     1       4.325  -0.141   0.792  1.00  0.00     0.041 A 
HETATM   36  C14 UNL     1       5.294  -0.775   1.612  1.00  0.00     0.020 A 
HETATM   37  C15 UNL     1       5.532  -2.098   1.401  1.00  0.00     0.032 A 
HETATM   38  C16 UNL     1       4.848  -2.785   0.427  1.00  0.00     0.066 A 
HETATM   39  N13 UNL     1       5.086  -4.089   0.280  1.00  0.00    -0.191 N 
HETATM   40  C19 UNL     1       3.880  -2.166  -0.400  1.00  0.00     0.084 A 
HETATM   41  C17 UNL     1       4.429  -4.878  -0.637  1.00  0.00     0.679 A 
ATOM     42  H13 UNL     1       5.790  -4.523   0.877  1.00  0.00     0.184 HD
HETATM   43  N14 UNL     1       4.770  -6.083  -0.776  1.00  0.00    -0.234 N 
HETATM   44  N15 UNL     1       3.506  -4.262  -1.403  1.00  0.00    -0.156 N 
ATOM     45 2H14 UNL     1       5.468  -6.549  -0.197  1.00  0.00     0.174 HD
ATOM     46 1H14 UNL     1       4.283  -6.668  -1.455  1.00  0.00     0.174 HD
HETATM   47  C18 UNL     1       3.218  -2.936  -1.305  1.00  0.00     0.273 A 
ATOM     48  H15 UNL     1       2.998  -4.818  -2.091  1.00  0.00     0.187 HD
HETATM   49  O4  UNL     1       2.358  -2.494  -2.049  1.00  0.00    -0.267 OA
BRANCH  35  50
HETATM   50  C11 UNL     1       3.952   1.201   1.226  1.00  0.00     0.176 A 
HETATM   51  N6  UNL     1       4.684   2.038   1.995  1.00  0.00    -0.277 N 
HETATM   52  N7  UNL     1       3.999   3.133   2.159  1.00  0.00    -0.280 N 
ATOM     53  H6  UNL     1       5.609   1.846   2.379  1.00  0.00     0.189 HD
HETATM   54  C12 UNL     1       2.844   3.033   1.519  1.00  0.00     0.162 A 
ATOM     55  H7  UNL     1       4.305   3.943   2.698  1.00  0.00     0.189 HD
HETATM   56  O3  UNL     1       2.867   1.840   0.967  1.00  0.00    -0.276 OA
BRANCH  54  57
HETATM   57  C13 UNL     1       1.715   4.025   1.406  1.00  0.00     0.258 C 
BRANCH  57  58
HETATM   58  N8  UNL     1       2.053   4.979   0.349  1.00  0.00    -0.198 N 
HETATM   59  N9  UNL     1       2.716   6.105   0.494  1.00  0.00    -0.207 N 
HETATM   60  N10 UNL     1       2.820   6.696  -0.697  1.00  0.00     0.012 NA
ATOM     61  H9  UNL     1       3.089   6.467   1.372  1.00  0.00     0.207 HD
HETATM   62  N11 UNL     1       2.198   5.891  -1.567  1.00  0.00    -0.209 N 
HETATM   63  N12 UNL     1       1.742   4.863  -0.914  1.00  0.00    -0.212 N 
ATOM     64  H11 UNL     1       2.099   6.055  -2.569  1.00  0.00     0.207 HD
ATOM     65  H12 UNL     1       1.222   4.087  -1.324  1.00  0.00     0.211 HD
ENDBRANCH  57  58
ENDBRANCH  54  57
ENDBRANCH  35  50
ENDBRANCH   1  34
TORSDOF 12
