REMARK  13 active torsions:
REMARK  status: ('A' for Active; 'I' for Inactive)
REMARK    1  A    between atoms: O1_2  and  C2_3 
REMARK    2  A    between atoms: C2_3  and  C3_4 
REMARK    3  A    between atoms: C2_3  and  C13_14 
REMARK    4  A    between atoms: C4_5  and  C5_6 
REMARK    5  A    between atoms: C5_6  and  C6_7 
REMARK    6  A    between atoms: C6_7  and  C8_9 
REMARK    7  A    between atoms: C8_9  and  C9_10 
REMARK    8  A    between atoms: C9_10  and  C10_11 
REMARK    9  A    between atoms: C15_16  and  O2_17 
REMARK   10  A    between atoms: C16_19  and  C17_20 
REMARK   11  A    between atoms: C18_21  and  C19_22 
REMARK   12  A    between atoms: C19_22  and  O3_23 
REMARK   13  A    between atoms: C19_22  and  C20_25 
ROOT
HETATM    1  C13 UNL     1       0.021   0.870   0.609  1.00  0.00     0.031 C 
HETATM    2  C14 UNL     1       0.337   2.043   1.508  1.00  0.00     0.040 C 
HETATM    3  C15 UNL     1       0.904   1.019   2.480  1.00  0.00     0.126 C 
HETATM    4  C16 UNL     1       1.089   0.114   1.251  1.00  0.00     0.043 C 
ENDROOT
BRANCH   4   5
HETATM    5  C17 UNL     1       2.499   0.202   0.798  1.00  0.00    -0.021 C 
HETATM    6  C18 UNL     1       3.219  -0.909   0.801  1.00  0.00     0.003 C 
BRANCH   6   7
HETATM    7  C19 UNL     1       4.600  -1.180   0.436  1.00  0.00     0.178 C 
BRANCH   7   8
HETATM    8  O3  UNL     1       4.860  -2.486   0.983  1.00  0.00    -0.389 OA
ATOM      9  H3  UNL     1       5.762  -2.663   0.745  1.00  0.00     0.210 HD
ENDBRANCH   7   8
BRANCH   7  10
HETATM   10  C20 UNL     1       5.643  -0.296   1.085  1.00  0.00     0.287 C 
HETATM   11  N1  UNL     1       6.931  -0.995   0.826  1.00  0.00    -0.057 N 
HETATM   12  C21 UNL     1       7.195  -0.807  -0.581  1.00  0.00     0.190 C 
ATOM     13  H12 UNL     1       7.693  -0.689   1.431  1.00  0.00     0.278 HD
ATOM     14  H11 UNL     1       6.933  -1.973   1.117  1.00  0.00     0.278 HD
HETATM   15  C22 UNL     1       8.701  -0.923  -0.807  1.00  0.00     0.040 C 
HETATM   16  C23 UNL     1       6.758   0.604  -0.851  1.00  0.00     0.113 C 
HETATM   17  C24 UNL     1       5.912   0.964   0.348  1.00  0.00     0.162 C 
HETATM   18  O4  UNL     1       5.561   2.084   0.596  1.00  0.00    -0.296 OA
ENDBRANCH   7  10
ENDBRANCH   6   7
ENDBRANCH   4   5
BRANCH   1  19
HETATM   19  C2  UNL     1      -0.077   1.111  -0.851  1.00  0.00     0.149 C 
BRANCH  19  20
HETATM   20  O1  UNL     1       1.102   1.645  -1.392  1.00  0.00    -0.386 OA
HETATM   21  C1  UNL     1       0.836   2.888  -1.994  1.00  0.00     0.202 C 
ENDBRANCH  19  20
BRANCH  19  22
HETATM   22  C3  UNL     1      -0.410  -0.167  -1.516  1.00  0.00     0.013 C 
HETATM   23  C4  UNL     1      -1.563  -0.818  -1.482  1.00  0.00     0.049 C 
BRANCH  23  24
HETATM   24  C5  UNL     1      -2.754  -0.474  -0.825  1.00  0.00    -0.152 C 
BRANCH  24  25
HETATM   25  C6  UNL     1      -3.819  -0.167  -0.237  1.00  0.00     0.052 C 
HETATM   26  C7  UNL     1      -3.837   1.158   0.523  1.00  0.00     0.023 C 
BRANCH  25  27
HETATM   27  C8  UNL     1      -5.088  -0.911  -0.130  1.00  0.00     0.016 C 
BRANCH  27  28
HETATM   28  C9  UNL     1      -6.281  -0.217  -0.693  1.00  0.00     0.005 C 
BRANCH  28  29
HETATM   29  C10 UNL     1      -7.463  -1.162  -0.500  1.00  0.00    -0.023 C 
HETATM   30  C11 UNL     1      -8.727  -0.558  -1.032  1.00  0.00     0.009 C 
HETATM   31  C12 UNL     1      -7.657  -1.478   0.964  1.00  0.00     0.009 C 
ENDBRANCH  28  29
ENDBRANCH  27  28
ENDBRANCH  25  27
ENDBRANCH  24  25
ENDBRANCH  23  24
ENDBRANCH  19  22
ENDBRANCH   1  19
BRANCH   3  32
HETATM   32  O2  UNL     1      -0.101   0.564   3.338  1.00  0.00    -0.395 OA
ATOM     33  H2  UNL     1       0.253  -0.075   3.945  1.00  0.00     0.210 HD
ENDBRANCH   3  32
TORSDOF 13
