REMARK  13 active torsions:
REMARK  status: ('A' for Active; 'I' for Inactive)
REMARK    1  A    between atoms: C2_2  and  C3_3 
REMARK    2  A    between atoms: C3_3  and  C4_4 
REMARK    3  A    between atoms: C4_4  and  C5_5 
REMARK    4  A    between atoms: C5_5  and  O1_6 
REMARK    5  A    between atoms: C5_5  and  C11_14 
REMARK    6  A    between atoms: O1_6  and  C6_7 
REMARK    7  A    between atoms: C11_14  and  C14_19 
REMARK    8  A    between atoms: C12_15  and  C13_16 
REMARK    9  A    between atoms: C13_16  and  O4_17 
REMARK   10  A    between atoms: C15_21  and  O6_22 
REMARK   11  A    between atoms: C17_24  and  O7_25 
REMARK   12  A    between atoms: C19_29  and  O8_30 
REMARK   13  A    between atoms: C20_32  and  O9_33 
ROOT
HETATM    1  C11 UNL     1       0.004  -0.194  -0.756  1.00  0.00    -0.021 C 
HETATM    2  C12 UNL     1       0.170  -0.289  -2.068  1.00  0.00     0.007 C 
ENDROOT
BRANCH   1   3
HETATM    3  C5  UNL     1       1.124   0.214   0.090  1.00  0.00     0.158 C 
BRANCH   3   4
HETATM    4  C4  UNL     1       0.863   1.446   0.894  1.00  0.00     0.037 C 
BRANCH   4   5
HETATM    5  C3  UNL     1       2.176   1.985   1.491  1.00  0.00     0.002 C 
BRANCH   5   6
HETATM    6  C2  UNL     1       1.884   3.252   2.287  1.00  0.00    -0.004 C 
HETATM    7  C1  UNL     1       1.278   4.322   1.416  1.00  0.00     0.005 C 
ENDBRANCH   5   6
ENDBRANCH   4   5
ENDBRANCH   3   4
BRANCH   3   8
HETATM    8  O1  UNL     1       1.663  -0.852   0.823  1.00  0.00    -0.329 OA
BRANCH   8   9
HETATM    9  C6  UNL     1       2.961  -1.182   0.452  1.00  0.00     0.418 C 
HETATM   10  O2  UNL     1       3.828  -1.174   1.550  1.00  0.00    -0.309 OA
HETATM   11  C7  UNL     1       5.075  -1.764   1.395  1.00  0.00     0.139 C 
HETATM   12  C8  UNL     1       5.199  -2.655   0.427  1.00  0.00     0.029 C 
HETATM   13  C9  UNL     1       4.078  -3.009  -0.443  1.00  0.00     0.147 C 
HETATM   14  C10 UNL     1       4.455  -2.713  -1.892  1.00  0.00     0.044 C 
HETATM   15  O3  UNL     1       2.874  -2.448  -0.138  1.00  0.00    -0.330 OA
ENDBRANCH   8   9
ENDBRANCH   3   8
ENDBRANCH   1   3
BRANCH   1  16
HETATM   16  C14 UNL     1      -1.316  -0.544  -0.117  1.00  0.00     0.187 C 
HETATM   17  O5  UNL     1      -1.735   0.471   0.744  1.00  0.00    -0.346 OA
HETATM   18  C15 UNL     1      -3.071   0.432   1.113  1.00  0.00     0.289 C 
HETATM   19  C17 UNL     1      -4.179   0.654   0.212  1.00  0.00     0.190 C 
HETATM   20  C18 UNL     1      -4.646  -0.161  -0.904  1.00  0.00     0.123 C 
HETATM   21  S1  UNL     1      -5.983  -1.301  -0.355  1.00  0.00    -0.087 SA
HETATM   22  C19 UNL     1      -3.605  -1.032  -1.664  1.00  0.00     0.167 C 
HETATM   23  C20 UNL     1      -2.315  -0.818  -1.093  1.00  0.00     0.181 C 
BRANCH  18  24
HETATM   24  O6  UNL     1      -3.294  -0.562   2.090  1.00  0.00    -0.363 OA
HETATM   25  C16 UNL     1      -3.439  -0.099   3.365  1.00  0.00     0.204 C 
ENDBRANCH  18  24
BRANCH  19  26
HETATM   26  O7  UNL     1      -5.317   0.756   1.080  1.00  0.00    -0.389 OA
ATOM     27  H7  UNL     1      -6.045   0.902   0.488  1.00  0.00     0.210 HD
ENDBRANCH  19  26
BRANCH  22  28
HETATM   28  O8  UNL     1      -4.077  -2.357  -1.771  1.00  0.00    -0.392 OA
ATOM     29  H8  UNL     1      -3.441  -2.889  -2.235  1.00  0.00     0.210 HD
ENDBRANCH  22  28
BRANCH  23  30
HETATM   30  O9  UNL     1      -2.366   0.575  -1.392  1.00  0.00    -0.390 OA
ATOM     31  H9  UNL     1      -3.033   0.392  -2.043  1.00  0.00     0.210 HD
ENDBRANCH  23  30
ENDBRANCH   1  16
BRANCH   2  32
HETATM   32  C13 UNL     1       1.348  -0.044  -2.890  1.00  0.00     0.192 C 
BRANCH  32  33
HETATM   33  O4  UNL     1       1.048   0.989  -3.815  1.00  0.00    -0.397 OA
ATOM     34  H4  UNL     1       1.816   1.149  -4.351  1.00  0.00     0.209 HD
ENDBRANCH  32  33
ENDBRANCH   2  32
TORSDOF 13
