REMARK  2 active torsions:
REMARK  status: ('A' for Active; 'I' for Inactive)
REMARK    1  A    between atoms: N1_1  and  N2_4 
REMARK    2  A    between atoms: N2_4  and  C1_6 
ROOT
HETATM    1  C1  UNL     1      -0.940   0.266   0.273  1.00  0.00     0.702 A 
HETATM    2  N3  UNL     1       0.164  -0.445   0.032  1.00  0.00    -0.162 N 
ATOM      3  H3  UNL     1       0.076  -1.447  -0.137  1.00  0.00     0.187 HD
HETATM    4  C2  UNL     1       1.396   0.114   0.003  1.00  0.00     0.210 A 
HETATM    5  N4  UNL     1       2.509  -0.728  -0.261  1.00  0.00    -0.062 NA
HETATM    6  N5  UNL     1       1.503   1.421   0.224  1.00  0.00    -0.282 N 
ATOM      7  H5  UNL     1       2.421   1.865   0.208  1.00  0.00     0.173 HD
HETATM    8  C3  UNL     1       0.404   2.161   0.469  1.00  0.00     0.341 A 
HETATM    9  O1  UNL     1       0.486   3.398   0.679  1.00  0.00    -0.246 OA
HETATM   10  N6  UNL     1      -0.813   1.586   0.493  1.00  0.00    -0.140 N 
ATOM     11  H6  UNL     1      -1.640   2.153   0.678  1.00  0.00     0.189 HD
ENDROOT
BRANCH   1  12
HETATM   12  N2  UNL     1      -2.120  -0.299   0.295  1.00  0.00    -0.138 N 
ATOM     13  H2  UNL     1      -2.945   0.272   0.481  1.00  0.00     0.205 HD
BRANCH  12  14
HETATM   14  N1  UNL     1      -2.271  -1.658   0.070  1.00  0.00    -0.331 N 
ATOM     15  H12 UNL     1      -1.436  -2.214  -0.115  1.00  0.00     0.177 HD
ATOM     16  H11 UNL     1      -3.191  -2.098   0.087  1.00  0.00     0.177 HD
ENDBRANCH  12  14
ENDBRANCH   1  12
TORSDOF 2
