REMARK  11 active torsions:
REMARK  status: ('A' for Active; 'I' for Inactive)
REMARK    1  A    between atoms: C2_2  and  O1_3 
REMARK    2  A    between atoms: O1_3  and  C3_4 
REMARK    3  A    between atoms: C3_4  and  C4_6 
REMARK    4  A    between atoms: C4_6  and  S1_7 
REMARK    5  A    between atoms: S1_7  and  C5_8 
REMARK    6  A    between atoms: C7_13  and  C8_14 
REMARK    7  A    between atoms: C8_14  and  N2_16 
REMARK    8  A    between atoms: N2_16  and  N3_18 
REMARK       I    between atoms: N3_18  and  C10_20 
REMARK    9  A    between atoms: C11_23  and  N5_24 
REMARK   10  A    between atoms: N5_24  and  N6_25 
REMARK   11  A    between atoms: N6_25  and  C12_27 
ROOT
HETATM    1  C5  UNL     1       2.684   0.303   0.248  1.00  0.00     0.149 A 
HETATM    2  N1  UNL     1       2.797   1.613   0.471  1.00  0.00    -0.303 N 
ATOM      3  H1  UNL     1       3.705   2.006   0.718  1.00  0.00     0.171 HD
HETATM    4  C6  UNL     1       1.736   2.414   0.374  1.00  0.00     0.264 A 
HETATM    5  O3  UNL     1       1.834   3.657   0.584  1.00  0.00    -0.267 OA
HETATM    6  C7  UNL     1       0.450   1.949   0.038  1.00  0.00     0.116 A 
HETATM    7  C11 UNL     1       0.338   0.589  -0.192  1.00  0.00     0.223 A 
HETATM    8  N12 UNL     1       1.496  -0.176  -0.070  1.00  0.00    -0.309 N 
ATOM      9  H12 UNL     1       1.420  -1.179  -0.239  1.00  0.00     0.170 HD
ENDROOT
BRANCH   7  10
HETATM   10  N5  UNL     1      -0.776  -0.076  -0.523  1.00  0.00    -0.304 NA
BRANCH  10  11
HETATM   11  N6  UNL     1      -1.704  -0.634  -0.881  1.00  0.00    -0.215 N 
ATOM     12  H6  UNL     1      -1.722  -0.695  -1.899  1.00  0.00     0.203 HD
BRANCH  11  13
HETATM   13  C12 UNL     1      -2.823  -1.258  -0.324  1.00  0.00     0.163 A 
HETATM   14  N7  UNL     1      -3.212  -1.320   0.970  1.00  0.00    -0.280 N 
HETATM   15  N8  UNL     1      -4.328  -2.004   1.089  1.00  0.00    -0.278 N 
ATOM     16  H7  UNL     1      -2.708  -0.894   1.748  1.00  0.00     0.189 HD
HETATM   17  C13 UNL     1      -5.095  -2.317   2.296  1.00  0.00     0.179 C 
HETATM   18  C14 UNL     1      -4.721  -2.423  -0.132  1.00  0.00     0.143 A 
HETATM   19  N9  UNL     1      -5.775  -3.148  -0.570  1.00  0.00    -0.292 N 
HETATM   20  C17 UNL     1      -3.782  -1.960  -1.032  1.00  0.00     0.101 A 
HETATM   21  C15 UNL     1      -5.925  -3.428  -1.872  1.00  0.00     0.327 A 
ATOM     22  H9  UNL     1      -6.466  -3.487   0.100  1.00  0.00     0.172 HD
HETATM   23  O5  UNL     1      -6.912  -4.104  -2.265  1.00  0.00    -0.247 OA
HETATM   24  N10 UNL     1      -5.030  -2.991  -2.762  1.00  0.00    -0.294 N 
HETATM   25  C16 UNL     1      -3.956  -2.257  -2.353  1.00  0.00     0.120 A 
ATOM     26  H10 UNL     1      -5.150  -3.207  -3.752  1.00  0.00     0.172 HD
HETATM   27  N11 UNL     1      -3.159  -1.885  -3.267  1.00  0.00    -0.384 N 
ATOM     28 2H11 UNL     1      -3.289  -2.107  -4.254  1.00  0.00     0.157 HD
ATOM     29 1H11 UNL     1      -2.356  -1.336  -2.961  1.00  0.00     0.157 HD
ENDBRANCH  11  13
ENDBRANCH  10  11
ENDBRANCH   7  10
BRANCH   6  30
HETATM   30  C8  UNL     1      -0.646   2.868  -0.048  1.00  0.00     0.042 C 
HETATM   31  C9  UNL     1      -2.015   2.531  -0.381  1.00  0.00     0.071 C 
BRANCH  30  32
HETATM   32  N2  UNL     1      -0.383   4.121   0.197  1.00  0.00    -0.300 N 
ATOM     33  H2  UNL     1       0.575   4.380   0.433  1.00  0.00     0.186 HD
BRANCH  32  34
HETATM   34  N3  UNL     1      -1.347   5.120   0.151  1.00  0.00    -0.254 N 
HETATM   35  C10 UNL     1      -1.794   5.783   1.297  1.00  0.00     0.347 C 
HETATM   36  N4  UNL     1      -2.784   6.798   1.188  1.00  0.00    -0.038 NA
HETATM   37  O4  UNL     1      -1.348   5.515   2.436  1.00  0.00    -0.249 OA
ATOM     38  H3  UNL     1      -1.743   5.379  -0.752  1.00  0.00     0.191 HD
ENDBRANCH  32  34
ENDBRANCH  30  32
ENDBRANCH   6  30
BRANCH   1  39
HETATM   39  S1  UNL     1       4.094  -0.806   0.369  1.00  0.00    -0.084 SA
BRANCH  39  40
HETATM   40  C4  UNL     1       5.585   0.104   0.812  1.00  0.00     0.193 C 
BRANCH  40  41
HETATM   41  C3  UNL     1       6.712  -0.838   0.902  1.00  0.00     0.268 C 
HETATM   42  O2  UNL     1       7.847  -0.414   1.199  1.00  0.00    -0.264 OA
BRANCH  41  43
HETATM   43  O1  UNL     1       6.515  -2.177   0.660  1.00  0.00    -0.321 OA
BRANCH  43  44
HETATM   44  C2  UNL     1       7.559  -3.135   0.730  1.00  0.00     0.174 C 
HETATM   45  C1  UNL     1       8.628  -2.762  -0.279  1.00  0.00     0.034 C 
ENDBRANCH  43  44
ENDBRANCH  41  43
ENDBRANCH  40  41
ENDBRANCH  39  40
ENDBRANCH   1  39
TORSDOF 11
