REMARK  4 active torsions:
REMARK  status: ('A' for Active; 'I' for Inactive)
REMARK    1  A    between atoms: C1_2  and  C2_4 
REMARK    2  A    between atoms: C5_13  and  N4_14 
REMARK    3  A    between atoms: N4_14  and  N5_16 
REMARK       I    between atoms: N5_16  and  C6_18 
REMARK    4  A    between atoms: C6_18  and  C7_20 
ROOT
HETATM    1  N4  UNL     1      -0.365  -0.979  -0.860  1.00  0.00    -0.291 N 
ATOM      2  H4  UNL     1      -0.518  -1.957  -1.104  1.00  0.00     0.187 HD
ENDROOT
BRANCH   1   3
HETATM    3  C5  UNL     1      -1.434  -0.076  -0.886  1.00  0.00     0.148 A 
HETATM    4  C2  UNL     1      -2.242   0.041   0.215  1.00  0.00     0.134 A 
HETATM    5  N2  UNL     1      -3.290   0.917   0.228  1.00  0.00    -0.327 N 
HETATM    6  C3  UNL     1      -3.531   1.676  -0.858  1.00  0.00     0.179 A 
ATOM      7  H2  UNL     1      -3.885   0.996   1.053  1.00  0.00     0.168 HD
HETATM    8  S1  UNL     1      -4.787   2.726  -0.844  1.00  0.00    -0.040 SA
HETATM    9  N3  UNL     1      -2.736   1.555  -1.931  1.00  0.00    -0.298 N 
HETATM   10  C4  UNL     1      -1.700   0.706  -1.978  1.00  0.00     0.278 A 
ATOM     11  H3  UNL     1      -2.928   2.135  -2.748  1.00  0.00     0.171 HD
HETATM   12  O2  UNL     1      -0.960   0.597  -2.984  1.00  0.00    -0.265 OA
BRANCH   4  13
HETATM   13  C1  UNL     1      -2.012  -0.769   1.400  1.00  0.00     0.284 C 
HETATM   14  N1  UNL     1      -2.840  -0.659   2.547  1.00  0.00    -0.056 NA
HETATM   15  O1  UNL     1      -1.076  -1.605   1.476  1.00  0.00    -0.269 OA
ENDBRANCH   4  13
ENDBRANCH   1   3
BRANCH   1  16
HETATM   16  N5  UNL     1       0.911  -0.542  -0.500  1.00  0.00    -0.263 N 
HETATM   17  C6  UNL     1       2.026  -1.372  -0.430  1.00  0.00     0.295 C 
HETATM   18  O3  UNL     1       1.942  -2.586  -0.691  1.00  0.00    -0.264 OA
ATOM     19  H5  UNL     1       1.034   0.445  -0.275  1.00  0.00     0.190 HD
BRANCH  17  20
HETATM   20  C7  UNL     1       3.328  -0.832  -0.046  1.00  0.00     0.164 A 
HETATM   21  N6  UNL     1       3.672   0.405   0.273  1.00  0.00    -0.286 N 
HETATM   22  N7  UNL     1       4.866   0.695   0.582  1.00  0.00    -0.259 N 
ATOM     23  H6  UNL     1       2.963   1.138   0.270  1.00  0.00     0.188 HD
HETATM   24  C8  UNL     1       5.783  -0.279   0.581  1.00  0.00     0.304 A 
ATOM     25  H7  UNL     1       5.123   1.651   0.826  1.00  0.00     0.191 HD
HETATM   26  O4  UNL     1       7.029  -0.177   0.864  1.00  0.00    -0.258 OA
HETATM   27  S2  UNL     1       4.850  -1.633   0.115  1.00  0.00    -0.003 SA
ENDBRANCH  17  20
ENDBRANCH   1  16
TORSDOF 4
