REMARK  3 active torsions:
REMARK  status: ('A' for Active; 'I' for Inactive)
REMARK    1  A    between atoms: C2_2  and  N1_3 
REMARK    2  A    between atoms: C5_6  and  N2_7 
REMARK       I    between atoms: N2_7  and  C6_9 
REMARK    3  A    between atoms: C7_14  and  N5_15 
ROOT
HETATM    1  N1  UNL     1      -1.652   0.065   0.545  1.00  0.00    -0.411 N 
HETATM    2  C3  UNL     1      -1.256  -1.290   0.739  1.00  0.00     0.119 C 
HETATM    3  C4  UNL     1       0.271  -1.294   0.911  1.00  0.00     0.046 C 
HETATM    4  C5  UNL     1       0.798  -1.035  -0.511  1.00  0.00     0.117 C 
HETATM    5  C7  UNL     1       0.262   0.265  -1.009  1.00  0.00     0.223 C 
HETATM    6  C8  UNL     1      -0.663   0.931   0.022  1.00  0.00     0.151 C 
ENDROOT
BRANCH   4   7
HETATM    7  N2  UNL     1       2.203  -1.168  -0.498  1.00  0.00    -0.358 N 
HETATM    8  C6  UNL     1       3.130  -0.428   0.260  1.00  0.00     0.182 C 
HETATM    9  N3  UNL     1       4.065   0.209  -0.345  1.00  0.00    -0.374 N 
HETATM   10  N4  UNL     1       3.105  -0.336   1.673  1.00  0.00    -0.064 NA
ATOM     11  H32 UNL     1       4.083   0.143  -1.363  1.00  0.00     0.158 HD
ATOM     12  H31 UNL     1       4.737   0.745   0.204  1.00  0.00     0.158 HD
ATOM     13  H2  UNL     1       2.593  -1.885  -1.110  1.00  0.00     0.162 HD
ENDBRANCH   4   7
BRANCH   5  14
HETATM   14  N5  UNL     1       1.255   1.234  -1.354  1.00  0.00    -0.071 N 
ATOM     15  H53 UNL     1       1.884   1.391  -0.566  1.00  0.00     0.274 HD
ATOM     16  H52 UNL     1       1.911   0.841  -2.029  1.00  0.00     0.274 HD
ATOM     17  H51 UNL     1       0.889   2.123  -1.695  1.00  0.00     0.274 HD
ENDBRANCH   5  14
BRANCH   1  18
HETATM   18  C2  UNL     1      -2.957   0.194  -0.030  1.00  0.00     0.112 C 
HETATM   19  C1  UNL     1      -3.412   1.585  -0.251  1.00  0.00     0.026 C 
ENDBRANCH   1  18
TORSDOF 3
