REMARK  15 active torsions:
REMARK  status: ('A' for Active; 'I' for Inactive)
REMARK    1  A    between atoms: C1_4  and  O1_5 
REMARK    2  A    between atoms: C1_4  and  C17_43 
REMARK    3  A    between atoms: O1_5  and  C2_6 
REMARK    4  A    between atoms: C2_6  and  O2_7 
REMARK    5  A    between atoms: O2_7  and  C3_8 
REMARK    6  A    between atoms: C3_8  and  O3_9 
REMARK    7  A    between atoms: C3_8  and  C4_11 
REMARK    8  A    between atoms: C7_15  and  O5_16 
REMARK    9  A    between atoms: C8_18  and  C9_19 
REMARK   10  A    between atoms: C9_19  and  O6_20 
REMARK   11  A    between atoms: C9_19  and  C10_22 
REMARK   12  A    between atoms: C11_24  and  N2_25 
REMARK   13  A    between atoms: C13_31  and  N6_32 
REMARK   14  A    between atoms: N6_32  and  N7_33 
REMARK   15  A    between atoms: C14_36  and  C15_37 
ROOT
HETATM    1  C9  UNL     1      -0.076  -1.810  -1.566  1.00  0.00     0.237 C 
ENDROOT
BRANCH   1   2
HETATM    2  C8  UNL     1       0.850  -1.821  -0.402  1.00  0.00     0.125 A 
HETATM    3  C7  UNL     1       0.686  -2.745   0.606  1.00  0.00     0.149 A 
HETATM    4  C6  UNL     1       1.578  -2.703   1.658  1.00  0.00     0.210 A 
HETATM    5  C5  UNL     1       2.581  -1.754   1.659  1.00  0.00     0.095 A 
HETATM    6  O4  UNL     1       1.453  -3.535   2.595  1.00  0.00    -0.285 OA
HETATM    7  C4  UNL     1       2.688  -0.859   0.617  1.00  0.00     0.112 A 
HETATM    8  O10 UNL     1       1.824  -0.944  -0.344  1.00  0.00    -0.308 OA
BRANCH   3   9
HETATM    9  O5  UNL     1      -0.351  -3.696   0.566  1.00  0.00    -0.355 OA
ATOM     10  H5  UNL     1      -0.965  -3.725  -0.158  1.00  0.00     0.218 HD
ENDBRANCH   3   9
BRANCH   7  11
HETATM   11  C3  UNL     1       3.784   0.170   0.629  1.00  0.00     0.318 C 
BRANCH  11  12
HETATM   12  O2  UNL     1       4.998  -0.363   0.987  1.00  0.00    -0.331 OA
BRANCH  12  13
HETATM   13  C2  UNL     1       5.952  -0.265  -0.026  1.00  0.00     0.350 C 
BRANCH  13  14
HETATM   14  O1  UNL     1       6.206   1.074  -0.401  1.00  0.00    -0.306 OA
BRANCH  14  15
HETATM   15  C1  UNL     1       6.681   2.034   0.465  1.00  0.00     0.204 C 
HETATM   16  N1  UNL     1       6.992   1.717   1.667  1.00  0.00    -0.376 N 
ATOM     17  H12 UNL     1       6.881   0.747   1.963  1.00  0.00     0.158 HD
ATOM     18  H11 UNL     1       7.344   2.428   2.308  1.00  0.00     0.158 HD
BRANCH  15  19
HETATM   19  C17 UNL     1       6.840   3.424   0.040  1.00  0.00     0.305 C 
HETATM   20  N9  UNL     1       7.329   4.413   0.935  1.00  0.00    -0.054 NA
HETATM   21  O11 UNL     1       6.538   3.748  -1.138  1.00  0.00    -0.267 OA
ENDBRANCH  15  19
ENDBRANCH  14  15
ENDBRANCH  13  14
ENDBRANCH  12  13
ENDBRANCH  11  12
BRANCH  11  22
HETATM   22  O3  UNL     1       3.469   1.193   1.522  1.00  0.00    -0.365 OA
ATOM     23  H3  UNL     1       2.629   1.562   1.274  1.00  0.00     0.213 HD
ENDBRANCH  11  22
ENDBRANCH   7  11
ENDBRANCH   1   2
BRANCH   1  24
HETATM   24  O6  UNL     1      -0.075  -3.068  -2.128  1.00  0.00    -0.382 OA
ATOM     25  H6  UNL     1      -0.666  -3.061  -2.871  1.00  0.00     0.211 HD
ENDBRANCH   1  24
BRANCH   1  26
HETATM   26  C10 UNL     1      -1.439  -1.362  -1.179  1.00  0.00     0.116 A 
HETATM   27  O7  UNL     1      -1.788  -0.276  -0.551  1.00  0.00    -0.291 OA
HETATM   28  C11 UNL     1      -3.110  -0.216  -0.381  1.00  0.00     0.174 A 
HETATM   29  C14 UNL     1      -3.693  -1.331  -0.927  1.00  0.00     0.119 A 
HETATM   30  C16 UNL     1      -2.599  -2.058  -1.438  1.00  0.00     0.100 A 
HETATM   31  N8  UNL     1      -2.737  -3.312  -2.107  1.00  0.00    -0.098 NA
BRANCH  28  32
HETATM   32  N2  UNL     1      -3.793   0.855   0.275  1.00  0.00    -0.263 N 
HETATM   33  C12 UNL     1      -4.184   0.846   1.664  1.00  0.00     0.211 C 
HETATM   34  N3  UNL     1      -4.447  -0.279   2.479  1.00  0.00    -0.062 NA
HETATM   35  N4  UNL     1      -4.260   2.069   2.081  1.00  0.00    -0.274 N 
HETATM   36  N5  UNL     1      -3.938   2.936   1.038  1.00  0.00    -0.093 NA
ATOM     37  H4  UNL     1      -4.516   2.354   3.026  1.00  0.00     0.185 HD
HETATM   38  C13 UNL     1      -4.199   2.151  -0.190  1.00  0.00     0.322 C 
BRANCH  38  39
HETATM   39  N6  UNL     1      -5.610   2.281  -0.433  1.00  0.00    -0.103 NA
BRANCH  39  40
HETATM   40  N7  UNL     1      -5.969   3.543  -0.880  1.00  0.00    -0.345 N 
ATOM     41  H72 UNL     1      -5.290   4.292  -1.017  1.00  0.00     0.172 HD
ATOM     42  H71 UNL     1      -6.970   3.635  -1.052  1.00  0.00     0.172 HD
ENDBRANCH  39  40
ENDBRANCH  38  39
ENDBRANCH  28  32
BRANCH  29  43
HETATM   43  C15 UNL     1      -5.082  -1.756  -1.002  1.00  0.00     0.215 C 
HETATM   44  O8  UNL     1      -6.057  -1.127  -0.552  1.00  0.00    -0.644 OA
HETATM   45  O9  UNL     1      -5.382  -2.968  -1.626  1.00  0.00    -0.644 OA
ENDBRANCH  29  43
ENDBRANCH   1  26
TORSDOF 15
