REMARK  3 active torsions:
REMARK  status: ('A' for Active; 'I' for Inactive)
REMARK    1  A    between atoms: N1_3  and  N2_5 
REMARK    2  A    between atoms: C3_7  and  C4_8 
REMARK    3  A    between atoms: N3_9  and  N4_11 
ROOT
HETATM    1  N4  UNL     1      -0.841  -0.211  -0.370  1.00  0.00    -0.281 N 
HETATM    2  C5  UNL     1      -0.776   1.166  -0.012  1.00  0.00     0.150 C 
HETATM    3  C6  UNL     1      -2.073   1.913  -0.203  1.00  0.00     0.022 C 
HETATM    4  C7  UNL     1      -3.184   1.405   0.666  1.00  0.00     0.002 C 
HETATM    5  C8  UNL     1      -3.839   0.245  -0.074  1.00  0.00     0.007 C 
HETATM    6  C9  UNL     1      -3.169  -1.017   0.439  1.00  0.00     0.077 C 
HETATM    7  C10 UNL     1      -1.849  -1.191  -0.172  1.00  0.00     0.091 C 
HETATM    8  N5  UNL     1      -1.601  -2.400  -0.571  1.00  0.00    -0.388 N 
ATOM      9  H51 UNL     1      -2.325  -3.104  -0.429  1.00  0.00     0.157 HD
ATOM     10  H52 UNL     1      -0.682  -2.521  -0.996  1.00  0.00     0.157 HD
ENDROOT
BRANCH   1  11
HETATM   11  N3  UNL     1       0.280  -0.722  -1.042  1.00  0.00    -0.307 N 
HETATM   12  C4  UNL     1       1.407  -0.940  -0.462  1.00  0.00     0.126 C 
ATOM     13  H3  UNL     1       0.197  -0.930  -2.037  1.00  0.00     0.186 HD
BRANCH  12  14
HETATM   14  C3  UNL     1       2.500  -1.469  -1.244  1.00  0.00     0.125 C 
HETATM   15  N2  UNL     1       3.645  -1.700  -0.693  1.00  0.00    -0.311 N 
ATOM     16  H2  UNL     1       4.395  -2.074  -1.274  1.00  0.00     0.186 HD
BRANCH  15  17
HETATM   17  N1  UNL     1       3.907  -1.464   0.656  1.00  0.00    -0.317 N 
HETATM   18  C2  UNL     1       4.510  -0.388   0.992  1.00  0.00     0.075 C 
HETATM   19  C1  UNL     1       4.920   0.582  -0.023  1.00  0.00     0.056 C 
ATOM     20  H1  UNL     1       3.622  -2.140   1.364  1.00  0.00     0.185 HD
ENDBRANCH  15  17
ENDBRANCH  12  14
ENDBRANCH   1  11
TORSDOF 3
