REMARK  13 active torsions:
REMARK  status: ('A' for Active; 'I' for Inactive)
REMARK    1  A    between atoms: C2_2  and  C3_3 
REMARK    2  A    between atoms: C7_7  and  C9_9 
REMARK    3  A    between atoms: C9_9  and  C10_10 
REMARK    4  A    between atoms: C10_10  and  C11_11 
REMARK    5  A    between atoms: C11_11  and  C12_12 
REMARK    6  A    between atoms: C12_12  and  O1_15 
REMARK    7  A    between atoms: C17_19  and  C18_20 
REMARK    8  A    between atoms: C18_20  and  O2_22 
REMARK    9  A    between atoms: C18_20  and  C20_24 
REMARK   10  A    between atoms: C20_24  and  C21_25 
REMARK   11  A    between atoms: C21_25  and  C22_26 
REMARK   12  A    between atoms: C22_26  and  C23_27 
REMARK   13  A    between atoms: C23_27  and  O3_30 
ROOT
HETATM    1  C3  UNL     1      -0.570  -3.058  -0.166  1.00  0.00     0.071 C 
HETATM    2  C4  UNL     1      -1.776  -3.940  -0.421  1.00  0.00     0.024 C 
HETATM    3  C5  UNL     1      -2.846  -3.214  -1.195  1.00  0.00     0.003 C 
HETATM    4  C6  UNL     1      -3.290  -1.945  -0.543  1.00  0.00     0.014 C 
HETATM    5  C7  UNL     1      -2.228  -1.130   0.106  1.00  0.00    -0.019 C 
HETATM    6  C8  UNL     1      -2.315  -1.234   1.601  1.00  0.00     0.020 C 
HETATM    7  C15 UNL     1      -0.871  -1.631  -0.306  1.00  0.00    -0.054 C 
HETATM    8  C16 UNL     1       0.052  -0.817  -0.811  1.00  0.00     0.013 C 
HETATM    9  C17 UNL     1       1.390  -1.195  -1.265  1.00  0.00     0.189 C 
HETATM   10  O4  UNL     1       1.591  -2.595  -1.234  1.00  0.00    -0.308 OA
HETATM   11  C26 UNL     1       0.474  -3.441  -1.165  1.00  0.00     0.272 C 
HETATM   12  O5  UNL     1       0.357  -4.454  -1.894  1.00  0.00    -0.264 OA
ENDROOT
BRANCH   9  13
HETATM   13  C18 UNL     1       2.534  -0.512  -0.532  1.00  0.00     0.084 C 
HETATM   14  C19 UNL     1       3.779  -1.005  -1.282  1.00  0.00     0.049 C 
BRANCH  13  15
HETATM   15  O2  UNL     1       2.659  -0.871   0.783  1.00  0.00    -0.387 OA
ATOM     16  H2  UNL     1       3.374  -0.444   1.241  1.00  0.00     0.210 HD
ENDBRANCH  13  15
BRANCH  13  17
HETATM   17  C20 UNL     1       2.445   0.969  -0.639  1.00  0.00     0.040 C 
BRANCH  17  18
HETATM   18  C21 UNL     1       3.430   1.814   0.036  1.00  0.00     0.006 C 
BRANCH  18  19
HETATM   19  C22 UNL     1       4.862   1.723  -0.297  1.00  0.00     0.037 C 
BRANCH  19  20
HETATM   20  C23 UNL     1       5.695   2.734   0.528  1.00  0.00     0.051 C 
HETATM   21  C24 UNL     1       5.552   2.480   1.997  1.00  0.00     0.045 C 
HETATM   22  C25 UNL     1       7.144   2.458   0.144  1.00  0.00     0.045 C 
BRANCH  20  23
HETATM   23  O3  UNL     1       5.372   4.036   0.176  1.00  0.00    -0.391 OA
ATOM     24  H3  UNL     1       5.883   4.656   0.682  1.00  0.00     0.210 HD
ENDBRANCH  20  23
ENDBRANCH  19  20
ENDBRANCH  18  19
ENDBRANCH  17  18
ENDBRANCH  13  17
ENDBRANCH   9  13
BRANCH   1  25
HETATM   25  C2  UNL     1      -0.058  -3.474   1.203  1.00  0.00     0.020 C 
HETATM   26  C1  UNL     1       0.301  -4.967   1.034  1.00  0.00     0.006 C 
ENDBRANCH   1  25
BRANCH   5  27
HETATM   27  C9  UNL     1      -2.419   0.299  -0.316  1.00  0.00     0.014 C 
BRANCH  27  28
HETATM   28  C10 UNL     1      -3.781   0.811   0.071  1.00  0.00     0.004 C 
BRANCH  28  29
HETATM   29  C11 UNL     1      -3.925   2.273  -0.404  1.00  0.00     0.037 C 
BRANCH  29  30
HETATM   30  C12 UNL     1      -5.326   2.707   0.027  1.00  0.00     0.051 C 
HETATM   31  C13 UNL     1      -5.617   4.121  -0.368  1.00  0.00     0.045 C 
HETATM   32  C14 UNL     1      -5.379   2.535   1.536  1.00  0.00     0.045 C 
BRANCH  30  33
HETATM   33  O1  UNL     1      -6.295   1.879  -0.510  1.00  0.00    -0.391 OA
ATOM     34  H1  UNL     1      -7.166   2.149  -0.242  1.00  0.00     0.210 HD
ENDBRANCH  30  33
ENDBRANCH  29  30
ENDBRANCH  28  29
ENDBRANCH  27  28
ENDBRANCH   5  27
TORSDOF 13
