REMARK  5 active torsions:
REMARK  status: ('A' for Active; 'I' for Inactive)
REMARK    1  A    between atoms: C1_2  and  C2_4 
REMARK    2  A    between atoms: C2_4  and  C3_5 
REMARK    3  A    between atoms: C3_5  and  N2_6 
REMARK    4  A    between atoms: C3_5  and  C4_10 
REMARK       I    between atoms: C4_10  and  N3_12 
REMARK    5  A    between atoms: N3_12  and  N4_13 
REMARK       I    between atoms: C5_15  and  N6_17 
ROOT
HETATM    1  C4  UNL     1       2.837   0.669  -0.382  1.00  0.00     0.343 C 
HETATM    2  O2  UNL     1       3.520   1.728  -0.196  1.00  0.00    -0.253 OA
HETATM    3  N3  UNL     1       1.579   0.480   0.046  1.00  0.00    -0.282 NA
ENDROOT
BRANCH   3   4
HETATM    4  N4  UNL     1       0.319   0.291   0.474  1.00  0.00    -0.203 N 
HETATM    5  C5  UNL     1      -0.696   0.633  -0.225  1.00  0.00     0.215 C 
HETATM    6  N5  UNL     1      -0.525   1.232  -1.501  1.00  0.00    -0.061 NA
HETATM    7  N6  UNL     1      -1.996   0.406   0.298  1.00  0.00    -0.354 N 
HETATM    8  C6  UNL     1      -2.600   1.610   0.783  1.00  0.00     0.125 C 
HETATM    9  C11 UNL     1      -2.444  -0.972   0.239  1.00  0.00     0.125 C 
HETATM   10  C7  UNL     1      -3.906   1.514   1.445  1.00  0.00     0.020 C 
HETATM   11  C8  UNL     1      -4.766   0.355   1.101  1.00  0.00     0.002 C 
HETATM   12  C9  UNL     1      -4.683  -0.016  -0.346  1.00  0.00     0.002 C 
HETATM   13  C10 UNL     1      -3.695  -1.124  -0.606  1.00  0.00     0.020 C 
ATOM     14  H4  UNL     1       0.167  -0.139   1.386  1.00  0.00     0.205 HD
ENDBRANCH   3   4
BRANCH   1  15
HETATM   15  C3  UNL     1       3.523  -0.459  -1.154  1.00  0.00     0.299 C 
BRANCH  15  16
HETATM   16  C2  UNL     1       4.569  -1.149  -0.359  1.00  0.00     0.143 C 
BRANCH  16  17
HETATM   17  C1  UNL     1       5.797  -0.436  -0.057  1.00  0.00     0.233 C 
HETATM   18  N1  UNL     1       6.747  -1.052   0.801  1.00  0.00    -0.062 NA
HETATM   19  O1  UNL     1       6.049   0.684  -0.518  1.00  0.00    -0.277 OA
ENDBRANCH  16  17
ENDBRANCH  15  16
BRANCH  15  20
HETATM   20  N2  UNL     1       2.448  -1.474  -1.305  1.00  0.00    -0.065 N 
ATOM     21  H23 UNL     1       2.762  -2.358  -1.705  1.00  0.00     0.275 HD
ATOM     22  H22 UNL     1       2.114  -1.863  -0.423  1.00  0.00     0.275 HD
ATOM     23  H21 UNL     1       1.729  -1.000  -1.851  1.00  0.00     0.275 HD
ENDBRANCH  15  20
ENDBRANCH   1  15
TORSDOF 5
