REMARK  13 active torsions:
REMARK  status: ('A' for Active; 'I' for Inactive)
REMARK    1  A    between atoms: C2_2  and  C3_3 
REMARK    2  A    between atoms: C3_3  and  N1_4 
REMARK    3  A    between atoms: N2_7  and  C6_8 
REMARK    4  A    between atoms: C9_11  and  N3_12 
REMARK    5  A    between atoms: C11_17  and  N5_18 
REMARK    6  A    between atoms: N5_18  and  C12_20 
REMARK    7  A    between atoms: C12_20  and  C13_21 
REMARK    8  A    between atoms: C13_21  and  O1_22 
REMARK    9  A    between atoms: C15_26  and  N7_27 
REMARK   10  A    between atoms: N7_27  and  C16_29 
REMARK   11  A    between atoms: C16_29  and  C17_30 
REMARK   12  A    between atoms: C19_32  and  C20_33 
REMARK   13  A    between atoms: C20_33  and  C21_34 
ROOT
HETATM    1  N3  UNL     1       2.113   3.470   0.849  1.00  0.00    -0.191 N 
ATOM      2  H3  UNL     1       2.355   4.458   0.920  1.00  0.00     0.184 HD
HETATM    3  C10 UNL     1       0.885   3.116   1.052  1.00  0.00     0.711 A 
HETATM    4  N4  UNL     1       0.011   4.128   1.348  1.00  0.00    -0.021 N 
ATOM      5  H4  UNL     1       0.339   5.093   1.393  1.00  0.00     0.203 HD
HETATM    6  C11 UNL     1      -1.276   3.843   1.578  1.00  0.00     0.707 A 
HETATM    7  N6  UNL     1      -1.667   2.552   1.509  1.00  0.00    -0.022 N 
ATOM      8  H6  UNL     1      -2.647   2.328   1.683  1.00  0.00     0.203 HD
HETATM    9  C15 UNL     1      -0.818   1.551   1.220  1.00  0.00     0.707 A 
HETATM   10  N9  UNL     1       0.497   1.856   0.987  1.00  0.00    -0.021 N 
ATOM     11  H9  UNL     1       1.167   1.119   0.766  1.00  0.00     0.203 HD
ENDROOT
BRANCH   1  12
HETATM   12  C9  UNL     1       3.131   2.545   0.533  1.00  0.00     0.049 A 
HETATM   13  C8  UNL     1       4.131   2.293   1.462  1.00  0.00     0.032 A 
HETATM   14  C7  UNL     1       5.161   1.406   1.200  1.00  0.00     0.031 A 
HETATM   15  C6  UNL     1       5.247   0.729   0.013  1.00  0.00     0.030 A 
HETATM   16  C27 UNL     1       4.261   0.973  -0.910  1.00  0.00     0.031 A 
HETATM   17  C26 UNL     1       3.210   1.868  -0.665  1.00  0.00     0.032 A 
BRANCH  15  18
HETATM   18  N2  UNL     1       6.297  -0.163  -0.289  1.00  0.00    -0.378 N 
HETATM   19  C5  UNL     1       7.574  -0.161   0.399  1.00  0.00     0.153 C 
HETATM   20  C4  UNL     1       8.056  -1.502   0.829  1.00  0.00     0.292 C 
HETATM   21  N1  UNL     1       7.954  -2.500  -0.264  1.00  0.00     0.095 N 
HETATM   22  C29 UNL     1       6.552  -2.500  -0.694  1.00  0.00     0.292 C 
HETATM   23  C28 UNL     1       6.176  -1.192  -1.334  1.00  0.00     0.153 C 
BRANCH  21  24
HETATM   24  C3  UNL     1       8.157  -3.771   0.402  1.00  0.00     0.299 C 
BRANCH  24  25
HETATM   25  C2  UNL     1       8.387  -4.907  -0.494  1.00  0.00    -0.007 C 
HETATM   26  C1  UNL     1       8.476  -4.811  -1.799  1.00  0.00     0.008 C 
ENDBRANCH  24  25
ENDBRANCH  21  24
ENDBRANCH  15  18
ENDBRANCH   1  12
BRANCH   6  27
HETATM   27  N5  UNL     1      -2.085   4.782   1.852  1.00  0.00    -0.223 N 
ATOM     28  H5  UNL     1      -1.693   5.723   1.881  1.00  0.00     0.177 HD
BRANCH  27  29
HETATM   29  C12 UNL     1      -3.488   4.669   2.125  1.00  0.00     0.164 C 
BRANCH  29  30
HETATM   30  C13 UNL     1      -4.268   4.682   0.841  1.00  0.00     0.187 C 
BRANCH  30  31
HETATM   31  O1  UNL     1      -4.115   5.804   0.079  1.00  0.00    -0.394 OA
HETATM   32  C14 UNL     1      -4.514   6.954   0.721  1.00  0.00     0.201 C 
ENDBRANCH  30  31
ENDBRANCH  29  30
ENDBRANCH  27  29
ENDBRANCH   6  27
BRANCH   9  33
HETATM   33  N7  UNL     1      -1.147   0.307   1.149  1.00  0.00    -0.219 N 
ATOM     34  H7  UNL     1      -0.410  -0.361   0.923  1.00  0.00     0.178 HD
BRANCH  33  35
HETATM   35  C16 UNL     1      -2.455  -0.208   1.361  1.00  0.00     0.205 C 
BRANCH  35  36
HETATM   36  C17 UNL     1      -3.150  -0.532   0.074  1.00  0.00     0.096 A 
HETATM   37  C18 UNL     1      -4.449  -0.959  -0.054  1.00  0.00     0.063 A 
HETATM   38  C19 UNL     1      -4.723  -1.154  -1.390  1.00  0.00     0.035 A 
HETATM   39  N8  UNL     1      -3.543  -0.823  -2.008  1.00  0.00    -0.265 N 
HETATM   40  O2  UNL     1      -2.664  -0.471  -1.131  1.00  0.00    -0.240 OA
ATOM     41  H8  UNL     1      -3.384  -0.851  -3.015  1.00  0.00     0.194 HD
BRANCH  38  42
HETATM   42  C20 UNL     1      -5.952  -1.609  -2.066  1.00  0.00     0.064 C 
BRANCH  42  43
HETATM   43  C21 UNL     1      -7.034  -1.969  -1.099  1.00  0.00    -0.009 C 
HETATM   44  C22 UNL     1      -6.619  -3.097  -0.194  1.00  0.00     0.005 C 
HETATM   45  C23 UNL     1      -7.436  -4.318  -0.564  1.00  0.00     0.000 C 
HETATM   46  C24 UNL     1      -8.224  -3.954  -1.778  1.00  0.00     0.000 C 
HETATM   47  C25 UNL     1      -8.280  -2.454  -1.771  1.00  0.00     0.005 C 
ENDBRANCH  42  43
ENDBRANCH  38  42
ENDBRANCH  35  36
ENDBRANCH  33  35
ENDBRANCH   9  33
TORSDOF 13
