REMARK  16 active torsions:
REMARK  status: ('A' for Active; 'I' for Inactive)
REMARK    1  A    between atoms: N1_2  and  C2_3 
REMARK    2  A    between atoms: C2_3  and  C3_4 
REMARK    3  A    between atoms: C6_7  and  C7_8 
REMARK    4  A    between atoms: C7_8  and  C8_9 
REMARK    5  A    between atoms: C8_9  and  C9_10 
REMARK    6  A    between atoms: C9_10  and  N3_14 
REMARK    7  A    between atoms: C12_17  and  C13_18 
REMARK       I    between atoms: C13_18  and  N4_20 
REMARK    8  A    between atoms: N4_20  and  C14_22 
REMARK    9  A    between atoms: C14_22  and  C15_23 
REMARK   10  A    between atoms: C15_23  and  C16_24 
REMARK   11  A    between atoms: C16_24  and  C17_25 
REMARK   12  A    between atoms: C17_25  and  C18_26 
REMARK   13  A    between atoms: C18_26  and  C19_27 
REMARK   14  A    between atoms: C19_27  and  C20_28 
REMARK       I    between atoms: C20_28  and  N5_30 
REMARK   15  A    between atoms: C21_32  and  C22_33 
REMARK   16  A    between atoms: C22_33  and  N6_34 
ROOT
HETATM    1  N3  UNL     1      -0.131  -0.913   1.649  1.00  0.00    -0.371 N 
HETATM    2  C10 UNL     1       0.303  -1.420   0.343  1.00  0.00     0.125 C 
HETATM    3  C11 UNL     1       0.458  -0.227  -0.564  1.00  0.00     0.034 C 
HETATM    4  C12 UNL     1       1.558   0.641  -0.042  1.00  0.00     0.081 C 
HETATM    5  C23 UNL     1       1.916   0.304   1.399  1.00  0.00     0.034 C 
HETATM    6  C24 UNL     1       0.642   0.184   2.205  1.00  0.00     0.125 C 
ENDROOT
BRANCH   1   7
HETATM    7  C9  UNL     1      -1.244  -1.477   2.316  1.00  0.00     0.072 C 
HETATM    8  N2  UNL     1      -1.050  -2.315   3.275  1.00  0.00    -0.389 N 
ATOM      9  H22 UNL     1      -1.852  -2.722   3.756  1.00  0.00     0.157 HD
ATOM     10  H21 UNL     1      -0.094  -2.557   3.537  1.00  0.00     0.157 HD
BRANCH   7  11
HETATM   11  C8  UNL     1      -2.632  -1.126   1.936  1.00  0.00     0.080 C 
BRANCH  11  12
HETATM   12  C7  UNL     1      -2.872   0.375   2.081  1.00  0.00     0.046 C 
BRANCH  12  13
HETATM   13  C6  UNL     1      -4.270   0.697   1.697  1.00  0.00    -0.058 A 
HETATM   14  C5  UNL     1      -5.230   0.670   2.670  1.00  0.00     0.007 A 
HETATM   15  C4  UNL     1      -6.560   0.970   2.351  1.00  0.00     0.009 A 
HETATM   16  C3  UNL     1      -6.926   1.297   1.063  1.00  0.00    -0.032 A 
HETATM   17  C26 UNL     1      -5.936   1.316   0.105  1.00  0.00     0.009 A 
HETATM   18  C25 UNL     1      -4.620   1.021   0.409  1.00  0.00     0.007 A 
BRANCH  16  19
HETATM   19  C2  UNL     1      -8.302   1.619   0.697  1.00  0.00     0.275 C 
BRANCH  19  20
HETATM   20  N1  UNL     1      -9.063   0.563   0.101  1.00  0.00    -0.067 N 
HETATM   21  C1  UNL     1     -10.415   1.120  -0.102  1.00  0.00     0.272 C 
HETATM   22  C27 UNL     1      -8.525   0.232  -1.208  1.00  0.00     0.237 C 
HETATM   23  C28 UNL     1      -9.543  -0.589  -1.974  1.00  0.00     0.028 C 
HETATM   24  C29 UNL     1      -9.853  -1.858  -1.196  1.00  0.00     0.003 C 
HETATM   25  C30 UNL     1      -9.057  -1.888   0.088  1.00  0.00     0.028 C 
HETATM   26  C31 UNL     1      -9.232  -0.611   0.896  1.00  0.00     0.237 C 
ENDBRANCH  19  20
ENDBRANCH  16  19
ENDBRANCH  12  13
ENDBRANCH  11  12
ENDBRANCH   7  11
ENDBRANCH   1   7
BRANCH   4  27
HETATM   27  C13 UNL     1       2.791   0.409  -0.851  1.00  0.00     0.221 C 
HETATM   28  O1  UNL     1       2.732  -0.431  -1.776  1.00  0.00    -0.273 OA
HETATM   29  N4  UNL     1       3.977   1.103  -0.592  1.00  0.00    -0.361 N 
ATOM     30  H4  UNL     1       3.960   1.780   0.171  1.00  0.00     0.162 HD
BRANCH  29  31
HETATM   31  C14 UNL     1       5.242   0.948  -1.314  1.00  0.00     0.122 C 
BRANCH  31  32
HETATM   32  C15 UNL     1       5.739  -0.431  -1.130  1.00  0.00     0.020 C 
BRANCH  32  33
HETATM   33  C16 UNL     1       6.991  -0.795  -1.791  1.00  0.00     0.002 C 
BRANCH  33  34
HETATM   34  C17 UNL     1       8.269  -0.217  -1.389  1.00  0.00     0.001 C 
BRANCH  34  35
HETATM   35  C18 UNL     1       8.436   1.242  -1.458  1.00  0.00     0.009 C 
BRANCH  35  36
HETATM   36  C19 UNL     1       9.872   1.692  -1.126  1.00  0.00     0.103 C 
BRANCH  36  37
HETATM   37  C20 UNL     1      10.836   1.203  -2.081  1.00  0.00     0.221 C 
HETATM   38  O2  UNL     1      10.507   0.673  -3.168  1.00  0.00    -0.273 OA
HETATM   39  N5  UNL     1      12.249   1.315  -1.812  1.00  0.00    -0.339 N 
HETATM   40  C21 UNL     1      12.933   0.358  -1.304  1.00  0.00     0.090 C 
ATOM     41  H5  UNL     1      12.722   2.191  -2.035  1.00  0.00     0.167 HD
BRANCH  40  42
HETATM   42  C22 UNL     1      12.293  -0.921  -0.965  1.00  0.00     0.274 C 
BRANCH  42  43
HETATM   43  N6  UNL     1      12.053  -0.926   0.470  1.00  0.00    -0.075 N 
ATOM     44  H63 UNL     1      12.897  -0.748   1.014  1.00  0.00     0.274 HD
ATOM     45  H62 UNL     1      11.517  -0.118   0.786  1.00  0.00     0.274 HD
ATOM     46  H61 UNL     1      11.609  -1.814   0.705  1.00  0.00     0.274 HD
ENDBRANCH  42  43
ENDBRANCH  40  42
ENDBRANCH  36  37
ENDBRANCH  35  36
ENDBRANCH  34  35
ENDBRANCH  33  34
ENDBRANCH  32  33
ENDBRANCH  31  32
ENDBRANCH  29  31
ENDBRANCH   4  27
TORSDOF 16
