REMARK  4 active torsions:
REMARK  status: ('A' for Active; 'I' for Inactive)
REMARK    1  A    between atoms: C9_11  and  C11_13 
REMARK    2  A    between atoms: C11_13  and  C12_14 
REMARK    3  A    between atoms: C12_14  and  C13_15 
REMARK    4  A    between atoms: C17_20  and  C18_21 
ROOT
HETATM    1  C1  UNL     1      -4.082  -0.374   1.672  1.00  0.00     0.016 C 
HETATM    2  C2  UNL     1      -2.742  -0.568   0.990  1.00  0.00     0.034 C 
HETATM    3  C3  UNL     1      -2.836  -0.774  -0.435  1.00  0.00    -0.026 A 
HETATM    4  C4  UNL     1      -4.142  -0.765  -0.866  1.00  0.00     0.010 A 
HETATM    5  C5  UNL     1      -4.478  -0.946  -2.204  1.00  0.00     0.001 A 
HETATM    6  C6  UNL     1      -3.504  -1.139  -3.129  1.00  0.00     0.002 A 
HETATM    7  C7  UNL     1      -2.185  -1.154  -2.736  1.00  0.00     0.030 A 
HETATM    8  C8  UNL     1      -1.877  -0.971  -1.401  1.00  0.00     0.036 A 
HETATM    9  N1  UNL     1      -0.481  -1.025  -1.244  1.00  0.00    -0.371 N 
ATOM     10  H1  UNL     1       0.013  -1.412  -2.048  1.00  0.00     0.161 HD
HETATM   11  C9  UNL     1       0.376  -0.637  -0.165  1.00  0.00     0.076 C 
HETATM   12  C10 UNL     1       0.543  -1.807   0.760  1.00  0.00     0.051 C 
HETATM   13  S1  UNL     1      -0.354   0.803   0.611  1.00  0.00    -0.129 SA
HETATM   14  C17 UNL     1      -1.857   0.525   1.473  1.00  0.00     0.085 C 
ENDROOT
BRANCH  11  15
HETATM   15  C11 UNL     1       1.759  -0.229  -0.675  1.00  0.00     0.043 C 
BRANCH  15  16
HETATM   16  C12 UNL     1       2.571   0.156   0.520  1.00  0.00     0.011 C 
BRANCH  16  17
HETATM   17  C13 UNL     1       3.967   0.586   0.190  1.00  0.00    -0.051 C 
HETATM   18  C14 UNL     1       4.646   0.940   1.521  1.00  0.00     0.014 C 
HETATM   19  C15 UNL     1       4.795  -0.499  -0.436  1.00  0.00     0.014 C 
HETATM   20  C16 UNL     1       4.011   1.844  -0.647  1.00  0.00     0.014 C 
ENDBRANCH  16  17
ENDBRANCH  15  16
ENDBRANCH  11  15
BRANCH  14  21
HETATM   21  C18 UNL     1      -2.621   1.803   1.569  1.00  0.00     0.063 C 
HETATM   22  C19 UNL     1      -2.594   2.727   0.629  1.00  0.00     0.264 C 
HETATM   23  F1  UNL     1      -3.295   3.881   0.736  1.00  0.00    -0.173 F 
HETATM   24  F2  UNL     1      -1.864   2.595  -0.517  1.00  0.00    -0.173 F 
ENDBRANCH  14  21
TORSDOF 4
