REMARK  3 active torsions:
REMARK  status: ('A' for Active; 'I' for Inactive)
REMARK    1  A    between atoms: C2_2  and  N1_3 
REMARK    2  A    between atoms: N1_3  and  C3_5 
REMARK    3  A    between atoms: C5_7  and  C6_8 
ROOT
HETATM    1  C3  UNL     1       0.323  -0.944   0.208  1.00  0.00     0.036 A 
HETATM    2  C4  UNL     1       0.826   0.317   0.003  1.00  0.00     0.042 A 
HETATM    3  C5  UNL     1       2.182   0.616   0.116  1.00  0.00    -0.016 A 
HETATM    4  C10 UNL     1       3.075  -0.352   0.440  1.00  0.00     0.020 A 
HETATM    5  C11 UNL     1       2.604  -1.618   0.651  1.00  0.00    -0.049 A 
HETATM    6  C12 UNL     1       1.275  -1.919   0.542  1.00  0.00    -0.025 A 
HETATM    7  C13 UNL     1       1.115  -3.347   0.822  1.00  0.00     0.042 C 
HETATM    8  C14 UNL     1       2.295  -3.664   1.711  1.00  0.00     0.009 C 
HETATM    9  C15 UNL     1       3.381  -2.845   1.022  1.00  0.00     0.039 C 
ENDROOT
BRANCH   1  10
HETATM   10  N1  UNL     1      -1.030  -1.286   0.108  1.00  0.00    -0.381 N 
ATOM     11  H1  UNL     1      -1.248  -2.263   0.306  1.00  0.00     0.160 HD
BRANCH  10  12
HETATM   12  C2  UNL     1      -2.148  -0.471  -0.230  1.00  0.00     0.027 C 
HETATM   13  C1  UNL     1      -3.410  -1.365  -0.145  1.00  0.00     0.038 C 
HETATM   14  C16 UNL     1      -2.431   0.655   0.739  1.00  0.00     0.036 C 
HETATM   15  C17 UNL     1      -2.811   1.928   0.059  1.00  0.00     0.081 C 
HETATM   16  C18 UNL     1      -3.758   1.785  -1.085  1.00  0.00     0.243 C 
HETATM   17  F1  UNL     1      -3.555   2.901  -1.910  1.00  0.00    -0.206 F 
HETATM   18  F2  UNL     1      -5.092   1.908  -0.670  1.00  0.00    -0.206 F 
HETATM   19  C19 UNL     1      -3.563   0.559  -1.926  1.00  0.00     0.081 C 
HETATM   20  C20 UNL     1      -2.152   0.038  -1.657  1.00  0.00     0.036 C 
ENDBRANCH  10  12
ENDBRANCH   1  10
BRANCH   3  21
HETATM   21  C6  UNL     1       2.636   1.988  -0.120  1.00  0.00     0.015 A 
HETATM   22  C7  UNL     1       3.914   2.471  -0.057  1.00  0.00     0.020 A 
HETATM   23  C8  UNL     1       4.094   3.771  -0.313  1.00  0.00     0.008 A 
HETATM   24  C9  UNL     1       2.983   4.515  -0.618  1.00  0.00     0.050 A 
HETATM   25  S1  UNL     1       1.724   3.366  -0.536  1.00  0.00    -0.101 SA
ENDBRANCH   3  21
TORSDOF 3
