REMARK  2 active torsions:
REMARK  status: ('A' for Active; 'I' for Inactive)
REMARK    1  A    between atoms: O1_1  and  C1_3 
REMARK    2  A    between atoms: C7_9  and  O2_10 
ROOT
HETATM    1  C1  UNL     1       1.189   0.122   0.497  1.00  0.00     0.147 C 
HETATM    2  C2  UNL     1       1.127  -0.976  -0.504  1.00  0.00     0.034 C 
HETATM    3  C3  UNL     1      -0.108  -1.782  -0.504  1.00  0.00     0.002 C 
HETATM    4  C4  UNL     1      -1.244  -1.212   0.293  1.00  0.00     0.000 C 
HETATM    5  C5  UNL     1      -1.725   0.115  -0.183  1.00  0.00     0.002 C 
HETATM    6  C6  UNL     1      -0.970   1.243   0.494  1.00  0.00     0.034 C 
HETATM    7  C7  UNL     1       0.438   1.308  -0.026  1.00  0.00     0.147 C 
ENDROOT
BRANCH   1   8
HETATM    8  O1  UNL     1       2.531   0.505   0.676  1.00  0.00    -0.393 OA
ATOM      9  H1  UNL     1       2.571   1.206   1.315  1.00  0.00     0.210 HD
ENDBRANCH   1   8
BRANCH   7  10
HETATM   10  O2  UNL     1       1.024   2.523   0.292  1.00  0.00    -0.393 OA
ATOM     11  H2  UNL     1       0.548   3.275  -0.040  1.00  0.00     0.210 HD
ENDBRANCH   7  10
TORSDOF 2
