REMARK  4 active torsions:
REMARK  status: ('A' for Active; 'I' for Inactive)
REMARK    1  A    between atoms: C2_3  and  N2_4 
REMARK    2  A    between atoms: N3_7  and  S1_8 
REMARK    3  A    between atoms: C5_14  and  N5_15 
REMARK    4  A    between atoms: C6_20  and  N7_21 
ROOT
HETATM    1  N1  UNL     1       4.250   0.145  -1.246  1.00  0.00    -0.196 NA
HETATM    2  C1  UNL     1       3.576  -0.050  -0.304  1.00  0.00     0.079 C 
HETATM    3  C2  UNL     1       2.720  -0.282   0.862  1.00  0.00     0.258 C 
ENDROOT
BRANCH   3   4
HETATM    4  N2  UNL     1       1.401   0.186   0.613  1.00  0.00    -0.279 N 
HETATM    5  C3  UNL     1       0.954   1.429   0.881  1.00  0.00     0.346 A 
HETATM    6  O1  UNL     1       1.635   2.365   1.394  1.00  0.00    -0.245 OA
HETATM    7  N3  UNL     1      -0.331   1.509   0.515  1.00  0.00    -0.157 N 
HETATM    8  C4  UNL     1      -0.742   0.330   0.005  1.00  0.00     0.174 A 
HETATM    9  N4  UNL     1      -1.922  -0.100  -0.496  1.00  0.00    -0.173 N 
HETATM   10  C7  UNL     1       0.374  -0.497   0.077  1.00  0.00     0.130 A 
HETATM   11  C5  UNL     1      -2.065  -1.357  -0.949  1.00  0.00     0.679 A 
ATOM     12  H4  UNL     1      -2.716   0.540  -0.531  1.00  0.00     0.186 HD
HETATM   13  N6  UNL     1      -0.994  -2.166  -0.885  1.00  0.00    -0.175 N 
HETATM   14  C6  UNL     1       0.206  -1.781  -0.393  1.00  0.00     0.145 A 
ATOM     15  H6  UNL     1      -1.091  -3.122  -1.226  1.00  0.00     0.186 HD
BRANCH   7  16
HETATM   16  S1  UNL     1      -1.367   2.894   0.649  1.00  0.00     0.370 S 
HETATM   17  O2  UNL     1      -2.237   3.008  -0.571  1.00  0.00    -0.186 OA
HETATM   18  O3  UNL     1      -2.154   2.876   1.918  1.00  0.00    -0.186 OA
ENDBRANCH   7  16
BRANCH  11  19
HETATM   19  N5  UNL     1      -3.205  -1.768  -1.432  1.00  0.00    -0.234 N 
ATOM     20  H52 UNL     1      -4.018  -1.154  -1.481  1.00  0.00     0.174 HD
ATOM     21  H51 UNL     1      -3.314  -2.722  -1.776  1.00  0.00     0.174 HD
ENDBRANCH  11  19
BRANCH  14  22
HETATM   22  N7  UNL     1       1.217  -2.569  -0.342  1.00  0.00    -0.383 N 
ATOM     23  H72 UNL     1       1.093  -3.520  -0.690  1.00  0.00     0.157 HD
ATOM     24  H71 UNL     1       2.122  -2.279   0.029  1.00  0.00     0.157 HD
ENDBRANCH  14  22
ENDBRANCH   3   4
TORSDOF 4
