REMARK  7 active torsions:
REMARK  status: ('A' for Active; 'I' for Inactive)
REMARK    1  A    between atoms: N4_11  and  C4_12 
REMARK    2  A    between atoms: C4_12  and  C5_13 
REMARK    3  A    between atoms: C5_13  and  N5_14 
REMARK    4  A    between atoms: C5_13  and  C6_18 
REMARK    5  A    between atoms: C6_18  and  C7_19 
REMARK    6  A    between atoms: C7_19  and  C8_20 
REMARK    7  A    between atoms: C8_20  and  N6_21 
ROOT
HETATM    1  C4  UNL     1       0.641   0.870   0.463  1.00  0.00     0.175 C 
ENDROOT
BRANCH   1   2
HETATM    2  N4  UNL     1       1.885   0.232   0.187  1.00  0.00    -0.200 N 
HETATM    3  C1  UNL     1       2.897   0.932  -0.522  1.00  0.00     0.676 C 
HETATM    4  N1  UNL     1       2.644   1.997  -1.225  1.00  0.00    -0.234 N 
HETATM    5  N2  UNL     1       4.280   0.525  -0.530  1.00  0.00    -0.189 N 
ATOM      6  H12 UNL     1       3.371   2.500  -1.734  1.00  0.00     0.174 HD
ATOM      7  H11 UNL     1       1.666   2.285  -1.219  1.00  0.00     0.174 HD
HETATM    8  C2  UNL     1       4.591  -0.522   0.142  1.00  0.00     0.195 C 
ATOM      9  H2  UNL     1       4.984   1.049  -1.050  1.00  0.00     0.184 HD
HETATM   10  N3  UNL     1       3.625  -1.265   0.870  1.00  0.00    -0.369 N 
HETATM   11  C3  UNL     1       2.204  -1.133   0.589  1.00  0.00     0.265 C 
ATOM     12  H3  UNL     1       3.933  -1.903   1.604  1.00  0.00     0.161 HD
ENDBRANCH   1   2
BRANCH   1  13
HETATM   13  C5  UNL     1      -0.533   0.316  -0.278  1.00  0.00     0.202 C 
BRANCH  13  14
HETATM   14  N5  UNL     1      -0.481   0.364  -1.667  1.00  0.00    -0.073 N 
ATOM     15  H53 UNL     1      -0.310   1.323  -1.968  1.00  0.00     0.274 HD
ATOM     16  H52 UNL     1       0.372  -0.091  -1.992  1.00  0.00     0.274 HD
ATOM     17  H51 UNL     1      -1.282  -0.014  -2.173  1.00  0.00     0.274 HD
ENDBRANCH  13  14
BRANCH  13  18
HETATM   18  C6  UNL     1      -1.788   1.017   0.198  1.00  0.00     0.036 C 
BRANCH  18  19
HETATM   19  C7  UNL     1      -3.022   0.514  -0.509  1.00  0.00     0.029 C 
BRANCH  19  20
HETATM   20  C8  UNL     1      -3.249  -0.957  -0.300  1.00  0.00     0.229 C 
BRANCH  20  21
HETATM   21  N6  UNL     1      -3.413  -1.285   1.103  1.00  0.00    -0.079 N 
ATOM     22  H63 UNL     1      -2.625  -0.949   1.657  1.00  0.00     0.274 HD
ATOM     23  H62 UNL     1      -4.156  -0.731   1.529  1.00  0.00     0.274 HD
ATOM     24  H61 UNL     1      -3.567  -2.283   1.245  1.00  0.00     0.274 HD
ENDBRANCH  20  21
ENDBRANCH  19  20
ENDBRANCH  18  19
ENDBRANCH  13  18
ENDBRANCH   1  13
TORSDOF 7
