REMARK  2 active torsions:
REMARK  status: ('A' for Active; 'I' for Inactive)
REMARK    1  A    between atoms: C6_6  and  N1_7 
REMARK    2  A    between atoms: N1_7  and  O1_8 
ROOT
HETATM    1  C1  UNL     1      -1.697  -0.718   0.921  1.00  0.00     0.015 C 
HETATM    2  C2  UNL     1      -0.974   0.130  -0.113  1.00  0.00    -0.046 C 
HETATM    3  C3  UNL     1      -1.969   0.492  -1.182  1.00  0.00     0.015 C 
HETATM    4  C4  UNL     1      -0.382   1.364   0.484  1.00  0.00     0.010 C 
HETATM    5  C5  UNL     1       1.112   1.210   0.497  1.00  0.00     0.024 C 
HETATM    6  C6  UNL     1       1.276  -0.309   0.375  1.00  0.00     0.107 C 
HETATM    7  C7  UNL     1       0.223  -0.605  -0.674  1.00  0.00     0.032 C 
ENDROOT
BRANCH   6   8
HETATM    8  N1  UNL     1       2.607  -0.614  -0.108  1.00  0.00    -0.099 NA
BRANCH   8   9
HETATM    9  O1  UNL     1       2.723  -1.955  -0.205  1.00  0.00    -0.296 OA
ATOM     10  H1  UNL     1       3.596  -2.155  -0.522  1.00  0.00     0.238 HD
ENDBRANCH   8   9
ENDBRANCH   6   8
TORSDOF 2
