REMARK  8 active torsions:
REMARK  status: ('A' for Active; 'I' for Inactive)
REMARK    1  A    between atoms: N1_1  and  N2_4 
REMARK    2  A    between atoms: N2_4  and  N3_6 
REMARK    3  A    between atoms: C2_14  and  N7_15 
REMARK    4  A    between atoms: N7_15  and  N8_17 
REMARK       I    between atoms: N8_17  and  C3_19 
REMARK       I    between atoms: C3_19  and  N9_21 
REMARK    5  A    between atoms: N9_21  and  N10_23 
REMARK    6  A    between atoms: N10_23  and  C4_25 
REMARK    7  A    between atoms: C6_27  and  O2_28 
REMARK    8  A    between atoms: C8_31  and  S1_32 
ROOT
HETATM    1  N8  UNL     1       2.354   1.037   0.330  1.00  0.00    -0.249 N 
ATOM      2  H8  UNL     1       2.296   2.037   0.139  1.00  0.00     0.192 HD
HETATM    3  C3  UNL     1       1.181   0.399   0.779  1.00  0.00     0.353 C 
HETATM    4  O1  UNL     1       1.275  -0.865   0.995  1.00  0.00    -0.244 OA
HETATM    5  N9  UNL     1      -0.059   1.030   1.008  1.00  0.00    -0.250 N 
ATOM      6  H9  UNL     1      -0.156   2.032   0.845  1.00  0.00     0.192 HD
ENDROOT
BRANCH   1   7
HETATM    7  N7  UNL     1       3.565   0.432   0.127  1.00  0.00    -0.278 N 
ATOM      8  H7  UNL     1       4.247   0.606   0.865  1.00  0.00     0.189 HD
BRANCH   7   9
HETATM    9  C2  UNL     1       3.993  -0.304  -0.810  1.00  0.00     0.179 A 
HETATM   10  N3  UNL     1       5.278  -0.767  -0.716  1.00  0.00    -0.147 N 
HETATM   11  N4  UNL     1       5.720  -1.506  -1.707  1.00  0.00    -0.204 N 
HETATM   12  N5  UNL     1       5.042  -1.843  -2.784  1.00  0.00    -0.227 N 
ATOM     13  H4  UNL     1       6.677  -1.851  -1.636  1.00  0.00     0.212 HD
HETATM   14  N6  UNL     1       3.796  -1.398  -2.882  1.00  0.00    -0.293 N 
ATOM     15  H5  UNL     1       5.458  -2.423  -3.513  1.00  0.00     0.210 HD
HETATM   16  C1  UNL     1       3.247  -0.631  -1.915  1.00  0.00     0.162 A 
ATOM     17  H6  UNL     1       3.242  -1.640  -3.703  1.00  0.00     0.187 HD
BRANCH  10  18
HETATM   18  N2  UNL     1       6.028  -0.463   0.414  1.00  0.00    -0.225 N 
ATOM     19  H2  UNL     1       5.651   0.163   1.125  1.00  0.00     0.210 HD
BRANCH  18  20
HETATM   20  N1  UNL     1       7.297  -1.016   0.572  1.00  0.00    -0.329 N 
ATOM     21  H12 UNL     1       7.660  -1.640  -0.149  1.00  0.00     0.178 HD
ATOM     22  H11 UNL     1       7.847  -0.793   1.401  1.00  0.00     0.178 HD
ENDBRANCH  18  20
ENDBRANCH  10  18
ENDBRANCH   7   9
ENDBRANCH   1   7
BRANCH   5  23
HETATM   23  N10 UNL     1      -1.139   0.300   1.451  1.00  0.00    -0.297 N 
ATOM     24  H10 UNL     1      -1.022  -0.413   2.171  1.00  0.00     0.187 HD
BRANCH  23  25
HETATM   25  C4  UNL     1      -2.430   0.558   0.885  1.00  0.00     0.052 A 
HETATM   26  C5  UNL     1      -2.810   1.839   0.588  1.00  0.00     0.067 A 
HETATM   27  C6  UNL     1      -4.068   2.048   0.004  1.00  0.00     0.069 A 
HETATM   28  C7  UNL     1      -4.900   0.977  -0.264  1.00  0.00     0.062 A 
HETATM   29  C8  UNL     1      -4.507  -0.288   0.036  1.00  0.00     0.085 A 
HETATM   30  C9  UNL     1      -3.277  -0.488   0.608  1.00  0.00     0.057 A 
BRANCH  27  31
HETATM   31  O2  UNL     1      -4.470   3.342  -0.302  1.00  0.00    -0.361 OA
ATOM     32  H2  UNL     1      -5.322   3.484  -0.698  1.00  0.00     0.217 HD
ENDBRANCH  27  31
BRANCH  29  33
HETATM   33  S1  UNL     1      -5.558  -1.660  -0.320  1.00  0.00     0.137 S 
HETATM   34  O3  UNL     1      -4.710  -2.868  -0.639  1.00  0.00    -0.591 OA
HETATM   35  O4  UNL     1      -6.395  -1.387  -1.524  1.00  0.00    -0.591 OA
HETATM   36  O5  UNL     1      -6.522  -2.056   0.994  1.00  0.00    -0.591 OA
ENDBRANCH  29  33
ENDBRANCH  23  25
ENDBRANCH   5  23
TORSDOF 8
