REMARK  12 active torsions:
REMARK  status: ('A' for Active; 'I' for Inactive)
REMARK    1  A    between atoms: C2_2  and  C4_4 
REMARK    2  A    between atoms: C4_4  and  C5_5 
REMARK    3  A    between atoms: C5_5  and  N1_6 
REMARK    4  A    between atoms: C5_5  and  C15_25 
REMARK    5  A    between atoms: N1_6  and  C6_8 
REMARK    6  A    between atoms: C6_8  and  C7_9 
REMARK    7  A    between atoms: C8_10  and  C9_11 
REMARK    8  A    between atoms: C9_11  and  C12_14 
REMARK    9  A    between atoms: C12_14  and  C13_15 
REMARK   10  A    between atoms: N3_17  and  O1_19 
REMARK   11  A    between atoms: N4_21  and  O2_23 
REMARK   12  A    between atoms: C15_25  and  O4_27 
ROOT
HETATM    1  C6  UNL     1      -0.086   1.112  -1.310  1.00  0.00     0.121 C 
HETATM    2  N4  UNL     1      -0.381   1.444  -2.531  1.00  0.00    -0.251 N 
ATOM      3  H4  UNL     1       0.325   1.280  -3.248  1.00  0.00     0.196 HD
ENDROOT
BRANCH   1   4
HETATM    4  N1  UNL     1      -1.096   1.358  -0.351  1.00  0.00    -0.361 N 
ATOM      5  H1  UNL     1      -0.964   2.102   0.335  1.00  0.00     0.162 HD
BRANCH   4   6
HETATM    6  C5  UNL     1      -2.346   0.554  -0.323  1.00  0.00     0.186 C 
BRANCH   6   7
HETATM    7  C4  UNL     1      -1.980  -0.816   0.091  1.00  0.00     0.068 C 
BRANCH   7   8
HETATM    8  C2  UNL     1      -3.085  -1.774   0.167  1.00  0.00    -0.091 C 
HETATM    9  C1  UNL     1      -3.165  -2.842  -0.649  1.00  0.00     0.014 C 
HETATM   10  C3  UNL     1      -4.187  -1.673   1.189  1.00  0.00     0.042 C 
ENDBRANCH   7   8
ENDBRANCH   6   7
BRANCH   6  11
HETATM   11  C15 UNL     1      -3.309   1.293   0.499  1.00  0.00     0.281 C 
HETATM   12  O3  UNL     1      -2.858   2.061   1.416  1.00  0.00    -0.263 OA
BRANCH  11  13
HETATM   13  O4  UNL     1      -4.673   1.255   0.387  1.00  0.00    -0.325 OA
HETATM   14  C16 UNL     1      -5.615   1.954   1.152  1.00  0.00     0.213 C 
ENDBRANCH  11  13
ENDBRANCH   6  11
ENDBRANCH   4   6
ENDBRANCH   1   4
BRANCH   1  15
HETATM   15  C7  UNL     1       1.176   0.549  -0.932  1.00  0.00     0.046 C 
HETATM   16  C8  UNL     1       1.467   0.241   0.299  1.00  0.00    -0.014 C 
BRANCH  16  17
HETATM   17  C9  UNL     1       2.781  -0.346   0.702  1.00  0.00    -0.024 C 
HETATM   18  C10 UNL     1       2.482  -1.635   1.432  1.00  0.00     0.019 C 
HETATM   19  C11 UNL     1       3.407   0.675   1.635  1.00  0.00     0.019 C 
BRANCH  17  20
HETATM   20  C12 UNL     1       3.685  -0.540  -0.468  1.00  0.00     0.087 C 
BRANCH  20  21
HETATM   21  C13 UNL     1       4.993  -1.124  -0.112  1.00  0.00     0.114 C 
HETATM   22  N2  UNL     1       5.900  -0.474   0.754  1.00  0.00    -0.086 NA
HETATM   23  N3  UNL     1       5.324  -2.264  -0.611  1.00  0.00    -0.259 N 
ATOM     24  H3  UNL     1       4.683  -2.746  -1.241  1.00  0.00     0.195 HD
BRANCH  23  25
HETATM   25  O1  UNL     1       6.529  -2.834  -0.302  1.00  0.00    -0.289 OA
ATOM     26  H1  UNL     1       6.773  -3.675  -0.670  1.00  0.00     0.244 HD
ENDBRANCH  23  25
ENDBRANCH  20  21
ENDBRANCH  17  20
ENDBRANCH  16  17
ENDBRANCH   1  15
BRANCH   2  27
HETATM   27  O2  UNL     1      -1.558   1.993  -2.923  1.00  0.00    -0.284 OA
HETATM   28  C14 UNL     1      -1.709   3.059  -3.822  1.00  0.00     0.237 C 
ENDBRANCH   2  27
TORSDOF 12
