REMARK  2 active torsions:
REMARK  status: ('A' for Active; 'I' for Inactive)
REMARK    1  A    between atoms: C6_6  and  N1_7 
REMARK       I    between atoms: N2_9  and  C7_11 
REMARK    2  A    between atoms: C8_16  and  C9_17 
ROOT
HETATM    1  C1  UNL     1      -4.149  -1.714   0.116  1.00  0.00     0.016 C 
HETATM    2  C2  UNL     1      -3.087  -0.657   0.196  1.00  0.00     0.058 C 
HETATM    3  C3  UNL     1      -1.734  -1.193  -0.129  1.00  0.00     0.049 C 
HETATM    4  C4  UNL     1      -0.664  -0.296   0.301  1.00  0.00    -0.049 A 
HETATM    5  C5  UNL     1       0.590  -0.862   0.269  1.00  0.00     0.039 A 
HETATM    6  C6  UNL     1       1.740  -0.169   0.643  1.00  0.00     0.063 A 
HETATM    7  C8  UNL     1       1.638   1.140   1.066  1.00  0.00     0.076 A 
HETATM    8  C10 UNL     1       0.387   1.694   1.095  1.00  0.00     0.026 A 
HETATM    9  C11 UNL     1      -0.777   1.012   0.723  1.00  0.00    -0.051 A 
HETATM   10  C12 UNL     1      -1.906   1.900   0.880  1.00  0.00     0.045 C 
HETATM   11  C13 UNL     1      -3.054   1.793  -0.028  1.00  0.00     0.084 C 
HETATM   12  C14 UNL     1      -3.315   0.507  -0.707  1.00  0.00     0.247 C 
HETATM   13  F4  UNL     1      -2.566   0.438  -1.870  1.00  0.00    -0.206 F 
HETATM   14  F5  UNL     1      -4.668   0.478  -1.077  1.00  0.00    -0.206 F 
ENDROOT
BRANCH   6  15
HETATM   15  N1  UNL     1       3.026  -0.772   0.603  1.00  0.00    -0.298 N 
HETATM   16  N2  UNL     1       3.517  -0.985  -0.560  1.00  0.00    -0.273 N 
HETATM   17  C7  UNL     1       4.784  -1.575  -0.750  1.00  0.00     0.200 C 
ATOM     18  H2  UNL     1       2.972  -0.718  -1.380  1.00  0.00     0.189 HD
HETATM   19  N3  UNL     1       5.597  -1.882   0.203  1.00  0.00    -0.372 N 
HETATM   20  N4  UNL     1       5.198  -1.854  -2.082  1.00  0.00    -0.062 NA
ATOM     21  H32 UNL     1       5.300  -1.682   1.158  1.00  0.00     0.158 HD
ATOM     22  H31 UNL     1       6.513  -2.309   0.066  1.00  0.00     0.158 HD
ATOM     23  H1  UNL     1       3.530  -1.021   1.454  1.00  0.00     0.187 HD
ENDBRANCH   6  15
BRANCH   7  24
HETATM   24  C9  UNL     1       2.869   1.863   1.461  1.00  0.00     0.419 C 
HETATM   25  F1  UNL     1       3.512   1.226   2.528  1.00  0.00    -0.166 F 
HETATM   26  F2  UNL     1       3.764   1.982   0.412  1.00  0.00    -0.166 F 
HETATM   27  F3  UNL     1       2.595   3.144   1.902  1.00  0.00    -0.166 F 
ENDBRANCH   7  24
TORSDOF 2
