REMARK  10 active torsions:
REMARK  status: ('A' for Active; 'I' for Inactive)
REMARK    1  A    between atoms: O1_2  and  N1_3 
REMARK    2  A    between atoms: C2_5  and  C3_6 
REMARK    3  A    between atoms: C2_5  and  C14_44 
REMARK    4  A    between atoms: C6_17  and  N6_18 
REMARK       I    between atoms: N6_18  and  C7_20 
REMARK       I    between atoms: C7_20  and  N8_24 
REMARK    5  A    between atoms: N8_24  and  N9_26 
REMARK    6  A    between atoms: C8_28  and  C10_30 
REMARK    7  A    between atoms: C11_37  and  C12_38 
REMARK    8  A    between atoms: C14_44  and  N15_45 
REMARK    9  A    between atoms: C14_44  and  C15_49 
REMARK   10  A    between atoms: C15_49  and  O3_50 
ROOT
HETATM    1  C3  UNL     1      -3.857   0.157  -0.865  1.00  0.00     0.147 A 
HETATM    2  N2  UNL     1      -4.395   0.404  -2.064  1.00  0.00    -0.282 N 
ATOM      3  H2  UNL     1      -5.389   0.630  -2.095  1.00  0.00     0.188 HD
HETATM    4  N3  UNL     1      -3.744   0.379  -3.209  1.00  0.00    -0.282 N 
ATOM      5  H3  UNL     1      -4.234   0.581  -4.081  1.00  0.00     0.188 HD
HETATM    6  C4  UNL     1      -2.419   0.084  -3.225  1.00  0.00     0.152 A 
HETATM    7  N4  UNL     1      -1.702   0.043  -4.362  1.00  0.00    -0.336 N 
ATOM      8  H4  UNL     1      -2.152   0.239  -5.256  1.00  0.00     0.168 HD
HETATM    9  C5  UNL     1      -0.373  -0.260  -4.320  1.00  0.00     0.183 A 
HETATM   10  N5  UNL     1       0.257  -0.524  -3.154  1.00  0.00    -0.336 N 
ATOM     11  H5  UNL     1       1.252  -0.749  -3.138  1.00  0.00     0.168 HD
HETATM   12  C6  UNL     1      -0.459  -0.483  -2.012  1.00  0.00     0.152 A 
HETATM   13  C13 UNL     1      -1.824  -0.177  -2.009  1.00  0.00     0.125 A 
HETATM   14  N14 UNL     1      -2.526  -0.141  -0.860  1.00  0.00    -0.334 N 
ATOM     15  H14 UNL     1      -2.057  -0.339   0.024  1.00  0.00     0.168 HD
ENDROOT
BRANCH  12  16
HETATM   16  N6  UNL     1       0.045  -0.716  -0.851  1.00  0.00    -0.173 N 
HETATM   17  C7  UNL     1       1.423  -1.031  -0.770  1.00  0.00     0.692 C 
HETATM   18  N7  UNL     1       1.864  -2.221  -0.570  1.00  0.00    -0.233 N 
HETATM   19  N8  UNL     1       2.395   0.015  -0.915  1.00  0.00    -0.132 N 
ATOM     20  H72 UNL     1       1.173  -2.964  -0.467  1.00  0.00     0.174 HD
ATOM     21  H71 UNL     1       2.857  -2.448  -0.512  1.00  0.00     0.174 HD
ATOM     22  H8  UNL     1       2.063   0.973  -0.805  1.00  0.00     0.205 HD
ATOM     23  H6  UNL     1      -0.533  -0.675  -0.012  1.00  0.00     0.186 HD
BRANCH  19  24
HETATM   24  N9  UNL     1       3.689  -0.148  -1.179  1.00  0.00    -0.289 N 
HETATM   25  C8  UNL     1       4.794  -0.248  -0.592  1.00  0.00     0.053 C 
HETATM   26  C9  UNL     1       5.992  -0.431  -1.468  1.00  0.00     0.072 C 
ATOM     27  H9  UNL     1       3.828  -0.213  -2.187  1.00  0.00     0.187 HD
BRANCH  25  28
HETATM   28  C10 UNL     1       4.922  -0.097   0.849  1.00  0.00     0.106 A 
HETATM   29  N10 UNL     1       3.926   0.415   1.648  1.00  0.00    -0.282 N 
HETATM   30  N11 UNL     1       4.407   0.525   2.863  1.00  0.00    -0.242 N 
ATOM     31  H10 UNL     1       2.983   0.664   1.349  1.00  0.00     0.188 HD
HETATM   32  N12 UNL     1       5.636   0.123   2.915  1.00  0.00    -0.279 N 
ATOM     33  H11 UNL     1       3.882   0.881   3.662  1.00  0.00     0.208 HD
HETATM   34  C11 UNL     1       6.000  -0.287   1.640  1.00  0.00     0.144 A 
ATOM     35  H12 UNL     1       6.230   0.110   3.744  1.00  0.00     0.189 HD
BRANCH  34  36
HETATM   36  C12 UNL     1       7.308  -0.890   1.464  1.00  0.00     0.285 C 
HETATM   37  N13 UNL     1       8.399  -0.484   2.335  1.00  0.00    -0.056 NA
HETATM   38  O2  UNL     1       7.608  -1.745   0.622  1.00  0.00    -0.269 OA
ENDBRANCH  34  36
ENDBRANCH  25  28
ENDBRANCH  19  24
ENDBRANCH  12  16
BRANCH   1  39
HETATM   39  C2  UNL     1      -4.631   0.200   0.366  1.00  0.00     0.110 C 
HETATM   40  N1  UNL     1      -5.881   0.486   0.315  1.00  0.00    -0.265 N 
ATOM     41  H1  UNL     1      -6.421   0.516   1.180  1.00  0.00     0.194 HD
BRANCH  40  42
HETATM   42  O1  UNL     1      -6.501   0.750  -0.865  1.00  0.00    -0.285 OA
HETATM   43  C1  UNL     1      -7.798   1.262  -0.985  1.00  0.00     0.237 C 
ENDBRANCH  40  42
BRANCH  39  44
HETATM   44  C14 UNL     1      -4.008  -0.080   1.694  1.00  0.00     0.262 C 
BRANCH  44  45
HETATM   45  N15 UNL     1      -2.993   0.933   1.933  1.00  0.00    -0.067 N 
ATOM     46 3H15 UNL     1      -2.308   0.992   1.179  1.00  0.00     0.275 HD
ATOM     47 2H15 UNL     1      -3.357   1.883   1.860  1.00  0.00     0.275 HD
ATOM     48 1H15 UNL     1      -2.567   0.742   2.840  1.00  0.00     0.275 HD
ENDBRANCH  44  45
BRANCH  44  49
HETATM   49  C15 UNL     1      -5.029   0.033   2.779  1.00  0.00     0.203 C 
BRANCH  49  50
HETATM   50  O3  UNL     1      -5.630   1.296   2.792  1.00  0.00    -0.398 OA
ATOM     51  H3  UNL     1      -6.279   1.368   3.482  1.00  0.00     0.209 HD
ENDBRANCH  49  50
ENDBRANCH  44  49
ENDBRANCH  39  44
ENDBRANCH   1  39
TORSDOF 10
