REMARK  11 active torsions:
REMARK  status: ('A' for Active; 'I' for Inactive)
REMARK    1  A    between atoms: N1_1  and  N2_4 
REMARK       I    between atoms: N2_4  and  C1_6 
REMARK    2  A    between atoms: C1_6  and  C2_8 
REMARK    3  A    between atoms: C2_8  and  N3_9 
REMARK    4  A    between atoms: C2_8  and  C5_26 
REMARK    5  A    between atoms: N3_9  and  N4_11 
REMARK       I    between atoms: N4_11  and  C3_13 
REMARK       I    between atoms: C3_13  and  N6_15 
REMARK       I    between atoms: N6_15  and  C4_17 
REMARK       I    between atoms: C4_17  and  N7_18 
REMARK       I    between atoms: C4_17  and  N8_22 
REMARK       I    between atoms: C5_26  and  N9_28 
REMARK    6  A    between atoms: N9_28  and  C6_30 
REMARK    7  A    between atoms: C7_32  and  C8_33 
REMARK    8  A    between atoms: C8_33  and  O4_34 
REMARK    9  A    between atoms: C9_36  and  O5_37 
REMARK   10  A    between atoms: C10_39  and  O6_40 
REMARK   11  A    between atoms: C11_42  and  N10_43 
ROOT
HETATM    1  C5  UNL     1       0.704   0.525   0.432  1.00  0.00     0.253 C 
HETATM    2  O2  UNL     1       1.105  -0.602  -0.009  1.00  0.00    -0.271 OA
HETATM    3  N9  UNL     1      -0.618   0.575   0.937  1.00  0.00    -0.330 N 
ATOM      4  H9  UNL     1      -0.965   1.460   1.306  1.00  0.00     0.165 HD
ENDROOT
BRANCH   1   5
HETATM    5  C2  UNL     1       1.592   1.702   0.411  1.00  0.00     0.284 C 
BRANCH   5   6
HETATM    6  C1  UNL     1       1.392   2.437  -0.862  1.00  0.00     0.269 C 
HETATM    7  N2  UNL     1       0.111   2.906  -1.219  1.00  0.00    -0.274 N 
ATOM      8  H2  UNL     1      -0.671   2.729  -0.589  1.00  0.00     0.189 HD
HETATM    9  O1  UNL     1       2.383   2.632  -1.611  1.00  0.00    -0.269 OA
BRANCH   7  10
HETATM   10  N1  UNL     1      -0.126   3.610  -2.415  1.00  0.00    -0.343 N 
ATOM     11  H12 UNL     1       0.667   3.778  -3.034  1.00  0.00     0.176 HD
ATOM     12  H11 UNL     1      -1.053   3.949  -2.673  1.00  0.00     0.176 HD
ENDBRANCH   7  10
ENDBRANCH   5   6
BRANCH   5  13
HETATM   13  N3  UNL     1       2.992   1.323   0.513  1.00  0.00    -0.311 N 
ATOM     14  H3  UNL     1       3.602   1.705   1.236  1.00  0.00     0.181 HD
BRANCH  13  15
HETATM   15  N4  UNL     1       3.443   0.433  -0.408  1.00  0.00    -0.277 N 
HETATM   16  C3  UNL     1       4.579  -0.389  -0.090  1.00  0.00     0.205 C 
HETATM   17  N5  UNL     1       4.448  -1.618   0.585  1.00  0.00    -0.062 NA
HETATM   18  N6  UNL     1       5.772  -0.006  -0.431  1.00  0.00    -0.314 N 
HETATM   19  C4  UNL     1       6.927  -0.783  -0.138  1.00  0.00     0.482 C 
ATOM     20  H6  UNL     1       5.884   0.880  -0.924  1.00  0.00     0.166 HD
HETATM   21  N7  UNL     1       7.769  -0.171   0.854  1.00  0.00    -0.033 N 
HETATM   22  N8  UNL     1       7.745  -1.082  -1.322  1.00  0.00    -0.033 N 
ATOM     23  H73 UNL     1       8.025   0.778   0.582  1.00  0.00     0.278 HD
ATOM     24  H72 UNL     1       7.243   0.038   1.703  1.00  0.00     0.278 HD
ATOM     25  H71 UNL     1       8.597  -0.728   1.064  1.00  0.00     0.278 HD
ATOM     26  H83 UNL     1       7.183  -1.529  -2.047  1.00  0.00     0.278 HD
ATOM     27  H82 UNL     1       8.001  -0.224  -1.811  1.00  0.00     0.278 HD
ATOM     28  H81 UNL     1       8.573  -1.639  -1.112  1.00  0.00     0.278 HD
ATOM     29  H4  UNL     1       2.982   0.349  -1.314  1.00  0.00     0.189 HD
ENDBRANCH  13  15
ENDBRANCH   5  13
ENDBRANCH   1   5
BRANCH   3  30
HETATM   30  C6  UNL     1      -1.508  -0.585   0.953  1.00  0.00     0.249 C 
HETATM   31  O3  UNL     1      -1.530  -1.002   2.240  1.00  0.00    -0.354 OA
HETATM   32  C7  UNL     1      -2.508  -1.795   2.698  1.00  0.00     0.179 C 
HETATM   33  C9  UNL     1      -3.748  -1.978   1.918  1.00  0.00     0.180 C 
HETATM   34  C10 UNL     1      -3.959  -1.112   0.736  1.00  0.00     0.177 C 
HETATM   35  C11 UNL     1      -2.791  -0.283   0.301  1.00  0.00     0.172 C 
BRANCH  32  36
HETATM   36  C8  UNL     1      -2.776  -1.390   4.160  1.00  0.00     0.198 C 
BRANCH  36  37
HETATM   37  O4  UNL     1      -3.782  -2.165   4.708  1.00  0.00    -0.398 OA
ATOM     38  H4  UNL     1      -3.947  -1.915   5.610  1.00  0.00     0.209 HD
ENDBRANCH  36  37
ENDBRANCH  32  36
BRANCH  33  39
HETATM   39  O5  UNL     1      -3.977  -3.345   1.600  1.00  0.00    -0.390 OA
ATOM     40  H5  UNL     1      -4.775  -3.463   1.098  1.00  0.00     0.210 HD
ENDBRANCH  33  39
BRANCH  34  41
HETATM   41  O6  UNL     1      -5.114  -0.312   0.871  1.00  0.00    -0.391 OA
ATOM     42  H6  UNL     1      -5.249   0.244   0.112  1.00  0.00     0.210 HD
ENDBRANCH  34  41
BRANCH  35  43
HETATM   43  N10 UNL     1      -2.673  -0.261  -1.146  1.00  0.00    -0.316 N 
HETATM   44  C12 UNL     1      -1.932  -1.040  -1.947  1.00  0.00     0.185 A 
HETATM   45  N11 UNL     1      -2.112  -0.692  -3.233  1.00  0.00    -0.348 N 
HETATM   46  C13 UNL     1      -2.979   0.328  -3.293  1.00  0.00     0.093 A 
ATOM     47  H11 UNL     1      -1.661  -1.133  -4.034  1.00  0.00     0.167 HD
HETATM   48  C14 UNL     1      -3.520   1.070  -4.318  1.00  0.00     0.122 A 
HETATM   49  C16 UNL     1      -3.327   0.595  -1.989  1.00  0.00     0.138 A 
HETATM   50  N12 UNL     1      -4.395   2.062  -4.048  1.00  0.00    -0.360 N 
HETATM   51  C15 UNL     1      -4.735   2.319  -2.752  1.00  0.00     0.182 A 
ATOM     52  H12 UNL     1      -4.798   2.614  -4.805  1.00  0.00     0.166 HD
HETATM   53  N13 UNL     1      -4.198   1.587  -1.767  1.00  0.00    -0.337 N 
ATOM     54  H13 UNL     1      -4.465   1.795  -0.805  1.00  0.00     0.168 HD
ENDBRANCH  35  43
ENDBRANCH   3  30
TORSDOF 11
