REMARK  14 active torsions:
REMARK  status: ('A' for Active; 'I' for Inactive)
REMARK    1  A    between atoms: N1_1  and  C1_4 
REMARK    2  A    between atoms: C2_7  and  N3_8 
REMARK       I    between atoms: N6_16  and  C4_17 
REMARK    3  A    between atoms: C4_17  and  C5_19 
REMARK    4  A    between atoms: C5_19  and  C6_21 
REMARK    5  A    between atoms: C6_21  and  O3_22 
REMARK    6  A    between atoms: C6_21  and  N7_24 
REMARK    7  A    between atoms: N7_24  and  C7_26 
REMARK    8  A    between atoms: C7_26  and  C8_27 
REMARK    9  A    between atoms: C10_34  and  O5_35 
REMARK   10  A    between atoms: O5_35  and  C11_36 
REMARK   11  A    between atoms: C12_37  and  N10_38 
REMARK   12  A    between atoms: C14_43  and  N11_44 
REMARK   13  A    between atoms: C15_48  and  O6_49 
REMARK   14  A    between atoms: C16_51  and  O7_52 
ROOT
HETATM    1  N7  UNL     1       0.910  -2.194   1.150  1.00  0.00    -0.388 N 
ATOM      2  H7  UNL     1       0.963  -3.079   0.646  1.00  0.00     0.156 HD
ENDROOT
BRANCH   1   3
HETATM    3  C6  UNL     1       1.655  -1.944   2.363  1.00  0.00     0.295 C 
BRANCH   3   4
HETATM    4  C5  UNL     1       2.637  -0.874   2.259  1.00  0.00     0.266 C 
HETATM    5  O2  UNL     1       2.563   0.138   2.979  1.00  0.00    -0.282 OA
BRANCH   4   6
HETATM    6  C4  UNL     1       3.728  -0.984   1.301  1.00  0.00     0.320 C 
HETATM    7  N6  UNL     1       4.701   0.047   1.194  1.00  0.00    -0.183 N 
HETATM    8  N5  UNL     1       4.732   1.181   1.917  1.00  0.00    -0.231 N 
HETATM    9  C17 UNL     1       5.750   0.054   0.358  1.00  0.00     0.179 A 
HETATM   10  N4  UNL     1       5.771   1.911   1.565  1.00  0.00    -0.279 N 
ATOM     11  H5  UNL     1       4.052   1.438   2.632  1.00  0.00     0.209 HD
HETATM   12  C3  UNL     1       6.439   1.241   0.587  1.00  0.00     0.140 A 
ATOM     13  H4  UNL     1       6.029   2.817   1.956  1.00  0.00     0.189 HD
HETATM   14  C2  UNL     1       7.576   1.552  -0.118  1.00  0.00     0.147 A 
HETATM   15  N2  UNL     1       8.023   0.699  -1.037  1.00  0.00    -0.175 N 
HETATM   16  C1  UNL     1       7.379  -0.452  -1.279  1.00  0.00     0.679 A 
ATOM     17  H2  UNL     1       8.867   0.924  -1.564  1.00  0.00     0.186 HD
HETATM   18  N12 UNL     1       6.253  -0.758  -0.580  1.00  0.00    -0.172 N 
ATOM     19  H12 UNL     1       5.775  -1.637  -0.777  1.00  0.00     0.186 HD
HETATM   20  O1  UNL     1       3.812  -2.013   0.551  1.00  0.00    -0.262 OA
BRANCH  14  21
HETATM   21  N3  UNL     1       8.184   2.682   0.138  1.00  0.00    -0.383 N 
ATOM     22  H32 UNL     1       9.028   2.913  -0.386  1.00  0.00     0.157 HD
ATOM     23  H31 UNL     1       7.841   3.336   0.842  1.00  0.00     0.157 HD
ENDBRANCH  14  21
BRANCH  16  24
HETATM   24  N1  UNL     1       7.798  -1.292  -2.166  1.00  0.00    -0.234 N 
ATOM     25  H12 UNL     1       8.642  -1.063  -2.690  1.00  0.00     0.174 HD
ATOM     26  H11 UNL     1       7.308  -2.168  -2.350  1.00  0.00     0.174 HD
ENDBRANCH  16  24
ENDBRANCH   4   6
ENDBRANCH   3   4
BRANCH   3  27
HETATM   27  O3  UNL     1       0.705  -1.644   3.370  1.00  0.00    -0.369 OA
ATOM     28  H3  UNL     1       0.064  -2.342   3.438  1.00  0.00     0.212 HD
ENDBRANCH   3  27
ENDBRANCH   1   3
BRANCH   1  29
HETATM   29  C7  UNL     1       0.094  -1.107   0.710  1.00  0.00     0.146 C 
BRANCH  29  30
HETATM   30  C8  UNL     1      -0.585  -1.564  -0.580  1.00  0.00     0.152 C 
HETATM   31  N8  UNL     1       0.466  -1.860  -1.531  1.00  0.00    -0.333 N 
HETATM   32  C9  UNL     1      -0.024  -1.509  -2.812  1.00  0.00     0.318 C 
ATOM     33  H8  UNL     1       1.385  -2.248  -1.318  1.00  0.00     0.164 HD
HETATM   34  O4  UNL     1       0.330  -1.956  -3.945  1.00  0.00    -0.247 OA
HETATM   35  N9  UNL     1      -1.023  -0.534  -2.657  1.00  0.00    -0.315 N 
HETATM   36  C10 UNL     1      -1.389  -0.528  -1.251  1.00  0.00     0.249 C 
ATOM     37  H9  UNL     1      -1.416   0.056  -3.390  1.00  0.00     0.166 HD
BRANCH  36  38
HETATM   38  O5  UNL     1      -2.740  -0.584  -1.074  1.00  0.00    -0.354 OA
BRANCH  38  39
HETATM   39  C11 UNL     1      -3.381   0.484  -0.521  1.00  0.00     0.185 C 
HETATM   40  C12 UNL     1      -4.085   0.113   0.764  1.00  0.00     0.217 C 
HETATM   41  C13 UNL     1      -5.554  -0.086   0.597  1.00  0.00     0.071 C 
HETATM   42  C14 UNL     1      -6.226   1.164   0.070  1.00  0.00     0.216 C 
HETATM   43  C15 UNL     1      -5.480   1.801  -1.050  1.00  0.00     0.179 C 
HETATM   44  C16 UNL     1      -4.324   1.020  -1.575  1.00  0.00     0.180 C 
BRANCH  40  45
HETATM   45  N10 UNL     1      -3.869   1.090   1.810  1.00  0.00    -0.072 N 
ATOM     46 3H10 UNL     1      -2.874   1.247   1.967  1.00  0.00     0.274 HD
ATOM     47 2H10 UNL     1      -4.134   2.025   1.501  1.00  0.00     0.274 HD
ATOM     48 1H10 UNL     1      -4.344   0.840   2.677  1.00  0.00     0.274 HD
ENDBRANCH  40  45
BRANCH  42  49
HETATM   49  N11 UNL     1      -7.572   0.782  -0.315  1.00  0.00    -0.072 N 
ATOM     50 3H11 UNL     1      -7.597   0.003  -0.973  1.00  0.00     0.274 HD
ATOM     51 2H11 UNL     1      -8.093   0.331   0.437  1.00  0.00     0.274 HD
ATOM     52 1H11 UNL     1      -8.025   1.624  -0.670  1.00  0.00     0.274 HD
ENDBRANCH  42  49
BRANCH  43  53
HETATM   53  O6  UNL     1      -5.124   3.139  -0.759  1.00  0.00    -0.391 OA
ATOM     54  H6  UNL     1      -4.648   3.545  -1.474  1.00  0.00     0.210 HD
ENDBRANCH  43  53
BRANCH  44  55
HETATM   55  O7  UNL     1      -3.639   1.851  -2.482  1.00  0.00    -0.390 OA
ATOM     56  H7  UNL     1      -4.231   2.188  -3.144  1.00  0.00     0.210 HD
ENDBRANCH  44  55
ENDBRANCH  38  39
ENDBRANCH  36  38
ENDBRANCH  29  30
ENDBRANCH   1  29
TORSDOF 14
