REMARK  3 active torsions:
REMARK  status: ('A' for Active; 'I' for Inactive)
REMARK    1  A    between atoms: C2_2  and  C3_3 
REMARK       I    between atoms: N3_23  and  C15_24 
REMARK    2  A    between atoms: C15_24  and  C16_26 
REMARK    3  A    between atoms: C16_26  and  N4_27 
ROOT
HETATM    1  C1  UNL     1      -1.324   2.751   1.018  1.00  0.00     0.077 C 
HETATM    2  C2  UNL     1      -1.779   1.440   0.414  1.00  0.00     0.164 C 
HETATM    3  N1  UNL     1      -2.128   0.462   1.417  1.00  0.00    -0.344 N 
ATOM      4  H1  UNL     1      -2.381   0.732   2.368  1.00  0.00     0.164 HD
HETATM    5  C7  UNL     1      -2.100  -0.886   1.010  1.00  0.00     0.085 C 
HETATM    6  N2  UNL     1      -2.961  -1.700   1.530  1.00  0.00    -0.388 N 
ATOM      7  H21 UNL     1      -2.941  -2.676   1.235  1.00  0.00     0.157 HD
ATOM      8  H22 UNL     1      -3.665  -1.431   2.218  1.00  0.00     0.157 HD
HETATM    9  C8  UNL     1      -1.074  -1.278   0.007  1.00  0.00     0.049 C 
HETATM   10  C9  UNL     1      -1.756  -1.968  -1.134  1.00  0.00     0.020 C 
HETATM   11  C10 UNL     1      -0.903  -3.199  -0.911  1.00  0.00     0.002 C 
HETATM   12  C11 UNL     1      -0.491  -2.582   0.418  1.00  0.00     0.020 C 
HETATM   13  C12 UNL     1      -0.165  -0.135  -0.262  1.00  0.00     0.082 C 
HETATM   14  C13 UNL     1       0.670  -0.249  -1.518  1.00  0.00     0.059 C 
HETATM   15  C14 UNL     1       1.998  -0.936  -1.344  1.00  0.00     0.129 C 
HETATM   16  N3  UNL     1       2.779  -0.204  -0.384  1.00  0.00    -0.351 N 
HETATM   17  C15 UNL     1       4.176  -0.352  -0.198  1.00  0.00     0.245 C 
HETATM   18  O1  UNL     1       4.785  -1.191  -0.928  1.00  0.00    -0.272 OA
HETATM   19  C17 UNL     1       2.084   0.754   0.450  1.00  0.00     0.129 C 
HETATM   20  C18 UNL     1       0.790   0.052   0.892  1.00  0.00     0.059 C 
HETATM   21  O2  UNL     1      -0.891   1.029  -0.475  1.00  0.00    -0.344 OA
ENDROOT
BRANCH   2  22
HETATM   22  C3  UNL     1      -3.096   1.748  -0.300  1.00  0.00     0.044 A 
HETATM   23  C4  UNL     1      -3.324   1.561  -1.618  1.00  0.00     0.047 A 
HETATM   24  C5  UNL     1      -4.547   1.885  -2.110  1.00  0.00     0.078 A 
HETATM   25 CL1  UNL     1      -5.100   1.737  -3.789  1.00  0.00    -0.076 Cl
HETATM   26  S1  UNL     1      -5.379   2.451  -0.734  1.00  0.00    -0.047 SA
HETATM   27  C6  UNL     1      -4.150   2.259   0.425  1.00  0.00     0.170 A 
HETATM   28  F1  UNL     1      -4.236   2.557   1.754  1.00  0.00    -0.197 F 
ENDBRANCH   2  22
BRANCH  17  29
HETATM   29  C16 UNL     1       4.964   0.401   0.785  1.00  0.00     0.332 C 
BRANCH  29  30
HETATM   30  N4  UNL     1       6.362   0.062   0.772  1.00  0.00    -0.071 N 
ATOM     31  H43 UNL     1       6.493  -0.942   0.895  1.00  0.00     0.274 HD
ATOM     32  H42 UNL     1       6.752   0.169  -0.164  1.00  0.00     0.274 HD
ATOM     33  H41 UNL     1       6.910   0.585   1.455  1.00  0.00     0.274 HD
ENDBRANCH  29  30
ENDBRANCH  17  29
TORSDOF 3
