REMARK  14 active torsions:
REMARK  status: ('A' for Active; 'I' for Inactive)
REMARK    1  A    between atoms: N1_2  and  C3_4 
REMARK    2  A    between atoms: N1_2  and  C5_8 
REMARK    3  A    between atoms: C3_4  and  C4_5 
REMARK    4  A    between atoms: C4_5  and  O1_6 
REMARK    5  A    between atoms: C5_8  and  C6_9 
REMARK    6  A    between atoms: C7_11  and  O3_12 
REMARK    7  A    between atoms: O3_12  and  C8_13 
REMARK    8  A    between atoms: C8_13  and  C9_14 
REMARK    9  A    between atoms: C9_14  and  C10_15 
REMARK   10  A    between atoms: C10_15  and  C11_16 
REMARK   11  A    between atoms: C11_16  and  C12_17 
REMARK   12  A    between atoms: C12_17  and  N2_18 
REMARK   13  A    between atoms: C14_26  and  O4_27 
REMARK   14  A    between atoms: C15_29  and  O5_30 
ROOT
HETATM    1  C6  UNL     1      -2.148  -0.343   0.409  1.00  0.00     0.185 C 
HETATM    2  O2  UNL     1      -1.319  -1.094   1.279  1.00  0.00    -0.329 OA
HETATM    3  C7  UNL     1       0.027  -0.954   0.942  1.00  0.00     0.472 C 
HETATM    4  N5  UNL     1       0.349  -1.558  -0.312  1.00  0.00     0.004 N 
ATOM      5  H51 UNL     1       1.022  -2.320  -0.230  1.00  0.00     0.286 HD
ATOM      6  H52 UNL     1       0.909  -0.956  -0.916  1.00  0.00     0.286 HD
HETATM    7  C14 UNL     1      -0.913  -1.968  -0.920  1.00  0.00     0.356 C 
HETATM    8  C15 UNL     1      -1.721  -0.663  -0.976  1.00  0.00     0.205 C 
ENDROOT
BRANCH   3   9
HETATM    9  O3  UNL     1       0.404   0.337   1.131  1.00  0.00    -0.339 OA
BRANCH   9  10
HETATM   10  C8  UNL     1       1.259   0.590   2.154  1.00  0.00     0.172 C 
BRANCH  10  11
HETATM   11  C9  UNL     1       2.598  -0.076   2.092  1.00  0.00     0.026 C 
BRANCH  11  12
HETATM   12  C10 UNL     1       3.340   0.353   0.870  1.00  0.00     0.004 C 
BRANCH  12  13
HETATM   13  C11 UNL     1       4.716  -0.311   0.775  1.00  0.00     0.020 C 
BRANCH  13  14
HETATM   14  C12 UNL     1       5.332   0.233  -0.521  1.00  0.00     0.122 C 
BRANCH  14  15
HETATM   15  N2  UNL     1       6.637  -0.301  -0.754  1.00  0.00    -0.367 N 
HETATM   16  C13 UNL     1       7.656   0.453  -0.799  1.00  0.00     0.196 C 
HETATM   17  N3  UNL     1       8.926  -0.174  -1.038  1.00  0.00    -0.067 NA
HETATM   18  N4  UNL     1       7.524   1.841  -0.620  1.00  0.00    -0.067 NA
ATOM     19  H2  UNL     1       6.751  -1.306  -0.886  1.00  0.00     0.161 HD
ENDBRANCH  14  15
ENDBRANCH  13  14
ENDBRANCH  12  13
ENDBRANCH  11  12
ENDBRANCH  10  11
ENDBRANCH   9  10
ENDBRANCH   3   9
BRANCH   1  20
HETATM   20  C5  UNL     1      -3.538  -0.743   0.767  1.00  0.00     0.271 C 
BRANCH  20  21
HETATM   21  N1  UNL     1      -4.594  -0.131   0.038  1.00  0.00    -0.070 N 
HETATM   22  C1  UNL     1      -5.089  -0.971  -1.051  1.00  0.00     0.272 C 
HETATM   23  C2  UNL     1      -5.724  -0.020   0.962  1.00  0.00     0.272 C 
BRANCH  21  24
HETATM   24  C3  UNL     1      -4.324   1.198  -0.421  1.00  0.00     0.262 C 
BRANCH  24  25
HETATM   25  C4  UNL     1      -5.609   1.971  -0.676  1.00  0.00     0.192 C 
BRANCH  25  26
HETATM   26  O1  UNL     1      -6.386   1.339  -1.644  1.00  0.00    -0.399 OA
ATOM     27  H1  UNL     1      -7.189   1.822  -1.803  1.00  0.00     0.209 HD
ENDBRANCH  25  26
ENDBRANCH  24  25
ENDBRANCH  21  24
ENDBRANCH  20  21
ENDBRANCH   1  20
BRANCH   7  28
HETATM   28  O4  UNL     1      -0.738  -2.512  -2.175  1.00  0.00    -0.368 OA
ATOM     29  H4  UNL     1      -1.559  -2.779  -2.571  1.00  0.00     0.212 HD
ENDBRANCH   7  28
BRANCH   8  30
HETATM   30  O5  UNL     1      -0.838   0.298  -1.507  1.00  0.00    -0.389 OA
ATOM     31  H5  UNL     1      -0.565   0.093  -2.393  1.00  0.00     0.210 HD
ENDBRANCH   8  30
TORSDOF 14
