REMARK  14 active torsions:
REMARK  status: ('A' for Active; 'I' for Inactive)
REMARK       I    between atoms: N2_7  and  C4_8 
REMARK    1  A    between atoms: C4_8  and  C5_10 
REMARK    2  A    between atoms: C5_10  and  C6_11 
REMARK    3  A    between atoms: C6_11  and  C7_12 
REMARK    4  A    between atoms: C7_12  and  C8_13 
REMARK    5  A    between atoms: C8_13  and  C9_14 
REMARK    6  A    between atoms: C9_14  and  N3_15 
REMARK    7  A    between atoms: N3_15  and  C10_18 
REMARK    8  A    between atoms: C10_18  and  C11_19 
REMARK    9  A    between atoms: C11_19  and  N4_20 
REMARK   10  A    between atoms: C21_36  and  C22_37 
REMARK   11  A    between atoms: C22_37  and  C23_38 
REMARK   12  A    between atoms: C23_38  and  C24_39 
REMARK   13  A    between atoms: C24_39  and  N6_40 
REMARK   14  A    between atoms: C25_46  and  O4_47 
ROOT
HETATM    1  C1  UNL     1      -1.186   0.796  -0.815  1.00  0.00     0.041 C 
HETATM    2  C2  UNL     1      -1.656   1.662   0.273  1.00  0.00     0.156 C 
HETATM    3  N1  UNL     1      -0.922   1.411   1.525  1.00  0.00    -0.331 N 
ATOM      4  H1  UNL     1      -1.285   1.883   2.353  1.00  0.00     0.165 HD
HETATM    5  C3  UNL     1       0.199   0.617   1.728  1.00  0.00     0.325 C 
HETATM    6  O1  UNL     1       1.214   1.214   2.255  1.00  0.00    -0.247 OA
HETATM    7  N2  UNL     1       0.375  -0.758   1.436  1.00  0.00    -0.270 N 
HETATM    8  C4  UNL     1       1.575  -1.195   0.824  1.00  0.00     0.227 C 
HETATM    9  O2  UNL     1       1.666  -2.453   0.579  1.00  0.00    -0.273 OA
HETATM   10  C12 UNL     1      -0.610  -1.780   1.718  1.00  0.00     0.137 C 
HETATM   11  C13 UNL     1      -0.630  -2.325   3.091  1.00  0.00     0.020 C 
HETATM   12  C14 UNL     1      -1.411  -3.650   3.012  1.00  0.00     0.002 C 
HETATM   13  C15 UNL     1      -2.848  -3.433   2.646  1.00  0.00     0.000 C 
HETATM   14  C16 UNL     1      -3.197  -4.155   1.370  1.00  0.00     0.000 C 
HETATM   15  C17 UNL     1      -4.610  -3.894   0.901  1.00  0.00     0.002 C 
HETATM   16  C18 UNL     1      -4.815  -2.440   0.728  1.00  0.00     0.020 C 
HETATM   17  C19 UNL     1      -5.354  -2.006  -0.618  1.00  0.00     0.122 C 
HETATM   18  N5  UNL     1      -4.325  -1.468  -1.481  1.00  0.00    -0.359 N 
ATOM     19  H5  UNL     1      -3.538  -2.076  -1.706  1.00  0.00     0.162 HD
HETATM   20  C20 UNL     1      -4.321  -0.173  -2.036  1.00  0.00     0.240 C 
HETATM   21  O3  UNL     1      -3.957  -0.067  -3.236  1.00  0.00    -0.271 OA
HETATM   22  C21 UNL     1      -4.706   1.085  -1.344  1.00  0.00     0.175 C 
HETATM   23  N7  UNL     1      -4.213   1.147   0.008  1.00  0.00    -0.359 N 
ATOM     24  H7  UNL     1      -4.831   0.691   0.679  1.00  0.00     0.162 HD
HETATM   25  C25 UNL     1      -3.089   1.688   0.592  1.00  0.00     0.135 C 
ENDROOT
BRANCH   8  26
HETATM   26  C5  UNL     1       2.717  -0.320   0.449  1.00  0.00     0.103 C 
BRANCH  26  27
HETATM   27  C6  UNL     1       3.721  -1.130  -0.337  1.00  0.00     0.009 C 
BRANCH  27  28
HETATM   28  C7  UNL     1       4.916  -0.308  -0.763  1.00  0.00     0.002 C 
BRANCH  28  29
HETATM   29  C8  UNL     1       5.673   0.281   0.361  1.00  0.00     0.027 C 
BRANCH  29  30
HETATM   30  C9  UNL     1       6.825   1.103  -0.135  1.00  0.00     0.232 C 
BRANCH  30  31
HETATM   31  N3  UNL     1       7.734   0.303  -0.881  1.00  0.00    -0.074 N 
ATOM     32  H32 UNL     1       8.022  -0.515  -0.344  1.00  0.00     0.277 HD
ATOM     33  H31 UNL     1       7.258  -0.162  -1.654  1.00  0.00     0.277 HD
BRANCH  31  34
HETATM   34  C10 UNL     1       8.890   1.043  -1.356  1.00  0.00     0.259 C 
BRANCH  34  35
HETATM   35  C11 UNL     1       9.815   1.481  -0.260  1.00  0.00     0.257 C 
BRANCH  35  36
HETATM   36  N4  UNL     1      10.953   2.215  -0.779  1.00  0.00    -0.078 N 
ATOM     37  H43 UNL     1      11.448   1.678  -1.491  1.00  0.00     0.274 HD
ATOM     38  H42 UNL     1      10.656   3.005  -1.352  1.00  0.00     0.274 HD
ATOM     39  H41 UNL     1      11.582   2.513  -0.034  1.00  0.00     0.274 HD
ENDBRANCH  35  36
ENDBRANCH  34  35
ENDBRANCH  31  34
ENDBRANCH  30  31
ENDBRANCH  29  30
ENDBRANCH  28  29
ENDBRANCH  27  28
ENDBRANCH  26  27
ENDBRANCH   8  26
BRANCH  25  40
HETATM   40  O4  UNL     1      -3.297   2.388   1.675  1.00  0.00    -0.348 OA
ATOM     41  H4  UNL     1      -4.224   2.405   1.881  1.00  0.00     0.219 HD
ENDBRANCH  25  40
BRANCH  22  42
HETATM   42  C22 UNL     1      -4.437   2.279  -2.199  1.00  0.00     0.036 C 
BRANCH  42  43
HETATM   43  C23 UNL     1      -4.828   3.578  -1.535  1.00  0.00     0.030 C 
BRANCH  43  44
HETATM   44  C24 UNL     1      -4.494   4.699  -2.522  1.00  0.00     0.230 C 
BRANCH  44  45
HETATM   45  N6  UNL     1      -5.212   4.548  -3.758  1.00  0.00    -0.079 N 
ATOM     46  H63 UNL     1      -5.053   3.629  -4.171  1.00  0.00     0.274 HD
ATOM     47  H62 UNL     1      -6.217   4.479  -3.599  1.00  0.00     0.274 HD
ATOM     48  H61 UNL     1      -4.989   5.295  -4.416  1.00  0.00     0.274 HD
ENDBRANCH  44  45
ENDBRANCH  43  44
ENDBRANCH  42  43
ENDBRANCH  22  42
TORSDOF 14
