REMARK  12 active torsions:
REMARK  status: ('A' for Active; 'I' for Inactive)
REMARK    1  A    between atoms: C2_2  and  C3_3 
REMARK    2  A    between atoms: C3_3  and  C4_4 
REMARK    3  A    between atoms: C4_4  and  C5_5 
REMARK    4  A    between atoms: C10_16  and  C11_17 
REMARK    5  A    between atoms: C11_17  and  C12_18 
REMARK    6  A    between atoms: C15_21  and  C16_22 
REMARK    7  A    between atoms: C16_22  and  O3_23 
REMARK    8  A    between atoms: C20_32  and  C21_33 
REMARK    9  A    between atoms: C21_33  and  C22_34 
REMARK   10  A    between atoms: C22_34  and  C23_35 
REMARK   11  A    between atoms: C23_35  and  C24_36 
REMARK   12  A    between atoms: C24_36  and  N4_37 
ROOT
HETATM    1  C5  UNL     1      -1.913   2.603  -0.121  1.00  0.00     0.176 C 
HETATM    2  N1  UNL     1      -0.685   3.348  -0.199  1.00  0.00    -0.346 N 
ATOM      3  H1  UNL     1      -0.762   4.236  -0.695  1.00  0.00     0.163 HD
HETATM    4  C6  UNL     1       0.593   3.067   0.286  1.00  0.00     0.240 C 
HETATM    5  O1  UNL     1       1.125   3.858   1.115  1.00  0.00    -0.271 OA
HETATM    6  C7  UNL     1       1.469   1.909  -0.050  1.00  0.00     0.172 C 
HETATM    7  C8  UNL     1       2.419   2.357  -1.179  1.00  0.00     0.042 C 
HETATM    8  N2  UNL     1       2.301   1.527   1.060  1.00  0.00    -0.348 N 
ATOM      9  H2  UNL     1       2.393   2.213   1.809  1.00  0.00     0.163 HD
HETATM   10  C9  UNL     1       2.999   0.328   1.234  1.00  0.00     0.223 C 
HETATM   11  O2  UNL     1       2.974  -0.203   2.400  1.00  0.00    -0.273 OA
HETATM   12  C10 UNL     1       3.781  -0.421   0.226  1.00  0.00     0.091 C 
HETATM   13  C15 UNL     1       3.265  -1.665  -0.302  1.00  0.00     0.093 C 
HETATM   14  C17 UNL     1       2.050  -2.322   0.119  1.00  0.00     0.151 C 
HETATM   15  O4  UNL     1       2.142  -3.575   0.087  1.00  0.00    -0.296 OA
HETATM   16  C18 UNL     1       0.736  -1.903   0.574  1.00  0.00     0.201 C 
HETATM   17  N3  UNL     1      -0.271  -1.957  -0.500  1.00  0.00    -0.352 N 
ATOM     18  H3  UNL     1      -0.114  -2.615  -1.263  1.00  0.00     0.162 HD
HETATM   19  C19 UNL     1      -1.431  -1.167  -0.548  1.00  0.00     0.240 C 
HETATM   20  O5  UNL     1      -1.828  -0.747  -1.695  1.00  0.00    -0.271 OA
HETATM   21  C20 UNL     1      -2.260  -0.762   0.615  1.00  0.00     0.176 C 
HETATM   22  N5  UNL     1      -1.810   0.424   1.286  1.00  0.00    -0.346 N 
ATOM     23  H5  UNL     1      -1.183   0.240   2.069  1.00  0.00     0.163 HD
HETATM   24  C25 UNL     1      -2.062   1.769   1.077  1.00  0.00     0.241 C 
HETATM   25  O6  UNL     1      -2.505   2.415   2.108  1.00  0.00    -0.271 OA
ENDROOT
BRANCH  21  26
HETATM   26  C21 UNL     1      -3.685  -0.748   0.193  1.00  0.00     0.035 C 
BRANCH  26  27
HETATM   27  C22 UNL     1      -4.096  -2.118  -0.275  1.00  0.00     0.004 C 
BRANCH  27  28
HETATM   28  C23 UNL     1      -3.985  -3.210   0.730  1.00  0.00     0.027 C 
BRANCH  28  29
HETATM   29  C24 UNL     1      -4.479  -4.484   0.014  1.00  0.00     0.229 C 
BRANCH  29  30
HETATM   30  N4  UNL     1      -4.419  -5.618   0.893  1.00  0.00    -0.079 N 
ATOM     31  H43 UNL     1      -3.486  -5.743   1.285  1.00  0.00     0.274 HD
ATOM     32  H42 UNL     1      -4.929  -5.451   1.761  1.00  0.00     0.274 HD
ATOM     33  H41 UNL     1      -4.746  -6.460   0.420  1.00  0.00     0.274 HD
ENDBRANCH  29  30
ENDBRANCH  28  29
ENDBRANCH  27  28
ENDBRANCH  26  27
ENDBRANCH  21  26
BRANCH   1  34
HETATM   34  C4  UNL     1      -3.060   3.628  -0.145  1.00  0.00     0.035 C 
BRANCH  34  35
HETATM   35  C3  UNL     1      -4.411   3.025  -0.076  1.00  0.00     0.002 C 
BRANCH  35  36
HETATM   36  C2  UNL     1      -5.422   4.156  -0.110  1.00  0.00    -0.004 C 
HETATM   37  C1  UNL     1      -5.315   4.974  -1.362  1.00  0.00     0.005 C 
ENDBRANCH  35  36
ENDBRANCH  34  35
ENDBRANCH   1  34
BRANCH  13  38
HETATM   38  C16 UNL     1       3.070  -1.470  -1.831  1.00  0.00     0.177 C 
BRANCH  38  39
HETATM   39  O3  UNL     1       2.573  -2.672  -2.391  1.00  0.00    -0.400 OA
ATOM     40  H3  UNL     1       2.454  -2.553  -3.326  1.00  0.00     0.209 HD
ENDBRANCH  38  39
ENDBRANCH  13  38
BRANCH  12  41
HETATM   41  C11 UNL     1       5.119  -0.637   0.918  1.00  0.00     0.018 C 
BRANCH  41  42
HETATM   42  C12 UNL     1       6.176  -1.345   0.193  1.00  0.00    -0.022 C 
HETATM   43  C13 UNL     1       7.380  -1.390   1.173  1.00  0.00     0.009 C 
HETATM   44  C14 UNL     1       6.732  -0.603  -1.001  1.00  0.00     0.009 C 
ENDBRANCH  41  42
ENDBRANCH  12  41
TORSDOF 12
