REMARK  9 active torsions:
REMARK  status: ('A' for Active; 'I' for Inactive)
REMARK    1  A    between atoms: C2_2  and  C3_3 
REMARK    2  A    between atoms: C3_3  and  C4_4 
REMARK    3  A    between atoms: C4_4  and  C5_5 
REMARK    4  A    between atoms: C5_5  and  C6_6 
REMARK    5  A    between atoms: C6_6  and  C7_7 
REMARK    6  A    between atoms: C7_7  and  C8_8 
REMARK    7  A    between atoms: C8_8  and  N1_9 
REMARK       I    between atoms: N2_19  and  C17_21 
REMARK    8  A    between atoms: C17_21  and  C18_23 
REMARK    9  A    between atoms: C18_23  and  N3_24 
ROOT
HETATM    1  C1  UNL     1       2.761  -1.840   1.232  1.00  0.00     0.063 C 
HETATM    2  C2  UNL     1       2.407  -0.445   1.644  1.00  0.00    -0.014 C 
HETATM    3  N2  UNL     1       3.333   0.435   1.777  1.00  0.00    -0.333 N 
ATOM      4  H2  UNL     1       3.080   1.382   2.059  1.00  0.00     0.168 HD
HETATM    5  C17 UNL     1       4.680   0.131   1.546  1.00  0.00     0.258 C 
HETATM    6  O2  UNL     1       5.283  -0.694   2.272  1.00  0.00    -0.270 OA
ENDROOT
BRANCH   2   7
HETATM    7  C3  UNL     1       1.012  -0.055   1.905  1.00  0.00     0.052 C 
BRANCH   7   8
HETATM    8  C4  UNL     1       0.105  -0.240   0.688  1.00  0.00     0.006 C 
BRANCH   8   9
HETATM    9  C5  UNL     1      -1.261   0.199   1.118  1.00  0.00     0.000 C 
BRANCH   9  10
HETATM   10  C6  UNL     1      -2.308   0.099   0.063  1.00  0.00     0.002 C 
BRANCH  10  11
HETATM   11  C7  UNL     1      -2.514  -1.292  -0.456  1.00  0.00     0.020 C 
BRANCH  11  12
HETATM   12  C8  UNL     1      -3.591  -1.342  -1.525  1.00  0.00     0.123 C 
BRANCH  12  13
HETATM   13  N1  UNL     1      -4.852  -0.883  -1.019  1.00  0.00    -0.382 N 
HETATM   14  C9  UNL     1      -5.433   0.191  -1.362  1.00  0.00    -0.004 C 
HETATM   15  C10 UNL     1      -5.336   1.387  -2.224  1.00  0.00     0.060 C 
HETATM   16  C13 UNL     1      -6.730   0.362  -0.634  1.00  0.00     0.102 C 
HETATM   17  C11 UNL     1      -5.886   2.482  -1.317  1.00  0.00     0.085 C 
HETATM   18  C12 UNL     1      -6.624   1.783  -0.238  1.00  0.00     0.137 C 
HETATM   19  O1  UNL     1      -7.058   2.282   0.774  1.00  0.00    -0.297 OA
HETATM   20  C14 UNL     1      -6.621  -0.607   0.518  1.00  0.00     0.042 C 
HETATM   21  C15 UNL     1      -5.617  -1.595  -0.039  1.00  0.00     0.081 C 
HETATM   22  C16 UNL     1      -6.403  -2.666  -0.763  1.00  0.00     0.032 C 
ENDBRANCH  12  13
ENDBRANCH  11  12
ENDBRANCH  10  11
ENDBRANCH   9  10
ENDBRANCH   8   9
ENDBRANCH   7   8
ENDBRANCH   2   7
BRANCH   5  23
HETATM   23  C18 UNL     1       5.504   0.746   0.442  1.00  0.00     0.203 C 
HETATM   24  C19 UNL     1       6.502   1.648   1.127  1.00  0.00     0.049 C 
HETATM   25  C20 UNL     1       7.494   2.056   0.030  1.00  0.00     0.003 C 
HETATM   26  C21 UNL     1       8.354   0.831  -0.174  1.00  0.00     0.000 C 
HETATM   27  C22 UNL     1       7.583  -0.409  -0.415  1.00  0.00     0.003 C 
HETATM   28  C23 UNL     1       6.104  -0.284  -0.430  1.00  0.00     0.049 C 
BRANCH  23  29
HETATM   29  N3  UNL     1       4.594   1.626  -0.276  1.00  0.00    -0.061 N 
ATOM     30  H33 UNL     1       3.748   1.161  -0.605  1.00  0.00     0.275 HD
ATOM     31  H32 UNL     1       4.130   2.311   0.320  1.00  0.00     0.275 HD
ATOM     32  H31 UNL     1       5.151   2.042  -1.022  1.00  0.00     0.275 HD
ENDBRANCH  23  29
ENDBRANCH   5  23
TORSDOF 9
