REMARK  8 active torsions:
REMARK  status: ('A' for Active; 'I' for Inactive)
REMARK    1  A    between atoms: C2_2  and  C3_3 
REMARK    2  A    between atoms: C3_3  and  C4_4 
REMARK    3  A    between atoms: C4_4  and  N1_5 
REMARK    4  A    between atoms: N1_5  and  C5_6 
REMARK    5  A    between atoms: N1_5  and  C9_10 
REMARK    6  A    between atoms: C5_6  and  C6_7 
REMARK    7  A    between atoms: N3_20  and  C15_21 
REMARK    8  A    between atoms: C15_21  and  C16_22 
ROOT
HETATM    1  C9  UNL     1      -2.099  -0.877   0.153  1.00  0.00     0.106 A 
HETATM    2  C10 UNL     1      -1.012  -0.530  -0.617  1.00  0.00     0.058 A 
HETATM    3  C11 UNL     1       0.228  -1.117  -0.512  1.00  0.00    -0.015 A 
HETATM    4  C12 UNL     1       0.394  -2.116   0.426  1.00  0.00     0.108 A 
HETATM    5  C13 UNL     1      -0.690  -2.467   1.201  1.00  0.00     0.263 A 
HETATM    6  O1  UNL     1      -0.572  -3.389   2.079  1.00  0.00    -0.267 OA
HETATM    7  N2  UNL     1      -1.884  -1.870   1.066  1.00  0.00    -0.309 N 
ATOM      8  H2  UNL     1      -2.655  -2.167   1.664  1.00  0.00     0.170 HD
HETATM    9  C14 UNL     1       1.781  -2.542   0.334  1.00  0.00     0.260 A 
HETATM   10  O2  UNL     1       2.273  -3.432   1.042  1.00  0.00    -0.267 OA
HETATM   11  N3  UNL     1       2.451  -1.790  -0.667  1.00  0.00    -0.339 N 
HETATM   12  C24 UNL     1       1.501  -0.884  -1.261  1.00  0.00     0.166 A 
ENDROOT
BRANCH   1  13
HETATM   13  N1  UNL     1      -3.374  -0.264   0.035  1.00  0.00    -0.367 N 
BRANCH  13  14
HETATM   14  C4  UNL     1      -4.164  -0.714  -1.121  1.00  0.00     0.124 C 
BRANCH  14  15
HETATM   15  C3  UNL     1      -4.277   0.485  -2.036  1.00  0.00     0.019 C 
BRANCH  15  16
HETATM   16  C2  UNL     1      -5.067   0.147  -3.293  1.00  0.00    -0.003 C 
HETATM   17  C1  UNL     1      -6.456  -0.314  -2.979  1.00  0.00     0.005 C 
ENDBRANCH  15  16
ENDBRANCH  14  15
ENDBRANCH  13  14
BRANCH  13  18
HETATM   18  C5  UNL     1      -3.910   0.694   0.940  1.00  0.00     0.128 C 
BRANCH  18  19
HETATM   19  C6  UNL     1      -3.051   1.106   2.082  1.00  0.00    -0.005 C 
HETATM   20  C7  UNL     1      -3.891   2.118   2.895  1.00  0.00     0.011 C 
HETATM   21  C8  UNL     1      -1.805   1.859   1.671  1.00  0.00     0.011 C 
ENDBRANCH  18  19
ENDBRANCH  13  18
ENDBRANCH   1  13
BRANCH  11  22
HETATM   22  C15 UNL     1       3.847  -1.841  -1.083  1.00  0.00     0.165 C 
BRANCH  22  23
HETATM   23  C16 UNL     1       4.634  -0.833  -0.288  1.00  0.00    -0.039 A 
HETATM   24  C17 UNL     1       4.071  -0.127   0.755  1.00  0.00     0.015 A 
HETATM   25  C18 UNL     1       4.771   0.815   1.499  1.00  0.00    -0.061 A 
HETATM   26  C19 UNL     1       4.131   1.566   2.624  1.00  0.00     0.048 C 
HETATM   27  C20 UNL     1       6.095   1.050   1.172  1.00  0.00     0.013 A 
HETATM   28  C21 UNL     1       6.702   0.358   0.126  1.00  0.00    -0.061 A 
HETATM   29  C22 UNL     1       8.123   0.607  -0.232  1.00  0.00     0.048 C 
HETATM   30  C23 UNL     1       5.951  -0.568  -0.577  1.00  0.00     0.015 A 
ENDBRANCH  22  23
ENDBRANCH  11  22
TORSDOF 8
