REMARK  10 active torsions:
REMARK  status: ('A' for Active; 'I' for Inactive)
REMARK    1  A    between atoms: C2_2  and  C3_3 
REMARK    2  A    between atoms: C3_3  and  C4_4 
REMARK    3  A    between atoms: C4_4  and  N1_5 
REMARK    4  A    between atoms: N1_5  and  C5_6 
REMARK    5  A    between atoms: N1_5  and  C11_13 
REMARK    6  A    between atoms: C5_6  and  C6_7 
REMARK    7  A    between atoms: C6_7  and  N2_8 
REMARK    8  A    between atoms: C11_13  and  O1_14 
REMARK    9  A    between atoms: C11_13  and  C12_16 
REMARK   10  A    between atoms: C23_27  and  N3_28 
ROOT
HETATM    1  N1  UNL     1      -0.722   0.348   0.372  1.00  0.00    -0.362 N 
ENDROOT
BRANCH   1   2
HETATM    2  C4  UNL     1      -1.507  -0.508  -0.458  1.00  0.00     0.136 C 
BRANCH   2   3
HETATM    3  C3  UNL     1      -2.046  -1.740   0.249  1.00  0.00     0.006 A 
HETATM    4  C22 UNL     1      -3.431  -1.682   0.780  1.00  0.00     0.047 A 
HETATM    5  C23 UNL     1      -3.228  -2.346  -0.525  1.00  0.00     0.196 A 
BRANCH   3   6
HETATM    6  C2  UNL     1      -1.032  -2.633   0.864  1.00  0.00     0.009 C 
HETATM    7  C1  UNL     1      -1.566  -3.835   1.588  1.00  0.00     0.006 C 
ENDBRANCH   3   6
BRANCH   5   8
HETATM    8  N3  UNL     1      -3.264  -3.735  -0.790  1.00  0.00    -0.074 N 
HETATM    9  C24 UNL     1      -2.207  -4.100  -1.702  1.00  0.00     0.267 C 
ATOM     10  H32 UNL     1      -3.233  -4.286   0.068  1.00  0.00     0.277 HD
ATOM     11  H31 UNL     1      -4.178  -4.034  -1.129  1.00  0.00     0.277 HD
ENDBRANCH   5   8
ENDBRANCH   2   3
ENDBRANCH   1   2
BRANCH   1  12
HETATM   12  C5  UNL     1      -1.559   1.304   1.199  1.00  0.00     0.154 C 
BRANCH  12  13
HETATM   13  C6  UNL     1      -1.789   2.530   0.412  1.00  0.00     0.292 C 
BRANCH  13  14
HETATM   14  N2  UNL     1      -2.552   3.554   1.000  1.00  0.00     0.090 N 
HETATM   15  C7  UNL     1      -1.977   4.238   2.108  1.00  0.00     0.272 C 
HETATM   16  C8  UNL     1      -0.903   5.078   1.481  1.00  0.00     0.032 C 
HETATM   17  C9  UNL     1      -1.675   5.645   0.292  1.00  0.00     0.032 C 
HETATM   18  C10 UNL     1      -2.743   4.621   0.030  1.00  0.00     0.272 C 
ENDBRANCH  13  14
ENDBRANCH  12  13
ENDBRANCH   1  12
BRANCH   1  19
HETATM   19  C11 UNL     1       0.647   0.402   0.478  1.00  0.00     0.122 C 
BRANCH  19  20
HETATM   20  O1  UNL     1       1.058   1.244   1.429  1.00  0.00    -0.349 OA
ATOM     21  H1  UNL     1       2.004   1.281   1.502  1.00  0.00     0.219 HD
ENDBRANCH  19  20
BRANCH  19  22
HETATM   22  C12 UNL     1       1.803  -0.209  -0.174  1.00  0.00     0.026 C 
HETATM   23  C13 UNL     1       2.528  -1.047   0.854  1.00  0.00     0.022 C 
HETATM   24  C14 UNL     1       3.854  -1.520   0.339  1.00  0.00    -0.013 C 
HETATM   25  C15 UNL     1       3.671  -2.289  -0.930  1.00  0.00     0.009 C 
HETATM   26  C19 UNL     1       4.699  -0.292   0.080  1.00  0.00     0.009 C 
HETATM   27  C16 UNL     1       2.971  -1.414  -1.953  1.00  0.00    -0.013 C 
HETATM   28  C17 UNL     1       3.883  -0.245  -2.236  1.00  0.00     0.009 C 
HETATM   29  C21 UNL     1       1.606  -0.965  -1.423  1.00  0.00     0.022 C 
HETATM   30  C18 UNL     1       4.035   0.563  -0.947  1.00  0.00    -0.013 C 
HETATM   31  C20 UNL     1       2.688   1.014  -0.549  1.00  0.00     0.022 C 
ENDBRANCH  19  22
ENDBRANCH   1  19
TORSDOF 10
