REMARK  3 active torsions:
REMARK  status: ('A' for Active; 'I' for Inactive)
REMARK    1  A    between atoms: N1_1  and  C1_5 
REMARK    2  A    between atoms: C1_5  and  O1_6 
REMARK    3  A    between atoms: O1_6  and  C2_7 
ROOT
HETATM    1  C2  UNL     1      -0.105  -0.379   0.355  1.00  0.00     0.285 C 
HETATM    2  C3  UNL     1       0.903  -1.301  -0.281  1.00  0.00     0.228 C 
HETATM    3  O2  UNL     1       1.743  -0.473  -1.061  1.00  0.00    -0.384 OA
HETATM    4  C4  UNL     1       2.439   0.323  -0.172  1.00  0.00     0.194 C 
HETATM    5  C5  UNL     1       1.503   1.122   0.715  1.00  0.00     0.197 C 
HETATM    6  O3  UNL     1       0.590   0.300   1.379  1.00  0.00    -0.357 OA
ENDROOT
BRANCH   1   7
HETATM    7  O1  UNL     1      -1.193  -0.999   0.887  1.00  0.00    -0.333 OA
BRANCH   7   8
HETATM    8  C1  UNL     1      -2.406  -0.599   0.402  1.00  0.00     0.400 C 
BRANCH   8   9
HETATM    9  N1  UNL     1      -2.700   0.799   0.597  1.00  0.00    -0.058 N 
ATOM     10  H13 UNL     1      -2.614   1.045   1.583  1.00  0.00     0.276 HD
ATOM     11  H12 UNL     1      -1.955   1.376   0.206  1.00  0.00     0.276 HD
ATOM     12  H11 UNL     1      -3.606   1.098   0.235  1.00  0.00     0.276 HD
ENDBRANCH   8   9
ENDBRANCH   7   8
ENDBRANCH   1   7
TORSDOF 3
