REMARK  6 active torsions:
REMARK  status: ('A' for Active; 'I' for Inactive)
REMARK    1  A    between atoms: N1_1  and  C1_5 
REMARK    2  A    between atoms: C4_8  and  C5_9 
REMARK    3  A    between atoms: C5_9  and  N2_10 
REMARK    4  A    between atoms: N2_10  and  C6_12 
REMARK    5  A    between atoms: N4_19  and  C10_21 
REMARK    6  A    between atoms: C16_27  and  N5_28 
ROOT
HETATM    1  C6  UNL     1      -0.091  -0.959   0.416  1.00  0.00     0.105 A 
HETATM    2  C7  UNL     1      -0.056  -2.329   0.538  1.00  0.00     0.160 A 
HETATM    3  F1  UNL     1      -1.163  -3.069   0.780  1.00  0.00    -0.202 F 
HETATM    4  C8  UNL     1       1.171  -2.935   0.404  1.00  0.00     0.134 A 
HETATM    5  N3  UNL     1       2.293  -2.251   0.165  1.00  0.00    -0.347 N 
ATOM      6  H3  UNL     1       3.171  -2.762   0.075  1.00  0.00     0.167 HD
HETATM    7  C9  UNL     1       2.305  -0.873   0.035  1.00  0.00     0.137 A 
HETATM    8  N4  UNL     1       3.386  -0.329  -0.191  1.00  0.00    -0.370 N 
ATOM      9  H4  UNL     1       4.083  -1.073  -0.233  1.00  0.00     0.161 HD
HETATM   10  C16 UNL     1       1.100  -0.253   0.165  1.00  0.00     0.175 A 
ENDROOT
BRANCH   1  11
HETATM   11  N2  UNL     1      -1.348  -0.317   0.582  1.00  0.00    -0.385 N 
ATOM     12  H2  UNL     1      -1.567   0.039   1.513  1.00  0.00     0.159 HD
BRANCH  11  13
HETATM   13  C5  UNL     1      -2.332  -0.124  -0.434  1.00  0.00     0.124 C 
BRANCH  13  14
HETATM   14  C4  UNL     1      -3.555   0.587   0.120  1.00  0.00     0.003 C 
HETATM   15  C3  UNL     1      -4.185  -0.225   1.242  1.00  0.00     0.008 C 
HETATM   16  C2  UNL     1      -5.463  -0.881   0.789  1.00  0.00     0.033 C 
HETATM   17  C1  UNL     1      -6.449   0.219   0.455  1.00  0.00     0.183 C 
HETATM   18  C18 UNL     1      -5.881   1.208  -0.504  1.00  0.00     0.033 C 
HETATM   19  C17 UNL     1      -4.537   0.758  -1.005  1.00  0.00     0.008 C 
BRANCH  17  20
HETATM   20  N1  UNL     1      -7.686  -0.320  -0.074  1.00  0.00    -0.075 N 
ATOM     21  H13 UNL     1      -7.516  -0.926  -0.877  1.00  0.00     0.274 HD
ATOM     22  H12 UNL     1      -8.094  -1.008   0.559  1.00  0.00     0.274 HD
ATOM     23  H11 UNL     1      -8.350   0.421  -0.299  1.00  0.00     0.274 HD
ENDBRANCH  17  20
ENDBRANCH  13  14
ENDBRANCH  11  13
ENDBRANCH   1  11
BRANCH  10  24
HETATM   24  N5  UNL     1       0.999   1.150   0.093  1.00  0.00    -0.109 N 
HETATM   25  O1  UNL     1       0.628   1.691  -0.952  1.00  0.00    -0.532 OA
HETATM   26  O2  UNL     1       1.317   1.903   1.187  1.00  0.00    -0.532 OA
ENDBRANCH  10  24
BRANCH   8  27
HETATM   27  C10 UNL     1       4.054   0.843  -0.410  1.00  0.00     0.083 C 
HETATM   28  C11 UNL     1       5.102   0.764  -1.533  1.00  0.00     0.025 C 
HETATM   29  C12 UNL     1       6.050  -0.363  -1.155  1.00  0.00     0.002 C 
HETATM   30  C13 UNL     1       6.951   0.214  -0.069  1.00  0.00     0.000 C 
HETATM   31  C14 UNL     1       6.303   1.385   0.615  1.00  0.00     0.002 C 
HETATM   32  C15 UNL     1       4.837   1.230   0.835  1.00  0.00     0.025 C 
ENDBRANCH   8  27
TORSDOF 6
