REMARK  8 active torsions:
REMARK  status: ('A' for Active; 'I' for Inactive)
REMARK    1  A    between atoms: C2_2  and  C3_3 
REMARK    2  A    between atoms: C3_3  and  N1_4 
REMARK    3  A    between atoms: N1_4  and  C4_5 
REMARK    4  A    between atoms: N1_4  and  C7_8 
REMARK    5  A    between atoms: C4_5  and  C5_6 
REMARK    6  A    between atoms: C7_8  and  C8_9 
REMARK    7  A    between atoms: C8_9  and  S1_10 
REMARK    8  A    between atoms: S1_10  and  N2_13 
ROOT
HETATM    1  S1  UNL     1       0.985   0.738  -0.051  1.00  0.00     0.234 S 
HETATM    2  O1  UNL     1       0.981   0.885   1.437  1.00  0.00    -0.205 OA
HETATM    3  O2  UNL     1       0.945   2.147  -0.624  1.00  0.00    -0.205 OA
ENDROOT
BRANCH   1   4
HETATM    4  C8  UNL     1      -0.544  -0.037  -0.527  1.00  0.00     0.194 C 
BRANCH   4   5
HETATM    5  C7  UNL     1      -1.646   0.781   0.098  1.00  0.00     0.290 C 
BRANCH   5   6
HETATM    6  N1  UNL     1      -2.984   0.314  -0.199  1.00  0.00     0.096 N 
BRANCH   6   7
HETATM    7  C3  UNL     1      -3.915   1.253   0.452  1.00  0.00     0.299 C 
BRANCH   7   8
HETATM    8  C2  UNL     1      -3.846   2.570  -0.184  1.00  0.00    -0.007 C 
HETATM    9  C1  UNL     1      -4.967   3.075  -0.751  1.00  0.00     0.008 C 
ENDBRANCH   7   8
ENDBRANCH   6   7
BRANCH   6  10
HETATM   10  C4  UNL     1      -3.142  -0.984   0.451  1.00  0.00     0.299 C 
BRANCH  10  11
HETATM   11  C5  UNL     1      -4.471  -1.571   0.174  1.00  0.00    -0.007 C 
HETATM   12  C6  UNL     1      -4.542  -2.737  -0.440  1.00  0.00     0.008 C 
ENDBRANCH  10  11
ENDBRANCH   6  10
ENDBRANCH   5   6
ENDBRANCH   4   5
ENDBRANCH   1   4
BRANCH   1  13
HETATM   13  N2  UNL     1       2.354  -0.036  -0.657  1.00  0.00    -0.284 N 
HETATM   14  C9  UNL     1       2.564  -1.370  -0.252  1.00  0.00     0.119 C 
HETATM   15  C10 UNL     1       3.621  -1.611   0.753  1.00  0.00     0.103 C 
HETATM   16  N3  UNL     1       4.635  -0.644   0.868  1.00  0.00    -0.391 N 
HETATM   17  C11 UNL     1       5.944  -1.034   0.476  1.00  0.00     0.148 C 
HETATM   18  C12 UNL     1       4.285   0.703   0.624  1.00  0.00     0.142 C 
HETATM   19  C13 UNL     1       3.484   0.825  -0.646  1.00  0.00     0.160 C 
ENDBRANCH   1  13
TORSDOF 8
