REMARK  1 active torsions:
REMARK  status: ('A' for Active; 'I' for Inactive)
REMARK    1  A    between atoms: C2_2  and  C3_3 
REMARK       I    between atoms: N1_6  and  C6_7 
ROOT
HETATM    1  C3  UNL     1      -1.031  -0.001   0.021  1.00  0.00     0.027 C 
HETATM    2  C4  UNL     1      -0.794  -1.493  -0.242  1.00  0.00     0.030 C 
HETATM    3  C5  UNL     1       0.605  -1.645   0.323  1.00  0.00     0.128 C 
HETATM    4  N1  UNL     1       1.227  -0.345   0.192  1.00  0.00    -0.336 N 
HETATM    5  C6  UNL     1       2.529  -0.017   0.605  1.00  0.00     0.330 C 
HETATM    6  N2  UNL     1       3.034   1.292   0.425  1.00  0.00    -0.040 NA
HETATM    7  O1  UNL     1       3.247  -0.892   1.136  1.00  0.00    -0.251 OA
HETATM    8  C7  UNL     1       0.293   0.569  -0.434  1.00  0.00     0.135 C 
ENDROOT
BRANCH   1   9
HETATM    9  C2  UNL     1      -2.176   0.519  -0.720  1.00  0.00    -0.031 C 
HETATM   10  C1  UNL     1      -3.127   1.164  -0.065  1.00  0.00     0.007 C 
ENDBRANCH   1   9
TORSDOF 1
