REMARK  4 active torsions:
REMARK  status: ('A' for Active; 'I' for Inactive)
REMARK    1  A    between atoms: C2_2  and  N1_3 
REMARK    2  A    between atoms: N4_14  and  C7_16 
REMARK    3  A    between atoms: C8_21  and  C9_22 
REMARK    4  A    between atoms: C9_22  and  C10_23 
ROOT
HETATM    1  N1  UNL     1      -4.523   0.613  -0.079  1.00  0.00    -0.283 N 
HETATM    2  C3  UNL     1      -5.121   0.534  -1.274  1.00  0.00     0.328 A 
HETATM    3  O1  UNL     1      -6.348   0.685  -1.513  1.00  0.00    -0.246 OA
HETATM    4  N2  UNL     1      -4.216   0.263  -2.232  1.00  0.00    -0.301 N 
ATOM      5  H2  UNL     1      -4.416   0.153  -3.226  1.00  0.00     0.171 HD
HETATM    6  C4  UNL     1      -3.007   0.162  -1.662  1.00  0.00     0.150 A 
HETATM    7  C5  UNL     1      -1.730  -0.099  -2.156  1.00  0.00     0.290 A 
HETATM    8  O2  UNL     1      -1.561  -0.297  -3.376  1.00  0.00    -0.265 OA
HETATM    9  N3  UNL     1      -0.731  -0.121  -1.248  1.00  0.00    -0.153 N 
ATOM     10  H3  UNL     1       0.215  -0.310  -1.579  1.00  0.00     0.187 HD
HETATM   11  C6  UNL     1      -0.909   0.090   0.058  1.00  0.00     0.701 A 
HETATM   12  N4  UNL     1       0.045   0.070   0.930  1.00  0.00    -0.020 N 
ATOM     13  H4  UNL     1      -0.184   0.243   1.909  1.00  0.00     0.203 HD
HETATM   14  N10 UNL     1      -2.165   0.340   0.496  1.00  0.00    -0.173 N 
ATOM     15  H10 UNL     1      -2.312   0.502   1.492  1.00  0.00     0.186 HD
HETATM   16  C12 UNL     1      -3.211   0.383  -0.316  1.00  0.00     0.160 A 
ENDROOT
BRANCH  12  17
HETATM   17  C7  UNL     1       1.391  -0.181   0.584  1.00  0.00     0.714 A 
HETATM   18  N5  UNL     1       1.971  -1.333   0.925  1.00  0.00    -0.131 N 
HETATM   19  N6  UNL     1       3.231  -1.587   0.611  1.00  0.00    -0.285 N 
ATOM     20  H5  UNL     1       1.433  -2.031   1.438  1.00  0.00     0.205 HD
HETATM   21  C8  UNL     1       3.944  -0.673  -0.065  1.00  0.00     0.101 A 
ATOM     22  H6  UNL     1       3.658  -2.473   0.881  1.00  0.00     0.187 HD
HETATM   23  C11 UNL     1       3.386   0.522  -0.434  1.00  0.00     0.284 A 
HETATM   24  O3  UNL     1       4.078   1.341  -1.057  1.00  0.00    -0.265 OA
HETATM   25  N9  UNL     1       2.097   0.731  -0.088  1.00  0.00    -0.152 N 
ATOM     26  H9  UNL     1       1.651   1.611  -0.348  1.00  0.00     0.187 HD
BRANCH  21  27
HETATM   27  C9  UNL     1       5.357  -0.988  -0.403  1.00  0.00     0.137 C 
BRANCH  27  28
HETATM   28  C10 UNL     1       6.318  -0.284   0.459  1.00  0.00     0.092 C 
HETATM   29  N7  UNL     1       7.173   0.519  -0.066  1.00  0.00    -0.391 N 
ATOM     30  H72 UNL     1       7.164   0.650  -1.078  1.00  0.00     0.157 HD
ATOM     31  H71 UNL     1       7.840   1.007   0.532  1.00  0.00     0.157 HD
HETATM   32  N8  UNL     1       6.331  -0.466   1.865  1.00  0.00    -0.088 NA
ENDBRANCH  27  28
ENDBRANCH  21  27
ENDBRANCH  12  17
BRANCH   1  33
HETATM   33  C2  UNL     1      -5.145   0.890   1.221  1.00  0.00     0.131 C 
HETATM   34  C1  UNL     1      -5.548  -0.444   1.815  1.00  0.00     0.027 C 
ENDBRANCH   1  33
TORSDOF 4
