REMARK  13 active torsions:
REMARK  status: ('A' for Active; 'I' for Inactive)
REMARK    1  A    between atoms: C2_2  and  O1_3 
REMARK    2  A    between atoms: C2_2  and  N1_5 
REMARK    3  A    between atoms: N1_5  and  C3_7 
REMARK    4  A    between atoms: C4_10  and  N3_11 
REMARK    5  A    between atoms: C5_16  and  C6_17 
REMARK       I    between atoms: C6_17  and  N6_19 
REMARK    6  A    between atoms: N6_19  and  N7_21 
REMARK    7  A    between atoms: N7_21  and  C7_23 
REMARK    8  A    between atoms: C7_23  and  C8_27 
REMARK    9  A    between atoms: C10_35  and  C11_36 
REMARK   10  A    between atoms: C11_36  and  O4_37 
REMARK   11  A    between atoms: C11_36  and  C12_39 
REMARK   12  A    between atoms: C12_39  and  O5_40 
REMARK   13  A    between atoms: C12_39  and  O6_42 
ROOT
HETATM    1  N3  UNL     1       0.642  -0.623  -0.171  1.00  0.00    -0.162 N 
HETATM    2  N4  UNL     1       0.004  -1.376   0.674  1.00  0.00    -0.218 N 
ATOM      3  H4  UNL     1       0.442  -1.905   1.429  1.00  0.00     0.210 HD
HETATM    4  N5  UNL     1      -1.289  -1.360   0.418  1.00  0.00    -0.264 N 
ATOM      5  H5  UNL     1      -2.012  -1.867   0.928  1.00  0.00     0.190 HD
HETATM    6  C5  UNL     1      -1.478  -0.560  -0.629  1.00  0.00     0.208 A 
HETATM    7  N11 UNL     1      -0.224  -0.114  -0.976  1.00  0.00    -0.255 N 
ATOM      8  H11 UNL     1      -0.014   0.519  -1.748  1.00  0.00     0.191 HD
ENDROOT
BRANCH   1   9
HETATM    9  C4  UNL     1       2.064  -0.283  -0.132  1.00  0.00     0.169 A 
HETATM   10  N2  UNL     1       2.438   0.985   0.042  1.00  0.00    -0.319 N 
HETATM   11  C3  UNL     1       3.731   1.266   0.262  1.00  0.00     0.148 A 
ATOM     12  H2  UNL     1       1.747   1.735   0.008  1.00  0.00     0.169 HD
HETATM   13  S1  UNL     1       4.449  -0.277   0.228  1.00  0.00    -0.048 SA
HETATM   14  C10 UNL     1       3.017  -1.237  -0.085  1.00  0.00     0.090 A 
BRANCH  11  15
HETATM   15  N1  UNL     1       4.173   2.435   0.406  1.00  0.00    -0.344 N 
ATOM     16  H1  UNL     1       3.371   3.059   0.315  1.00  0.00     0.164 HD
BRANCH  15  17
HETATM   17  C2  UNL     1       5.250   3.226   0.629  1.00  0.00     0.215 C 
HETATM   18  C1  UNL     1       4.751   4.657   0.953  1.00  0.00     0.063 C 
BRANCH  17  19
HETATM   19  O1  UNL     1       6.072   2.851   1.703  1.00  0.00    -0.377 OA
ATOM     20  H1  UNL     1       6.378   1.974   1.504  1.00  0.00     0.212 HD
ENDBRANCH  17  19
ENDBRANCH  15  17
ENDBRANCH  11  15
BRANCH  14  21
HETATM   21  C11 UNL     1       3.021  -2.667  -0.469  1.00  0.00     0.119 C 
BRANCH  21  22
HETATM   22  O4  UNL     1       2.503  -3.071  -1.640  1.00  0.00    -0.359 OA
ATOM     23  H4  UNL     1       2.506  -3.988  -1.886  1.00  0.00     0.217 HD
ENDBRANCH  21  22
BRANCH  21  24
HETATM   24  C12 UNL     1       3.078  -3.701   0.616  1.00  0.00     0.313 C 
BRANCH  24  25
HETATM   25  O5  UNL     1       3.980  -4.702   0.277  1.00  0.00    -0.365 OA
ATOM     26  H5  UNL     1       4.016  -5.357   0.964  1.00  0.00     0.213 HD
ENDBRANCH  24  25
BRANCH  24  27
HETATM   27  O6  UNL     1       1.793  -4.417   0.518  1.00  0.00    -0.365 OA
ATOM     28  H6  UNL     1       1.829  -5.072   1.205  1.00  0.00     0.213 HD
ENDBRANCH  24  27
ENDBRANCH  21  24
ENDBRANCH  14  21
ENDBRANCH   1   9
BRANCH   6  29
HETATM   29  C6  UNL     1      -2.738  -0.191  -1.209  1.00  0.00     0.306 C 
HETATM   30  O2  UNL     1      -2.767   0.439  -2.306  1.00  0.00    -0.262 OA
HETATM   31  N6  UNL     1      -3.974  -0.491  -0.602  1.00  0.00    -0.262 N 
ATOM     32  H6  UNL     1      -3.983  -1.002   0.281  1.00  0.00     0.190 HD
BRANCH  31  33
HETATM   33  N7  UNL     1      -5.186  -0.108  -1.177  1.00  0.00    -0.281 N 
ATOM     34  H7  UNL     1      -5.171   0.241  -2.135  1.00  0.00     0.188 HD
BRANCH  33  35
HETATM   35  C7  UNL     1      -6.422  -0.172  -0.522  1.00  0.00     0.143 C 
HETATM   36  N8  UNL     1      -6.817  -1.256   0.051  1.00  0.00    -0.383 N 
ATOM     37  H82 UNL     1      -6.171  -2.044   0.019  1.00  0.00     0.157 HD
ATOM     38  H81 UNL     1      -7.717  -1.303   0.528  1.00  0.00     0.157 HD
BRANCH  35  39
HETATM   39  C8  UNL     1      -7.350   0.960  -0.476  1.00  0.00     0.115 A 
HETATM   40  C9  UNL     1      -8.588   0.970   0.073  1.00  0.00     0.198 A 
HETATM   41  O3  UNL     1      -9.125   2.171  -0.105  1.00  0.00    -0.234 OA
HETATM   42  N9  UNL     1      -8.295   2.914  -0.734  1.00  0.00     0.026 NA
HETATM   43  N10 UNL     1      -7.171   2.221  -0.995  1.00  0.00    -0.273 N 
ATOM     44  H10 UNL     1      -6.345   2.565  -1.484  1.00  0.00     0.185 HD
ENDBRANCH  35  39
ENDBRANCH  33  35
ENDBRANCH  31  33
ENDBRANCH   6  29
TORSDOF 13
