REMARK  9 active torsions:
REMARK  status: ('A' for Active; 'I' for Inactive)
REMARK    1  A    between atoms: C2_2  and  N1_3 
REMARK    2  A    between atoms: N1_3  and  C3_6 
REMARK    3  A    between atoms: C3_6  and  C4_7 
REMARK    4  A    between atoms: N2_9  and  C6_10 
REMARK    5  A    between atoms: C6_10  and  C7_11 
REMARK    6  A    between atoms: C7_11  and  C8_12 
REMARK    7  A    between atoms: C8_12  and  O1_13 
REMARK    8  A    between atoms: O1_13  and  N3_14 
REMARK    9  A    between atoms: C17_26  and  O2_27 
ROOT
HETATM    1  C4  UNL     1       3.346   0.215  -0.325  1.00  0.00     0.068 C 
HETATM    2  C5  UNL     1       2.110  -0.035   0.524  1.00  0.00     0.281 C 
HETATM    3  N2  UNL     1       0.910   0.359  -0.132  1.00  0.00     0.089 N 
HETATM    4  C15 UNL     1       0.909   0.412  -1.526  1.00  0.00     0.275 C 
HETATM    5  C16 UNL     1       2.016  -0.191  -2.292  1.00  0.00     0.062 C 
HETATM    6  C17 UNL     1       3.179  -0.728  -1.494  1.00  0.00     0.127 C 
ENDROOT
BRANCH   3   7
HETATM    7  C6  UNL     1       0.346   1.494   0.569  1.00  0.00     0.274 C 
BRANCH   7   8
HETATM    8  C7  UNL     1      -0.160   0.995   1.901  1.00  0.00     0.059 C 
BRANCH   8   9
HETATM    9  C8  UNL     1      -1.248  -0.052   1.571  1.00  0.00     0.203 C 
BRANCH   9  10
HETATM   10  O1  UNL     1      -2.277   0.536   0.878  1.00  0.00    -0.276 OA
BRANCH  10  11
HETATM   11  N3  UNL     1      -3.275  -0.229   0.490  1.00  0.00    -0.230 N 
HETATM   12  C9  UNL     1      -3.468  -0.594  -0.929  1.00  0.00     0.161 C 
HETATM   13  C10 UNL     1      -4.919  -0.604  -1.285  1.00  0.00     0.052 C 
HETATM   14  C11 UNL     1      -5.850  -0.176  -0.199  1.00  0.00     0.027 C 
HETATM   15  C12 UNL     1      -7.243  -0.666  -0.544  1.00  0.00     0.038 C 
HETATM   16  C13 UNL     1      -5.865   1.340  -0.118  1.00  0.00     0.038 C 
HETATM   17  N4  UNL     1      -5.520  -0.724   1.095  1.00  0.00    -0.354 N 
HETATM   18  C14 UNL     1      -4.242  -0.737   1.408  1.00  0.00     0.211 C 
ATOM     19  H4  UNL     1      -6.235  -1.080   1.729  1.00  0.00     0.163 HD
HETATM   20  N5  UNL     1      -3.869  -1.255   2.671  1.00  0.00    -0.062 NA
ENDBRANCH  10  11
ENDBRANCH   9  10
ENDBRANCH   8   9
ENDBRANCH   7   8
ENDBRANCH   3   7
BRANCH   1  21
HETATM   21  C3  UNL     1       4.550  -0.031   0.512  1.00  0.00     0.241 C 
BRANCH  21  22
HETATM   22  N1  UNL     1       5.772   0.190  -0.203  1.00  0.00    -0.075 N 
ATOM     23  H12 UNL     1       5.789   1.114  -0.634  1.00  0.00     0.277 HD
ATOM     24  H11 UNL     1       5.817  -0.380  -1.047  1.00  0.00     0.277 HD
BRANCH  22  25
HETATM   25  C2  UNL     1       6.936  -0.022   0.644  1.00  0.00     0.228 C 
HETATM   26  C1  UNL     1       8.174   0.256  -0.181  1.00  0.00     0.034 C 
ENDBRANCH  22  25
ENDBRANCH  21  22
ENDBRANCH   1  21
BRANCH   6  27
HETATM   27  O2  UNL     1       2.788  -1.982  -0.988  1.00  0.00    -0.395 OA
ATOM     28  H2  UNL     1       2.683  -2.575  -1.723  1.00  0.00     0.210 HD
ENDBRANCH   6  27
TORSDOF 9
