REMARK  6 active torsions:
REMARK  status: ('A' for Active; 'I' for Inactive)
REMARK    1  A    between atoms: C2_2  and  C3_3 
REMARK    2  A    between atoms: C16_16  and  N1_17 
REMARK    3  A    between atoms: N1_17  and  C17_19 
REMARK    4  A    between atoms: N2_21  and  O1_23 
REMARK    5  A    between atoms: O1_23  and  C18_24 
REMARK    6  A    between atoms: C22_28  and  O2_29 
ROOT
HETATM    1  C3  UNL     1      -5.238  -0.225   0.252  1.00  0.00    -0.027 C 
HETATM    2  C4  UNL     1      -6.556   0.444   0.698  1.00  0.00     0.019 C 
HETATM    3  C5  UNL     1      -4.256  -0.085   1.377  1.00  0.00     0.013 C 
HETATM    4  C6  UNL     1      -3.528   1.207   1.284  1.00  0.00     0.006 C 
HETATM    5  C7  UNL     1      -2.729   1.365   0.007  1.00  0.00    -0.005 C 
HETATM    6  C8  UNL     1      -3.349   0.660  -1.147  1.00  0.00    -0.009 C 
HETATM    7  C9  UNL     1      -2.622  -0.622  -1.518  1.00  0.00     0.006 C 
HETATM    8  C10 UNL     1      -1.230  -0.276  -1.965  1.00  0.00     0.010 C 
HETATM    9  C11 UNL     1      -0.550   0.723  -1.080  1.00  0.00    -0.036 C 
HETATM   10  C12 UNL     1      -0.289   1.978  -1.833  1.00  0.00     0.016 C 
HETATM   11  C13 UNL     1       0.802   0.143  -0.675  1.00  0.00     0.001 C 
HETATM   12  C14 UNL     1       0.639  -0.897   0.388  1.00  0.00     0.008 C 
HETATM   13  C15 UNL     1       2.024  -1.565   0.509  1.00  0.00     0.025 C 
HETATM   14  C16 UNL     1       2.993  -0.528   0.927  1.00  0.00     0.084 C 
HETATM   15  C20 UNL     1       2.962   0.804   0.243  1.00  0.00     0.032 C 
HETATM   16  C21 UNL     1       1.568   1.287  -0.035  1.00  0.00     0.021 C 
HETATM   17  C22 UNL     1       0.898   1.801   1.189  1.00  0.00     0.123 C 
HETATM   18  C23 UNL     1      -0.593   1.936   1.075  1.00  0.00     0.038 C 
HETATM   19  C24 UNL     1      -1.272   0.928   0.230  1.00  0.00     0.001 C 
HETATM   20  C25 UNL     1      -4.835   0.445  -1.022  1.00  0.00     0.018 C 
ENDROOT
BRANCH  14  21
HETATM   21  N1  UNL     1       4.403  -0.985   0.969  1.00  0.00    -0.361 N 
ATOM     22  H1  UNL     1       4.969  -0.785   1.794  1.00  0.00     0.162 HD
BRANCH  21  23
HETATM   23  C17 UNL     1       4.973  -1.686  -0.102  1.00  0.00     0.192 C 
HETATM   24  S1  UNL     1       4.037  -1.877  -1.515  1.00  0.00    -0.039 SA
HETATM   25  N2  UNL     1       6.213  -2.199  -0.276  1.00  0.00    -0.241 N 
ATOM     26  H2  UNL     1       6.327  -2.680  -1.168  1.00  0.00     0.197 HD
BRANCH  25  27
HETATM   27  O1  UNL     1       7.316  -2.210   0.470  1.00  0.00    -0.279 OA
BRANCH  27  28
HETATM   28  C18 UNL     1       7.970  -0.981   0.028  1.00  0.00     0.197 C 
HETATM   29  C19 UNL     1       9.231  -1.586  -0.604  1.00  0.00     0.036 C 
ENDBRANCH  27  28
ENDBRANCH  25  27
ENDBRANCH  21  23
ENDBRANCH  14  21
BRANCH  17  30
HETATM   30  O2  UNL     1       1.401   3.081   1.451  1.00  0.00    -0.395 OA
ATOM     31  H2  UNL     1       0.973   3.409   2.233  1.00  0.00     0.210 HD
ENDBRANCH  17  30
BRANCH   1  32
HETATM   32  C2  UNL     1      -5.584  -1.652   0.011  1.00  0.00    -0.028 C 
HETATM   33  C1  UNL     1      -6.662  -2.266   0.323  1.00  0.00     0.007 C 
ENDBRANCH   1  32
TORSDOF 6
