REMARK  1 active torsions:
REMARK  status: ('A' for Active; 'I' for Inactive)
REMARK    1  A    between atoms: N2_3  and  C2_5 
ROOT
HETATM    1  N1  UNL     1       2.732   0.071  -0.416  1.00  0.00    -0.097 NA
HETATM    2  C1  UNL     1       1.349  -0.212  -0.232  1.00  0.00     0.185 C 
HETATM    3  N2  UNL     1       0.739  -0.011   0.861  1.00  0.00    -0.383 N 
ATOM      4  H2  UNL     1       1.261   0.372   1.649  1.00  0.00     0.160 HD
ENDROOT
BRANCH   3   5
HETATM    5  C2  UNL     1      -0.648  -0.298   1.035  1.00  0.00     0.082 A 
HETATM    6  C3  UNL     1      -1.683   0.745   0.877  1.00  0.00     0.027 A 
HETATM    7  C4  UNL     1      -1.480  -0.326  -0.198  1.00  0.00     0.027 A 
ENDBRANCH   3   5
TORSDOF 1
