REMARK  2 active torsions:
REMARK  status: ('A' for Active; 'I' for Inactive)
REMARK    1  A    between atoms: O1_1  and  N1_3 
REMARK    2  A    between atoms: C12_16  and  C13_17 
ROOT
HETATM    1  N1  UNL     1      -5.153   0.743  -1.025  1.00  0.00    -0.234 N 
HETATM    2  C1  UNL     1      -4.311   0.830  -2.019  1.00  0.00     0.126 A 
HETATM    3  C2  UNL     1      -2.999   0.617  -1.578  1.00  0.00     0.052 A 
HETATM    4  C3  UNL     1      -3.051   0.390  -0.246  1.00  0.00     0.070 A 
HETATM    5  N2  UNL     1      -2.140   0.128   0.705  1.00  0.00    -0.309 N 
HETATM    6  C4  UNL     1      -2.561  -0.056   2.000  1.00  0.00     0.040 A 
HETATM    7  C5  UNL     1      -3.911   0.027   2.329  1.00  0.00     0.032 A 
HETATM    8  C6  UNL     1      -4.864   0.289   1.398  1.00  0.00     0.037 A 
HETATM    9  C7  UNL     1      -4.483   0.477   0.103  1.00  0.00     0.089 A 
HETATM   10  C8  UNL     1      -1.674  -0.327   3.018  1.00  0.00     0.031 A 
HETATM   11  C9  UNL     1      -0.352  -0.411   2.711  1.00  0.00     0.016 A 
HETATM   12  C10 UNL     1       0.106  -0.233   1.428  1.00  0.00    -0.008 A 
HETATM   13  C11 UNL     1       1.459  -0.331   1.182  1.00  0.00     0.026 A 
HETATM   14  C12 UNL     1       1.936  -0.156  -0.094  1.00  0.00    -0.025 A 
HETATM   15  C19 UNL     1       1.045   0.115  -1.105  1.00  0.00     0.014 A 
HETATM   16  C20 UNL     1      -0.325   0.214  -0.856  1.00  0.00     0.032 A 
HETATM   17  C21 UNL     1      -0.825   0.044   0.402  1.00  0.00     0.050 A 
ENDROOT
BRANCH  14  18
HETATM   18  C13 UNL     1       3.369  -0.264  -0.342  1.00  0.00    -0.026 A 
HETATM   19  C14 UNL     1       3.958   0.481  -1.341  1.00  0.00     0.012 A 
HETATM   20  C15 UNL     1       5.331   0.372  -1.576  1.00  0.00     0.001 A 
HETATM   21  C16 UNL     1       6.122  -0.474  -0.822  1.00  0.00     0.000 A 
HETATM   22  C17 UNL     1       5.512  -1.220   0.184  1.00  0.00     0.001 A 
HETATM   23  C18 UNL     1       4.158  -1.112   0.415  1.00  0.00     0.012 A 
ENDBRANCH  14  18
BRANCH   1  24
HETATM   24  O1  UNL     1      -6.541   0.891  -1.051  1.00  0.00    -0.283 OA
ATOM     25  H1  UNL     1      -7.154   0.828  -0.328  1.00  0.00     0.245 HD
ENDBRANCH   1  24
TORSDOF 2
