REMARK  15 active torsions:
REMARK  status: ('A' for Active; 'I' for Inactive)
REMARK    1  A    between atoms: C2_2  and  N1_3 
REMARK    2  A    between atoms: C5_6  and  C6_7 
REMARK    3  A    between atoms: C6_7  and  C7_9 
REMARK    4  A    between atoms: C7_9  and  N2_10 
REMARK    5  A    between atoms: N2_10  and  C8_12 
REMARK    6  A    between atoms: C8_12  and  C9_13 
REMARK    7  A    between atoms: C9_13  and  C10_14 
REMARK    8  A    between atoms: C10_14  and  C11_15 
REMARK    9  A    between atoms: C11_15  and  C12_16 
REMARK   10  A    between atoms: C12_16  and  C13_17 
REMARK       I    between atoms: N3_20  and  C16_21 
REMARK   11  A    between atoms: C16_21  and  C17_23 
REMARK   12  A    between atoms: C17_23  and  N4_24 
REMARK   13  A    between atoms: C19_26  and  N5_27 
REMARK   14  A    between atoms: C26_34  and  C27_35 
REMARK       I    between atoms: C27_35  and  N6_37 
REMARK   15  A    between atoms: N6_37  and  C28_39 
ROOT
HETATM    1  C13 UNL     1       1.890  -0.172  -1.698  1.00  0.00    -0.012 C 
HETATM    2  C14 UNL     1       1.304  -1.180  -0.753  1.00  0.00     0.024 C 
HETATM    3  C15 UNL     1      -0.174  -1.443  -1.091  1.00  0.00     0.126 C 
HETATM    4  N3  UNL     1      -0.779  -0.126  -1.158  1.00  0.00    -0.351 N 
HETATM    5  C16 UNL     1      -1.685   0.389  -0.221  1.00  0.00     0.239 C 
HETATM    6  O2  UNL     1      -2.134   1.557  -0.385  1.00  0.00    -0.271 OA
HETATM    7  C33 UNL     1      -0.360   0.672  -2.323  1.00  0.00     0.126 C 
HETATM    8  C34 UNL     1       0.940   0.102  -2.855  1.00  0.00     0.024 C 
ENDROOT
BRANCH   5   9
HETATM    9  C17 UNL     1      -2.153  -0.350   0.952  1.00  0.00     0.251 C 
BRANCH   9  10
HETATM   10  N4  UNL     1      -3.418  -0.996   0.775  1.00  0.00    -0.293 N 
HETATM   11  C18 UNL     1      -4.634  -0.423   1.048  1.00  0.00     0.141 A 
HETATM   12  C19 UNL     1      -5.607  -1.348   0.757  1.00  0.00     0.065 A 
HETATM   13  C32 UNL     1      -4.922  -2.453   0.316  1.00  0.00     0.138 A 
HETATM   14  N7  UNL     1      -3.619  -2.207   0.340  1.00  0.00    -0.307 N 
ATOM     15  H7  UNL     1      -2.889  -2.863   0.062  1.00  0.00     0.186 HD
BRANCH  12  16
HETATM   16  N5  UNL     1      -7.051  -1.211   0.888  1.00  0.00    -0.365 N 
HETATM   17  C20 UNL     1      -7.717  -2.351   0.358  1.00  0.00     0.124 C 
HETATM   18  C21 UNL     1      -9.175  -2.502   0.651  1.00  0.00     0.025 C 
HETATM   19  C22 UNL     1      -9.720  -1.726   1.774  1.00  0.00    -0.008 A 
HETATM   20  C23 UNL     1      -9.898  -2.195   3.154  1.00  0.00     0.010 A 
HETATM   21  C24 UNL     1      -8.591  -1.661   2.833  1.00  0.00    -0.008 A 
HETATM   22  C25 UNL     1      -8.200  -0.211   2.839  1.00  0.00     0.040 C 
HETATM   23  C26 UNL     1      -7.460  -0.002   1.503  1.00  0.00     0.177 C 
BRANCH  23  24
HETATM   24  C27 UNL     1      -8.315   0.888   0.681  1.00  0.00     0.241 C 
HETATM   25  O3  UNL     1      -8.718   1.929   1.288  1.00  0.00    -0.271 OA
HETATM   26  N6  UNL     1      -8.703   0.700  -0.641  1.00  0.00    -0.351 N 
ATOM     27  H6  UNL     1      -8.393  -0.128  -1.150  1.00  0.00     0.163 HD
BRANCH  26  28
HETATM   28  C28 UNL     1      -9.546   1.678  -1.297  1.00  0.00     0.022 C 
HETATM   29  C29 UNL     1     -10.873   1.842  -0.571  1.00  0.00     0.037 C 
HETATM   30  C30 UNL     1      -8.884   3.034  -1.342  1.00  0.00     0.037 C 
HETATM   31  C31 UNL     1      -9.867   1.280  -2.722  1.00  0.00     0.037 C 
ENDBRANCH  26  28
ENDBRANCH  23  24
ENDBRANCH  12  16
ENDBRANCH   9  10
ENDBRANCH   5   9
BRANCH   1  32
HETATM   32  C12 UNL     1       2.211   1.148  -1.080  1.00  0.00     0.005 C 
BRANCH  32  33
HETATM   33  C11 UNL     1       3.232   1.040   0.060  1.00  0.00     0.000 C 
BRANCH  33  34
HETATM   34  C10 UNL     1       3.504   2.385   0.647  1.00  0.00     0.002 C 
BRANCH  34  35
HETATM   35  C9  UNL     1       4.431   2.457   1.801  1.00  0.00     0.019 C 
BRANCH  35  36
HETATM   36  C8  UNL     1       5.831   1.998   1.590  1.00  0.00     0.114 C 
BRANCH  36  37
HETATM   37  N2  UNL     1       5.905   0.628   1.242  1.00  0.00    -0.415 N 
ATOM     38  H2  UNL     1       5.073   0.055   1.101  1.00  0.00     0.153 HD
BRANCH  37  39
HETATM   39  C7  UNL     1       7.224   0.106   1.102  1.00  0.00     0.192 C 
BRANCH  39  40
HETATM   40  C6  UNL     1       8.007   0.597  -0.028  1.00  0.00     0.148 C 
HETATM   41  O1  UNL     1       7.511   1.390  -0.842  1.00  0.00    -0.296 OA
BRANCH  40  42
HETATM   42  C5  UNL     1       9.398   0.155  -0.211  1.00  0.00     0.060 C 
HETATM   43  C4  UNL     1      10.074   0.759  -1.417  1.00  0.00     0.042 C 
HETATM   44  C3  UNL     1      11.542   0.341  -1.346  1.00  0.00     0.273 C 
HETATM   45  N1  UNL     1      11.754  -0.565  -0.246  1.00  0.00     0.088 N 
HETATM   46  C36 UNL     1      10.918  -1.735  -0.283  1.00  0.00     0.273 C 
HETATM   47  C35 UNL     1       9.440  -1.344  -0.400  1.00  0.00     0.042 C 
BRANCH  45  48
HETATM   48  C2  UNL     1      13.139  -0.925  -0.151  1.00  0.00     0.268 C 
HETATM   49  C1  UNL     1      13.977   0.275   0.274  1.00  0.00     0.037 C 
ENDBRANCH  45  48
ENDBRANCH  40  42
ENDBRANCH  39  40
ENDBRANCH  37  39
ENDBRANCH  36  37
ENDBRANCH  35  36
ENDBRANCH  34  35
ENDBRANCH  33  34
ENDBRANCH  32  33
ENDBRANCH   1  32
TORSDOF 15
