REMARK  7 active torsions:
REMARK  status: ('A' for Active; 'I' for Inactive)
REMARK    1  A    between atoms: C2_2  and  C3_3 
REMARK    2  A    between atoms: C3_3  and  C4_4 
REMARK    3  A    between atoms: C4_4  and  C5_5 
REMARK    4  A    between atoms: C5_5  and  C6_6 
REMARK    5  A    between atoms: N2_11  and  C8_13 
REMARK    6  A    between atoms: C9_17  and  O2_18 
REMARK    7  A    between atoms: C10_23  and  N6_24 
ROOT
HETATM    1  C8  UNL     1      -2.880  -0.320  -0.375  1.00  0.00     0.339 C 
HETATM    2  N3  UNL     1      -3.955   0.026  -1.308  1.00  0.00    -0.006 N 
ATOM      3  H31 UNL     1      -3.719  -0.275  -2.253  1.00  0.00     0.285 HD
ATOM      4  H32 UNL     1      -3.992   1.035  -1.453  1.00  0.00     0.285 HD
HETATM    5  C9  UNL     1      -5.234  -0.472  -0.930  1.00  0.00     0.440 C 
HETATM    6  N4  UNL     1      -5.488  -0.211   0.446  1.00  0.00    -0.286 N 
ATOM      7  H4  UNL     1      -6.273   0.360   0.760  1.00  0.00     0.180 HD
HETATM    8  N5  UNL     1      -4.594  -0.787   1.321  1.00  0.00    -0.105 NA
HETATM    9  C10 UNL     1      -3.385  -1.257   0.702  1.00  0.00     0.345 C 
ENDROOT
BRANCH   1  10
HETATM   10  N2  UNL     1      -2.306   0.801   0.241  1.00  0.00    -0.337 N 
HETATM   11  C7  UNL     1      -1.128   1.218   0.359  1.00  0.00     0.194 A 
HETATM   12  O1  UNL     1      -0.813   2.347   1.009  1.00  0.00    -0.218 OA
HETATM   13  C11 UNL     1       0.066   0.721  -0.083  1.00  0.00     0.123 A 
HETATM   14  N1  UNL     1       0.448   2.554   0.989  1.00  0.00    -0.261 N 
HETATM   15  C6  UNL     1       1.076   1.576   0.320  1.00  0.00     0.061 A 
ATOM     16  H1  UNL     1       0.912   3.352   1.422  1.00  0.00     0.194 HD
HETATM   17  N7  UNL     1       0.308  -0.455  -0.824  1.00  0.00    -0.096 NA
ATOM     18  H2  UNL     1      -2.993   1.408   0.689  1.00  0.00     0.163 HD
BRANCH  15  19
HETATM   19  C5  UNL     1       2.526   1.399   0.039  1.00  0.00     0.061 C 
BRANCH  19  20
HETATM   20  C4  UNL     1       3.143   0.343   0.909  1.00  0.00     0.006 C 
BRANCH  20  21
HETATM   21  C3  UNL     1       4.616   0.160   0.642  1.00  0.00     0.000 C 
BRANCH  21  22
HETATM   22  C2  UNL     1       4.899  -0.250  -0.773  1.00  0.00    -0.005 C 
HETATM   23  C1  UNL     1       6.387  -0.425  -0.982  1.00  0.00     0.005 C 
ENDBRANCH  21  22
ENDBRANCH  20  21
ENDBRANCH  19  20
ENDBRANCH  15  19
ENDBRANCH   1  10
BRANCH   9  24
HETATM   24  N6  UNL     1      -3.498  -2.627   0.260  1.00  0.00    -0.056 N 
ATOM     25  H63 UNL     1      -4.078  -2.691  -0.577  1.00  0.00     0.276 HD
ATOM     26  H62 UNL     1      -2.612  -2.958  -0.123  1.00  0.00     0.276 HD
ATOM     27  H61 UNL     1      -3.838  -3.258   0.985  1.00  0.00     0.276 HD
ENDBRANCH   9  24
BRANCH   5  28
HETATM   28  O2  UNL     1      -6.190   0.267  -1.666  1.00  0.00    -0.354 OA
ATOM     29  H2  UNL     1      -7.043  -0.065  -1.414  1.00  0.00     0.214 HD
ENDBRANCH   5  28
TORSDOF 7
