REMARK  7 active torsions:
REMARK  status: ('A' for Active; 'I' for Inactive)
REMARK    1  A    between atoms: C2_2  and  N1_3 
REMARK    2  A    between atoms: C2_2  and  N2_7 
REMARK    3  A    between atoms: C3_9  and  C4_10 
REMARK    4  A    between atoms: C4_10  and  N3_11 
REMARK    5  A    between atoms: C4_10  and  C9_28 
REMARK    6  A    between atoms: N4_13  and  C5_15 
REMARK    7  A    between atoms: C7_20  and  N7_21 
ROOT
HETATM    1  N3  UNL     1       0.093  -0.573  -1.095  1.00  0.00    -0.316 N 
ATOM      2  H3  UNL     1       0.849  -1.071  -1.565  1.00  0.00     0.181 HD
HETATM    3  N4  UNL     1      -1.035  -1.088  -1.161  1.00  0.00    -0.296 N 
ATOM      4  H4  UNL     1      -1.108  -1.964  -1.679  1.00  0.00     0.187 HD
ENDROOT
BRANCH   1   5
HETATM    5  C4  UNL     1       0.448   0.646  -0.430  1.00  0.00     0.238 C 
BRANCH   5   6
HETATM    6  C3  UNL     1       1.807   0.480   0.123  1.00  0.00     0.095 C 
HETATM    7  N2  UNL     1       2.686  -0.084  -0.591  1.00  0.00    -0.373 N 
ATOM      8  H2  UNL     1       2.395  -0.394  -1.518  1.00  0.00     0.160 HD
BRANCH   7   9
HETATM    9  C2  UNL     1       4.031  -0.328  -0.233  1.00  0.00     0.277 C 
HETATM   10  C1  UNL     1       4.237   0.216   1.171  1.00  0.00     0.063 C 
BRANCH   9  11
HETATM   11  N1  UNL     1       4.419  -1.717  -0.331  1.00  0.00    -0.059 N 
ATOM     12  H13 UNL     1       5.378  -1.858  -0.015  1.00  0.00     0.276 HD
ATOM     13  H12 UNL     1       3.937  -2.288   0.363  1.00  0.00     0.276 HD
ATOM     14  H11 UNL     1       4.281  -2.082  -1.273  1.00  0.00     0.276 HD
ENDBRANCH   9  11
ENDBRANCH   7   9
ENDBRANCH   5   6
BRANCH   5  15
HETATM   15  C9  UNL     1       0.503   1.804  -1.372  1.00  0.00     0.203 C 
HETATM   16  O2  UNL     1       0.804   2.934  -0.908  1.00  0.00    -0.646 OA
HETATM   17  O3  UNL     1       0.241   1.689  -2.717  1.00  0.00    -0.646 OA
ENDBRANCH   5  15
ENDBRANCH   1   5
BRANCH   3  18
HETATM   18  C5  UNL     1      -2.223  -0.589  -0.595  1.00  0.00     0.158 A 
HETATM   19  C6  UNL     1      -2.454  -0.872   0.747  1.00  0.00     0.165 A 
HETATM   20  N5  UNL     1      -1.523  -1.633   1.506  1.00  0.00    -0.079 NA
HETATM   21  N6  UNL     1      -3.597  -0.384   1.266  1.00  0.00    -0.176 N 
HETATM   22  C7  UNL     1      -4.466   0.336   0.527  1.00  0.00     0.680 A 
ATOM     23  H6  UNL     1      -3.812  -0.564   2.247  1.00  0.00     0.185 HD
HETATM   24  N8  UNL     1      -4.258   0.618  -0.773  1.00  0.00    -0.154 N 
HETATM   25  C8  UNL     1      -3.128   0.151  -1.334  1.00  0.00     0.291 A 
ATOM     26  H8  UNL     1      -4.931   1.164  -1.311  1.00  0.00     0.187 HD
HETATM   27  O1  UNL     1      -2.924   0.410  -2.548  1.00  0.00    -0.265 OA
BRANCH  22  28
HETATM   28  N7  UNL     1      -5.544   0.780   1.067  1.00  0.00    -0.234 N 
ATOM     29  H72 UNL     1      -5.702   0.566   2.052  1.00  0.00     0.174 HD
ATOM     30  H71 UNL     1      -6.201   1.324   0.508  1.00  0.00     0.174 HD
ENDBRANCH  22  28
ENDBRANCH   3  18
TORSDOF 7
