REMARK  13 active torsions:
REMARK  status: ('A' for Active; 'I' for Inactive)
REMARK    1  A    between atoms: C1_2  and  C2_4 
REMARK    2  A    between atoms: C2_4  and  N1_5 
REMARK    3  A    between atoms: C3_6  and  N2_7 
REMARK    4  A    between atoms: C5_11  and  N3_12 
REMARK    5  A    between atoms: C6_15  and  N4_16 
REMARK    6  A    between atoms: C7_17  and  C8_18 
REMARK       I    between atoms: C8_18  and  N5_20 
REMARK    7  A    between atoms: N5_20  and  C9_22 
REMARK    8  A    between atoms: C10_25  and  O8_26 
REMARK    9  A    between atoms: C12_30  and  O9_31 
REMARK   10  A    between atoms: C13_34  and  O10_35 
REMARK   11  A    between atoms: C14_37  and  C15_38 
REMARK   12  A    between atoms: C15_38  and  N8_39 
REMARK   13  A    between atoms: N8_39  and  O11_41 
ROOT
HETATM    1  N4  UNL     1      -0.459   1.162   0.191  1.00  0.00    -0.129 N 
HETATM    2  C7  UNL     1       0.750   1.558   0.593  1.00  0.00     0.177 A 
HETATM    3  C12 UNL     1       0.640   2.915   0.964  1.00  0.00     0.199 A 
HETATM    4  N7  UNL     1      -0.627   3.284   0.771  1.00  0.00    -0.100 N 
HETATM    5  C13 UNL     1      -1.498   4.328   0.870  1.00  0.00     0.194 A 
HETATM    6  C14 UNL     1      -2.723   3.881   0.449  1.00  0.00     0.118 A 
HETATM    7  N9  UNL     1      -2.570   2.564   0.099  1.00  0.00    -0.185 N 
ATOM      8  H9  UNL     1      -3.303   1.950  -0.255  1.00  0.00     0.184 HD
HETATM    9  C16 UNL     1      -1.296   2.225   0.302  1.00  0.00     0.701 A 
ENDROOT
BRANCH   1  10
HETATM   10  C6  UNL     1      -0.814  -0.152  -0.247  1.00  0.00     0.159 A 
HETATM   11  C5  UNL     1      -0.901  -0.502  -1.570  1.00  0.00     0.140 A 
HETATM   12  C4  UNL     1      -1.251  -1.778  -1.974  1.00  0.00     0.093 A 
HETATM   13  C3  UNL     1      -1.533  -2.766  -1.017  1.00  0.00     0.181 A 
HETATM   14  N1  UNL     1      -1.448  -2.415   0.264  1.00  0.00    -0.283 N 
HETATM   15  C17 UNL     1      -1.100  -1.152   0.657  1.00  0.00     0.280 A 
HETATM   16  O12 UNL     1      -1.032  -0.865   1.896  1.00  0.00    -0.265 OA
BRANCH  11  17
HETATM   17  N3  UNL     1      -0.654   0.471  -2.582  1.00  0.00    -0.113 N 
HETATM   18  O5  UNL     1       0.166   1.363  -2.397  1.00  0.00    -0.532 OA
HETATM   19  O6  UNL     1      -1.354   0.386  -3.770  1.00  0.00    -0.532 OA
ENDBRANCH  11  17
BRANCH  13  20
HETATM   20  N2  UNL     1      -1.866  -4.071  -1.443  1.00  0.00    -0.098 N 
HETATM   21  O3  UNL     1      -1.921  -4.267  -2.699  1.00  0.00    -0.531 OA
HETATM   22  O4  UNL     1      -2.140  -5.168  -0.701  1.00  0.00    -0.531 OA
ENDBRANCH  13  20
BRANCH  14  23
HETATM   23  C2  UNL     1      -1.754  -3.363   1.310  1.00  0.00     0.247 C 
BRANCH  23  24
HETATM   24  C1  UNL     1      -0.602  -4.156   1.736  1.00  0.00     0.192 C 
HETATM   25  O1  UNL     1      -0.759  -5.017   2.638  1.00  0.00    -0.647 OA
HETATM   26  O2  UNL     1       0.648  -4.003   1.195  1.00  0.00    -0.647 OA
ENDBRANCH  23  24
ENDBRANCH  14  23
ENDBRANCH   1  10
BRANCH   2  27
HETATM   27  C8  UNL     1       1.979   0.783   0.658  1.00  0.00     0.279 C 
HETATM   28  O7  UNL     1       3.059   1.321   1.086  1.00  0.00    -0.265 OA
HETATM   29  N5  UNL     1       2.058  -0.569   0.263  1.00  0.00    -0.301 N 
ATOM     30  H5  UNL     1       1.225  -1.158   0.264  1.00  0.00     0.171 HD
BRANCH  29  31
HETATM   31  C9  UNL     1       3.227  -1.061  -0.109  1.00  0.00     0.153 A 
HETATM   32  N6  UNL     1       3.509  -2.297  -0.513  1.00  0.00    -0.317 N 
HETATM   33  C10 UNL     1       4.736  -2.583  -0.833  1.00  0.00     0.148 A 
ATOM     34  H6  UNL     1       2.777  -3.005  -0.570  1.00  0.00     0.170 HD
HETATM   35  C11 UNL     1       5.674  -1.591  -0.736  1.00  0.00     0.109 A 
HETATM   36  S1  UNL     1       4.740  -0.274  -0.182  1.00  0.00    -0.061 SA
BRANCH  33  37
HETATM   37  O8  UNL     1       5.135  -3.877  -1.277  1.00  0.00    -0.346 OA
ATOM     38  H8  UNL     1       6.032  -4.086  -1.511  1.00  0.00     0.219 HD
ENDBRANCH  33  37
ENDBRANCH  29  31
ENDBRANCH   2  27
BRANCH   3  39
HETATM   39  O9  UNL     1       1.702   3.683   1.441  1.00  0.00    -0.343 OA
ATOM     40  H9  UNL     1       1.628   4.597   1.691  1.00  0.00     0.219 HD
ENDBRANCH   3  39
BRANCH   5  41
HETATM   41  O10 UNL     1      -1.218   5.602   1.309  1.00  0.00    -0.344 OA
ATOM     42  H10 UNL     1      -1.825   6.330   1.378  1.00  0.00     0.219 HD
ENDBRANCH   5  41
BRANCH   6  43
HETATM   43  C15 UNL     1      -4.008   4.549   0.340  1.00  0.00     0.148 C 
BRANCH  43  44
HETATM   44  N8  UNL     1      -4.307   5.736   0.617  1.00  0.00    -0.278 N 
ATOM     45  H8  UNL     1      -5.293   5.930   0.441  1.00  0.00     0.193 HD
BRANCH  44  46
HETATM   46  O11 UNL     1      -3.673   6.796   1.077  1.00  0.00    -0.290 OA
ATOM     47  H11 UNL     1      -3.899   7.695   1.287  1.00  0.00     0.244 HD
ENDBRANCH  44  46
ENDBRANCH  43  44
ENDBRANCH   6  43
TORSDOF 13
