REMARK  16 active torsions:
REMARK  status: ('A' for Active; 'I' for Inactive)
REMARK    1  A    between atoms: C2_2  and  C4_4 
REMARK    2  A    between atoms: C4_4  and  C26_30 
REMARK    3  A    between atoms: C5_5  and  C6_6 
REMARK    4  A    between atoms: C6_6  and  C7_7 
REMARK    5  A    between atoms: C7_7  and  C8_8 
REMARK    6  A    between atoms: C11_11  and  C12_12 
REMARK    7  A    between atoms: C12_12  and  C13_13 
REMARK    8  A    between atoms: C13_13  and  C15_15 
REMARK    9  A    between atoms: C17_17  and  C18_18 
REMARK   10  A    between atoms: C18_18  and  C19_19 
REMARK   11  A    between atoms: C20_20  and  C22_22 
REMARK   12  A    between atoms: C22_22  and  C23_23 
REMARK   13  A    between atoms: C23_23  and  C24_24 
REMARK   14  A    between atoms: C24_24  and  O2_26 
REMARK   15  A    between atoms: C26_30  and  O5_31 
REMARK   16  A    between atoms: C26_30  and  C27_33 
ROOT
HETATM    1  C8  UNL     1      -2.503  -0.789  -1.099  1.00  0.00     0.114 C 
HETATM    2  C9  UNL     1      -2.943  -0.283  -2.437  1.00  0.00     0.054 C 
HETATM    3  C10 UNL     1      -1.073  -0.394  -0.924  1.00  0.00     0.049 C 
HETATM    4  C11 UNL     1      -0.455  -1.442  -0.416  1.00  0.00     0.087 C 
HETATM    5  O3  UNL     1      -1.448  -2.430  -0.287  1.00  0.00    -0.201 OA
HETATM    6  O4  UNL     1      -2.409  -2.184  -1.187  1.00  0.00    -0.221 OA
ENDROOT
BRANCH   4   7
HETATM    7  C12 UNL     1       0.976  -1.506  -0.078  1.00  0.00     0.105 C 
BRANCH   7   8
HETATM    8  C13 UNL     1       1.209  -1.738   1.358  1.00  0.00    -0.056 C 
HETATM    9  C14 UNL     1       0.232  -1.829   2.222  1.00  0.00     0.020 C 
BRANCH   8  10
HETATM   10  C15 UNL     1       2.590  -1.875   1.857  1.00  0.00    -0.060 C 
HETATM   11  C16 UNL     1       2.796  -2.108   3.285  1.00  0.00     0.048 C 
HETATM   12  C17 UNL     1       3.560  -1.783   0.992  1.00  0.00    -0.016 C 
BRANCH  12  13
HETATM   13  C18 UNL     1       4.995  -1.896   1.323  1.00  0.00     0.055 C 
BRANCH  13  14
HETATM   14  C19 UNL     1       5.608  -0.588   0.900  1.00  0.00    -0.020 C 
HETATM   15  C20 UNL     1       6.556  -0.517   0.008  1.00  0.00    -0.087 C 
HETATM   16  C21 UNL     1       7.080  -1.762  -0.641  1.00  0.00     0.043 C 
BRANCH  15  17
HETATM   17  C22 UNL     1       7.124   0.804  -0.370  1.00  0.00     0.043 C 
BRANCH  17  18
HETATM   18  C23 UNL     1       8.583   0.782  -0.054  1.00  0.00     0.115 C 
BRANCH  18  19
HETATM   19  C24 UNL     1       9.222   2.067  -0.404  1.00  0.00     0.258 C 
HETATM   20  O1  UNL     1       8.517   2.980  -0.897  1.00  0.00    -0.265 OA
BRANCH  19  21
HETATM   21  O2  UNL     1      10.567   2.266  -0.194  1.00  0.00    -0.326 OA
HETATM   22  C25 UNL     1      11.144   3.509  -0.540  1.00  0.00     0.213 C 
ENDBRANCH  19  21
ENDBRANCH  18  19
ENDBRANCH  17  18
ENDBRANCH  15  17
ENDBRANCH  13  14
ENDBRANCH  12  13
ENDBRANCH   8  10
ENDBRANCH   7   8
ENDBRANCH   4   7
BRANCH   1  23
HETATM   23  C7  UNL     1      -3.276  -0.335   0.076  1.00  0.00     0.049 C 
BRANCH  23  24
HETATM   24  C6  UNL     1      -4.712  -0.671   0.174  1.00  0.00     0.031 C 
BRANCH  24  25
HETATM   25  C5  UNL     1      -5.619  -0.201  -0.853  1.00  0.00    -0.016 C 
HETATM   26  C4  UNL     1      -6.588   0.688  -0.782  1.00  0.00    -0.028 C 
BRANCH  26  27
HETATM   27  C2  UNL     1      -7.339   0.941  -2.031  1.00  0.00    -0.063 C 
HETATM   28  C1  UNL     1      -8.312   1.818  -2.079  1.00  0.00     0.019 C 
HETATM   29  C3  UNL     1      -7.013   0.181  -3.273  1.00  0.00     0.048 C 
ENDBRANCH  26  27
BRANCH  26  30
HETATM   30  C26 UNL     1      -6.979   1.394   0.434  1.00  0.00     0.151 C 
BRANCH  30  31
HETATM   31  O5  UNL     1      -5.990   1.583   1.379  1.00  0.00    -0.391 OA
ATOM     32  H5  UNL     1      -6.245   2.043   2.171  1.00  0.00     0.210 HD
ENDBRANCH  30  31
BRANCH  30  33
HETATM   33  C27 UNL     1      -8.264   0.913   1.068  1.00  0.00     0.032 C 
HETATM   34  C28 UNL     1      -8.471   1.794   2.308  1.00  0.00     0.008 C 
ENDBRANCH  30  33
ENDBRANCH  26  30
ENDBRANCH  24  25
ENDBRANCH  23  24
ENDBRANCH   1  23
TORSDOF 16
