REMARK  14 active torsions:
REMARK  status: ('A' for Active; 'I' for Inactive)
REMARK    1  A    between atoms: C2_2  and  C5_5 
REMARK       I    between atoms: C5_5  and  N1_7 
REMARK    2  A    between atoms: N1_7  and  C6_9 
REMARK    3  A    between atoms: C9_12  and  C10_13 
REMARK    4  A    between atoms: C10_13  and  O2_14 
REMARK    5  A    between atoms: O2_14  and  C11_15 
REMARK    6  A    between atoms: C11_15  and  C12_16 
REMARK    7  A    between atoms: C12_16  and  N2_17 
REMARK    8  A    between atoms: N3_20  and  C15_21 
REMARK    9  A    between atoms: C15_21  and  C16_26 
REMARK   10  A    between atoms: N4_22  and  O3_24 
REMARK   11  A    between atoms: C23_33  and  O4_34 
REMARK   12  A    between atoms: O4_34  and  C24_35 
REMARK   13  A    between atoms: C24_35  and  C25_36 
REMARK   14  A    between atoms: C25_36  and  N5_37 
ROOT
HETATM    1  C6  UNL     1      -3.242  -2.775   0.851  1.00  0.00     0.086 C 
HETATM    2  C7  UNL     1      -2.253  -3.226  -0.170  1.00  0.00     0.026 C 
HETATM    3  C8  UNL     1      -1.602  -2.135  -0.943  1.00  0.00     0.011 C 
HETATM    4  C9  UNL     1      -1.181  -1.070   0.039  1.00  0.00     0.038 C 
HETATM    5  C23 UNL     1      -2.382  -0.389   0.525  1.00  0.00     0.129 C 
HETATM    6  C30 UNL     1      -3.133  -1.425   1.387  1.00  0.00     0.057 C 
ENDROOT
BRANCH   4   7
HETATM    7  C10 UNL     1      -0.031  -0.238  -0.476  1.00  0.00     0.174 C 
BRANCH   7   8
HETATM    8  O2  UNL     1      -0.266   0.393  -1.631  1.00  0.00    -0.389 OA
BRANCH   8   9
HETATM    9  C11 UNL     1       0.701   1.215  -2.091  1.00  0.00     0.187 C 
BRANCH   9  10
HETATM   10  C12 UNL     1       2.037   0.661  -2.391  1.00  0.00     0.143 C 
BRANCH  10  11
HETATM   11  N2  UNL     1       2.800   0.096  -1.347  1.00  0.00    -0.407 N 
HETATM   12  C13 UNL     1       3.287   1.026  -0.359  1.00  0.00     0.136 C 
HETATM   13  C14 UNL     1       4.759   1.283  -0.677  1.00  0.00     0.143 C 
HETATM   14  N3  UNL     1       5.479   0.044  -0.398  1.00  0.00    -0.366 N 
HETATM   15  C21 UNL     1       4.646  -1.167  -0.509  1.00  0.00     0.143 C 
HETATM   16  C22 UNL     1       3.746  -0.910  -1.710  1.00  0.00     0.136 C 
BRANCH  14  17
HETATM   17  C15 UNL     1       6.833  -0.044  -0.057  1.00  0.00     0.103 C 
HETATM   18  N4  UNL     1       7.698  -0.405  -0.934  1.00  0.00    -0.257 N 
ATOM     19  H4  UNL     1       8.686  -0.469  -0.687  1.00  0.00     0.195 HD
BRANCH  18  20
HETATM   20  O3  UNL     1       7.282  -0.704  -2.205  1.00  0.00    -0.288 OA
ATOM     21  H3  UNL     1       7.922  -0.971  -2.854  1.00  0.00     0.244 HD
ENDBRANCH  18  20
BRANCH  17  22
HETATM   22  C16 UNL     1       7.295   0.270   1.303  1.00  0.00     0.055 C 
HETATM   23  C17 UNL     1       6.987   1.678   1.750  1.00  0.00     0.012 C 
HETATM   24  C18 UNL     1       7.885   1.834   2.967  1.00  0.00     0.001 C 
HETATM   25  C19 UNL     1       9.173   1.206   2.499  1.00  0.00     0.001 C 
HETATM   26  C20 UNL     1       8.805   0.240   1.417  1.00  0.00     0.012 C 
ENDBRANCH  17  22
ENDBRANCH  14  17
ENDBRANCH  10  11
ENDBRANCH   9  10
ENDBRANCH   8   9
ENDBRANCH   7   8
ENDBRANCH   4   7
BRANCH   5  27
HETATM   27  O4  UNL     1      -2.050   0.655   1.368  1.00  0.00    -0.384 OA
BRANCH  27  28
HETATM   28  C24 UNL     1      -2.752   1.806   1.266  1.00  0.00     0.198 C 
BRANCH  28  29
HETATM   29  C25 UNL     1      -2.667   2.458  -0.084  1.00  0.00     0.298 C 
BRANCH  29  30
HETATM   30  N5  UNL     1      -3.453   3.697  -0.098  1.00  0.00     0.094 N 
HETATM   31  C26 UNL     1      -2.801   4.654   0.770  1.00  0.00     0.298 C 
HETATM   32  C27 UNL     1      -3.271   6.068   0.552  1.00  0.00     0.198 C 
HETATM   33  O5  UNL     1      -3.379   6.380  -0.802  1.00  0.00    -0.388 OA
HETATM   34  C28 UNL     1      -2.724   5.421  -1.590  1.00  0.00     0.198 C 
HETATM   35  C29 UNL     1      -3.524   4.138  -1.475  1.00  0.00     0.298 C 
ENDBRANCH  29  30
ENDBRANCH  28  29
ENDBRANCH  27  28
ENDBRANCH   5  27
BRANCH   1  36
HETATM   36  N1  UNL     1      -4.562  -3.100   0.348  1.00  0.00    -0.356 N 
HETATM   37  C5  UNL     1      -5.345  -4.117   0.953  1.00  0.00     0.225 C 
HETATM   38  O1  UNL     1      -4.891  -4.759   1.955  1.00  0.00    -0.273 OA
ATOM     39  H1  UNL     1      -4.934  -2.590  -0.453  1.00  0.00     0.162 HD
BRANCH  37  40
HETATM   40  C2  UNL     1      -6.697  -4.460   0.445  1.00  0.00     0.030 C 
HETATM   41  C1  UNL     1      -6.650  -4.933  -0.998  1.00  0.00     0.024 C 
HETATM   42  C3  UNL     1      -7.314  -5.578   1.259  1.00  0.00     0.024 C 
HETATM   43  C4  UNL     1      -7.648  -3.274   0.533  1.00  0.00     0.024 C 
ENDBRANCH  37  40
ENDBRANCH   1  36
TORSDOF 14
