REMARK  6 active torsions:
REMARK  status: ('A' for Active; 'I' for Inactive)
REMARK    1  A    between atoms: C2_2  and  C4_4 
REMARK    2  A    between atoms: C5_6  and  C7_8 
REMARK    3  A    between atoms: C16_20  and  C17_21 
REMARK    4  A    between atoms: C17_21  and  O5_22 
REMARK    5  A    between atoms: O5_22  and  C18_23 
REMARK    6  A    between atoms: C22_28  and  O7_29 
ROOT
HETATM    1  C7  UNL     1      -0.318  -0.283  -0.336  1.00  0.00     0.070 C 
HETATM    2  C8  UNL     1      -0.992  -0.075  -1.670  1.00  0.00     0.028 C 
HETATM    3  C9  UNL     1       0.038  -1.717  -0.103  1.00  0.00     0.207 C 
HETATM    4  O2  UNL     1       1.181  -2.127   0.273  1.00  0.00    -0.288 OA
HETATM    5  C10 UNL     1      -1.004  -2.708  -0.322  1.00  0.00     0.206 C 
HETATM    6  O3  UNL     1      -0.797  -3.817  -0.831  1.00  0.00    -0.288 OA
HETATM    7  C11 UNL     1      -2.361  -2.304   0.112  1.00  0.00     0.048 C 
HETATM    8  C12 UNL     1      -2.733  -3.314   1.221  1.00  0.00     0.026 C 
HETATM    9  C13 UNL     1      -3.353  -2.631  -0.996  1.00  0.00     0.026 C 
HETATM   10  C14 UNL     1      -2.470  -0.972   0.653  1.00  0.00     0.151 C 
HETATM   11  O4  UNL     1      -2.430  -0.949   2.070  1.00  0.00    -0.383 OA
HETATM   12  C15 UNL     1      -1.044  -0.706   2.049  1.00  0.00     0.183 C 
HETATM   13  C16 UNL     1      -1.310  -0.006   0.713  1.00  0.00     0.048 C 
ENDROOT
BRANCH   1  14
HETATM   14  C5  UNL     1       0.974   0.454  -0.369  1.00  0.00     0.079 C 
HETATM   15  O1  UNL     1       1.724   0.215   0.795  1.00  0.00    -0.367 OA
HETATM   16  C4  UNL     1       2.945   0.809   0.630  1.00  0.00     0.179 C 
HETATM   17  C22 UNL     1       3.268   0.522  -0.805  1.00  0.00     0.158 C 
HETATM   18  C20 UNL     1       1.899   0.253  -1.466  1.00  0.00     0.049 C 
HETATM   19  C21 UNL     1       2.072  -0.899  -2.307  1.00  0.00     0.016 C 
HETATM   20  C6  UNL     1       0.790   1.995  -0.278  1.00  0.00     0.048 C 
BRANCH  16  21
HETATM   21  C2  UNL     1       3.992   0.269   1.507  1.00  0.00    -0.062 C 
HETATM   22  C1  UNL     1       3.803  -0.638   2.453  1.00  0.00     0.016 C 
HETATM   23  C3  UNL     1       5.385   0.765   1.340  1.00  0.00     0.045 C 
ENDBRANCH  16  21
BRANCH  17  24
HETATM   24  O7  UNL     1       4.008   1.475  -1.436  1.00  0.00    -0.392 OA
ATOM     25  H7  UNL     1       4.213   1.293  -2.346  1.00  0.00     0.210 HD
ENDBRANCH  17  24
ENDBRANCH   1  14
BRANCH  13  26
HETATM   26  C17 UNL     1      -1.907   1.309   1.025  1.00  0.00     0.194 C 
BRANCH  26  27
HETATM   27  O5  UNL     1      -2.642   1.937  -0.009  1.00  0.00    -0.321 OA
BRANCH  27  28
HETATM   28  C18 UNL     1      -3.250   3.159   0.142  1.00  0.00     0.254 C 
HETATM   29  C19 UNL     1      -4.013   3.793  -0.959  1.00  0.00     0.126 C 
HETATM   30  O6  UNL     1      -3.175   3.782   1.233  1.00  0.00    -0.266 OA
ENDBRANCH  27  28
ENDBRANCH  26  27
ENDBRANCH  13  26
TORSDOF 6
