REMARK  2 active torsions:
REMARK  status: ('A' for Active; 'I' for Inactive)
REMARK    1  A    between atoms: C1_2  and  C2_4 
REMARK    2  A    between atoms: C2_4  and  C3_5 
ROOT
HETATM    1  C3  UNL     1       1.123   0.291  -0.069  1.00  0.00     0.045 C 
HETATM    2  C4  UNL     1       1.609   1.665  -0.101  1.00  0.00     0.054 C 
HETATM    3 CL1  UNL     1       3.209   2.245  -0.485  1.00  0.00    -0.085 Cl
HETATM    4  C5  UNL     1       0.668   2.598   0.156  1.00  0.00     0.118 C 
HETATM    5 CL2  UNL     1       1.154   4.264   0.151  1.00  0.00    -0.063 Cl
HETATM    6  N1  UNL     1      -0.695   2.173   0.376  1.00  0.00    -0.374 N 
ATOM      7  H1  UNL     1      -1.274   2.551   1.126  1.00  0.00     0.161 HD
HETATM    8  C6  UNL     1      -1.174   1.171  -0.549  1.00  0.00     0.091 C 
HETATM    9  C7  UNL     1      -2.344   0.378  -0.054  1.00  0.00     0.009 C 
HETATM   10  C8  UNL     1      -2.022  -0.398   1.181  1.00  0.00     0.007 C 
HETATM   11  C9  UNL     1      -1.074  -1.499   0.712  1.00  0.00     0.005 C 
HETATM   12  C10 UNL     1      -0.817  -1.153  -0.729  1.00  0.00    -0.007 C 
HETATM   13  C11 UNL     1      -2.261  -0.752  -1.106  1.00  0.00     0.011 C 
HETATM   14  C12 UNL     1      -0.115   0.174  -0.921  1.00  0.00     0.022 C 
ENDROOT
BRANCH   1  15
HETATM   15  C2  UNL     1       2.059  -0.813  -0.265  1.00  0.00     0.082 C 
BRANCH  15  16
HETATM   16  C1  UNL     1       3.152  -1.066   0.681  1.00  0.00     0.353 C 
HETATM   17  F1  UNL     1       4.098  -0.150   0.918  1.00  0.00    -0.214 F 
HETATM   18  F2  UNL     1       3.851  -2.194   0.177  1.00  0.00    -0.214 F 
ENDBRANCH  15  16
ENDBRANCH   1  15
TORSDOF 2
