REMARK  13 active torsions:
REMARK  status: ('A' for Active; 'I' for Inactive)
REMARK    1  A    between atoms: C2_2  and  O1_3 
REMARK    2  A    between atoms: O1_3  and  C3_4 
REMARK    3  A    between atoms: C5_6  and  N1_7 
REMARK    4  A    between atoms: C11_14  and  N2_15 
REMARK    5  A    between atoms: C12_17  and  C13_19 
REMARK    6  A    between atoms: C13_19  and  C14_20 
REMARK    7  A    between atoms: C14_20  and  N3_21 
REMARK    8  A    between atoms: C16_24  and  C17_25 
REMARK       I    between atoms: C17_25  and  N4_27 
REMARK    9  A    between atoms: N4_27  and  C18_28 
REMARK   10  A    between atoms: C20_30  and  C21_31 
REMARK   11  A    between atoms: N6_37  and  C25_38 
REMARK   12  A    between atoms: C25_38  and  C26_39 
REMARK   13  A    between atoms: C26_39  and  O4_40 
ROOT
HETATM    1  C3  UNL     1      -0.992  -0.570   1.583  1.00  0.00     0.090 A 
HETATM    2  C4  UNL     1      -1.940  -1.558   1.485  1.00  0.00     0.067 A 
HETATM    3  C5  UNL     1      -2.993  -1.405   0.572  1.00  0.00     0.035 A 
HETATM    4  C10 UNL     1      -3.095  -0.244  -0.199  1.00  0.00     0.060 A 
HETATM    5  C11 UNL     1      -2.147   0.775  -0.115  1.00  0.00     0.054 A 
HETATM    6  C16 UNL     1      -1.157   0.547   0.750  1.00  0.00     0.106 A 
ENDROOT
BRANCH   6   7
HETATM    7  C17 UNL     1      -0.094   1.634   0.795  1.00  0.00     0.333 C 
HETATM    8  O3  UNL     1      -0.459   2.824   1.069  1.00  0.00    -0.251 OA
HETATM    9  N4  UNL     1       1.136   1.223   0.473  1.00  0.00    -0.346 NA
BRANCH   9  10
HETATM   10  C18 UNL     1       2.233   0.866   0.247  1.00  0.00     0.201 A 
HETATM   11  C19 UNL     1       2.720   0.525  -1.065  1.00  0.00     0.092 A 
HETATM   12  C20 UNL     1       3.974   0.009  -1.036  1.00  0.00     0.038 A 
HETATM   13  N5  UNL     1       4.290   0.009   0.293  1.00  0.00    -0.299 N 
HETATM   14  N6  UNL     1       3.263   0.510   1.034  1.00  0.00    -0.263 N 
ATOM     15  H5  UNL     1       5.175  -0.321   0.678  1.00  0.00     0.187 HD
BRANCH  12  16
HETATM   16  C21 UNL     1       4.820  -0.367  -2.208  1.00  0.00    -0.007 C 
HETATM   17  C22 UNL     1       6.257  -0.515  -1.827  1.00  0.00     0.021 C 
HETATM   18  C23 UNL     1       4.645   0.771  -3.204  1.00  0.00     0.021 C 
HETATM   19  C24 UNL     1       4.259  -1.615  -2.802  1.00  0.00     0.021 C 
ENDBRANCH  12  16
BRANCH  14  20
HETATM   20  C25 UNL     1       3.386   0.767   2.463  1.00  0.00     0.178 C 
BRANCH  20  21
HETATM   21  C26 UNL     1       4.543   1.596   2.807  1.00  0.00     0.189 C 
BRANCH  21  22
HETATM   22  O4  UNL     1       5.694   0.861   2.578  1.00  0.00    -0.394 OA
HETATM   23  C27 UNL     1       6.879   1.436   2.917  1.00  0.00     0.201 C 
ENDBRANCH  21  22
ENDBRANCH  20  21
ENDBRANCH  14  20
ENDBRANCH   9  10
ENDBRANCH   6   7
BRANCH   1  24
HETATM   24  O1  UNL     1       0.054  -0.636   2.450  1.00  0.00    -0.350 OA
BRANCH  24  25
HETATM   25  C2  UNL     1       0.185  -1.552   3.473  1.00  0.00     0.171 C 
HETATM   26  C1  UNL     1       0.140  -2.962   3.672  1.00  0.00     0.034 C 
ENDBRANCH  24  25
ENDBRANCH   1  24
BRANCH   5  27
HETATM   27  N2  UNL     1      -2.273   2.016  -0.771  1.00  0.00    -0.350 N 
HETATM   28  C12 UNL     1      -3.175   2.637  -1.576  1.00  0.00     0.079 C 
HETATM   29  S1  UNL     1      -2.783   4.305  -1.893  1.00  0.00    -0.065 SA
ATOM     30  H2  UNL     1      -1.465   2.612  -0.593  1.00  0.00     0.166 HD
BRANCH  28  31
HETATM   31  C13 UNL     1      -4.472   2.334  -2.235  1.00  0.00     0.088 C 
BRANCH  31  32
HETATM   32  C14 UNL     1      -5.216   3.691  -2.548  1.00  0.00     0.120 C 
BRANCH  32  33
HETATM   33  N3  UNL     1      -5.444   4.223  -1.246  1.00  0.00    -0.425 N 
HETATM   34  C15 UNL     1      -6.091   5.521  -1.150  1.00  0.00     0.139 C 
ATOM     35  H3  UNL     1      -5.163   3.711  -0.410  1.00  0.00     0.152 HD
ENDBRANCH  32  33
ENDBRANCH  31  32
ENDBRANCH  28  31
ENDBRANCH   5  27
BRANCH   3  36
HETATM   36  N1  UNL     1      -3.720  -2.599   0.176  1.00  0.00    -0.377 N 
HETATM   37  C6  UNL     1      -4.421  -3.507   0.958  1.00  0.00     0.149 C 
HETATM   38  C7  UNL     1      -4.748  -4.713   0.040  1.00  0.00     0.187 C 
HETATM   39  O2  UNL     1      -3.593  -5.217  -0.496  1.00  0.00    -0.388 OA
HETATM   40  C8  UNL     1      -2.901  -4.274  -1.255  1.00  0.00     0.187 C 
HETATM   41  C9  UNL     1      -3.591  -2.934  -1.265  1.00  0.00     0.149 C 
ENDBRANCH   3  36
TORSDOF 13
