REMARK  2 active torsions:
REMARK  status: ('A' for Active; 'I' for Inactive)
REMARK    1  A    between atoms: O1_2  and  C2_3 
REMARK    2  A    between atoms: C2_3  and  C3_5 
REMARK       I    between atoms: N1_8  and  C6_9 
ROOT
HETATM    1  C3  UNL     1       1.162   1.146  -0.732  1.00  0.00     0.065 C 
HETATM    2  C4  UNL     1       0.929   1.192  -2.246  1.00  0.00     0.028 C 
HETATM    3  C5  UNL     1       2.408   0.424  -0.398  1.00  0.00     0.145 C 
HETATM    4  N1  UNL     1       2.286  -0.860   0.199  1.00  0.00    -0.351 N 
HETATM    5  C6  UNL     1       3.401  -1.712   0.269  1.00  0.00     0.215 C 
HETATM    6  C7  UNL     1       3.355  -3.075   0.881  1.00  0.00     0.117 C 
HETATM    7  O3  UNL     1       4.502  -1.328  -0.199  1.00  0.00    -0.274 OA
HETATM    8  C8  UNL     1       1.030  -1.377   0.766  1.00  0.00     0.133 C 
HETATM    9  C9  UNL     1      -0.046  -0.939  -0.241  1.00  0.00     0.036 C 
HETATM   10  C10 UNL     1      -0.091   0.545  -0.141  1.00  0.00     0.015 C 
HETATM   11  C11 UNL     1      -1.316   1.090  -0.804  1.00  0.00     0.036 C 
HETATM   12  C12 UNL     1      -2.502   0.485  -0.095  1.00  0.00     0.019 C 
HETATM   13  C13 UNL     1      -3.740   1.061  -0.800  1.00  0.00     0.037 C 
HETATM   14  C14 UNL     1      -2.599   0.948   1.344  1.00  0.00     0.037 C 
HETATM   15  N2  UNL     1      -2.516  -0.910  -0.269  1.00  0.00    -0.405 N 
ATOM     16  H2  UNL     1      -3.369  -1.386  -0.562  1.00  0.00     0.154 HD
HETATM   17  C15 UNL     1      -1.338  -1.638  -0.034  1.00  0.00     0.024 C 
HETATM   18  C16 UNL     1      -1.375  -2.834  -1.004  1.00  0.00     0.038 C 
HETATM   19  C17 UNL     1      -1.402  -2.279   1.346  1.00  0.00     0.038 C 
ENDROOT
BRANCH   1  20
HETATM   20  C2  UNL     1       1.320   2.561  -0.301  1.00  0.00     0.269 C 
HETATM   21  O2  UNL     1       1.258   3.528  -1.102  1.00  0.00    -0.264 OA
BRANCH  20  22
HETATM   22  O1  UNL     1       1.550   2.885   1.036  1.00  0.00    -0.326 OA
HETATM   23  C1  UNL     1       1.701   4.253   1.441  1.00  0.00     0.213 C 
ENDBRANCH  20  22
ENDBRANCH   1  20
TORSDOF 2
