REMARK  2 active torsions:
REMARK  status: ('A' for Active; 'I' for Inactive)
REMARK       I    between atoms: N1_2  and  C3_4 
REMARK    1  A    between atoms: C3_4  and  C4_6 
REMARK    2  A    between atoms: C8_10  and  O2_11 
ROOT
HETATM    1  C4  UNL     1       2.433   0.179   0.607  1.00  0.00     0.086 C 
HETATM    2  C5  UNL     1       1.744  -0.306  -0.646  1.00  0.00     0.049 C 
HETATM    3  C6  UNL     1       0.466  -0.336   0.160  1.00  0.00    -0.068 C 
HETATM    4  C7  UNL     1      -0.794  -0.191  -0.165  1.00  0.00     0.013 C 
HETATM    5  C8  UNL     1      -1.119   0.058  -1.607  1.00  0.00     0.153 C 
HETATM    6  C9  UNL     1      -2.573   0.192  -1.887  1.00  0.00     0.046 C 
HETATM    7  C10 UNL     1      -3.308   1.022  -0.867  1.00  0.00    -0.032 A 
HETATM    8  C11 UNL     1      -4.703   1.428  -1.293  1.00  0.00     0.016 C 
HETATM    9  C12 UNL     1      -2.581   2.033  -0.055  1.00  0.00     0.021 A 
HETATM   10  C13 UNL     1      -3.019   0.716   0.523  1.00  0.00     0.062 A 
HETATM   11  C14 UNL     1      -1.919  -0.263   0.801  1.00  0.00     0.196 C 
HETATM   12  O3  UNL     1      -1.412   0.056   2.059  1.00  0.00    -0.349 OA
HETATM   13  C15 UNL     1      -2.243  -0.613   2.941  1.00  0.00     0.198 C 
HETATM   14  C16 UNL     1      -2.511  -1.905   2.208  1.00  0.00     0.198 C 
HETATM   15  O4  UNL     1      -2.383  -1.573   0.888  1.00  0.00    -0.349 OA
HETATM   16  C17 UNL     1       1.341  -0.588   1.339  1.00  0.00     0.049 C 
ENDROOT
BRANCH   5  17
HETATM   17  O2  UNL     1      -0.646  -1.060  -2.306  1.00  0.00    -0.391 OA
ATOM     18  H2  UNL     1      -0.852  -0.902  -3.220  1.00  0.00     0.210 HD
ENDBRANCH   5  17
BRANCH   1  19
HETATM   19  C3  UNL     1       3.777  -0.374   0.734  1.00  0.00     0.223 C 
HETATM   20  N1  UNL     1       4.760  -0.099  -0.245  1.00  0.00    -0.360 N 
HETATM   21  C1  UNL     1       4.427   0.732  -1.363  1.00  0.00     0.152 C 
HETATM   22  C2  UNL     1       6.111  -0.641  -0.146  1.00  0.00     0.152 C 
HETATM   23  O1  UNL     1       4.110  -1.107   1.704  1.00  0.00    -0.273 OA
ENDBRANCH   1  19
TORSDOF 2
