REMARK  16 active torsions:
REMARK  status: ('A' for Active; 'I' for Inactive)
REMARK    1  A    between atoms: C2_2  and  C3_3 
REMARK    2  A    between atoms: C6_7  and  O2_8 
REMARK    3  A    between atoms: O2_8  and  C7_9 
REMARK    4  A    between atoms: C10_13  and  O4_14 
REMARK    5  A    between atoms: O4_14  and  C11_15 
REMARK    6  A    between atoms: C11_15  and  C13_17 
REMARK    7  A    between atoms: C13_17  and  S1_18 
REMARK    8  A    between atoms: S1_18  and  C14_19 
REMARK    9  A    between atoms: C16_22  and  O6_23 
REMARK   10  A    between atoms: C17_25  and  O7_26 
REMARK   11  A    between atoms: C18_28  and  O8_29 
REMARK   12  A    between atoms: C19_31  and  O9_32 
REMARK   13  A    between atoms: C19_31  and  C20_34 
REMARK   14  A    between atoms: C20_34  and  O10_35 
REMARK   15  A    between atoms: C21_37  and  O11_38 
REMARK   16  A    between atoms: C22_40  and  O12_41 
ROOT
HETATM    1  C7  UNL     1      -1.877  -1.348  -0.421  1.00  0.00     0.195 C 
HETATM    2  C8  UNL     1      -0.983  -0.791  -1.498  1.00  0.00     0.153 C 
HETATM    3  C9  UNL     1      -0.920   0.699  -1.534  1.00  0.00     0.042 C 
HETATM    4  O3  UNL     1       0.298  -1.256  -1.218  1.00  0.00    -0.350 OA
HETATM    5  C10 UNL     1       0.400  -1.316   0.163  1.00  0.00     0.305 C 
HETATM    6  C19 UNL     1      -0.962  -1.564   0.737  1.00  0.00     0.157 C 
ENDROOT
BRANCH   5   7
HETATM    7  O4  UNL     1       1.340  -2.276   0.519  1.00  0.00    -0.321 OA
BRANCH   7   8
HETATM    8  C11 UNL     1       2.672  -2.129   0.076  1.00  0.00     0.050 C 
HETATM    9  C12 UNL     1       3.598  -2.719   0.804  1.00  0.00     0.047 C 
BRANCH   8  10
HETATM   10  C13 UNL     1       3.003  -1.359  -1.124  1.00  0.00     0.140 C 
BRANCH  10  11
HETATM   11  S1  UNL     1       4.741  -1.162  -1.419  1.00  0.00    -0.128 SA
BRANCH  11  12
HETATM   12  C14 UNL     1       5.568   0.083  -0.421  1.00  0.00     0.214 C 
HETATM   13  O5  UNL     1       5.575  -0.220   0.892  1.00  0.00    -0.370 OA
HETATM   14  C15 UNL     1       6.765   0.009   1.567  1.00  0.00     0.203 C 
HETATM   15  C16 UNL     1       7.266   1.382   1.173  1.00  0.00     0.173 C 
HETATM   16  C17 UNL     1       7.759   1.285  -0.253  1.00  0.00     0.181 C 
HETATM   17  C18 UNL     1       6.956   0.266  -1.016  1.00  0.00     0.188 C 
BRANCH  15  18
HETATM   18  O6  UNL     1       8.312   1.753   2.041  1.00  0.00    -0.391 OA
ATOM     19  H6  UNL     1       8.626   2.615   1.794  1.00  0.00     0.210 HD
ENDBRANCH  15  18
BRANCH  16  20
HETATM   20  O7  UNL     1       7.746   2.527  -0.900  1.00  0.00    -0.390 OA
ATOM     21  H7  UNL     1       8.056   2.466  -1.796  1.00  0.00     0.210 HD
ENDBRANCH  16  20
BRANCH  17  22
HETATM   22  O8  UNL     1       6.782   0.747  -2.312  1.00  0.00    -0.389 OA
ATOM     23  H8  UNL     1       7.649   0.861  -2.684  1.00  0.00     0.210 HD
ENDBRANCH  17  22
ENDBRANCH  11  12
ENDBRANCH  10  11
ENDBRANCH   8  10
ENDBRANCH   7   8
ENDBRANCH   5   7
BRANCH   6  24
HETATM   24  O9  UNL     1      -1.007  -2.899   1.189  1.00  0.00    -0.380 OA
ATOM     25  H9  UNL     1      -0.424  -3.037   1.927  1.00  0.00     0.211 HD
ENDBRANCH   6  24
BRANCH   6  26
HETATM   26  C20 UNL     1      -1.291  -0.708   1.936  1.00  0.00     0.210 C 
BRANCH  26  27
HETATM   27  O10 UNL     1      -1.289   0.643   1.668  1.00  0.00    -0.398 OA
ATOM     28  H10 UNL     1      -1.496   1.182   2.423  1.00  0.00     0.209 HD
ENDBRANCH  26  27
ENDBRANCH   6  26
BRANCH   1  29
HETATM   29  O2  UNL     1      -2.917  -0.486  -0.191  1.00  0.00    -0.347 OA
BRANCH  29  30
HETATM   30  C6  UNL     1      -4.162  -1.021  -0.446  1.00  0.00     0.291 C 
HETATM   31  O1  UNL     1      -4.948  -1.175   0.673  1.00  0.00    -0.357 OA
HETATM   32  C5  UNL     1      -5.420  -0.060   1.272  1.00  0.00     0.186 C 
HETATM   33  C3  UNL     1      -5.610   1.165   0.439  1.00  0.00     0.023 C 
HETATM   34  C4  UNL     1      -4.567   2.226   0.813  1.00  0.00     0.024 C 
HETATM   35  C22 UNL     1      -5.598   0.927  -1.039  1.00  0.00     0.165 C 
HETATM   36  C21 UNL     1      -4.963  -0.335  -1.494  1.00  0.00     0.203 C 
BRANCH  33  37
HETATM   37  C2  UNL     1      -6.941   1.735   0.777  1.00  0.00    -0.023 C 
HETATM   38  C1  UNL     1      -8.025   0.989   0.879  1.00  0.00     0.008 C 
ENDBRANCH  33  37
BRANCH  35  39
HETATM   39  O12 UNL     1      -6.901   1.015  -1.586  1.00  0.00    -0.392 OA
ATOM     40  H12 UNL     1      -6.893   0.864  -2.524  1.00  0.00     0.210 HD
ENDBRANCH  35  39
BRANCH  36  41
HETATM   41  O11 UNL     1      -4.289  -0.089  -2.681  1.00  0.00    -0.388 OA
ATOM     42  H11 UNL     1      -4.801   0.349  -3.351  1.00  0.00     0.210 HD
ENDBRANCH  36  41
ENDBRANCH  29  30
ENDBRANCH   1  29
TORSDOF 16
