REMARK  1 active torsions:
REMARK  status: ('A' for Active; 'I' for Inactive)
REMARK    1  A    between atoms: N1_1  and  C1_4 
ROOT
HETATM    1  C1  UNL     1       1.895  -2.156  -0.305  1.00  0.00     0.113 A 
HETATM    2  N2  UNL     1       0.594  -2.210   0.043  1.00  0.00    -0.327 N 
ATOM      3  H2  UNL     1       0.192  -3.136   0.191  1.00  0.00     0.169 HD
HETATM    4  C2  UNL     1      -0.192  -1.193   0.207  1.00  0.00     0.123 A 
HETATM    5  C3  UNL     1      -1.584  -1.130   0.501  1.00  0.00     0.029 C 
HETATM    6  C4  UNL     1      -2.079  -0.951   1.787  1.00  0.00     0.017 C 
HETATM    7  C5  UNL     1      -2.043   0.201   2.582  1.00  0.00     0.004 C 
HETATM    8  C6  UNL     1      -2.363   1.513   2.602  1.00  0.00     0.044 C 
HETATM    9  C7  UNL     1      -1.817   2.529   1.661  1.00  0.00     0.143 C 
HETATM   10  F1  UNL     1      -1.841   3.804   1.812  1.00  0.00    -0.204 F 
HETATM   11  C8  UNL     1      -1.298   1.836   0.614  1.00  0.00     0.098 A 
HETATM   12  C9  UNL     1      -0.289   1.164   0.321  1.00  0.00     0.254 A 
HETATM   13  N3  UNL     1       0.435   0.097  -0.013  1.00  0.00    -0.303 N 
HETATM   14  C10 UNL     1       1.675   0.222  -0.351  1.00  0.00     0.052 A 
HETATM   15  C11 UNL     1       2.254   1.494  -0.560  1.00  0.00     0.031 A 
HETATM   16  C12 UNL     1       3.560   1.641  -0.914  1.00  0.00     0.002 A 
HETATM   17  C13 UNL     1       4.341   0.524  -1.074  1.00  0.00     0.001 A 
HETATM   18  C14 UNL     1       3.781  -0.738  -0.871  1.00  0.00     0.017 A 
HETATM   19  C15 UNL     1       2.464  -0.927  -0.512  1.00  0.00     0.035 A 
HETATM   20  N4  UNL     1      -1.691   1.166  -0.260  1.00  0.00    -0.301 N 
HETATM   21  C16 UNL     1      -2.448   0.530  -1.080  1.00  0.00     0.128 A 
HETATM   22  N5  UNL     1      -3.195   0.741  -2.085  1.00  0.00    -0.345 N 
ATOM     23  H5  UNL     1      -3.219   1.695  -2.444  1.00  0.00     0.167 HD
HETATM   24  C17 UNL     1      -3.924  -0.123  -2.697  1.00  0.00     0.140 A 
HETATM   25  S1  UNL     1      -3.556  -1.515  -1.758  1.00  0.00    -0.080 SA
HETATM   26  C18 UNL     1      -2.489  -0.947  -0.627  1.00  0.00     0.064 A 
ENDROOT
BRANCH   1  27
HETATM   27  N1  UNL     1       2.571  -3.220  -0.438  1.00  0.00    -0.385 N 
ATOM     28  H12 UNL     1       2.147  -4.135  -0.284  1.00  0.00     0.157 HD
ATOM     29  H11 UNL     1       3.556  -3.179  -0.701  1.00  0.00     0.157 HD
ENDBRANCH   1  27
TORSDOF 1
