REMARK  4 active torsions:
REMARK  status: ('A' for Active; 'I' for Inactive)
REMARK    1  A    between atoms: N1_1  and  C1_5 
REMARK    2  A    between atoms: C1_5  and  C2_6 
REMARK    3  A    between atoms: C2_6  and  C3_7 
REMARK    4  A    between atoms: C3_7  and  N2_8 
ROOT
HETATM    1  N2  UNL     1       0.577  -0.281  -0.182  1.00  0.00    -0.196 NA
HETATM    2  C4  UNL     1       1.019  -0.596   1.125  1.00  0.00     0.234 C 
HETATM    3  N3  UNL     1       2.331   0.065   1.276  1.00  0.00    -0.350 N 
ATOM      4  H3  UNL     1       2.626   0.409   2.190  1.00  0.00     0.163 HD
HETATM    5  C5  UNL     1       3.108   0.209   0.249  1.00  0.00     0.202 C 
HETATM    6  N4  UNL     1       4.383   0.839   0.337  1.00  0.00    -0.062 NA
HETATM    7  N5  UNL     1       2.658  -0.287  -1.000  1.00  0.00    -0.262 N 
ATOM      8  H5  UNL     1       3.242  -0.185  -1.830  1.00  0.00     0.186 HD
HETATM    9  N6  UNL     1       1.423  -0.912  -1.093  1.00  0.00    -0.044 NA
ENDROOT
BRANCH   1  10
HETATM   10  C3  UNL     1      -0.771  -0.479  -0.520  1.00  0.00     0.115 C 
BRANCH  10  11
HETATM   11  C2  UNL     1      -1.736   0.452   0.168  1.00  0.00     0.043 C 
BRANCH  11  12
HETATM   12  C1  UNL     1      -3.140   0.094  -0.325  1.00  0.00     0.231 C 
BRANCH  12  13
HETATM   13  N1  UNL     1      -4.139   0.932   0.272  1.00  0.00    -0.079 N 
ATOM     14  H13 UNL     1      -4.085   0.909   1.290  1.00  0.00     0.274 HD
ATOM     15  H12 UNL     1      -3.933   1.920   0.125  1.00  0.00     0.274 HD
ATOM     16  H11 UNL     1      -5.075   0.693  -0.057  1.00  0.00     0.274 HD
ENDBRANCH  12  13
ENDBRANCH  11  12
ENDBRANCH  10  11
ENDBRANCH   1  10
TORSDOF 4
