REMARK  7 active torsions:
REMARK  status: ('A' for Active; 'I' for Inactive)
REMARK    1  A    between atoms: O1_2  and  C2_3 
REMARK    2  A    between atoms: C2_3  and  C3_5 
REMARK    3  A    between atoms: C3_5  and  C4_6 
REMARK    4  A    between atoms: C4_6  and  C5_7 
REMARK    5  A    between atoms: C8_11  and  O3_12 
REMARK    6  A    between atoms: N3_21  and  N4_23 
REMARK       I    between atoms: N4_23  and  C15_25 
REMARK    7  A    between atoms: C15_25  and  C16_27 
ROOT
HETATM    1  C3  UNL     1       1.007  -1.007  -1.306  1.00  0.00     0.105 C 
HETATM    2  N3  UNL     1       2.193  -0.677  -1.437  1.00  0.00    -0.296 N 
ATOM      3  H3  UNL     1       2.544  -0.907  -2.367  1.00  0.00     0.187 HD
ENDROOT
BRANCH   1   4
HETATM    4  C2  UNL     1       0.329  -1.640  -2.452  1.00  0.00     0.307 C 
HETATM    5  O2  UNL     1       0.944  -1.839  -3.522  1.00  0.00    -0.258 OA
BRANCH   4   6
HETATM    6  O1  UNL     1      -1.002  -2.016  -2.335  1.00  0.00    -0.322 OA
HETATM    7  C1  UNL     1      -1.688  -2.633  -3.438  1.00  0.00     0.213 C 
ENDBRANCH   4   6
ENDBRANCH   1   4
BRANCH   1   8
HETATM    8  C4  UNL     1       0.210  -0.808  -0.074  1.00  0.00     0.106 C 
BRANCH   8   9
HETATM    9  C5  UNL     1      -0.938   0.086  -0.286  1.00  0.00    -0.024 A 
HETATM   10  C6  UNL     1      -1.022   0.957  -1.359  1.00  0.00     0.101 A 
HETATM   11  N1  UNL     1      -2.081   1.768  -1.527  1.00  0.00    -0.341 N 
HETATM   12  C7  UNL     1      -2.184   2.689  -2.643  1.00  0.00     0.158 C 
HETATM   13  C8  UNL     1      -3.111   1.768  -0.656  1.00  0.00     0.153 A 
HETATM   14  C9  UNL     1      -3.083   0.919   0.435  1.00  0.00     0.028 A 
HETATM   15  C10 UNL     1      -4.108   0.879   1.352  1.00  0.00     0.034 A 
HETATM   16  C14 UNL     1      -1.980   0.075   0.611  1.00  0.00     0.002 A 
HETATM   17  C11 UNL     1      -4.118   0.047   2.451  1.00  0.00     0.091 A 
HETATM   18  N2  UNL     1      -3.046  -0.756   2.601  1.00  0.00    -0.370 N 
HETATM   19  C12 UNL     1      -2.945  -1.685   3.726  1.00  0.00     0.154 C 
HETATM   20  C13 UNL     1      -2.017  -0.752   1.728  1.00  0.00     0.102 A 
BRANCH  13  21
HETATM   21  O3  UNL     1      -4.222   2.601  -0.811  1.00  0.00    -0.345 OA
ATOM     22  H3  UNL     1      -4.947   2.601  -0.198  1.00  0.00     0.219 HD
ENDBRANCH  13  21
ENDBRANCH   8   9
ENDBRANCH   1   8
BRANCH   2  23
HETATM   23  N4  UNL     1       3.148  -0.094  -0.679  1.00  0.00    -0.265 N 
HETATM   24  C15 UNL     1       4.200  -0.737  -0.007  1.00  0.00     0.277 C 
HETATM   25  O4  UNL     1       4.305  -1.987  -0.082  1.00  0.00    -0.265 OA
ATOM     26  H4  UNL     1       3.099   0.921  -0.585  1.00  0.00     0.190 HD
BRANCH  24  27
HETATM   27  C16 UNL     1       5.190   0.039   0.788  1.00  0.00     0.075 A 
HETATM   28  C17 UNL     1       5.202   1.404   0.963  1.00  0.00     0.026 A 
HETATM   29  C18 UNL     1       6.208   1.887   1.725  1.00  0.00     0.028 A 
HETATM   30  C19 UNL     1       7.099   1.021   2.242  1.00  0.00     0.052 A 
HETATM   31 BR1  UNL     1       8.634   1.382   3.353  1.00  0.00    -0.043 Br
HETATM   32  S1  UNL     1       6.543  -0.491   1.670  1.00  0.00    -0.077 SA
ENDBRANCH  24  27
ENDBRANCH   2  23
TORSDOF 7
