REMARK  8 active torsions:
REMARK  status: ('A' for Active; 'I' for Inactive)
REMARK    1  A    between atoms: N1_2  and  C2_4 
REMARK    2  A    between atoms: C3_7  and  N3_8 
REMARK    3  A    between atoms: N3_8  and  C4_10 
REMARK    4  A    between atoms: C7_15  and  N5_16 
REMARK    5  A    between atoms: N5_16  and  C8_18 
REMARK    6  A    between atoms: C13_23  and  N6_24 
REMARK    7  A    between atoms: N6_24  and  C14_26 
REMARK    8  A    between atoms: C15_33  and  O1_34 
ROOT
HETATM    1  N5  UNL     1      -0.507   0.367  -0.241  1.00  0.00    -0.218 N 
ATOM      2  H5  UNL     1      -0.865   1.319  -0.161  1.00  0.00     0.178 HD
ENDROOT
BRANCH   1   3
HETATM    3  C7  UNL     1       0.775   0.173  -0.188  1.00  0.00     0.707 A 
HETATM    4  N4  UNL     1       1.640   1.190  -0.032  1.00  0.00    -0.021 N 
HETATM    5  C3  UNL     1       2.982   1.025   0.028  1.00  0.00     0.707 A 
ATOM      6  H4  UNL     1       1.265   2.136   0.045  1.00  0.00     0.203 HD
HETATM    7  N2  UNL     1       3.447  -0.218  -0.076  1.00  0.00    -0.022 N 
HETATM    8  C2  UNL     1       2.637  -1.285  -0.235  1.00  0.00     0.706 A 
ATOM      9  H2  UNL     1       4.455  -0.370  -0.034  1.00  0.00     0.203 HD
HETATM   10  N10 UNL     1       1.315  -1.057  -0.287  1.00  0.00    -0.022 N 
ATOM     11  H10 UNL     1       0.689  -1.854  -0.407  1.00  0.00     0.203 HD
BRANCH   5  12
HETATM   12  N3  UNL     1       3.780   2.027   0.180  1.00  0.00    -0.221 N 
ATOM     13  H3  UNL     1       3.386   2.965   0.256  1.00  0.00     0.178 HD
BRANCH  12  14
HETATM   14  C4  UNL     1       5.202   1.865   0.245  1.00  0.00     0.091 C 
HETATM   15  C5  UNL     1       5.875   3.122   0.804  1.00  0.00     0.032 C 
HETATM   16  C6  UNL     1       5.839   1.623  -1.108  1.00  0.00     0.032 C 
ENDBRANCH  12  14
ENDBRANCH   5  12
BRANCH   8  17
HETATM   17  N1  UNL     1       3.152  -2.464  -0.330  1.00  0.00    -0.229 N 
HETATM   18  C1  UNL     1       2.376  -3.653  -0.499  1.00  0.00     0.165 C 
ATOM     19  H1  UNL     1       4.167  -2.553  -0.282  1.00  0.00     0.177 HD
ENDBRANCH   8  17
ENDBRANCH   1   3
BRANCH   1  20
HETATM   20  C8  UNL     1      -1.429  -0.700  -0.407  1.00  0.00     0.122 C 
HETATM   21  C9  UNL     1      -1.701  -1.486   0.854  1.00  0.00     0.028 C 
HETATM   22  C10 UNL     1      -2.324  -2.794   0.360  1.00  0.00     0.002 C 
HETATM   23  C11 UNL     1      -3.599  -2.530  -0.337  1.00  0.00     0.002 C 
HETATM   24  C12 UNL     1      -3.696  -1.327  -1.189  1.00  0.00     0.027 C 
HETATM   25  C13 UNL     1      -2.787  -0.182  -0.872  1.00  0.00     0.106 C 
BRANCH  25  26
HETATM   26  N6  UNL     1      -3.308   0.764   0.081  1.00  0.00    -0.365 N 
ATOM     27  H6  UNL     1      -2.836   0.912   0.973  1.00  0.00     0.161 HD
BRANCH  26  28
HETATM   28  C14 UNL     1      -4.485   1.487  -0.238  1.00  0.00     0.171 A 
HETATM   29  N7  UNL     1      -5.253   1.487  -1.339  1.00  0.00    -0.268 N 
HETATM   30  N8  UNL     1      -6.259   2.351  -1.185  1.00  0.00    -0.239 N 
ATOM     31  H7  UNL     1      -5.092   0.914  -2.167  1.00  0.00     0.190 HD
HETATM   32  N9  UNL     1      -6.194   2.931  -0.023  1.00  0.00    -0.262 N 
ATOM     33  H8  UNL     1      -6.980   2.532  -1.883  1.00  0.00     0.208 HD
HETATM   34  C15 UNL     1      -5.116   2.427   0.592  1.00  0.00     0.202 A 
ATOM     35  H9  UNL     1      -6.837   3.631   0.347  1.00  0.00     0.190 HD
BRANCH  34  36
HETATM   36  O1  UNL     1      -4.677   2.770   1.853  1.00  0.00    -0.342 OA
ATOM     37  H1  UNL     1      -5.104   3.406   2.415  1.00  0.00     0.219 HD
ENDBRANCH  34  36
ENDBRANCH  26  28
ENDBRANCH  25  26
ENDBRANCH   1  20
TORSDOF 8
