REMARK  1 active torsions:
REMARK  status: ('A' for Active; 'I' for Inactive)
REMARK       I    between atoms: C1_4  and  N3_6 
REMARK    1  A    between atoms: N3_6  and  N4_8 
ROOT
HETATM    1  N4  UNL     1      -0.312  -0.216   1.262  1.00  0.00    -0.268 N 
ATOM      2  H4  UNL     1      -0.464   0.160   2.198  1.00  0.00     0.190 HD
HETATM    3  C2  UNL     1       0.781   0.095   0.659  1.00  0.00     0.204 A 
HETATM    4  N5  UNL     1       1.251  -0.277  -0.634  1.00  0.00    -0.289 N 
ATOM      5  H5  UNL     1       0.751  -0.876  -1.290  1.00  0.00     0.172 HD
HETATM    6  C3  UNL     1       2.526   0.315  -0.872  1.00  0.00     0.316 A 
HETATM    7  O1  UNL     1       3.247   0.205  -1.913  1.00  0.00    -0.262 OA
HETATM    8  C4  UNL     1       2.852   1.081   0.320  1.00  0.00     0.316 A 
HETATM    9  O2  UNL     1       3.908   1.758   0.503  1.00  0.00    -0.262 OA
HETATM   10  N6  UNL     1       1.779   0.931   1.232  1.00  0.00    -0.289 N 
ATOM     11  H6  UNL     1       1.729   1.357   2.157  1.00  0.00     0.172 HD
ENDROOT
BRANCH   1  12
HETATM   12  N3  UNL     1      -1.296  -1.029   0.722  1.00  0.00    -0.271 N 
HETATM   13  C1  UNL     1      -2.223  -0.586  -0.276  1.00  0.00     0.200 C 
HETATM   14  N1  UNL     1      -2.354  -1.312  -1.333  1.00  0.00    -0.372 N 
HETATM   15  N2  UNL     1      -2.962   0.614  -0.091  1.00  0.00    -0.062 NA
ATOM     16  H12 UNL     1      -3.014  -0.997  -2.044  1.00  0.00     0.158 HD
ATOM     17  H11 UNL     1      -1.824  -2.173  -1.466  1.00  0.00     0.158 HD
ATOM     18  H3  UNL     1      -1.363  -1.992   1.052  1.00  0.00     0.189 HD
ENDBRANCH   1  12
TORSDOF 1
