REMARK  2 active torsions:
REMARK  status: ('A' for Active; 'I' for Inactive)
REMARK    1  A    between atoms: N3_4  and  C2_6 
REMARK    2  A    between atoms: C2_6  and  N4_7 
ROOT
HETATM    1  C2  UNL     1       0.483  -0.443  -0.493  1.00  0.00     0.360 C 
HETATM    2  N5  UNL     1       1.049  -0.552   0.842  1.00  0.00    -0.285 N 
ATOM      3  H5  UNL     1       0.686  -1.097   1.624  1.00  0.00     0.169 HD
HETATM    4  C3  UNL     1       2.226   0.269   0.827  1.00  0.00     0.326 C 
HETATM    5  O1  UNL     1       3.181   0.160   1.654  1.00  0.00    -0.247 OA
HETATM    6  N6  UNL     1       2.104   1.184  -0.255  1.00  0.00    -0.274 N 
ATOM      7  H6  UNL     1       2.782   1.897  -0.524  1.00  0.00     0.173 HD
HETATM    8  C4  UNL     1       0.857   0.919  -0.894  1.00  0.00     0.304 C 
HETATM    9  O2  UNL     1       0.269   1.748  -1.636  1.00  0.00    -0.266 OA
ENDROOT
BRANCH   1  10
HETATM   10  N3  UNL     1      -0.897  -0.730  -0.530  1.00  0.00    -0.309 N 
HETATM   11  C1  UNL     1      -1.850  -0.122   0.039  1.00  0.00     0.200 C 
HETATM   12  N1  UNL     1      -1.677   1.024   0.863  1.00  0.00    -0.067 NA
HETATM   13  N2  UNL     1      -3.173  -0.608  -0.152  1.00  0.00    -0.067 NA
ATOM     14  H3  UNL     1      -1.164  -1.538  -1.092  1.00  0.00     0.166 HD
ENDBRANCH   1  10
BRANCH   1  15
HETATM   15  N4  UNL     1       1.179  -1.454  -1.301  1.00  0.00    -0.024 N 
ATOM     16  H43 UNL     1       0.966  -2.408  -1.008  1.00  0.00     0.280 HD
ATOM     17  H42 UNL     1       0.815  -1.518  -2.252  1.00  0.00     0.280 HD
ATOM     18  H41 UNL     1       2.177  -1.246  -1.274  1.00  0.00     0.280 HD
ENDBRANCH   1  15
TORSDOF 2
