REMARK  2 active torsions:
REMARK  status: ('A' for Active; 'I' for Inactive)
REMARK    1  A    between atoms: C2_2  and  N1_4 
REMARK    2  A    between atoms: N1_4  and  C4_6 
REMARK       I    between atoms: N3_9  and  C5_10 
ROOT
HETATM    1  C4  UNL     1       0.154  -0.306   0.576  1.00  0.00     0.188 C 
HETATM    2  N2  UNL     1      -0.918   0.429   0.456  1.00  0.00    -0.259 N 
ATOM      3  H2  UNL     1      -0.855   1.434   0.619  1.00  0.00     0.190 HD
HETATM    4  N3  UNL     1      -2.143  -0.127   0.111  1.00  0.00    -0.147 N 
HETATM    5  C5  UNL     1      -3.223   0.680  -0.390  1.00  0.00     0.222 C 
HETATM    6  N4  UNL     1      -3.069   1.339  -1.468  1.00  0.00    -0.371 N 
ATOM      7  H41 UNL     1      -3.835   1.911  -1.823  1.00  0.00     0.158 HD
ATOM      8  H42 UNL     1      -2.180   1.289  -1.966  1.00  0.00     0.158 HD
HETATM    9  N5  UNL     1      -4.452   0.749   0.299  1.00  0.00    -0.061 NA
HETATM   10  N6  UNL     1      -2.356  -1.484   0.242  1.00  0.00     0.006 NA
HETATM   11  N7  UNL     1      -1.212  -2.253  -0.006  1.00  0.00    -0.245 N 
ATOM     12  H7  UNL     1      -1.298  -3.174  -0.436  1.00  0.00     0.187 HD
HETATM   13  C6  UNL     1       0.076  -1.745   0.345  1.00  0.00     0.303 C 
HETATM   14  O1  UNL     1       1.070  -2.512   0.444  1.00  0.00    -0.263 OA
ENDROOT
BRANCH   1  15
HETATM   15  N1  UNL     1       1.412   0.260   0.930  1.00  0.00    -0.367 N 
ATOM     16  H1  UNL     1       1.643   0.328   1.921  1.00  0.00     0.161 HD
BRANCH  15  17
HETATM   17  C2  UNL     1       2.375   0.740  -0.019  1.00  0.00     0.075 C 
HETATM   18  C1  UNL     1       2.854  -0.310  -0.971  1.00  0.00     0.031 C 
HETATM   19  C3  UNL     1       3.528   1.361   0.698  1.00  0.00     0.031 C 
ENDBRANCH  15  17
ENDBRANCH   1  15
TORSDOF 2
