REMARK  4 active torsions:
REMARK  status: ('A' for Active; 'I' for Inactive)
REMARK    1  A    between atoms: S1_3  and  C2_4 
REMARK    2  A    between atoms: N2_5  and  O1_6 
REMARK    3  A    between atoms: N3_8  and  N4_9 
REMARK    4  A    between atoms: N5_13  and  N6_15 
ROOT
HETATM    1  N1  UNL     1       5.023   0.962  -0.626  1.00  0.00    -0.184 NA
HETATM    2  C1  UNL     1       4.206   0.152  -0.863  1.00  0.00     0.141 C 
HETATM    3  S1  UNL     1       3.008  -1.079  -1.234  1.00  0.00     0.031 SA
ENDROOT
BRANCH   3   4
HETATM    4  C2  UNL     1       1.404  -0.606  -0.630  1.00  0.00     0.221 A 
HETATM    5  N2  UNL     1       1.174   0.478  -0.017  1.00  0.00    -0.101 N 
HETATM    6  N3  UNL     1      -0.102   0.850   0.462  1.00  0.00     0.005 N 
HETATM    7  C3  UNL     1      -1.202  -0.028   0.251  1.00  0.00     0.749 A 
HETATM    8  N5  UNL     1      -2.390   0.288   0.681  1.00  0.00    -0.134 N 
HETATM    9  N7  UNL     1      -0.982  -1.254  -0.434  1.00  0.00    -0.126 N 
ATOM     10  H5  UNL     1      -2.516   1.174   1.170  1.00  0.00     0.205 HD
HETATM   11  N8  UNL     1       0.324  -1.513  -0.860  1.00  0.00    -0.261 N 
ATOM     12  H7  UNL     1      -1.741  -1.913  -0.606  1.00  0.00     0.206 HD
ATOM     13  H8  UNL     1       0.514  -2.384  -1.355  1.00  0.00     0.190 HD
BRANCH   5  14
HETATM   14  O1  UNL     1       2.180   1.359   0.216  1.00  0.00    -0.264 OA
ATOM     15  H1  UNL     1       2.007   2.172   0.676  1.00  0.00     0.247 HD
ENDBRANCH   5  14
BRANCH   6  16
HETATM   16  N4  UNL     1      -0.307   2.060   1.135  1.00  0.00    -0.307 N 
ATOM     17  H42 UNL     1       0.481   2.689   1.286  1.00  0.00     0.179 HD
ATOM     18  H41 UNL     1      -1.228   2.329   1.481  1.00  0.00     0.179 HD
ENDBRANCH   6  16
BRANCH   8  19
HETATM   19  N6  UNL     1      -3.487  -0.535   0.499  1.00  0.00    -0.331 N 
ATOM     20  H62 UNL     1      -3.343  -1.418   0.008  1.00  0.00     0.177 HD
ATOM     21  H61 UNL     1      -4.417  -0.288   0.836  1.00  0.00     0.177 HD
ENDBRANCH   8  19
ENDBRANCH   3   4
TORSDOF 4
