REMARK  1 active torsions:
REMARK  status: ('A' for Active; 'I' for Inactive)
REMARK       I    between atoms: N1_5  and  C4_6 
REMARK       I    between atoms: C4_6  and  N2_7 
REMARK       I    between atoms: C4_6  and  N3_11 
REMARK    1  A    between atoms: N3_11  and  N4_12 
ROOT
HETATM    1  C1  UNL     1      -2.890  -0.426   0.178  1.00  0.00     0.081 C 
HETATM    2  C2  UNL     1      -1.502   0.145   0.397  1.00  0.00     0.196 C 
HETATM    3  C3  UNL     1      -1.626   1.653   0.286  1.00  0.00     0.081 C 
HETATM    4  O1  UNL     1      -0.601  -0.315  -0.559  1.00  0.00    -0.234 OA
HETATM    5  N1  UNL     1       0.624  -0.541  -0.075  1.00  0.00     0.001 NA
HETATM    6  C4  UNL     1       1.667  -0.387  -1.068  1.00  0.00     0.425 C 
HETATM    7  N2  UNL     1       1.634   0.955  -1.573  1.00  0.00    -0.043 N 
ATOM      8  H21 UNL     1       2.369   1.063  -2.272  1.00  0.00     0.278 HD
ATOM      9  H22 UNL     1       1.698   1.652  -0.831  1.00  0.00     0.278 HD
ATOM     10  H23 UNL     1       0.715   1.213  -1.931  1.00  0.00     0.278 HD
HETATM   11  N3  UNL     1       2.935  -0.586  -0.388  1.00  0.00    -0.095 NA
HETATM   12  O2  UNL     1       0.619  -1.831   0.402  1.00  0.00    -0.146 OA
HETATM   13  S1  UNL     1      -0.581  -1.820   1.639  1.00  0.00     0.328 S 
HETATM   14  O3  UNL     1      -1.738  -2.675   1.140  1.00  0.00    -0.195 OA
HETATM   15  O4  UNL     1      -1.129  -0.187   1.693  1.00  0.00    -0.232 OA
ENDROOT
BRANCH  11  16
HETATM   16  N4  UNL     1       3.146   0.316   0.629  1.00  0.00    -0.345 N 
ATOM     17  H42 UNL     1       2.472   1.043   0.868  1.00  0.00     0.172 HD
ATOM     18  H41 UNL     1       4.036   0.176   1.107  1.00  0.00     0.172 HD
ENDBRANCH  11  16
TORSDOF 1
