REMARK  5 active torsions:
REMARK  status: ('A' for Active; 'I' for Inactive)
REMARK    1  A    between atoms: N1_1  and  C1_4 
REMARK    2  A    between atoms: C4_12  and  N4_13 
REMARK    3  A    between atoms: N4_13  and  O2_14 
REMARK    4  A    between atoms: N4_13  and  C5_16 
REMARK    5  A    between atoms: C5_16  and  C6_17 
ROOT
HETATM    1  C1  UNL     1      -4.116  -0.093  -1.068  1.00  0.00     0.680 A 
HETATM    2  N2  UNL     1      -4.245   0.427   0.167  1.00  0.00    -0.154 N 
ATOM      3  H2  UNL     1      -5.183   0.581   0.537  1.00  0.00     0.187 HD
HETATM    4  C2  UNL     1      -3.193   0.751   0.931  1.00  0.00     0.290 A 
HETATM    5  O1  UNL     1      -3.299   1.237   2.087  1.00  0.00    -0.265 OA
HETATM    6  C3  UNL     1      -1.916   0.533   0.410  1.00  0.00     0.162 A 
HETATM    7  N3  UNL     1      -0.687   0.738   0.891  1.00  0.00    -0.180 N 
ATOM      8  H3  UNL     1      -0.465   1.125   1.808  1.00  0.00     0.184 HD
HETATM    9  C4  UNL     1       0.208   0.350  -0.033  1.00  0.00     0.706 A 
HETATM   10  N9  UNL     1      -0.455  -0.103  -1.106  1.00  0.00    -0.172 N 
ATOM     11  H9  UNL     1      -0.035  -0.463  -1.963  1.00  0.00     0.186 HD
HETATM   12  C7  UNL     1      -1.771   0.001  -0.854  1.00  0.00     0.169 A 
HETATM   13  N10 UNL     1      -2.886  -0.304  -1.574  1.00  0.00    -0.174 N 
ATOM     14  H10 UNL     1      -2.788  -0.698  -2.510  1.00  0.00     0.186 HD
ENDROOT
BRANCH   9  15
HETATM   15  N4  UNL     1       1.607   0.435   0.164  1.00  0.00    -0.083 N 
BRANCH  15  16
HETATM   16  O2  UNL     1       2.287   1.547  -0.190  1.00  0.00    -0.274 OA
ATOM     17  H2  UNL     1       3.226   1.604  -0.058  1.00  0.00     0.245 HD
ENDBRANCH  15  16
BRANCH  15  18
HETATM   18  C5  UNL     1       2.333  -0.671   0.749  1.00  0.00     0.254 C 
BRANCH  18  19
HETATM   19  C6  UNL     1       3.777  -0.373   0.865  1.00  0.00     0.134 A 
HETATM   20  N5  UNL     1       4.396   0.197   1.901  1.00  0.00    -0.271 N 
HETATM   21  N6  UNL     1       5.705   0.295   1.622  1.00  0.00    -0.227 N 
ATOM     22  H5  UNL     1       3.948   0.507   2.763  1.00  0.00     0.190 HD
HETATM   23  N7  UNL     1       5.854  -0.220   0.416  1.00  0.00    -0.227 N 
ATOM     24  H6  UNL     1       6.434   0.686   2.219  1.00  0.00     0.210 HD
HETATM   25  N8  UNL     1       4.685  -0.640  -0.076  1.00  0.00    -0.271 N 
ATOM     26  H7  UNL     1       6.745  -0.288  -0.076  1.00  0.00     0.210 HD
ATOM     27  H8  UNL     1       4.520  -1.075  -0.984  1.00  0.00     0.190 HD
ENDBRANCH  18  19
ENDBRANCH  15  18
ENDBRANCH   9  15
BRANCH   1  28
HETATM   28  N1  UNL     1      -5.165  -0.397  -1.787  1.00  0.00    -0.234 N 
ATOM     29  H12 UNL     1      -6.097  -0.237  -1.404  1.00  0.00     0.174 HD
ATOM     30  H11 UNL     1      -5.067  -0.791  -2.723  1.00  0.00     0.174 HD
ENDBRANCH   1  28
TORSDOF 5
