REMARK  1 active torsions:
REMARK  status: ('A' for Active; 'I' for Inactive)
REMARK    1  A    between atoms: N3_5  and  C2_6 
ROOT
HETATM    1  N1  UNL     1      -4.036  -0.568   0.069  1.00  0.00    -0.075 NA
HETATM    2  C1  UNL     1      -2.740   0.007   0.148  1.00  0.00     0.202 A 
HETATM    3  N2  UNL     1      -1.546  -0.583  -0.025  1.00  0.00    -0.260 N 
ATOM      4  H2  UNL     1      -1.430  -1.572  -0.247  1.00  0.00     0.190 HD
HETATM    5  N3  UNL     1      -0.537   0.260   0.124  1.00  0.00    -0.175 N 
HETATM    6  N5  UNL     1      -1.107   1.445   0.405  1.00  0.00    -0.240 N 
ATOM      7  H5  UNL     1      -0.597   2.311   0.577  1.00  0.00     0.192 HD
HETATM    8  C7  UNL     1      -2.445   1.325   0.427  1.00  0.00     0.304 A 
HETATM    9  O1  UNL     1      -3.282   2.238   0.658  1.00  0.00    -0.263 OA
ENDROOT
BRANCH   5  10
HETATM   10  C2  UNL     1       0.857   0.007   0.017  1.00  0.00     0.145 A 
HETATM   11  C3  UNL     1       1.328  -1.058  -0.706  1.00  0.00     0.052 A 
HETATM   12  C4  UNL     1       2.696  -1.327  -0.825  1.00  0.00     0.005 A 
HETATM   13  C5  UNL     1       3.572  -0.490  -0.192  1.00  0.00     0.017 A 
HETATM   14  C6  UNL     1       3.086   0.575   0.532  1.00  0.00     0.090 A 
HETATM   15  N4  UNL     1       1.741   0.805   0.624  1.00  0.00    -0.350 N 
ATOM     16  H4  UNL     1       1.406   1.601   1.166  1.00  0.00     0.166 HD
ENDBRANCH   5  10
TORSDOF 1
