REMARK  2 active torsions:
REMARK  status: ('A' for Active; 'I' for Inactive)
REMARK    1  A    between atoms: O1_1  and  S1_3 
REMARK    2  A    between atoms: S1_3  and  C1_4 
ROOT
HETATM    1  C1  UNL     1       0.971  -0.568  -0.198  1.00  0.00     0.150 A 
HETATM    2  N1  UNL     1      -0.042  -1.454  -0.159  1.00  0.00    -0.286 N 
ATOM      3  H1  UNL     1       0.153  -2.454  -0.216  1.00  0.00     0.188 HD
HETATM    4  N2  UNL     1      -1.288  -1.029  -0.047  1.00  0.00    -0.250 N 
ATOM      5  H2  UNL     1      -2.047  -1.710  -0.017  1.00  0.00     0.191 HD
HETATM    6  C2  UNL     1      -1.579   0.291   0.029  1.00  0.00     0.340 A 
HETATM    7  O2  UNL     1      -2.776   0.683   0.135  1.00  0.00    -0.245 OA
HETATM    8  N3  UNL     1      -0.609   1.223  -0.005  1.00  0.00    -0.296 N 
ATOM      9  H3  UNL     1      -0.824   2.218   0.053  1.00  0.00     0.171 HD
HETATM   10  C3  UNL     1       0.651   0.784  -0.118  1.00  0.00     0.141 A 
HETATM   11  S2  UNL     1       1.905   1.828  -0.169  1.00  0.00    -0.057 SA
ENDROOT
BRANCH   1  12
HETATM   12  S1  UNL     1       2.487  -1.044  -0.332  1.00  0.00     0.049 SA
BRANCH  12  13
HETATM   13  O1  UNL     1       3.149  -1.212   0.830  1.00  0.00    -0.324 OA
ATOM     14  H1  UNL     1       4.052  -1.496   0.750  1.00  0.00     0.228 HD
ENDBRANCH  12  13
ENDBRANCH   1  12
TORSDOF 2
