REMARK  6 active torsions:
REMARK  status: ('A' for Active; 'I' for Inactive)
REMARK    1  A    between atoms: C4_4  and  C5_5 
REMARK    2  A    between atoms: C5_5  and  C6_6 
REMARK    3  A    between atoms: C13_14  and  N1_15 
REMARK       I    between atoms: N1_15  and  C14_17 
REMARK    4  A    between atoms: C14_17  and  C15_19 
REMARK    5  A    between atoms: C15_19  and  N2_20 
REMARK       I    between atoms: N2_20  and  C16_22 
REMARK       I    between atoms: C16_22  and  N3_24 
REMARK    6  A    between atoms: N3_24  and  C17_26 
ROOT
HETATM    1  C6  UNL     1      -3.316   0.084  -0.112  1.00  0.00    -0.013 C 
HETATM    2  C7  UNL     1      -4.424   1.064  -0.303  1.00  0.00     0.177 C 
HETATM    3  O1  UNL     1      -4.085   2.164  -1.075  1.00  0.00    -0.385 OA
HETATM    4  C8  UNL     1      -3.490   1.901  -2.272  1.00  0.00     0.124 C 
HETATM    5  C9  UNL     1      -3.847   0.585  -2.895  1.00  0.00     0.037 C 
HETATM    6  C10 UNL     1      -2.978  -0.548  -2.446  1.00  0.00    -0.009 C 
HETATM    7  C11 UNL     1      -3.397  -1.073  -1.101  1.00  0.00     0.016 C 
HETATM    8  C12 UNL     1      -1.514  -0.218  -2.405  1.00  0.00     0.035 C 
HETATM    9  C13 UNL     1      -1.336   0.938  -1.443  1.00  0.00     0.036 C 
HETATM   10  C22 UNL     1      -2.017   2.118  -2.160  1.00  0.00     0.062 C 
HETATM   11  C23 UNL     1      -1.953   0.728  -0.105  1.00  0.00     0.043 C 
ENDROOT
BRANCH   9  12
HETATM   12  N1  UNL     1       0.042   1.301  -1.270  1.00  0.00    -0.350 N 
HETATM   13  C14 UNL     1       1.056   0.458  -0.790  1.00  0.00     0.236 C 
HETATM   14  O2  UNL     1       0.771  -0.722  -0.477  1.00  0.00    -0.272 OA
ATOM     15  H1  UNL     1       0.307   2.254  -1.517  1.00  0.00     0.163 HD
BRANCH  13  16
HETATM   16  C15 UNL     1       2.470   0.877  -0.627  1.00  0.00     0.227 C 
BRANCH  16  17
HETATM   17  N2  UNL     1       3.300  -0.176  -0.120  1.00  0.00    -0.334 N 
HETATM   18  C16 UNL     1       4.681  -0.002   0.114  1.00  0.00     0.316 C 
HETATM   19  O3  UNL     1       5.219   1.096  -0.122  1.00  0.00    -0.247 OA
HETATM   20  N3  UNL     1       5.453  -1.069   0.613  1.00  0.00    -0.339 N 
ATOM     21  H3  UNL     1       4.984  -1.955   0.799  1.00  0.00     0.164 HD
ATOM     22  H2  UNL     1       2.878  -1.083   0.079  1.00  0.00     0.164 HD
BRANCH  20  23
HETATM   23  C17 UNL     1       6.853  -0.982   0.873  1.00  0.00     0.086 C 
HETATM   24  C18 UNL     1       7.685  -0.576  -0.329  1.00  0.00     0.025 C 
HETATM   25  C19 UNL     1       9.075  -0.440   0.320  1.00  0.00     0.002 C 
HETATM   26  C20 UNL     1       8.805  -0.066   1.762  1.00  0.00     0.002 C 
HETATM   27  C21 UNL     1       7.276   0.023   1.889  1.00  0.00     0.025 C 
ENDBRANCH  20  23
ENDBRANCH  16  17
ENDBRANCH  13  16
ENDBRANCH   9  12
BRANCH   1  28
HETATM   28  C5  UNL     1      -3.476  -0.551   1.266  1.00  0.00     0.039 C 
BRANCH  28  29
HETATM   29  C4  UNL     1      -4.775  -1.252   1.388  1.00  0.00    -0.024 C 
HETATM   30  C2  UNL     1      -5.700  -0.981   2.300  1.00  0.00    -0.091 C 
HETATM   31  C1  UNL     1      -5.556   0.077   3.338  1.00  0.00     0.042 C 
HETATM   32  C3  UNL     1      -6.983  -1.753   2.334  1.00  0.00     0.042 C 
ENDBRANCH  28  29
ENDBRANCH   1  28
TORSDOF 6
