REMARK  1 active torsions:
REMARK  status: ('A' for Active; 'I' for Inactive)
REMARK    1  A    between atoms: C1_2  and  C2_4 
ROOT
HETATM    1  C2  UNL     1       1.175   0.254  -0.479  1.00  0.00     0.115 A 
HETATM    2  C3  UNL     1       0.846  -1.052  -0.772  1.00  0.00     0.124 A 
HETATM    3  N2  UNL     1      -0.395  -1.516  -0.554  1.00  0.00    -0.347 N 
ATOM      4  H2  UNL     1      -0.623  -2.485  -0.776  1.00  0.00     0.167 HD
HETATM    5  C4  UNL     1      -1.351  -0.691  -0.036  1.00  0.00     0.154 A 
HETATM    6  N3  UNL     1      -2.635  -0.889   0.273  1.00  0.00    -0.291 N 
ATOM      7  H3  UNL     1      -3.147  -1.764   0.161  1.00  0.00     0.172 HD
HETATM    8  C5  UNL     1      -3.137   0.258   0.756  1.00  0.00     0.327 A 
HETATM    9  O2  UNL     1      -4.314   0.492   1.162  1.00  0.00    -0.247 OA
HETATM   10  N4  UNL     1      -2.154   1.177   0.747  1.00  0.00    -0.291 N 
ATOM     11  H4  UNL     1      -2.245   2.144   1.059  1.00  0.00     0.172 HD
HETATM   12  C6  UNL     1      -1.033   0.618   0.261  1.00  0.00     0.155 A 
HETATM   13  N5  UNL     1       0.229   1.054   0.029  1.00  0.00    -0.334 N 
ATOM     14  H5  UNL     1       0.466   2.022   0.248  1.00  0.00     0.168 HD
ENDROOT
BRANCH   1  15
HETATM   15  C1  UNL     1       2.524   0.740  -0.721  1.00  0.00     0.282 C 
HETATM   16  N1  UNL     1       3.486  -0.138  -1.256  1.00  0.00    -0.056 NA
HETATM   17  O1  UNL     1       2.881   1.920  -0.474  1.00  0.00    -0.269 OA
ENDBRANCH   1  15
TORSDOF 1
