REMARK  3 active torsions:
REMARK  status: ('A' for Active; 'I' for Inactive)
REMARK    1  A    between atoms: N1_1  and  C1_4 
REMARK    2  A    between atoms: C2_9  and  N4_10 
REMARK    3  A    between atoms: C3_13  and  N5_14 
ROOT
HETATM    1  C1  UNL     1      -1.430   0.054   0.055  1.00  0.00     0.151 A 
HETATM    2  N2  UNL     1      -1.356  -1.284   0.047  1.00  0.00    -0.282 N 
ATOM      3  H2  UNL     1      -2.162  -1.908   0.075  1.00  0.00     0.188 HD
HETATM    4  N3  UNL     1      -0.094  -1.687  -0.002  1.00  0.00    -0.277 N 
ATOM      5  H3  UNL     1       0.209  -2.661  -0.017  1.00  0.00     0.189 HD
HETATM    6  C2  UNL     1       0.732  -0.618  -0.029  1.00  0.00     0.225 A 
HETATM    7  C3  UNL     1      -0.113   0.484   0.006  1.00  0.00     0.198 A 
ENDROOT
BRANCH   1   8
HETATM    8  N1  UNL     1      -2.479   0.811   0.098  1.00  0.00    -0.382 N 
ATOM      9  H12 UNL     1      -3.448   0.495   0.134  1.00  0.00     0.157 HD
ATOM     10  H11 UNL     1      -2.535   1.829   0.104  1.00  0.00     0.157 HD
ENDBRANCH   1   8
BRANCH   7  11
HETATM   11  N5  UNL     1       0.320   1.854  -0.016  1.00  0.00    -0.107 N 
HETATM   12  O3  UNL     1       0.239   2.494  -1.102  1.00  0.00    -0.531 OA
HETATM   13  O4  UNL     1       0.820   2.425   1.107  1.00  0.00    -0.531 OA
ENDBRANCH   7  11
BRANCH   6  14
HETATM   14  N4  UNL     1       2.131  -0.573  -0.090  1.00  0.00    -0.094 N 
HETATM   15  O1  UNL     1       2.771   0.493  -0.108  1.00  0.00    -0.530 OA
HETATM   16  O2  UNL     1       2.875  -1.723  -0.131  1.00  0.00    -0.530 OA
ENDBRANCH   6  14
TORSDOF 3
