REMARK  9 active torsions:
REMARK  status: ('A' for Active; 'I' for Inactive)
REMARK    1  A    between atoms: C2_2  and  C3_3 
REMARK    2  A    between atoms: C3_3  and  N1_4 
REMARK    3  A    between atoms: N1_4  and  C4_5 
REMARK    4  A    between atoms: N1_4  and  C7_10 
REMARK    5  A    between atoms: C4_5  and  C5_6 
REMARK    6  A    between atoms: C5_6  and  N2_7 
REMARK    7  A    between atoms: N2_7  and  C6_8 
REMARK    8  A    between atoms: C11_14  and  C12_15 
REMARK    9  A    between atoms: C12_15  and  N3_16 
ROOT
HETATM    1  C7  UNL     1       0.009  -0.520  -0.261  1.00  0.00     0.063 C 
HETATM    2  C8  UNL     1      -0.894  -0.775  -1.448  1.00  0.00     0.020 C 
HETATM    3  C9  UNL     1      -2.185  -1.388  -0.901  1.00  0.00     0.002 C 
HETATM    4  C10 UNL     1      -2.730  -0.485   0.162  1.00  0.00     0.006 C 
HETATM    5  C11 UNL     1      -2.049   0.860   0.163  1.00  0.00     0.012 C 
HETATM    6  C13 UNL     1      -0.561   0.735   0.409  1.00  0.00     0.026 C 
ENDROOT
BRANCH   1   7
HETATM    7  N1  UNL     1       1.386  -0.434  -0.604  1.00  0.00    -0.283 NA
BRANCH   7   8
HETATM    8  C3  UNL     1       1.745  -1.782  -1.146  1.00  0.00     0.121 C 
BRANCH   8   9
HETATM    9  C2  UNL     1       1.581  -2.859  -0.183  1.00  0.00    -0.022 C 
HETATM   10  C1  UNL     1       0.752  -3.868  -0.345  1.00  0.00     0.008 C 
ENDBRANCH   8   9
ENDBRANCH   7   8
BRANCH   7  11
HETATM   11  C4  UNL     1       2.325  -0.177   0.398  1.00  0.00     0.092 C 
BRANCH  11  12
HETATM   12  C5  UNL     1       2.520   1.237   0.919  1.00  0.00     0.197 C 
BRANCH  12  13
HETATM   13  N2  UNL     1       2.913   2.144  -0.013  1.00  0.00    -0.390 NA
BRANCH  13  14
HETATM   14  C6  UNL     1       3.301   3.040  -0.932  1.00  0.00     0.440 C 
HETATM   15  O1  UNL     1       3.591   4.290  -0.844  1.00  0.00    -0.268 OA
ENDBRANCH  13  14
ENDBRANCH  12  13
ENDBRANCH  11  12
ENDBRANCH   7  11
ENDBRANCH   1   7
BRANCH   5  16
HETATM   16  C12 UNL     1      -2.627   1.636   1.343  1.00  0.00     0.234 C 
BRANCH  16  17
HETATM   17  N3  UNL     1      -4.069   1.784   1.190  1.00  0.00    -0.079 N 
ATOM     18  H33 UNL     1      -4.316   2.209   0.296  1.00  0.00     0.274 HD
ATOM     19  H32 UNL     1      -4.533   0.885   1.061  1.00  0.00     0.274 HD
ATOM     20  H31 UNL     1      -4.455   2.303   1.979  1.00  0.00     0.274 HD
ENDBRANCH  16  17
ENDBRANCH   5  16
TORSDOF 9
