REMARK  8 active torsions:
REMARK  status: ('A' for Active; 'I' for Inactive)
REMARK    1  A    between atoms: C2_2  and  C3_3 
REMARK    2  A    between atoms: C3_3  and  C4_4 
REMARK    3  A    between atoms: C4_4  and  N1_5 
REMARK    4  A    between atoms: N1_5  and  C5_8 
REMARK    5  A    between atoms: C5_8  and  C6_9 
REMARK    6  A    between atoms: C6_9  and  N2_10 
REMARK    7  A    between atoms: N2_10  and  S1_12 
REMARK    8  A    between atoms: S1_12  and  C7_15 
ROOT
HETATM    1  C6  UNL     1      -0.115  -0.789  -0.317  1.00  0.00     0.159 C 
ENDROOT
BRANCH   1   2
HETATM    2  C5  UNL     1       1.138  -1.419   0.251  1.00  0.00     0.252 C 
BRANCH   2   3
HETATM    3  N1  UNL     1       2.242  -0.508   0.308  1.00  0.00    -0.073 N 
ATOM      4  H12 UNL     1       2.986  -0.884   0.896  1.00  0.00     0.277 HD
ATOM      5  H11 UNL     1       1.995   0.320   0.850  1.00  0.00     0.277 HD
BRANCH   3   6
HETATM    6  C4  UNL     1       2.763  -0.128  -0.987  1.00  0.00     0.236 C 
BRANCH   6   7
HETATM    7  C3  UNL     1       3.925   0.851  -0.822  1.00  0.00     0.054 C 
BRANCH   7   8
HETATM    8  C2  UNL     1       5.033   0.278  -0.046  1.00  0.00    -0.035 C 
HETATM    9  C1  UNL     1       5.428   0.846   1.082  1.00  0.00     0.007 C 
ENDBRANCH   7   8
ENDBRANCH   6   7
ENDBRANCH   3   6
ENDBRANCH   2   3
ENDBRANCH   1   2
BRANCH   1  10
HETATM   10  N2  UNL     1      -0.532   0.328   0.483  1.00  0.00    -0.318 N 
ATOM     11  H2  UNL     1      -0.035   0.638   1.318  1.00  0.00     0.172 HD
BRANCH  10  12
HETATM   12  S1  UNL     1      -1.945   1.083  -0.108  1.00  0.00     0.231 S 
HETATM   13  O1  UNL     1      -2.271   0.685  -1.518  1.00  0.00    -0.206 OA
HETATM   14  O2  UNL     1      -1.656   2.578  -0.163  1.00  0.00    -0.206 OA
BRANCH  12  15
HETATM   15  C7  UNL     1      -3.295   0.844   0.997  1.00  0.00     0.133 A 
HETATM   16  C8  UNL     1      -4.636   1.139   0.478  1.00  0.00     0.028 A 
HETATM   17  C9  UNL     1      -4.232  -0.266   0.935  1.00  0.00     0.003 A 
HETATM   18  C10 UNL     1      -4.305  -1.286  -0.153  1.00  0.00     0.011 C 
ENDBRANCH  12  15
ENDBRANCH  10  12
ENDBRANCH   1  10
TORSDOF 8
