REMARK  18 active torsions:
REMARK  status: ('A' for Active; 'I' for Inactive)
REMARK    1  A    between atoms: O1_2  and  C2_3 
REMARK    2  A    between atoms: C2_3  and  C3_5 
REMARK    3  A    between atoms: C4_6  and  O3_7 
REMARK    4  A    between atoms: O3_7  and  C5_8 
REMARK    5  A    between atoms: C6_9  and  N1_10 
REMARK    6  A    between atoms: C8_15  and  N2_16 
REMARK    7  A    between atoms: C9_20  and  O4_21 
REMARK    8  A    between atoms: O4_21  and  C10_22 
REMARK    9  A    between atoms: C11_24  and  C12_25 
REMARK   10  A    between atoms: C12_25  and  N3_26 
REMARK   11  A    between atoms: N3_26  and  N4_28 
REMARK   12  A    between atoms: N4_28  and  N5_29 
REMARK   13  A    between atoms: C15_34  and  N6_35 
REMARK   14  A    between atoms: C16_39  and  O6_40 
REMARK   15  A    between atoms: C17_43  and  C18_44 
REMARK   16  A    between atoms: C18_44  and  O8_45 
REMARK   17  A    between atoms: C19_47  and  O9_49 
REMARK   18  A    between atoms: C21_51  and  C22_52 
ROOT
HETATM    1  C5  UNL     1      -0.716   0.787   0.395  1.00  0.00     0.186 C 
HETATM    2  C6  UNL     1      -0.418   1.739   1.502  1.00  0.00     0.217 C 
HETATM    3  C7  UNL     1       0.440   1.077   2.527  1.00  0.00     0.071 C 
HETATM    4  C8  UNL     1       1.775   0.709   1.936  1.00  0.00     0.217 C 
HETATM    5  C9  UNL     1       1.803   0.601   0.449  1.00  0.00     0.186 C 
HETATM    6  C16 UNL     1       0.507   0.094  -0.144  1.00  0.00     0.180 C 
ENDROOT
BRANCH   1   7
HETATM    7  O3  UNL     1      -1.557  -0.223   0.868  1.00  0.00    -0.350 OA
BRANCH   7   8
HETATM    8  C4  UNL     1      -2.721  -0.318   0.114  1.00  0.00     0.275 C 
HETATM    9  C3  UNL     1      -3.915  -0.296   0.973  1.00  0.00     0.152 C 
HETATM   10  C21 UNL     1      -4.954  -1.221   0.368  1.00  0.00     0.078 C 
HETATM   11  C19 UNL     1      -4.873  -1.240  -1.143  1.00  0.00     0.091 C 
HETATM   12  C17 UNL     1      -3.511  -1.613  -1.630  1.00  0.00     0.182 C 
HETATM   13  C20 UNL     1      -5.451  -0.001  -1.747  1.00  0.00     0.049 C 
HETATM   14  O7  UNL     1      -2.580  -1.501  -0.620  1.00  0.00    -0.350 OA
BRANCH   9  15
HETATM   15  C2  UNL     1      -3.714  -0.754   2.374  1.00  0.00     0.268 C 
HETATM   16  O2  UNL     1      -4.271  -1.819   2.807  1.00  0.00    -0.265 OA
BRANCH  15  17
HETATM   17  O1  UNL     1      -2.930  -0.087   3.301  1.00  0.00    -0.326 OA
HETATM   18  C1  UNL     1      -2.733  -0.511   4.628  1.00  0.00     0.213 C 
ENDBRANCH  15  17
ENDBRANCH   9  15
BRANCH  10  19
HETATM   19  C22 UNL     1      -6.297  -0.949   0.889  1.00  0.00     0.061 C 
HETATM   20  N7  UNL     1      -6.669   0.106   1.515  1.00  0.00    -0.411 N 
ATOM     21  H72 UNL     1      -5.949   0.814   1.656  1.00  0.00     0.155 HD
ATOM     22  H71 UNL     1      -7.603   0.295   1.878  1.00  0.00     0.155 HD
ENDBRANCH  10  19
BRANCH  11  23
HETATM   23  O9  UNL     1      -5.744  -2.303  -1.513  1.00  0.00    -0.387 OA
ATOM     24  H9  UNL     1      -6.610  -2.066  -1.203  1.00  0.00     0.210 HD
ENDBRANCH  11  23
BRANCH  12  25
HETATM   25  C18 UNL     1      -3.050  -0.869  -2.849  1.00  0.00     0.199 C 
BRANCH  25  26
HETATM   26  O8  UNL     1      -3.991  -0.979  -3.896  1.00  0.00    -0.398 OA
ATOM     27  H8  UNL     1      -3.699  -0.508  -4.668  1.00  0.00     0.209 HD
ENDBRANCH  25  26
ENDBRANCH  12  25
ENDBRANCH   7   8
ENDBRANCH   1   7
BRANCH   2  28
HETATM   28  N1  UNL     1       0.148   2.960   0.959  1.00  0.00    -0.072 N 
ATOM     29  H13 UNL     1       0.966   2.779   0.378  1.00  0.00     0.274 HD
ATOM     30  H12 UNL     1      -0.450   3.376   0.245  1.00  0.00     0.274 HD
ATOM     31  H11 UNL     1       0.352   3.612   1.717  1.00  0.00     0.274 HD
ENDBRANCH   2  28
BRANCH   6  32
HETATM   32  O6  UNL     1       0.444  -1.297   0.008  1.00  0.00    -0.390 OA
ATOM     33  H6  UNL     1       1.216  -1.734  -0.332  1.00  0.00     0.210 HD
ENDBRANCH   6  32
BRANCH   5  34
HETATM   34  O4  UNL     1       2.781  -0.314   0.008  1.00  0.00    -0.349 OA
BRANCH  34  35
HETATM   35  C10 UNL     1       3.724   0.261  -0.807  1.00  0.00     0.291 C 
HETATM   36  O5  UNL     1       4.963   0.098  -0.183  1.00  0.00    -0.352 OA
HETATM   37  C11 UNL     1       5.861   0.950  -0.829  1.00  0.00     0.145 C 
HETATM   38  C13 UNL     1       6.202   0.323  -2.158  1.00  0.00     0.036 C 
HETATM   39  C14 UNL     1       4.917   0.198  -2.956  1.00  0.00     0.040 C 
HETATM   40  C15 UNL     1       3.822  -0.457  -2.137  1.00  0.00     0.238 C 
BRANCH  37  41
HETATM   41  C12 UNL     1       7.104   1.183   0.010  1.00  0.00     0.187 C 
BRANCH  41  42
HETATM   42  N3  UNL     1       7.767  -0.081   0.257  1.00  0.00    -0.250 N 
ATOM     43  H3  UNL     1       8.385  -0.465  -0.458  1.00  0.00     0.197 HD
BRANCH  42  44
HETATM   44  N4  UNL     1       7.605  -0.711   1.315  1.00  0.00    -0.248 NA
BRANCH  44  45
HETATM   45  N5  UNL     1       7.614  -1.342   2.374  1.00  0.00    -0.261 N 
ATOM     46  H52 UNL     1       8.631  -1.302   2.303  1.00  0.00     0.193 HD
ATOM     47  H51 UNL     1       7.481  -1.859   3.243  1.00  0.00     0.193 HD
ENDBRANCH  44  45
ENDBRANCH  42  44
ENDBRANCH  41  42
ENDBRANCH  37  41
BRANCH  40  48
HETATM   48  N6  UNL     1       4.082  -1.856  -1.980  1.00  0.00    -0.070 N 
ATOM     49  H63 UNL     1       4.915  -2.015  -1.413  1.00  0.00     0.274 HD
ATOM     50  H62 UNL     1       3.388  -2.294  -1.375  1.00  0.00     0.274 HD
ATOM     51  H61 UNL     1       4.148  -2.340  -2.876  1.00  0.00     0.274 HD
ENDBRANCH  40  48
ENDBRANCH  34  35
ENDBRANCH   5  34
BRANCH   4  52
HETATM   52  N2  UNL     1       2.775   1.594   2.468  1.00  0.00    -0.072 N 
ATOM     53  H23 UNL     1       2.542   2.577   2.324  1.00  0.00     0.274 HD
ATOM     54  H22 UNL     1       2.788   1.600   3.488  1.00  0.00     0.274 HD
ATOM     55  H21 UNL     1       3.679   1.345   2.068  1.00  0.00     0.274 HD
ENDBRANCH   4  52
TORSDOF 18
