REMARK  5 active torsions:
REMARK  status: ('A' for Active; 'I' for Inactive)
REMARK       I    between atoms: N1_2  and  C2_4 
REMARK       I    between atoms: C2_4  and  N4_11 
REMARK    1  A    between atoms: N2_5  and  C3_7 
REMARK    2  A    between atoms: C3_7  and  C4_8 
REMARK    3  A    between atoms: N4_11  and  C6_13 
REMARK    4  A    between atoms: C6_13  and  C7_14 
REMARK    5  A    between atoms: C12_19  and  O1_20 
ROOT
HETATM    1  C1  UNL     1       1.174   2.963  -1.809  1.00  0.00     0.165 C 
HETATM    2  N1  UNL     1       1.699   1.636  -2.027  1.00  0.00    -0.231 N 
ATOM      3  H1  UNL     1       2.372   1.473  -2.776  1.00  0.00     0.177 HD
HETATM    4  C2  UNL     1       1.290   0.579  -1.220  1.00  0.00     0.669 C 
HETATM    5  N2  UNL     1       2.067  -0.022  -0.432  1.00  0.00    -0.223 N 
ATOM      6  H2  UNL     1       1.652  -0.781   0.109  1.00  0.00     0.178 HD
HETATM    7  N4  UNL     1      -0.085   0.135  -1.272  1.00  0.00    -0.222 N 
ATOM      8  H4  UNL     1      -0.483  -0.239  -2.133  1.00  0.00     0.178 HD
ENDROOT
BRANCH   7   9
HETATM    9  C6  UNL     1      -0.872   0.235  -0.079  1.00  0.00     0.179 C 
BRANCH   9  10
HETATM   10  C7  UNL     1      -2.238  -0.242  -0.255  1.00  0.00    -0.007 A 
HETATM   11  C8  UNL     1      -2.760  -0.738  -1.410  1.00  0.00     0.011 A 
HETATM   12  C9  UNL     1      -4.099  -1.164  -1.442  1.00  0.00     0.001 A 
HETATM   13  C10 UNL     1      -4.895  -1.089  -0.322  1.00  0.00     0.003 A 
HETATM   14  C11 UNL     1      -4.358  -0.588   0.836  1.00  0.00     0.037 A 
HETATM   15  C12 UNL     1      -3.052  -0.165   0.890  1.00  0.00     0.076 A 
BRANCH  15  16
HETATM   16  O1  UNL     1      -2.486   0.344   2.043  1.00  0.00    -0.355 OA
HETATM   17  C13 UNL     1      -3.297   0.426   3.203  1.00  0.00     0.210 C 
ENDBRANCH  15  16
ENDBRANCH   9  10
ENDBRANCH   7   9
BRANCH   5  18
HETATM   18  C3  UNL     1       3.446   0.220  -0.199  1.00  0.00     0.166 C 
BRANCH  18  19
HETATM   19  C4  UNL     1       4.022  -0.812   0.694  1.00  0.00     0.008 C 
HETATM   20  C5  UNL     1       5.017  -1.595   0.327  1.00  0.00     0.097 C 
HETATM   21  N3  UNL     1       5.579  -2.585   1.164  1.00  0.00    -0.115 NA
ENDBRANCH  18  19
ENDBRANCH   5  18
TORSDOF 5
