REMARK  5 active torsions:
REMARK  status: ('A' for Active; 'I' for Inactive)
REMARK    1  A    between atoms: C5_5  and  N1_6 
REMARK    2  A    between atoms: N1_6  and  C6_8 
REMARK    3  A    between atoms: C6_8  and  C7_9 
REMARK    4  A    between atoms: C7_9  and  N2_10 
REMARK       I    between atoms: N2_10  and  C8_12 
REMARK       I    between atoms: C8_12  and  N4_16 
REMARK    5  A    between atoms: C9_18  and  N5_19 
ROOT
HETATM    1  C7  UNL     1       0.024  -0.203  -0.389  1.00  0.00     0.157 C 
ENDROOT
BRANCH   1   2
HETATM    2  C6  UNL     1      -0.662  -1.539  -0.405  1.00  0.00     0.140 C 
BRANCH   2   3
HETATM    3  N1  UNL     1      -1.540  -1.613   0.735  1.00  0.00    -0.387 N 
ATOM      4  H1  UNL     1      -1.336  -2.253   1.503  1.00  0.00     0.159 HD
BRANCH   3   5
HETATM    5  C5  UNL     1      -2.692  -0.784   0.777  1.00  0.00     0.043 A 
HETATM    6  C4  UNL     1      -3.153  -0.088  -0.313  1.00  0.00     0.032 A 
HETATM    7  C3  UNL     1      -4.284   0.719  -0.195  1.00  0.00     0.027 A 
HETATM    8  C2  UNL     1      -4.968   0.845   0.994  1.00  0.00     0.005 A 
HETATM    9  C1  UNL     1      -6.184   1.721   1.102  1.00  0.00     0.068 C 
HETATM   10  N6  UNL     1      -4.489   0.149   2.041  1.00  0.00    -0.367 N 
HETATM   11  C12 UNL     1      -3.408  -0.635   1.966  1.00  0.00     0.117 A 
ATOM     12  H6  UNL     1      -4.974   0.223   2.935  1.00  0.00     0.165 HD
ENDBRANCH   3   5
ENDBRANCH   2   3
ENDBRANCH   1   2
BRANCH   1  13
HETATM   13  N2  UNL     1       0.898  -0.163  -1.550  1.00  0.00    -0.225 N 
HETATM   14  C8  UNL     1       2.015  -1.008  -1.569  1.00  0.00     0.672 C 
HETATM   15  N3  UNL     1       2.029  -2.048  -2.301  1.00  0.00    -0.235 N 
HETATM   16  N4  UNL     1       3.134  -0.703  -0.768  1.00  0.00    -0.189 N 
ATOM     17  H32 UNL     1       1.219  -2.269  -2.881  1.00  0.00     0.174 HD
ATOM     18  H31 UNL     1       2.842  -2.663  -2.315  1.00  0.00     0.174 HD
HETATM   19  C9  UNL     1       3.449   0.450  -0.320  1.00  0.00     0.195 C 
ATOM     20  H4  UNL     1       3.751  -1.477  -0.523  1.00  0.00     0.184 HD
ATOM     21  H2  UNL     1       0.703   0.464  -2.330  1.00  0.00     0.177 HD
BRANCH  19  22
HETATM   22  N5  UNL     1       4.623   0.551   0.476  1.00  0.00    -0.385 N 
HETATM   23  C10 UNL     1       5.380   1.783   0.393  1.00  0.00     0.149 C 
HETATM   24  C11 UNL     1       5.077  -0.501   1.342  1.00  0.00     0.149 C 
ENDBRANCH  19  22
ENDBRANCH   1  13
TORSDOF 5
