REMARK  9 active torsions:
REMARK  status: ('A' for Active; 'I' for Inactive)
REMARK    1  A    between atoms: C4_4  and  C5_5 
REMARK    2  A    between atoms: C5_5  and  O1_6 
REMARK    3  A    between atoms: C5_5  and  N1_8 
REMARK    4  A    between atoms: N1_8  and  C6_9 
REMARK    5  A    between atoms: N1_8  and  S1_17 
REMARK    6  A    between atoms: C6_9  and  C7_10 
REMARK    7  A    between atoms: S1_17  and  C12_20 
REMARK    8  A    between atoms: C20_29  and  S2_30 
REMARK    9  A    between atoms: S2_30  and  N3_31 
ROOT
HETATM    1  N1  UNL     1       1.305   0.048  -1.444  1.00  0.00    -0.246 N 
ENDROOT
BRANCH   1   2
HETATM    2  C5  UNL     1       0.237  -0.610  -0.877  1.00  0.00     0.162 C 
BRANCH   2   3
HETATM    3  C4  UNL     1      -1.138  -0.317  -0.641  1.00  0.00     0.016 A 
HETATM    4  C3  UNL     1      -1.954  -1.289  -0.057  1.00  0.00     0.024 A 
HETATM    5  C2  UNL     1      -3.292  -1.122   0.232  1.00  0.00    -0.038 A 
HETATM    6  C1  UNL     1      -4.087  -2.220   0.858  1.00  0.00     0.050 C 
HETATM    7  C20 UNL     1      -3.831   0.102  -0.090  1.00  0.00     0.085 A 
HETATM    8  C19 UNL     1      -3.096   1.098  -0.662  1.00  0.00     0.027 A 
HETATM    9  C18 UNL     1      -1.735   0.873  -0.935  1.00  0.00     0.017 A 
BRANCH   7  10
HETATM   10  S2  UNL     1      -5.534   0.399   0.249  1.00  0.00     0.257 S 
HETATM   11  O4  UNL     1      -6.384  -0.523  -0.563  1.00  0.00    -0.201 OA
HETATM   12  O5  UNL     1      -5.901   1.821  -0.135  1.00  0.00    -0.201 OA
BRANCH  10  13
HETATM   13  N3  UNL     1      -5.858   0.243   1.942  1.00  0.00    -0.324 N 
ATOM     14  H32 UNL     1      -5.148   0.010   2.637  1.00  0.00     0.169 HD
ATOM     15  H31 UNL     1      -6.844   0.415   2.138  1.00  0.00     0.169 HD
ENDBRANCH  10  13
ENDBRANCH   7  10
ENDBRANCH   2   3
BRANCH   2  16
HETATM   16  O1  UNL     1       0.560  -1.822  -0.436  1.00  0.00    -0.345 OA
ATOM     17  H1  UNL     1       1.476  -2.017  -0.593  1.00  0.00     0.219 HD
ENDBRANCH   2  16
ENDBRANCH   1   2
BRANCH   1  18
HETATM   18  C6  UNL     1       1.336   1.339  -2.033  1.00  0.00     0.182 C 
BRANCH  18  19
HETATM   19  C7  UNL     1       1.658   2.459  -1.149  1.00  0.00    -0.037 A 
HETATM   20  C8  UNL     1       1.926   3.694  -1.685  1.00  0.00     0.026 A 
HETATM   21  C9  UNL     1       2.232   4.779  -0.861  1.00  0.00     0.088 A 
HETATM   22  N2  UNL     1       2.272   4.638   0.478  1.00  0.00    -0.375 N 
HETATM   23  C10 UNL     1       2.009   3.429   0.995  1.00  0.00     0.088 A 
ATOM     24  H2  UNL     1       2.496   5.429   1.082  1.00  0.00     0.164 HD
HETATM   25  C11 UNL     1       1.700   2.319   0.216  1.00  0.00     0.026 A 
ENDBRANCH  18  19
ENDBRANCH   1  18
BRANCH   1  26
HETATM   26  S1  UNL     1       2.863  -0.779  -1.457  1.00  0.00     0.267 S 
HETATM   27  O2  UNL     1       2.900  -1.686  -2.681  1.00  0.00    -0.200 OA
HETATM   28  O3  UNL     1       3.981   0.208  -1.685  1.00  0.00    -0.200 OA
BRANCH  26  29
HETATM   29  C12 UNL     1       3.143  -1.747  -0.064  1.00  0.00     0.080 A 
HETATM   30  C13 UNL     1       3.398  -1.188   1.168  1.00  0.00     0.028 A 
HETATM   31  C14 UNL     1       3.661  -2.006   2.264  1.00  0.00     0.044 A 
HETATM   32  C15 UNL     1       3.673  -3.382   2.137  1.00  0.00     0.116 A 
HETATM   33  F1  UNL     1       3.935  -4.110   3.241  1.00  0.00    -0.206 F 
HETATM   34  C16 UNL     1       3.419  -3.947   0.910  1.00  0.00     0.044 A 
HETATM   35  C17 UNL     1       3.161  -3.116  -0.160  1.00  0.00     0.028 A 
ENDBRANCH  26  29
ENDBRANCH   1  26
TORSDOF 9
