REMARK  2 active torsions:
REMARK  status: ('A' for Active; 'I' for Inactive)
REMARK    1  A    between atoms: C2_5  and  N3_6 
REMARK    2  A    between atoms: N3_6  and  N4_8 
ROOT
HETATM    1  C1  UNL     1      -3.510   0.875   0.475  1.00  0.00     0.183 C 
HETATM    2  N1  UNL     1      -2.373   0.003   0.244  1.00  0.00    -0.232 N 
HETATM    3  N2  UNL     1      -1.111   0.354  -0.013  1.00  0.00    -0.125 N 
ATOM      4  H2  UNL     1      -0.772   1.314  -0.083  1.00  0.00     0.206 HD
HETATM    5  C2  UNL     1      -0.356  -0.742  -0.166  1.00  0.00     0.715 A 
HETATM    6  N7  UNL     1      -1.162  -1.799  -0.001  1.00  0.00    -0.137 N 
ATOM      7  H7  UNL     1      -0.883  -2.779  -0.057  1.00  0.00     0.189 HD
HETATM    8  C4  UNL     1      -2.410  -1.342   0.253  1.00  0.00     0.355 A 
HETATM    9  O1  UNL     1      -3.455  -2.024   0.466  1.00  0.00    -0.244 OA
ENDROOT
BRANCH   5  10
HETATM   10  N3  UNL     1       0.899  -0.803  -0.422  1.00  0.00    -0.128 N 
ATOM     11  H3  UNL     1       1.344  -1.716  -0.513  1.00  0.00     0.205 HD
BRANCH  10  12
HETATM   12  N4  UNL     1       1.672   0.349  -0.580  1.00  0.00    -0.262 N 
HETATM   13  C3  UNL     1       2.867   0.447  -0.101  1.00  0.00     0.216 C 
HETATM   14  N5  UNL     1       3.389  -0.661   0.603  1.00  0.00    -0.065 NA
HETATM   15  N6  UNL     1       3.653   1.621  -0.263  1.00  0.00    -0.065 NA
ATOM     16  H4  UNL     1       1.279   1.140  -1.091  1.00  0.00     0.190 HD
ENDBRANCH  10  12
ENDBRANCH   5  10
TORSDOF 2
