REMARK  13 active torsions:
REMARK  status: ('A' for Active; 'I' for Inactive)
REMARK    1  A    between atoms: C2_2  and  C3_3 
REMARK    2  A    between atoms: C3_3  and  C4_4 
REMARK    3  A    between atoms: C4_4  and  O1_5 
REMARK    4  A    between atoms: C8_10  and  O2_11 
REMARK    5  A    between atoms: C10_14  and  C11_15 
REMARK    6  A    between atoms: C11_15  and  C12_16 
REMARK    7  A    between atoms: C12_16  and  C13_17 
REMARK    8  A    between atoms: C13_17  and  C14_18 
REMARK    9  A    between atoms: C14_18  and  C15_19 
REMARK   10  A    between atoms: C15_19  and  C16_20 
REMARK   11  A    between atoms: C16_20  and  O3_21 
REMARK   12  A    between atoms: C23_30  and  O5_31 
REMARK   13  A    between atoms: C23_30  and  C24_33 
ROOT
HETATM    1  C3  UNL     1      -3.256   1.691   0.874  1.00  0.00     0.103 C 
HETATM    2  C5  UNL     1      -2.039   2.297   1.503  1.00  0.00     0.083 C 
HETATM    3  C6  UNL     1      -0.744   1.784   0.892  1.00  0.00    -0.042 A 
HETATM    4  C7  UNL     1      -0.073   2.942   0.559  1.00  0.00     0.044 A 
HETATM    5  C8  UNL     1       1.176   2.849   0.017  1.00  0.00     0.066 A 
HETATM    6  C9  UNL     1       1.771   1.625  -0.198  1.00  0.00     0.044 A 
HETATM    7  C10 UNL     1       1.059   0.459   0.151  1.00  0.00    -0.046 A 
HETATM    8  C17 UNL     1      -0.190   0.519   0.692  1.00  0.00    -0.010 A 
HETATM    9  C18 UNL     1      -0.568  -0.878   0.931  1.00  0.00     0.100 A 
HETATM   10  C19 UNL     1      -1.085  -0.910   2.341  1.00  0.00     0.059 A 
HETATM   11  C20 UNL     1      -2.048  -1.124   1.310  1.00  0.00     0.024 A 
HETATM   12  C21 UNL     1      -2.508  -2.580   1.533  1.00  0.00     0.022 C 
HETATM   13  C22 UNL     1      -2.778  -0.522   0.252  1.00  0.00     0.178 C 
HETATM   14  O4  UNL     1      -2.809   0.785  -0.009  1.00  0.00    -0.364 OA
HETATM   15  C23 UNL     1      -2.324  -1.165  -1.086  1.00  0.00     0.165 C 
HETATM   16  C26 UNL     1      -1.306  -2.214  -0.864  1.00  0.00     0.217 C 
HETATM   17  O7  UNL     1      -0.381  -1.921   0.135  1.00  0.00    -0.371 OA
ENDROOT
BRANCH   7  18
HETATM   18  C11 UNL     1       1.814  -0.805  -0.107  1.00  0.00     0.039 C 
BRANCH  18  19
HETATM   19  C12 UNL     1       3.288  -0.500  -0.455  1.00  0.00     0.005 C 
BRANCH  19  20
HETATM   20  C13 UNL     1       4.030  -1.827  -0.664  1.00  0.00     0.000 C 
BRANCH  20  21
HETATM   21  C14 UNL     1       5.467  -1.566  -1.050  1.00  0.00     0.002 C 
BRANCH  21  22
HETATM   22  C15 UNL     1       6.230  -0.777  -0.019  1.00  0.00     0.026 C 
BRANCH  22  23
HETATM   23  C16 UNL     1       7.669  -0.543  -0.481  1.00  0.00     0.164 C 
BRANCH  23  24
HETATM   24  O3  UNL     1       7.640   0.174  -1.696  1.00  0.00    -0.401 OA
ATOM     25  H3  UNL     1       8.534   0.319  -1.983  1.00  0.00     0.209 HD
ENDBRANCH  23  24
ENDBRANCH  22  23
ENDBRANCH  21  22
ENDBRANCH  20  21
ENDBRANCH  19  20
ENDBRANCH  18  19
ENDBRANCH   7  18
BRANCH   5  26
HETATM   26  O2  UNL     1       1.904   4.010  -0.341  1.00  0.00    -0.361 OA
ATOM     27  H2  UNL     1       2.773   3.945  -0.718  1.00  0.00     0.217 HD
ENDBRANCH   5  26
BRANCH   1  28
HETATM   28  C2  UNL     1      -4.214   1.219   1.903  1.00  0.00     0.003 C 
HETATM   29  C1  UNL     1      -4.591   2.056   2.851  1.00  0.00     0.010 C 
ENDBRANCH   1  28
BRANCH   1  30
HETATM   30  C4  UNL     1      -4.016   2.746   0.040  1.00  0.00     0.206 C 
BRANCH  30  31
HETATM   31  O1  UNL     1      -5.058   2.166  -0.647  1.00  0.00    -0.398 OA
ATOM     32  H1  UNL     1      -5.525   2.815  -1.160  1.00  0.00     0.209 HD
ENDBRANCH  30  31
ENDBRANCH   1  30
BRANCH  15  33
HETATM   33  O5  UNL     1      -1.758  -0.158  -1.928  1.00  0.00    -0.377 OA
ATOM     34  H5  UNL     1      -1.480  -0.551  -2.747  1.00  0.00     0.211 HD
ENDBRANCH  15  33
BRANCH  15  35
HETATM   35  C24 UNL     1      -3.436  -1.711  -1.886  1.00  0.00     0.162 C 
HETATM   36  C25 UNL     1      -3.698  -1.119  -3.274  1.00  0.00     0.094 C 
HETATM   37  O6  UNL     1      -4.202  -2.599  -1.583  1.00  0.00    -0.295 OA
ENDBRANCH  15  35
TORSDOF 13
