REMARK  14 active torsions:
REMARK  status: ('A' for Active; 'I' for Inactive)
REMARK    1  A    between atoms: C2_2  and  C4_4 
REMARK    2  A    between atoms: C4_4  and  C5_5 
REMARK    3  A    between atoms: C7_10  and  C8_11 
REMARK    4  A    between atoms: C8_11  and  C9_12 
REMARK       I    between atoms: C9_12  and  N2_14 
REMARK    5  A    between atoms: N2_14  and  C10_16 
REMARK    6  A    between atoms: C14_20  and  C15_21 
REMARK    7  A    between atoms: C15_21  and  C16_22 
REMARK    8  A    between atoms: C24_35  and  O3_36 
REMARK    9  A    between atoms: C25_38  and  C26_39 
REMARK   10  A    between atoms: C31_46  and  C32_47 
REMARK   11  A    between atoms: C32_47  and  C33_48 
REMARK   12  A    between atoms: C33_48  and  C34_49 
REMARK   13  A    between atoms: C34_49  and  C35_50 
REMARK   14  A    between atoms: C35_50  and  N7_51 
ROOT
HETATM    1  C5  UNL     1       1.908   0.257  -2.259  1.00  0.00     0.177 C 
HETATM    2  N1  UNL     1       0.950  -0.817  -2.329  1.00  0.00    -0.347 N 
ATOM      3  H1  UNL     1       1.386  -1.716  -2.123  1.00  0.00     0.163 HD
HETATM    4  C6  UNL     1      -0.385  -0.962  -2.596  1.00  0.00     0.226 C 
HETATM    5  O1  UNL     1      -0.823  -1.782  -3.447  1.00  0.00    -0.273 OA
HETATM    6  C7  UNL     1      -1.579  -0.212  -1.968  1.00  0.00     0.111 C 
HETATM    7  C13 UNL     1      -1.271   0.537  -0.795  1.00  0.00     0.013 C 
HETATM    8  C14 UNL     1      -1.867   0.210   0.578  1.00  0.00     0.012 C 
HETATM    9  N5  UNL     1      -0.910   0.265   1.619  1.00  0.00    -0.339 N 
ATOM     10  H5  UNL     1      -1.244   0.909   2.336  1.00  0.00     0.168 HD
HETATM   11  C24 UNL     1       0.300  -0.234   2.010  1.00  0.00     0.164 C 
HETATM   12  C25 UNL     1       0.922  -1.529   2.254  1.00  0.00     0.068 C 
HETATM   13  N6  UNL     1       1.574  -2.217   1.171  1.00  0.00    -0.320 N 
HETATM   14  C29 UNL     1       0.722  -3.253   0.507  1.00  0.00     0.159 C 
HETATM   15  C30 UNL     1       2.867  -2.092   0.645  1.00  0.00     0.246 C 
HETATM   16  O4  UNL     1       3.568  -3.178   0.541  1.00  0.00    -0.271 OA
HETATM   17  C31 UNL     1       3.638  -0.922   0.159  1.00  0.00     0.177 C 
HETATM   18  N8  UNL     1       3.878  -1.063  -1.288  1.00  0.00    -0.346 N 
ATOM     19  H8  UNL     1       4.556  -1.778  -1.552  1.00  0.00     0.163 HD
HETATM   20  C36 UNL     1       3.313  -0.361  -2.341  1.00  0.00     0.241 C 
HETATM   21  O5  UNL     1       3.883  -0.178  -3.416  1.00  0.00    -0.271 OA
ENDROOT
BRANCH   8  22
HETATM   22  C15 UNL     1      -2.881  -0.864   0.533  1.00  0.00     0.099 C 
BRANCH  22  23
HETATM   23  C16 UNL     1      -3.504  -1.337   1.765  1.00  0.00    -0.008 A 
HETATM   24  C17 UNL     1      -2.999  -2.446   2.511  1.00  0.00     0.098 A 
HETATM   25  N3  UNL     1      -3.719  -2.627   3.601  1.00  0.00    -0.363 N 
HETATM   26  C18 UNL     1      -4.691  -1.703   3.641  1.00  0.00     0.059 A 
ATOM     27  H3  UNL     1      -3.562  -3.352   4.301  1.00  0.00     0.165 HD
HETATM   28  C19 UNL     1      -5.678  -1.508   4.571  1.00  0.00     0.033 A 
HETATM   29  C23 UNL     1      -4.568  -0.893   2.500  1.00  0.00     0.069 A 
HETATM   30  C20 UNL     1      -6.562  -0.483   4.350  1.00  0.00     0.020 A 
HETATM   31  C21 UNL     1      -6.424   0.292   3.228  1.00  0.00     0.091 A 
HETATM   32  N4  UNL     1      -5.440   0.106   2.292  1.00  0.00    -0.359 N 
HETATM   33  C22 UNL     1      -5.388   0.932   1.125  1.00  0.00     0.156 C 
ENDBRANCH  22  23
ENDBRANCH   8  22
BRANCH   6  34
HETATM   34  C8  UNL     1      -2.198   0.469  -3.109  1.00  0.00     0.120 C 
BRANCH  34  35
HETATM   35  C9  UNL     1      -3.344   1.341  -2.845  1.00  0.00     0.218 C 
HETATM   36  O2  UNL     1      -3.468   1.907  -1.741  1.00  0.00    -0.274 OA
HETATM   37  N2  UNL     1      -4.339   1.557  -3.860  1.00  0.00    -0.357 N 
ATOM     38  H2  UNL     1      -4.222   1.078  -4.753  1.00  0.00     0.162 HD
BRANCH  37  39
HETATM   39  C10 UNL     1      -5.473   2.393  -3.700  1.00  0.00     0.076 C 
HETATM   40  C11 UNL     1      -6.249   2.593  -4.979  1.00  0.00     0.032 C 
HETATM   41  C12 UNL     1      -6.481   1.641  -2.771  1.00  0.00     0.032 C 
ENDBRANCH  37  39
ENDBRANCH  34  35
ENDBRANCH   6  34
BRANCH  11  42
HETATM   42  O3  UNL     1       1.190   0.728   2.242  1.00  0.00    -0.345 OA
ATOM     43  H3  UNL     1       2.032   0.381   2.514  1.00  0.00     0.219 HD
ENDBRANCH  11  42
BRANCH  12  44
HETATM   44  C26 UNL     1       1.608  -1.628   3.599  1.00  0.00     0.032 C 
HETATM   45  C27 UNL     1       2.687  -0.716   3.930  1.00  0.00     0.016 C 
HETATM   46  C28 UNL     1       2.090  -3.081   3.769  1.00  0.00     0.016 C 
ENDBRANCH  12  44
BRANCH   1  47
HETATM   47  C4  UNL     1       1.764   1.325  -3.258  1.00  0.00     0.038 C 
BRANCH  47  48
HETATM   48  C2  UNL     1       2.726   2.474  -3.112  1.00  0.00    -0.020 C 
HETATM   49  C1  UNL     1       2.555   3.200  -1.788  1.00  0.00     0.009 C 
HETATM   50  C3  UNL     1       2.616   3.440  -4.275  1.00  0.00     0.009 C 
ENDBRANCH  47  48
ENDBRANCH   1  47
BRANCH  17  51
HETATM   51  C32 UNL     1       5.063  -1.044   0.753  1.00  0.00     0.035 C 
BRANCH  51  52
HETATM   52  C33 UNL     1       5.892   0.175   0.322  1.00  0.00     0.004 C 
BRANCH  52  53
HETATM   53  C34 UNL     1       7.287   0.133   0.847  1.00  0.00     0.027 C 
BRANCH  53  54
HETATM   54  C35 UNL     1       7.365   0.072   2.359  1.00  0.00     0.229 C 
BRANCH  54  55
HETATM   55  N7  UNL     1       8.787   0.061   2.702  1.00  0.00    -0.079 N 
ATOM     56  H73 UNL     1       9.308  -0.685   2.240  1.00  0.00     0.274 HD
ATOM     57  H72 UNL     1       9.305   0.844   2.302  1.00  0.00     0.274 HD
ATOM     58  H71 UNL     1       8.840   0.020   3.720  1.00  0.00     0.274 HD
ENDBRANCH  54  55
ENDBRANCH  53  54
ENDBRANCH  52  53
ENDBRANCH  51  52
ENDBRANCH  17  51
TORSDOF 14
