REMARK  10 active torsions:
REMARK  status: ('A' for Active; 'I' for Inactive)
REMARK    1  A    between atoms: C2_2  and  C3_3 
REMARK    2  A    between atoms: C5_5  and  O1_6 
REMARK    3  A    between atoms: O1_6  and  C6_7 
REMARK    4  A    between atoms: C14_16  and  C15_17 
REMARK    5  A    between atoms: C15_17  and  C17_19 
REMARK    6  A    between atoms: C17_19  and  C18_20 
REMARK    7  A    between atoms: C18_20  and  C19_21 
REMARK    8  A    between atoms: C19_21  and  C20_22 
REMARK    9  A    between atoms: C26_28  and  C28_30 
REMARK   10  A    between atoms: C28_30  and  O3_31 
ROOT
HETATM    1  C3  UNL     1      -3.245   0.502   0.279  1.00  0.00     0.008 C 
HETATM    2  C4  UNL     1      -4.512  -0.097   0.931  1.00  0.00     0.023 C 
HETATM    3  C5  UNL     1      -2.874   1.665   1.124  1.00  0.00     0.144 C 
HETATM    4  C8  UNL     1      -1.409   1.887   1.310  1.00  0.00     0.034 C 
HETATM    5  C9  UNL     1      -0.425   0.803   1.075  1.00  0.00     0.013 C 
HETATM    6  C10 UNL     1      -0.799  -0.122  -0.078  1.00  0.00    -0.028 C 
HETATM    7  C11 UNL     1      -0.787   0.923  -1.173  1.00  0.00     0.016 C 
HETATM    8  C12 UNL     1       0.134  -1.203  -0.427  1.00  0.00    -0.028 C 
HETATM    9  C13 UNL     1       0.412  -1.064  -1.937  1.00  0.00     0.016 C 
HETATM   10  C14 UNL     1       1.429  -1.528   0.137  1.00  0.00    -0.002 C 
HETATM   11  C23 UNL     1       1.496  -2.989   0.580  1.00  0.00     0.006 C 
HETATM   12  C24 UNL     1       0.567  -3.595  -0.509  1.00  0.00     0.007 C 
HETATM   13  C25 UNL     1      -0.513  -2.601  -0.321  1.00  0.00     0.005 C 
HETATM   14  C26 UNL     1      -1.849  -2.828  -0.803  1.00  0.00    -0.018 C 
HETATM   15  C27 UNL     1      -2.038  -3.020  -2.314  1.00  0.00     0.018 C 
HETATM   16  C29 UNL     1      -2.763  -1.758  -0.319  1.00  0.00     0.022 C 
HETATM   17  C30 UNL     1      -2.174  -0.575   0.385  1.00  0.00    -0.022 C 
HETATM   18  C31 UNL     1      -2.199  -0.899   1.871  1.00  0.00     0.017 C 
ENDROOT
BRANCH  10  19
HETATM   19  C15 UNL     1       2.368  -0.745   0.926  1.00  0.00    -0.014 C 
HETATM   20  C16 UNL     1       3.552  -1.729   1.253  1.00  0.00     0.010 C 
BRANCH  19  21
HETATM   21  C17 UNL     1       3.206   0.228   0.066  1.00  0.00     0.005 C 
BRANCH  21  22
HETATM   22  C18 UNL     1       4.158   1.069   0.792  1.00  0.00     0.001 C 
BRANCH  22  23
HETATM   23  C19 UNL     1       4.850   1.953  -0.267  1.00  0.00     0.004 C 
BRANCH  23  24
HETATM   24  C20 UNL     1       5.859   2.861   0.399  1.00  0.00    -0.023 C 
HETATM   25  C21 UNL     1       6.517   3.711  -0.666  1.00  0.00     0.009 C 
HETATM   26  C22 UNL     1       6.958   2.055   1.059  1.00  0.00     0.009 C 
ENDBRANCH  23  24
ENDBRANCH  22  23
ENDBRANCH  21  22
ENDBRANCH  19  21
ENDBRANCH  10  19
BRANCH  14  27
HETATM   27  C28 UNL     1      -2.279  -4.221  -0.273  1.00  0.00     0.173 C 
BRANCH  27  28
HETATM   28  O3  UNL     1      -2.276  -4.357   1.071  1.00  0.00    -0.400 OA
ATOM     29  H3  UNL     1      -2.539  -5.210   1.396  1.00  0.00     0.209 HD
ENDBRANCH  27  28
ENDBRANCH  14  27
BRANCH   1  30
HETATM   30  C2  UNL     1      -3.729   0.776  -1.071  1.00  0.00    -0.024 C 
HETATM   31  C1  UNL     1      -4.959   1.251  -1.256  1.00  0.00     0.008 C 
ENDBRANCH   1  30
BRANCH   3  32
HETATM   32  O1  UNL     1      -3.482   2.845   0.601  1.00  0.00    -0.315 OA
BRANCH  32  33
HETATM   33  C6  UNL     1      -4.355   3.664   1.267  1.00  0.00     0.255 C 
HETATM   34  C7  UNL     1      -4.929   4.879   0.604  1.00  0.00     0.126 C 
HETATM   35  O2  UNL     1      -4.673   3.373   2.472  1.00  0.00    -0.266 OA
ENDBRANCH  32  33
ENDBRANCH   3  32
TORSDOF 10
