REMARK  8 active torsions:
REMARK  status: ('A' for Active; 'I' for Inactive)
REMARK    1  A    between atoms: N1_2  and  C2_3 
REMARK    2  A    between atoms: N1_2  and  C5_8 
REMARK    3  A    between atoms: C2_3  and  C3_4 
REMARK    4  A    between atoms: C3_4  and  C4_5 
REMARK    5  A    between atoms: C4_5  and  O1_6 
REMARK    6  A    between atoms: C6_11  and  N3_12 
REMARK    7  A    between atoms: C8_20  and  C9_21 
REMARK    8  A    between atoms: C11_28  and  N9_29 
ROOT
HETATM    1  C5  UNL     1      -1.382  -1.747   0.063  1.00  0.00     0.153 A 
HETATM    2  N2  UNL     1      -1.669  -3.078  -0.097  1.00  0.00    -0.174 N 
ATOM      3  H2  UNL     1      -2.642  -3.373  -0.016  1.00  0.00     0.186 HD
HETATM    4  C6  UNL     1      -0.757  -4.003  -0.350  1.00  0.00     0.679 A 
HETATM    5  N4  UNL     1       0.512  -3.639  -0.456  1.00  0.00    -0.174 N 
ATOM      6  H4  UNL     1       1.222  -4.345  -0.649  1.00  0.00     0.186 HD
HETATM    7  C7  UNL     1       0.876  -2.365  -0.314  1.00  0.00     0.153 A 
HETATM    8  N5  UNL     1       2.065  -1.767  -0.360  1.00  0.00    -0.323 N 
ATOM      9  H5  UNL     1       2.953  -2.237  -0.537  1.00  0.00     0.169 HD
HETATM   10  C8  UNL     1       1.916  -0.437  -0.136  1.00  0.00     0.155 A 
HETATM   11  N11 UNL     1       0.600  -0.215   0.050  1.00  0.00    -0.328 N 
HETATM   12  C12 UNL     1       0.047   1.086   0.279  1.00  0.00     0.158 C 
HETATM   13  C13 UNL     1      -0.079  -1.371  -0.047  1.00  0.00     0.126 A 
ENDROOT
BRANCH  10  14
HETATM   14  C9  UNL     1       3.046   0.474  -0.098  1.00  0.00     0.168 A 
HETATM   15  N6  UNL     1       4.306  -0.007  -0.295  1.00  0.00    -0.313 N 
HETATM   16  C10 UNL     1       5.375   0.791  -0.243  1.00  0.00     0.208 A 
ATOM     17  H6  UNL     1       4.435  -1.000  -0.487  1.00  0.00     0.170 HD
HETATM   18  N7  UNL     1       6.698   0.263  -0.455  1.00  0.00    -0.063 NA
HETATM   19  N8  UNL     1       5.216   2.097   0.008  1.00  0.00    -0.164 N 
HETATM   20  C11 UNL     1       3.980   2.640   0.214  1.00  0.00     0.679 A 
ATOM     21  H8  UNL     1       6.038   2.700   0.046  1.00  0.00     0.187 HD
HETATM   22  N10 UNL     1       2.956   1.768   0.145  1.00  0.00    -0.173 N 
ATOM     23  H10 UNL     1       2.020   2.144   0.295  1.00  0.00     0.186 HD
BRANCH  20  24
HETATM   24  N9  UNL     1       3.836   3.899   0.457  1.00  0.00    -0.234 N 
ATOM     25  H92 UNL     1       4.612   4.559   0.509  1.00  0.00     0.174 HD
ATOM     26  H91 UNL     1       2.913   4.305   0.611  1.00  0.00     0.174 HD
ENDBRANCH  20  24
ENDBRANCH  10  14
BRANCH   1  27
HETATM   27  N1  UNL     1      -2.459  -0.873   0.369  1.00  0.00    -0.349 N 
HETATM   28  C1  UNL     1      -2.681  -0.518   1.742  1.00  0.00     0.156 C 
BRANCH  27  29
HETATM   29  C2  UNL     1      -3.367  -0.551  -0.666  1.00  0.00     0.067 C 
BRANCH  29  30
HETATM   30  C3  UNL     1      -3.647   0.776  -1.176  1.00  0.00     0.071 C 
BRANCH  30  31
HETATM   31  C4  UNL     1      -4.226   1.803  -0.293  1.00  0.00     0.169 C 
BRANCH  31  32
HETATM   32  O1  UNL     1      -3.503   2.229   0.781  1.00  0.00    -0.401 OA
ATOM     33  H1  UNL     1      -3.876   2.891   1.350  1.00  0.00     0.209 HD
ENDBRANCH  31  32
ENDBRANCH  30  31
ENDBRANCH  29  30
ENDBRANCH  27  29
ENDBRANCH   1  27
BRANCH   4  34
HETATM   34  N3  UNL     1      -1.070  -5.270  -0.498  1.00  0.00    -0.234 N 
ATOM     35  H32 UNL     1      -2.047  -5.550  -0.416  1.00  0.00     0.174 HD
ATOM     36  H31 UNL     1      -0.367  -5.983  -0.693  1.00  0.00     0.174 HD
ENDBRANCH   4  34
TORSDOF 8
