REMARK  4 active torsions:
REMARK  status: ('A' for Active; 'I' for Inactive)
REMARK    1  A    between atoms: C2_2  and  C3_3 
REMARK    2  A    between atoms: C4_4  and  C5_5 
REMARK    3  A    between atoms: C7_8  and  C9_10 
REMARK       I    between atoms: N1_14  and  C12_15 
REMARK       I    between atoms: C12_15  and  N2_17 
REMARK    4  A    between atoms: N2_17  and  C13_19 
ROOT
HETATM    1  C5  UNL     1       2.088   0.034   1.110  1.00  0.00     0.247 C 
HETATM    2  F1  UNL     1       2.569  -0.823   2.083  1.00  0.00    -0.204 F 
HETATM    3  C6  UNL     1       3.024   0.029  -0.110  1.00  0.00     0.099 C 
HETATM    4  C7  UNL     1       2.636  -1.228  -0.817  1.00  0.00     0.038 C 
HETATM    5  C8  UNL     1       2.301  -0.971  -2.272  1.00  0.00     0.025 C 
HETATM    6  C11 UNL     1       1.367  -1.708  -0.154  1.00  0.00     0.149 C 
HETATM    7  N1  UNL     1       0.882  -0.499   0.536  1.00  0.00    -0.286 N 
HETATM    8  C12 UNL     1      -0.462  -0.053   0.577  1.00  0.00     0.326 C 
HETATM    9  O2  UNL     1      -0.738   0.993   1.209  1.00  0.00    -0.247 OA
HETATM   10  N2  UNL     1      -1.489  -0.762  -0.076  1.00  0.00    -0.306 N 
ATOM     11  H2  UNL     1      -1.216  -1.608  -0.576  1.00  0.00     0.171 HD
ENDROOT
BRANCH   1  12
HETATM   12  C4  UNL     1       1.888   1.377   1.604  1.00  0.00    -0.041 C 
HETATM   13  C3  UNL     1       1.749   2.513   2.025  1.00  0.00    -0.102 C 
BRANCH  13  14
HETATM   14  C2  UNL     1       1.595   3.871   2.551  1.00  0.00     0.089 C 
HETATM   15  C1  UNL     1       0.899   4.697   1.523  1.00  0.00     0.018 C 
ENDBRANCH  13  14
ENDBRANCH   1  12
BRANCH   4  16
HETATM   16  C9  UNL     1       3.732  -2.228  -0.707  1.00  0.00     0.133 C 
HETATM   17  C10 UNL     1       3.662  -3.588  -1.305  1.00  0.00     0.091 C 
HETATM   18  O1  UNL     1       4.750  -1.944  -0.103  1.00  0.00    -0.297 OA
ENDBRANCH   4  16
BRANCH  10  19
HETATM   19  C13 UNL     1      -2.858  -0.421  -0.108  1.00  0.00     0.077 A 
HETATM   20  C14 UNL     1      -3.480   0.650   0.474  1.00  0.00     0.141 A 
HETATM   21  N3  UNL     1      -4.796   0.583   0.185  1.00  0.00    -0.305 N 
HETATM   22  C15 UNL     1      -5.831   1.533   0.612  1.00  0.00     0.177 C 
HETATM   23  N4  UNL     1      -5.006  -0.484  -0.549  1.00  0.00    -0.301 N 
HETATM   24  C16 UNL     1      -3.861  -1.143  -0.766  1.00  0.00     0.050 A 
ATOM     25  H4  UNL     1      -5.917  -0.772  -0.906  1.00  0.00     0.187 HD
HETATM   26  C17 UNL     1      -3.685  -2.384  -1.542  1.00  0.00     0.072 C 
ENDBRANCH  10  19
TORSDOF 4
