REMARK  5 active torsions:
REMARK  status: ('A' for Active; 'I' for Inactive)
REMARK    1  A    between atoms: C5_8  and  C6_9 
REMARK    2  A    between atoms: C9_12  and  C10_13 
REMARK    3  A    between atoms: C12_17  and  C13_18 
REMARK    4  A    between atoms: C16_21  and  C17_22 
REMARK    5  A    between atoms: N3_23  and  C18_25 
ROOT
HETATM    1  C10 UNL     1      -2.030  -1.365  -0.022  1.00  0.00     0.059 A 
HETATM    2  C11 UNL     1      -1.661  -2.681   0.123  1.00  0.00     0.120 A 
HETATM    3  N2  UNL     1      -0.307  -2.704   0.105  1.00  0.00    -0.349 N 
ATOM      4  H2  UNL     1       0.265  -3.544   0.194  1.00  0.00     0.167 HD
HETATM    5  C12 UNL     1       0.171  -1.459  -0.047  1.00  0.00     0.116 A 
HETATM    6  N4  UNL     1      -0.899  -0.648  -0.123  1.00  0.00    -0.340 N 
ATOM      7  H4  UNL     1      -0.858   0.364  -0.240  1.00  0.00     0.167 HD
ENDROOT
BRANCH   5   8
HETATM    8  C13 UNL     1       1.572  -1.059  -0.115  1.00  0.00     0.008 A 
HETATM    9  C14 UNL     1       2.602  -1.972  -0.026  1.00  0.00     0.016 A 
HETATM   10  C15 UNL     1       3.927  -1.550  -0.096  1.00  0.00     0.014 A 
HETATM   11  C16 UNL     1       4.258  -0.221  -0.254  1.00  0.00    -0.021 A 
HETATM   12  C24 UNL     1       3.245   0.683  -0.343  1.00  0.00     0.014 A 
HETATM   13  C25 UNL     1       1.937   0.264  -0.273  1.00  0.00     0.016 A 
BRANCH  11  14
HETATM   14  C17 UNL     1       5.632   0.229  -0.328  1.00  0.00     0.099 C 
HETATM   15  N3  UNL     1       6.570  -0.648  -0.242  1.00  0.00    -0.365 N 
ATOM     16  H3  UNL     1       6.349  -1.637  -0.125  1.00  0.00     0.165 HD
BRANCH  15  17
HETATM   17  C18 UNL     1       7.919  -0.211  -0.314  1.00  0.00     0.031 A 
HETATM   18  C19 UNL     1       8.354   0.875   0.414  1.00  0.00     0.029 A 
HETATM   19  C20 UNL     1       9.667   1.281   0.329  1.00  0.00     0.002 A 
HETATM   20  C21 UNL     1      10.601   0.631  -0.479  1.00  0.00     0.000 A 
HETATM   21  C22 UNL     1      10.159  -0.448  -1.201  1.00  0.00     0.002 A 
HETATM   22  C23 UNL     1       8.852  -0.863  -1.124  1.00  0.00     0.029 A 
ENDBRANCH  15  17
ENDBRANCH  11  14
ENDBRANCH   5   8
BRANCH   1  23
HETATM   23  C9  UNL     1      -3.383  -0.795  -0.066  1.00  0.00    -0.008 A 
HETATM   24  C8  UNL     1      -3.565   0.557  -0.219  1.00  0.00     0.014 A 
HETATM   25  C7  UNL     1      -4.841   1.067  -0.258  1.00  0.00     0.013 A 
HETATM   26  C6  UNL     1      -5.980   0.289  -0.150  1.00  0.00    -0.020 A 
HETATM   27  C27 UNL     1      -5.774  -1.059   0.002  1.00  0.00     0.013 A 
HETATM   28  C26 UNL     1      -4.503  -1.591   0.043  1.00  0.00     0.014 A 
BRANCH  26  29
HETATM   29  C5  UNL     1      -7.313   0.887  -0.197  1.00  0.00     0.042 A 
HETATM   30  C1  UNL     1      -8.327   0.337  -0.954  1.00  0.00     0.256 A 
HETATM   31  O1  UNL     1      -8.104  -0.714  -1.627  1.00  0.00    -0.267 OA
HETATM   32  N1  UNL     1      -9.562   0.906  -0.988  1.00  0.00    -0.333 N 
HETATM   33  C2  UNL     1      -9.836   2.031  -0.279  1.00  0.00     0.091 A 
ATOM     34  H1  UNL     1     -10.295   0.480  -1.556  1.00  0.00     0.168 HD
HETATM   35  C3  UNL     1      -8.854   2.621   0.494  1.00  0.00     0.018 A 
HETATM   36  C4  UNL     1      -7.613   2.035   0.518  1.00  0.00     0.019 A 
ENDBRANCH  26  29
ENDBRANCH   1  23
TORSDOF 5
