REMARK  5 active torsions:
REMARK  status: ('A' for Active; 'I' for Inactive)
REMARK       I    between atoms: C1_2  and  N1_3 
REMARK       I    between atoms: C1_2  and  N2_11 
REMARK    1  A    between atoms: N1_3  and  C2_5 
REMARK    2  A    between atoms: N2_11  and  C8_13 
REMARK    3  A    between atoms: C13_18  and  C14_19 
REMARK       I    between atoms: C14_19  and  N3_21 
REMARK    4  A    between atoms: N3_21  and  C15_23 
REMARK    5  A    between atoms: C18_26  and  C19_27 
ROOT
HETATM    1  C8  UNL     1      -2.404  -2.259  -0.600  1.00  0.00     0.052 A 
HETATM    2  C9  UNL     1      -3.419  -3.121  -0.986  1.00  0.00     0.030 A 
HETATM    3  C10 UNL     1      -3.068  -4.359  -1.506  1.00  0.00     0.002 A 
HETATM    4  C11 UNL     1      -1.750  -4.717  -1.633  1.00  0.00     0.001 A 
HETATM    5  C12 UNL     1      -0.758  -3.845  -1.244  1.00  0.00     0.019 A 
HETATM    6  C13 UNL     1      -1.052  -2.609  -0.726  1.00  0.00     0.059 A 
ENDROOT
BRANCH   6   7
HETATM    7  C14 UNL     1       0.048  -1.666  -0.425  1.00  0.00     0.258 C 
HETATM    8  O2  UNL     1      -0.220  -0.498  -0.113  1.00  0.00    -0.267 OA
HETATM    9  N3  UNL     1       1.387  -2.045  -0.477  1.00  0.00    -0.322 N 
ATOM     10  H3  UNL     1       1.593  -3.009  -0.741  1.00  0.00     0.169 HD
BRANCH   9  11
HETATM   11  C15 UNL     1       2.490  -1.195  -0.191  1.00  0.00     0.050 A 
HETATM   12  C16 UNL     1       2.468  -0.046   0.541  1.00  0.00     0.033 A 
HETATM   13  C17 UNL     1       3.640   0.718   0.721  1.00  0.00     0.033 A 
HETATM   14  C18 UNL     1       4.841   0.341   0.174  1.00  0.00     0.042 A 
HETATM   15  N4  UNL     1       4.836  -0.796  -0.542  1.00  0.00    -0.363 N 
HETATM   16  C25 UNL     1       3.749  -1.542  -0.734  1.00  0.00     0.117 A 
ATOM     17  H4  UNL     1       5.713  -1.105  -0.962  1.00  0.00     0.165 HD
BRANCH  14  18
HETATM   18  C19 UNL     1       6.070   1.105   0.340  1.00  0.00    -0.009 A 
HETATM   19  C20 UNL     1       6.135   2.276   1.062  1.00  0.00     0.013 A 
HETATM   20  C21 UNL     1       7.351   2.929   1.160  1.00  0.00     0.001 A 
HETATM   21  C22 UNL     1       8.505   2.466   0.571  1.00  0.00     0.000 A 
HETATM   22  C23 UNL     1       8.429   1.285  -0.155  1.00  0.00     0.001 A 
HETATM   23  C24 UNL     1       7.230   0.631  -0.259  1.00  0.00     0.013 A 
ENDBRANCH  14  18
ENDBRANCH   9  11
ENDBRANCH   6   7
BRANCH   1  24
HETATM   24  N2  UNL     1      -2.769  -1.071   0.052  1.00  0.00    -0.308 N 
HETATM   25  C1  UNL     1      -3.991  -0.350  -0.122  1.00  0.00     0.325 C 
HETATM   26  O1  UNL     1      -4.858  -0.722  -0.906  1.00  0.00    -0.247 OA
HETATM   27  N1  UNL     1      -4.207   0.826   0.630  1.00  0.00    -0.309 N 
ATOM     28  H1  UNL     1      -3.467   1.117   1.268  1.00  0.00     0.170 HD
ATOM     29  H2  UNL     1      -2.097  -0.684   0.715  1.00  0.00     0.170 HD
BRANCH  27  30
HETATM   30  C2  UNL     1      -5.342   1.614   0.570  1.00  0.00     0.036 A 
HETATM   31  C3  UNL     1      -6.566   1.183   0.147  1.00  0.00     0.029 A 
HETATM   32  C4  UNL     1      -7.658   2.057   0.092  1.00  0.00     0.002 A 
HETATM   33  C5  UNL     1      -7.488   3.361   0.470  1.00  0.00     0.000 A 
HETATM   34  C6  UNL     1      -6.269   3.809   0.896  1.00  0.00     0.002 A 
HETATM   35  C7  UNL     1      -5.205   2.957   0.949  1.00  0.00     0.029 A 
ENDBRANCH  27  30
ENDBRANCH   1  24
TORSDOF 5
