REMARK  6 active torsions:
REMARK  status: ('A' for Active; 'I' for Inactive)
REMARK    1  A    between atoms: C4_8  and  C5_9 
REMARK    2  A    between atoms: C8_12  and  O1_13 
REMARK    3  A    between atoms: O1_13  and  C9_14 
REMARK    4  A    between atoms: C12_17  and  C13_18 
REMARK    5  A    between atoms: C19_26  and  N4_27 
REMARK    6  A    between atoms: N4_27  and  C20_29 
ROOT
HETATM    1  C5  UNL     1      -3.094  -1.471  -0.722  1.00  0.00    -0.020 A 
HETATM    2  C6  UNL     1      -2.468  -1.802  -1.898  1.00  0.00     0.015 A 
HETATM    3  C7  UNL     1      -1.291  -1.195  -2.244  1.00  0.00     0.040 A 
HETATM    4  C8  UNL     1      -0.656  -0.224  -1.454  1.00  0.00     0.102 A 
HETATM    5  C19 UNL     1      -1.291   0.101  -0.277  1.00  0.00     0.067 A 
HETATM    6  C25 UNL     1      -2.496  -0.524   0.072  1.00  0.00     0.044 A 
ENDROOT
BRANCH   4   7
HETATM    7  O1  UNL     1       0.538   0.333  -1.894  1.00  0.00    -0.309 OA
BRANCH   7   8
HETATM    8  C9  UNL     1       1.751   0.309  -1.302  1.00  0.00     0.076 A 
HETATM    9  C10 UNL     1       2.231   1.395  -0.614  1.00  0.00     0.038 A 
HETATM   10  C11 UNL     1       3.490   1.365   0.001  1.00  0.00     0.016 A 
HETATM   11  C12 UNL     1       4.262   0.226  -0.087  1.00  0.00    -0.009 A 
HETATM   12  C17 UNL     1       3.763  -0.850  -0.782  1.00  0.00     0.016 A 
HETATM   13  C18 UNL     1       2.533  -0.851  -1.395  1.00  0.00     0.038 A 
BRANCH  11  14
HETATM   14  C13 UNL     1       5.573   0.188   0.550  1.00  0.00     0.042 A 
HETATM   15  C14 UNL     1       6.163   1.207   1.267  1.00  0.00     0.031 A 
HETATM   16  C15 UNL     1       7.407   0.799   1.718  1.00  0.00     0.019 A 
HETATM   17  C16 UNL     1       7.557  -0.495   1.255  1.00  0.00     0.088 A 
HETATM   18  N3  UNL     1       6.450  -0.830   0.565  1.00  0.00    -0.365 N 
ATOM     19  H3  UNL     1       6.298  -1.733   0.115  1.00  0.00     0.165 HD
ENDBRANCH  11  14
ENDBRANCH   7   8
ENDBRANCH   4   7
BRANCH   5  20
HETATM   20  N4  UNL     1      -0.748   1.070   0.602  1.00  0.00    -0.354 N 
ATOM     21  H4  UNL     1       0.111   0.838   1.102  1.00  0.00     0.166 HD
BRANCH  20  22
HETATM   22  C20 UNL     1      -1.275   2.224   0.806  1.00  0.00     0.035 A 
HETATM   23  C21 UNL     1      -0.675   3.103   1.681  1.00  0.00     0.046 A 
HETATM   24  C22 UNL     1      -1.222   4.362   1.920  1.00  0.00     0.090 A 
HETATM   25  N5  UNL     1      -2.347   4.745   1.299  1.00  0.00    -0.375 N 
HETATM   26  C23 UNL     1      -2.960   3.918   0.440  1.00  0.00     0.090 A 
ATOM     27  H5  UNL     1      -2.738   5.669   1.481  1.00  0.00     0.164 HD
HETATM   28  C24 UNL     1      -2.427   2.651   0.188  1.00  0.00     0.046 A 
ENDBRANCH  20  22
ENDBRANCH   5  20
BRANCH   1  29
HETATM   29  C4  UNL     1      -4.342  -2.088  -0.313  1.00  0.00     0.015 A 
HETATM   30  C2  UNL     1      -4.608  -3.435  -0.382  1.00  0.00     0.034 A 
HETATM   31  C1  UNL     1      -3.693  -4.475  -0.873  1.00  0.00     0.070 C 
HETATM   32  N1  UNL     1      -5.872  -3.663   0.083  1.00  0.00    -0.305 N 
HETATM   33  N2  UNL     1      -6.398  -2.500   0.437  1.00  0.00    -0.311 N 
ATOM     34  H1  UNL     1      -6.331  -4.572   0.147  1.00  0.00     0.186 HD
HETATM   35  C3  UNL     1      -5.482  -1.512   0.206  1.00  0.00     0.121 A 
ATOM     36  H2  UNL     1      -7.334  -2.364   0.819  1.00  0.00     0.186 HD
ENDBRANCH   1  29
TORSDOF 6
