REMARK  2 active torsions:
REMARK  status: ('A' for Active; 'I' for Inactive)
REMARK    1  A    between atoms: C6_8  and  C7_9 
REMARK    2  A    between atoms: C8_10  and  C9_11 
ROOT
HETATM    1  C1  UNL     1      -5.988  -0.197  -0.904  1.00  0.00     0.068 C 
HETATM    2  C2  UNL     1      -4.530  -0.134  -0.582  1.00  0.00     0.015 A 
HETATM    3  C3  UNL     1      -3.607  -0.270  -1.601  1.00  0.00     0.055 A 
HETATM    4  C4  UNL     1      -2.242  -0.223  -1.384  1.00  0.00     0.046 A 
HETATM    5  N1  UNL     1      -1.347  -0.359  -2.403  1.00  0.00    -0.364 N 
ATOM      6  H1  UNL     1      -1.685  -0.500  -3.355  1.00  0.00     0.165 HD
HETATM    7  C5  UNL     1      -0.022  -0.310  -2.169  1.00  0.00     0.109 A 
HETATM    8  C6  UNL     1       0.470  -0.121  -0.893  1.00  0.00     0.034 A 
HETATM    9  C15 UNL     1      -0.455   0.016   0.136  1.00  0.00     0.038 A 
HETATM   10  C16 UNL     1      -1.810  -0.032  -0.091  1.00  0.00     0.019 A 
HETATM   11  C17 UNL     1      -2.757   0.099   0.896  1.00  0.00     0.051 A 
HETATM   12  C18 UNL     1      -2.598   0.295   2.252  1.00  0.00     0.032 A 
HETATM   13  C19 UNL     1      -3.840   0.366   2.848  1.00  0.00     0.020 A 
HETATM   14  C20 UNL     1      -4.744   0.207   1.814  1.00  0.00     0.097 A 
HETATM   15  N2  UNL     1      -4.072   0.050   0.666  1.00  0.00    -0.325 N 
ENDROOT
BRANCH   8  16
HETATM   16  C7  UNL     1       1.873  -0.061  -0.593  1.00  0.00    -0.060 C 
HETATM   17  C8  UNL     1       3.055  -0.020  -0.359  1.00  0.00    -0.061 C 
BRANCH  17  18
HETATM   18  C9  UNL     1       4.465   0.031  -0.106  1.00  0.00     0.018 A 
HETATM   19  C10 UNL     1       5.416   0.110  -1.099  1.00  0.00     0.020 A 
HETATM   20  C11 UNL     1       6.774   0.158  -0.813  1.00  0.00     0.001 A 
HETATM   21  C12 UNL     1       7.178   0.126   0.492  1.00  0.00     0.000 A 
HETATM   22  C13 UNL     1       6.248   0.048   1.488  1.00  0.00     0.001 A 
HETATM   23  C14 UNL     1       4.919   0.002   1.194  1.00  0.00     0.020 A 
ENDBRANCH  17  18
ENDBRANCH   8  16
TORSDOF 2
