REMARK  14 active torsions:
REMARK  status: ('A' for Active; 'I' for Inactive)
REMARK    1  A    between atoms: C2_2  and  C3_3 
REMARK    2  A    between atoms: C2_2  and  C34_49 
REMARK    3  A    between atoms: C4_4  and  C5_5 
REMARK    4  A    between atoms: C5_5  and  C7_7 
REMARK    5  A    between atoms: C16_17  and  C18_19 
REMARK    6  A    between atoms: C18_19  and  N1_20 
REMARK       I    between atoms: N1_20  and  C19_22 
REMARK    7  A    between atoms: C19_22  and  C20_24 
REMARK    8  A    between atoms: C20_24  and  N2_25 
REMARK    9  A    between atoms: C20_24  and  C21_29 
REMARK   10  A    between atoms: C21_29  and  C22_30 
REMARK   11  A    between atoms: C22_30  and  C23_31 
REMARK   12  A    between atoms: C23_31  and  C24_32 
REMARK   13  A    between atoms: C24_32  and  N3_33 
REMARK       I    between atoms: N3_33  and  C25_35 
REMARK       I    between atoms: C25_35  and  N4_37 
REMARK   14  A    between atoms: C29_42  and  O4_43 
ROOT
HETATM    1  C7  UNL     1      -4.913  -0.673  -0.788  1.00  0.00     0.093 C 
HETATM    2  C8  UNL     1      -4.624  -1.954  -0.111  1.00  0.00     0.141 C 
HETATM    3  O1  UNL     1      -5.188  -2.996   0.057  1.00  0.00    -0.297 OA
HETATM    4  C9  UNL     1      -3.291  -1.324   0.260  1.00  0.00     0.072 C 
HETATM    5  C10 UNL     1      -2.137  -1.816  -0.487  1.00  0.00     0.033 C 
HETATM    6  C11 UNL     1      -2.433  -2.651  -1.708  1.00  0.00     0.009 C 
HETATM    7  C12 UNL     1      -1.209  -3.504  -2.021  1.00  0.00     0.006 C 
HETATM    8  C13 UNL     1       0.030  -2.842  -1.511  1.00  0.00    -0.003 C 
HETATM    9  C14 UNL     1       1.245  -3.084  -2.398  1.00  0.00     0.006 C 
HETATM   10  C15 UNL     1       2.159  -1.976  -1.977  1.00  0.00     0.012 C 
HETATM   11  C16 UNL     1       1.335  -0.987  -1.171  1.00  0.00    -0.018 C 
HETATM   12  C17 UNL     1       1.643  -1.229   0.264  1.00  0.00     0.018 C 
HETATM   13  C27 UNL     1      -0.054  -1.325  -1.626  1.00  0.00    -0.000 C 
HETATM   14  C28 UNL     1      -0.086  -0.983  -3.106  1.00  0.00     0.019 C 
HETATM   15  C29 UNL     1      -1.164  -0.726  -0.840  1.00  0.00     0.071 C 
HETATM   16  C30 UNL     1      -1.905   0.354  -1.576  1.00  0.00     0.040 C 
HETATM   17  C31 UNL     1      -3.036   0.955  -0.824  1.00  0.00     0.014 C 
HETATM   18  C32 UNL     1      -3.859   0.016  -0.015  1.00  0.00    -0.019 C 
HETATM   19  C33 UNL     1      -4.285   0.663   1.314  1.00  0.00     0.017 C 
ENDROOT
BRANCH  11  20
HETATM   20  C18 UNL     1       1.757   0.400  -1.566  1.00  0.00     0.132 C 
BRANCH  20  21
HETATM   21  N1  UNL     1       3.191   0.518  -1.258  1.00  0.00    -0.359 N 
HETATM   22  C19 UNL     1       3.894   1.719  -1.520  1.00  0.00     0.248 C 
HETATM   23  O2  UNL     1       3.272   2.683  -2.018  1.00  0.00    -0.271 OA
ATOM     24  H1  UNL     1       3.685  -0.276  -0.850  1.00  0.00     0.162 HD
BRANCH  22  25
HETATM   25  C20 UNL     1       5.332   1.819  -1.207  1.00  0.00     0.274 C 
BRANCH  25  26
HETATM   26  N2  UNL     1       5.800   3.124  -1.585  1.00  0.00    -0.067 N 
ATOM     27  H23 UNL     1       5.598   3.343  -2.561  1.00  0.00     0.275 HD
ATOM     28  H22 UNL     1       5.255   3.872  -1.156  1.00  0.00     0.275 HD
ATOM     29  H21 UNL     1       6.794   3.193  -1.369  1.00  0.00     0.275 HD
ENDBRANCH  25  26
BRANCH  25  30
HETATM   30  C21 UNL     1       5.624   1.502   0.244  1.00  0.00     0.042 C 
BRANCH  30  31
HETATM   31  C22 UNL     1       7.096   1.608   0.570  1.00  0.00     0.004 C 
BRANCH  31  32
HETATM   32  C23 UNL     1       7.929   0.674  -0.243  1.00  0.00     0.020 C 
BRANCH  32  33
HETATM   33  C24 UNL     1       9.403   0.776   0.103  1.00  0.00     0.124 C 
BRANCH  33  34
HETATM   34  N3  UNL     1       9.606   0.435   1.488  1.00  0.00    -0.343 N 
HETATM   35  C25 UNL     1      10.883   0.445   2.085  1.00  0.00     0.315 C 
HETATM   36  O3  UNL     1      11.862   0.759   1.391  1.00  0.00    -0.247 OA
HETATM   37  N4  UNL     1      11.056   0.106   3.442  1.00  0.00    -0.347 N 
HETATM   38  C26 UNL     1      12.383   0.130   4.011  1.00  0.00     0.151 C 
ATOM     39  H4  UNL     1      10.253  -0.153   4.015  1.00  0.00     0.163 HD
ATOM     40  H3  UNL     1       8.799   0.178   2.056  1.00  0.00     0.164 HD
ENDBRANCH  33  34
ENDBRANCH  32  33
ENDBRANCH  31  32
ENDBRANCH  30  31
ENDBRANCH  25  30
ENDBRANCH  22  25
ENDBRANCH  20  21
ENDBRANCH  11  20
BRANCH  15  41
HETATM   41  O4  UNL     1      -0.686  -0.091   0.338  1.00  0.00    -0.389 OA
ATOM     42  H4  UNL     1      -0.071   0.598   0.115  1.00  0.00     0.210 HD
ENDBRANCH  15  41
BRANCH   1  43
HETATM   43  C5  UNL     1      -6.296  -0.205  -0.903  1.00  0.00    -0.072 C 
HETATM   44  C6  UNL     1      -6.394   0.889  -1.949  1.00  0.00     0.044 C 
BRANCH  43  45
HETATM   45  C4  UNL     1      -7.084   0.032   0.299  1.00  0.00     0.004 C 
HETATM   46  C3  UNL     1      -7.573   1.227   0.560  1.00  0.00     0.007 C 
BRANCH  46  47
HETATM   47  C2  UNL     1      -8.374   1.582   1.725  1.00  0.00    -0.064 C 
HETATM   48  C1  UNL     1      -8.773   2.837   1.820  1.00  0.00     0.019 C 
BRANCH  47  49
HETATM   49  C34 UNL     1      -8.785   0.637   2.776  1.00  0.00     0.009 C 
HETATM   50  C35 UNL     1      -7.657  -0.044   3.487  1.00  0.00     0.014 C 
HETATM   51  C36 UNL     1      -9.649   1.319   3.829  1.00  0.00     0.014 C 
ENDBRANCH  47  49
ENDBRANCH  46  47
ENDBRANCH  43  45
ENDBRANCH   1  43
TORSDOF 14
