REMARK  13 active torsions:
REMARK  status: ('A' for Active; 'I' for Inactive)
REMARK    1  A    between atoms: C2_2  and  C4_4 
REMARK       I    between atoms: C4_4  and  N1_6 
REMARK    2  A    between atoms: N1_6  and  C5_8 
REMARK    3  A    between atoms: C5_8  and  C6_9 
REMARK    4  A    between atoms: C6_9  and  N2_10 
REMARK    5  A    between atoms: N2_10  and  C7_12 
REMARK    6  A    between atoms: C16_21  and  C17_22 
REMARK    7  A    between atoms: C17_22  and  C19_24 
REMARK    8  A    between atoms: C22_27  and  C23_28 
REMARK       I    between atoms: C23_28  and  N3_30 
REMARK    9  A    between atoms: N3_30  and  C24_32 
REMARK   10  A    between atoms: C24_32  and  C26_35 
REMARK   11  A    between atoms: C26_35  and  C27_36 
REMARK   12  A    between atoms: C27_36  and  C28_37 
REMARK   13  A    between atoms: C28_37  and  N5_38 
REMARK       I    between atoms: N5_38  and  C29_40 
ROOT
HETATM    1  C24 UNL     1       7.473   0.235  -1.973  1.00  0.00     0.192 C 
HETATM    2  C25 UNL     1       7.888  -0.768  -3.013  1.00  0.00     0.084 C 
HETATM    3  N4  UNL     1       8.210  -1.545  -3.809  1.00  0.00    -0.195 NA
ENDROOT
BRANCH   1   4
HETATM    4  N3  UNL     1       6.101   0.625  -2.240  1.00  0.00    -0.342 N 
HETATM    5  C23 UNL     1       5.775   1.538  -3.291  1.00  0.00     0.247 C 
HETATM    6  O2  UNL     1       6.725   1.970  -3.986  1.00  0.00    -0.271 OA
ATOM      7  H3  UNL     1       5.352   0.239  -1.665  1.00  0.00     0.163 HD
BRANCH   5   8
HETATM    8  C22 UNL     1       4.391   1.973  -3.574  1.00  0.00     0.214 C 
HETATM    9  C21 UNL     1       4.253   3.420  -3.889  1.00  0.00     0.044 C 
HETATM   10  C20 UNL     1       3.496   3.949  -2.678  1.00  0.00     0.035 C 
HETATM   11  C19 UNL     1       2.680   2.712  -2.320  1.00  0.00     0.126 C 
HETATM   12  O3  UNL     1       3.499   1.640  -2.557  1.00  0.00    -0.371 OA
BRANCH  11  13
HETATM   13  C17 UNL     1       2.179   2.793  -0.886  1.00  0.00     0.015 C 
HETATM   14  C18 UNL     1       3.285   3.263  -0.043  1.00  0.00     0.013 C 
BRANCH  13  15
HETATM   15  C16 UNL     1       1.386   1.617  -0.523  1.00  0.00     0.000 C 
HETATM   16  C14 UNL     1       0.608   1.548   0.705  1.00  0.00    -0.036 C 
HETATM   17  C13 UNL     1      -0.564   2.487   0.796  1.00  0.00     0.010 C 
HETATM   18  C15 UNL     1       1.309   1.521   2.020  1.00  0.00     0.016 C 
HETATM   19  C32 UNL     1       0.020   0.125   0.616  1.00  0.00    -0.002 C 
HETATM   20  C12 UNL     1      -1.506   2.375  -0.400  1.00  0.00     0.006 C 
HETATM   21  C11 UNL     1      -2.157   1.044  -0.238  1.00  0.00    -0.010 C 
HETATM   22  C10 UNL     1      -3.198   0.666  -1.219  1.00  0.00     0.007 C 
HETATM   23  C33 UNL     1      -1.088  -0.022  -0.336  1.00  0.00    -0.006 C 
HETATM   24  C9  UNL     1      -4.422   0.089  -0.608  1.00  0.00     0.030 C 
HETATM   25  C7  UNL     1      -4.252  -0.918   0.480  1.00  0.00     0.022 C 
HETATM   26  C8  UNL     1      -4.933  -0.256   1.705  1.00  0.00     0.038 C 
HETATM   27  C35 UNL     1      -2.899  -1.250   0.918  1.00  0.00     0.030 C 
HETATM   28  C34 UNL     1      -1.813  -1.332  -0.104  1.00  0.00     0.008 C 
HETATM   29  C31 UNL     1       1.242  -0.647   0.249  1.00  0.00     0.006 C 
HETATM   30  C30 UNL     1       2.145   0.299  -0.542  1.00  0.00     0.006 C 
BRANCH  25  31
HETATM   31  N2  UNL     1      -5.135  -2.035   0.209  1.00  0.00    -0.411 N 
ATOM     32  H2  UNL     1      -5.616  -2.131  -0.685  1.00  0.00     0.154 HD
BRANCH  31  33
HETATM   33  C6  UNL     1      -5.298  -2.986   1.243  1.00  0.00     0.134 C 
BRANCH  33  34
HETATM   34  C5  UNL     1      -6.263  -4.079   0.803  1.00  0.00     0.141 C 
BRANCH  34  35
HETATM   35  N1  UNL     1      -7.557  -3.603   0.438  1.00  0.00    -0.359 N 
HETATM   36  C4  UNL     1      -8.431  -2.898   1.307  1.00  0.00     0.221 C 
HETATM   37  O1  UNL     1      -8.195  -2.606   2.487  1.00  0.00    -0.273 OA
ATOM     38  H1  UNL     1      -7.877  -3.782  -0.514  1.00  0.00     0.162 HD
BRANCH  36  39
HETATM   39  C2  UNL     1      -9.753  -2.467   0.755  1.00  0.00     0.070 C 
HETATM   40  C1  UNL     1      -9.554  -1.583  -0.463  1.00  0.00     0.019 C 
HETATM   41  C3  UNL     1     -10.603  -1.741   1.741  1.00  0.00     0.019 C 
ENDBRANCH  36  39
ENDBRANCH  34  35
ENDBRANCH  33  34
ENDBRANCH  31  33
ENDBRANCH  25  31
ENDBRANCH  13  15
ENDBRANCH  11  13
ENDBRANCH   5   8
ENDBRANCH   1   4
BRANCH   1  42
HETATM   42  C26 UNL     1       7.669  -0.385  -0.631  1.00  0.00     0.042 C 
BRANCH  42  43
HETATM   43  C27 UNL     1       7.230   0.584   0.441  1.00  0.00     0.023 C 
BRANCH  43  44
HETATM   44  C28 UNL     1       7.408  -0.045   1.812  1.00  0.00     0.122 C 
BRANCH  44  45
HETATM   45  N5  UNL     1       6.601  -1.238   1.879  1.00  0.00    -0.365 N 
HETATM   46  C29 UNL     1       6.590  -2.067   3.055  1.00  0.00     0.181 C 
HETATM   47  N6  UNL     1       5.908  -1.620   4.077  1.00  0.00    -0.374 N 
HETATM   48  N7  UNL     1       7.272  -3.287   3.098  1.00  0.00    -0.064 NA
ATOM     49  H62 UNL     1       5.411  -0.730   4.046  1.00  0.00     0.158 HD
ATOM     50  H61 UNL     1       5.900  -2.208   4.911  1.00  0.00     0.158 HD
ATOM     51  H5  UNL     1       6.027  -1.499   1.077  1.00  0.00     0.162 HD
ENDBRANCH  44  45
ENDBRANCH  43  44
ENDBRANCH  42  43
ENDBRANCH   1  42
TORSDOF 13
