REMARK  6 active torsions:
REMARK  status: ('A' for Active; 'I' for Inactive)
REMARK    1  A    between atoms: C2_2  and  N1_3 
REMARK    2  A    between atoms: N1_3  and  C4_5 
REMARK    3  A    between atoms: C4_5  and  C5_6 
REMARK    4  A    between atoms: C7_8  and  C8_9 
REMARK    5  A    between atoms: C8_9  and  C9_10 
REMARK    6  A    between atoms: C10_15  and  N4_16 
ROOT
HETATM    1  C5  UNL     1      -1.187  -0.595   0.864  1.00  0.00     0.019 C 
HETATM    2  C6  UNL     1      -0.072   0.418   0.649  1.00  0.00     0.016 C 
HETATM    3  C7  UNL     1       1.222  -0.245   0.944  1.00  0.00    -0.033 C 
HETATM    4  C11 UNL     1       1.342  -1.454   0.023  1.00  0.00     0.015 C 
HETATM    5  C12 UNL     1       0.391  -2.506   0.489  1.00  0.00    -0.009 C 
HETATM    6  C13 UNL     1       0.936  -3.102   1.767  1.00  0.00     0.010 C 
HETATM    7  C14 UNL     1       0.234  -1.933   2.469  1.00  0.00    -0.009 C 
HETATM    8  C15 UNL     1       1.186  -0.790   2.377  1.00  0.00     0.015 C 
HETATM    9  C16 UNL     1      -0.731  -1.926   1.310  1.00  0.00    -0.001 C 
ENDROOT
BRANCH   3  10
HETATM   10  C8  UNL     1       2.446   0.559   0.800  1.00  0.00     0.088 C 
BRANCH  10  11
HETATM   11  C9  UNL     1       2.756   1.108  -0.517  1.00  0.00     0.113 A 
HETATM   12  N2  UNL     1       2.090   1.043  -1.673  1.00  0.00    -0.274 N 
HETATM   13  N3  UNL     1       2.725   1.661  -2.633  1.00  0.00    -0.131 N 
ATOM     14  H2  UNL     1       1.195   0.569  -1.792  1.00  0.00     0.189 HD
HETATM   15  C10 UNL     1       3.842   2.148  -2.094  1.00  0.00     0.691 A 
ATOM     16  H3  UNL     1       2.425   1.753  -3.604  1.00  0.00     0.205 HD
HETATM   17  N5  UNL     1       3.865   1.814  -0.807  1.00  0.00    -0.178 N 
ATOM     18  H5  UNL     1       4.604   2.054  -0.146  1.00  0.00     0.185 HD
BRANCH  15  19
HETATM   19  N4  UNL     1       4.757   2.838  -2.727  1.00  0.00    -0.233 N 
ATOM     20  H42 UNL     1       4.739   3.094  -3.714  1.00  0.00     0.174 HD
ATOM     21  H41 UNL     1       5.612   3.211  -2.314  1.00  0.00     0.174 HD
ENDBRANCH  15  19
ENDBRANCH  10  11
ENDBRANCH   3  10
BRANCH   1  22
HETATM   22  C4  UNL     1      -1.986  -0.794  -0.425  1.00  0.00     0.277 C 
BRANCH  22  23
HETATM   23  N1  UNL     1      -2.605   0.395  -0.874  1.00  0.00     0.084 N 
HETATM   24  C3  UNL     1      -2.951   0.331  -2.259  1.00  0.00     0.309 C 
BRANCH  23  25
HETATM   25  C2  UNL     1      -3.717   0.826  -0.092  1.00  0.00     0.267 C 
HETATM   26  C1  UNL     1      -4.108   2.267  -0.287  1.00  0.00     0.037 C 
ENDBRANCH  23  25
ENDBRANCH  22  23
ENDBRANCH   1  22
TORSDOF 6
