REMARK  8 active torsions:
REMARK  status: ('A' for Active; 'I' for Inactive)
REMARK       I    between atoms: C1_4  and  N3_6 
REMARK    1  A    between atoms: C2_8  and  N4_9 
REMARK    2  A    between atoms: C2_8  and  C18_32 
REMARK    3  A    between atoms: N4_9  and  C3_11 
REMARK    4  A    between atoms: C3_11  and  C4_12 
REMARK       I    between atoms: C4_12  and  N5_14 
REMARK    5  A    between atoms: N5_14  and  S1_16 
REMARK    6  A    between atoms: S1_16  and  C5_19 
REMARK    7  A    between atoms: C10_24  and  C11_25 
REMARK    8  A    between atoms: C20_34  and  C21_35 
ROOT
HETATM    1  C3  UNL     1      -0.552   0.492   0.505  1.00  0.00     0.120 C 
HETATM    2  C8  UNL     1      -0.683  -0.148   1.855  1.00  0.00     0.069 C 
HETATM    3  C9  UNL     1      -1.474  -1.397   1.589  1.00  0.00    -0.021 C 
HETATM    4  C10 UNL     1      -2.201  -1.261   0.498  1.00  0.00    -0.077 C 
HETATM    5  C17 UNL     1      -1.961   0.096  -0.040  1.00  0.00     0.075 C 
ENDROOT
BRANCH   1   6
HETATM    6  N4  UNL     1       0.389  -0.031  -0.394  1.00  0.00    -0.361 N 
ATOM      7  H4  UNL     1      -0.009  -0.694  -1.059  1.00  0.00     0.162 HD
BRANCH   6   8
HETATM    8  C2  UNL     1       1.773   0.173  -0.565  1.00  0.00     0.085 C 
HETATM    9  N3  UNL     1       2.212   0.661  -1.658  1.00  0.00    -0.320 N 
HETATM   10  C1  UNL     1       1.601   1.075  -2.825  1.00  0.00     0.187 C 
ATOM     11  H3  UNL     1       3.226   0.768  -1.674  1.00  0.00     0.169 HD
HETATM   12  N1  UNL     1       1.869   2.302  -3.230  1.00  0.00    -0.373 N 
HETATM   13  N2  UNL     1       0.723   0.278  -3.615  1.00  0.00    -0.064 NA
ATOM     14  H12 UNL     1       1.418   2.608  -4.092  1.00  0.00     0.158 HD
ATOM     15  H11 UNL     1       2.498   2.873  -2.664  1.00  0.00     0.158 HD
BRANCH   8  16
HETATM   16  C18 UNL     1       2.703  -0.274   0.498  1.00  0.00     0.058 C 
HETATM   17  C19 UNL     1       3.957   0.578   0.633  1.00  0.00     0.031 C 
HETATM   18  C20 UNL     1       4.984  -0.521   0.682  1.00  0.00     0.040 C 
HETATM   19  C22 UNL     1       4.290  -1.725   1.327  1.00  0.00     0.024 C 
HETATM   20  C24 UNL     1       4.637  -1.232  -0.639  1.00  0.00     0.024 C 
HETATM   21  C23 UNL     1       3.358  -1.590   0.136  1.00  0.00    -0.001 C 
BRANCH  18  22
HETATM   22  C21 UNL     1       6.322  -0.242   1.014  1.00  0.00     0.239 C 
HETATM   23  N6  UNL     1       7.342  -1.222   1.062  1.00  0.00    -0.061 NA
HETATM   24  O4  UNL     1       6.666   0.961   1.294  1.00  0.00    -0.276 OA
ENDBRANCH  18  22
ENDBRANCH   8  16
ENDBRANCH   6   8
ENDBRANCH   1   6
BRANCH   1  25
HETATM   25  C4  UNL     1      -0.612   1.987   0.595  1.00  0.00     0.260 C 
HETATM   26  O1  UNL     1       0.264   2.581  -0.058  1.00  0.00    -0.270 OA
HETATM   27  N5  UNL     1      -1.552   2.695   1.333  1.00  0.00    -0.252 N 
ATOM     28  H5  UNL     1      -2.208   2.085   1.820  1.00  0.00     0.181 HD
BRANCH  27  29
HETATM   29  S1  UNL     1      -1.856   4.315   1.607  1.00  0.00     0.237 S 
HETATM   30  O2  UNL     1      -1.332   4.619   3.035  1.00  0.00    -0.205 OA
HETATM   31  O3  UNL     1      -3.374   4.571   1.758  1.00  0.00    -0.205 OA
BRANCH  29  32
HETATM   32  C5  UNL     1      -1.256   5.565   0.589  1.00  0.00     0.130 A 
HETATM   33  C6  UNL     1       0.102   5.761   0.076  1.00  0.00     0.023 A 
HETATM   34  C7  UNL     1      -1.034   5.511  -0.853  1.00  0.00     0.023 A 
ENDBRANCH  29  32
ENDBRANCH  27  29
ENDBRANCH   1  25
BRANCH   4  35
HETATM   35  C11 UNL     1      -3.124  -2.260  -0.117  1.00  0.00     0.014 C 
HETATM   36  C12 UNL     1      -3.095  -3.563   0.659  1.00  0.00     0.009 C 
HETATM   37  C13 UNL     1      -3.809  -4.592  -0.183  1.00  0.00     0.001 C 
HETATM   38  C14 UNL     1      -5.186  -4.191  -0.609  1.00  0.00     0.000 C 
HETATM   39  C15 UNL     1      -5.285  -2.778  -1.088  1.00  0.00     0.001 C 
HETATM   40  C16 UNL     1      -4.535  -1.796  -0.217  1.00  0.00     0.009 C 
ENDBRANCH   4  35
TORSDOF 8
