REMARK  8 active torsions:
REMARK  status: ('A' for Active; 'I' for Inactive)
REMARK    1  A    between atoms: C5_5  and  N1_6 
REMARK       I    between atoms: N1_6  and  C6_8 
REMARK    2  A    between atoms: C6_8  and  C7_10 
REMARK    3  A    between atoms: C7_10  and  C8_11 
REMARK       I    between atoms: C8_11  and  N2_13 
REMARK    4  A    between atoms: N2_13  and  C9_15 
REMARK    5  A    between atoms: C13_19  and  C14_20 
REMARK    6  A    between atoms: C14_20  and  O3_21 
REMARK    7  A    between atoms: C14_20  and  C15_23 
REMARK    8  A    between atoms: C23_31  and  C24_32 
ROOT
HETATM    1  C8  UNL     1       0.826   0.111  -1.506  1.00  0.00     0.226 C 
HETATM    2  O2  UNL     1       0.720  -0.522  -0.444  1.00  0.00    -0.273 OA
HETATM    3  N2  UNL     1      -0.307   0.146  -2.358  1.00  0.00    -0.356 N 
ATOM      4  H2  UNL     1      -0.241   0.661  -3.236  1.00  0.00     0.162 HD
ENDROOT
BRANCH   1   5
HETATM    5  C7  UNL     1       2.055   0.798  -1.885  1.00  0.00     0.205 C 
BRANCH   5   6
HETATM    6  C6  UNL     1       3.123   0.627  -0.851  1.00  0.00     0.230 C 
HETATM    7  N1  UNL     1       4.388   1.208  -1.004  1.00  0.00    -0.327 N 
ATOM      8  H1  UNL     1       4.525   1.751  -1.857  1.00  0.00     0.169 HD
HETATM    9  O1  UNL     1       2.850  -0.049   0.149  1.00  0.00    -0.273 OA
BRANCH   7  10
HETATM   10  C5  UNL     1       5.500   1.142  -0.134  1.00  0.00     0.035 A 
HETATM   11  C4  UNL     1       6.591   2.004  -0.349  1.00  0.00     0.030 A 
HETATM   12  C3  UNL     1       7.701   1.980   0.450  1.00  0.00     0.010 A 
HETATM   13  C2  UNL     1       7.815   1.116   1.504  1.00  0.00    -0.047 A 
HETATM   14  C1  UNL     1       9.053   1.174   2.302  1.00  0.00     0.049 C 
HETATM   15  C23 UNL     1       6.779   0.268   1.741  1.00  0.00     0.056 A 
HETATM   16  C22 UNL     1       5.636   0.283   0.929  1.00  0.00     0.046 A 
BRANCH  15  17
HETATM   17  C24 UNL     1       6.871  -0.682   2.877  1.00  0.00     0.418 C 
HETATM   18  F1  UNL     1       7.936  -1.549   2.779  1.00  0.00    -0.166 F 
HETATM   19  F2  UNL     1       6.827  -0.025   4.107  1.00  0.00    -0.166 F 
HETATM   20  F3  UNL     1       5.737  -1.473   2.853  1.00  0.00    -0.166 F 
ENDBRANCH  15  17
ENDBRANCH   7  10
ENDBRANCH   5   6
ENDBRANCH   1   5
BRANCH   3  21
HETATM   21  C9  UNL     1      -1.560  -0.521  -2.033  1.00  0.00     0.084 C 
HETATM   22  C10 UNL     1      -1.886  -1.597  -3.015  1.00  0.00     0.025 C 
HETATM   23  C11 UNL     1      -3.303  -1.893  -3.246  1.00  0.00     0.002 C 
HETATM   24  C12 UNL     1      -4.294  -0.848  -2.913  1.00  0.00     0.007 C 
HETATM   25  C13 UNL     1      -4.005  -0.019  -1.701  1.00  0.00     0.017 C 
HETATM   26  C21 UNL     1      -2.607   0.528  -1.875  1.00  0.00     0.032 C 
BRANCH  25  27
HETATM   27  C14 UNL     1      -4.126  -0.889  -0.476  1.00  0.00     0.126 C 
BRANCH  27  28
HETATM   28  O3  UNL     1      -5.418  -1.423  -0.378  1.00  0.00    -0.395 OA
ATOM     29  H3  UNL     1      -5.494  -1.971   0.394  1.00  0.00     0.210 HD
ENDBRANCH  27  28
BRANCH  27  30
HETATM   30  C15 UNL     1      -3.709  -0.212   0.803  1.00  0.00     0.015 C 
HETATM   31  C16 UNL     1      -4.504   1.009   1.129  1.00  0.00     0.007 C 
HETATM   32  C17 UNL     1      -5.675   0.792   2.012  1.00  0.00     0.000 C 
HETATM   33  C18 UNL     1      -5.401  -0.116   3.184  1.00  0.00     0.000 C 
HETATM   34  C19 UNL     1      -4.972  -1.455   2.600  1.00  0.00     0.000 C 
HETATM   35  C20 UNL     1      -3.683  -1.249   1.887  1.00  0.00     0.007 C 
ENDBRANCH  27  30
ENDBRANCH  25  27
ENDBRANCH   3  21
TORSDOF 8
