REMARK  10 active torsions:
REMARK  status: ('A' for Active; 'I' for Inactive)
REMARK    1  A    between atoms: O1_2  and  C2_3 
REMARK    2  A    between atoms: C5_6  and  C6_7 
REMARK    3  A    between atoms: C6_7  and  O2_8 
REMARK    4  A    between atoms: C6_7  and  C7_10 
REMARK    5  A    between atoms: C13_19  and  C14_20 
REMARK    6  A    between atoms: C16_22  and  C17_23 
REMARK    7  A    between atoms: C22_31  and  C23_32 
REMARK    8  A    between atoms: C24_35  and  O5_36 
REMARK    9  A    between atoms: O5_36  and  C25_37 
REMARK   10  A    between atoms: C25_37  and  C26_38 
ROOT
HETATM    1  C14 UNL     1      -0.567  -0.831   0.308  1.00  0.00     0.038 A 
HETATM    2  C15 UNL     1      -1.231  -2.055   0.475  1.00  0.00     0.055 A 
HETATM    3  C16 UNL     1      -2.427  -2.003  -0.166  1.00  0.00     0.093 A 
HETATM    4  O4  UNL     1      -2.484  -0.785  -0.706  1.00  0.00    -0.286 OA
HETATM    5  C24 UNL     1      -1.422  -0.088  -0.447  1.00  0.00     0.197 A 
ENDROOT
BRANCH   1   6
HETATM    6  C13 UNL     1       0.728  -0.418   0.810  1.00  0.00     0.013 A 
HETATM    7  C2  UNL     1       1.113  -0.644   2.110  1.00  0.00     0.079 A 
HETATM    8  C3  UNL     1       2.326  -0.260   2.585  1.00  0.00     0.038 A 
HETATM    9  C4  UNL     1       3.210   0.380   1.746  1.00  0.00     0.012 A 
HETATM   10  C5  UNL     1       2.881   0.635   0.431  1.00  0.00    -0.028 A 
HETATM   11  C12 UNL     1       1.644   0.235  -0.027  1.00  0.00     0.025 A 
BRANCH   7  12
HETATM   12  O1  UNL     1       0.170  -1.301   2.921  1.00  0.00    -0.355 OA
HETATM   13  C1  UNL     1       0.483  -1.573   4.268  1.00  0.00     0.210 C 
ENDBRANCH   7  12
BRANCH  10  14
HETATM   14  C6  UNL     1       3.880   1.324  -0.408  1.00  0.00     0.155 C 
BRANCH  14  15
HETATM   15  O2  UNL     1       3.209   2.323  -1.119  1.00  0.00    -0.391 OA
ATOM     16  H2  UNL     1       3.852   2.767  -1.659  1.00  0.00     0.210 HD
ENDBRANCH  14  15
BRANCH  14  17
HETATM   17  C7  UNL     1       4.506   0.410  -1.435  1.00  0.00     0.022 C 
HETATM   18  C8  UNL     1       5.502   1.223  -2.228  1.00  0.00     0.035 C 
HETATM   19  C9  UNL     1       6.777   1.489  -1.499  1.00  0.00     0.232 C 
HETATM   20  N1  UNL     1       7.350   0.284  -0.929  1.00  0.00    -0.075 N 
HETATM   21  C10 UNL     1       6.411  -0.387  -0.051  1.00  0.00     0.232 C 
ATOM     22  H12 UNL     1       7.697  -0.344  -1.654  1.00  0.00     0.277 HD
ATOM     23  H11 UNL     1       8.231   0.478  -0.454  1.00  0.00     0.277 HD
HETATM   24  C11 UNL     1       5.203  -0.772  -0.846  1.00  0.00     0.035 C 
ENDBRANCH  14  17
ENDBRANCH  10  14
ENDBRANCH   1   6
BRANCH   5  25
HETATM   25  O5  UNL     1      -1.237   1.212  -0.896  1.00  0.00    -0.329 OA
BRANCH  25  26
HETATM   26  C25 UNL     1      -1.740   2.343  -0.224  1.00  0.00     0.182 C 
BRANCH  26  27
HETATM   27  C26 UNL     1      -3.247   2.308  -0.103  1.00  0.00     0.010 C 
HETATM   28  C27 UNL     1      -3.937   2.266  -1.435  1.00  0.00     0.007 C 
HETATM   29  C28 UNL     1      -4.950   3.370  -1.463  1.00  0.00     0.000 C 
HETATM   30  C29 UNL     1      -4.623   4.297  -0.318  1.00  0.00     0.000 C 
HETATM   31  C30 UNL     1      -3.696   3.546   0.604  1.00  0.00     0.007 C 
ENDBRANCH  26  27
ENDBRANCH  25  26
ENDBRANCH   5  25
BRANCH   3  32
HETATM   32  C17 UNL     1      -3.517  -2.967  -0.338  1.00  0.00     0.056 A 
HETATM   33  C18 UNL     1      -4.327  -2.791  -1.483  1.00  0.00     0.169 A 
HETATM   34  F1  UNL     1      -4.031  -1.754  -2.334  1.00  0.00    -0.202 F 
HETATM   35  C19 UNL     1      -5.371  -3.622  -1.748  1.00  0.00     0.158 A 
HETATM   36  F2  UNL     1      -6.145  -3.429  -2.869  1.00  0.00    -0.203 F 
HETATM   37  C20 UNL     1      -5.675  -4.670  -0.903  1.00  0.00     0.088 A 
HETATM   38  C21 UNL     1      -4.885  -4.827   0.201  1.00  0.00     0.133 A 
HETATM   39  F3  UNL     1      -5.150  -5.852   1.064  1.00  0.00    -0.205 F 
HETATM   40  C22 UNL     1      -3.803  -3.992   0.510  1.00  0.00     0.056 A 
BRANCH  40  41
HETATM   41  C23 UNL     1      -3.127  -4.173   1.773  1.00  0.00     0.274 C 
HETATM   42  O3  UNL     1      -3.428  -5.191   2.472  1.00  0.00    -0.301 OA
ENDBRANCH  40  41
ENDBRANCH   3  32
TORSDOF 10
