REMARK  18 active torsions:
REMARK  status: ('A' for Active; 'I' for Inactive)
REMARK    1  A    between atoms: O1_2  and  C2_3 
REMARK    2  A    between atoms: C2_3  and  C3_5 
REMARK    3  A    between atoms: C3_5  and  O3_6 
REMARK    4  A    between atoms: C4_9  and  N1_10 
REMARK    5  A    between atoms: C6_15  and  C7_16 
REMARK       I    between atoms: C7_16  and  N3_18 
REMARK    6  A    between atoms: N3_18  and  C8_19 
REMARK    7  A    between atoms: C8_19  and  C9_20 
REMARK    8  A    between atoms: C9_20  and  O7_21 
REMARK    9  A    between atoms: C9_20  and  N4_23 
REMARK   10  A    between atoms: N4_23  and  C10_24 
REMARK   11  A    between atoms: C10_24  and  C11_25 
REMARK   12  A    between atoms: C11_25  and  N5_26 
REMARK   13  A    between atoms: C12_27  and  N6_28 
REMARK   14  A    between atoms: C17_37  and  N8_38 
REMARK   15  A    between atoms: C18_43  and  S1_44 
REMARK   16  A    between atoms: S1_44  and  C19_45 
REMARK   17  A    between atoms: C22_51  and  O11_52 
REMARK   18  A    between atoms: C23_54  and  O12_55 
ROOT
HETATM    1  N1  UNL     1      -2.351  -0.608  -0.185  1.00  0.00    -0.256 N 
HETATM    2  C5  UNL     1      -1.467  -1.147  -1.032  1.00  0.00     0.331 A 
HETATM    3  O5  UNL     1      -1.840  -1.951  -1.912  1.00  0.00    -0.246 OA
HETATM    4  N2  UNL     1      -0.136  -0.855  -0.983  1.00  0.00    -0.302 N 
ATOM      5  H2  UNL     1       0.487  -1.299  -1.658  1.00  0.00     0.171 HD
HETATM    6  C6  UNL     1       0.381  -0.022  -0.100  1.00  0.00     0.137 A 
HETATM    7  C16 UNL     1      -0.490   0.582   0.821  1.00  0.00     0.086 A 
HETATM    8  C17 UNL     1      -0.013   1.462   1.761  1.00  0.00     0.117 A 
HETATM    9  N9  UNL     1      -0.935   2.015   2.623  1.00  0.00    -0.322 N 
ATOM     10  H9  UNL     1      -0.618   2.673   3.335  1.00  0.00     0.169 HD
HETATM   11  C18 UNL     1      -2.213   1.716   2.550  1.00  0.00     0.154 A 
HETATM   12  N10 UNL     1      -2.676   0.850   1.630  1.00  0.00    -0.321 N 
ATOM     13  H10 UNL     1      -3.672   0.631   1.598  1.00  0.00     0.169 HD
HETATM   14  C20 UNL     1      -1.837   0.271   0.753  1.00  0.00     0.132 A 
ENDROOT
BRANCH   6  15
HETATM   15  C7  UNL     1       1.829   0.266   0.022  1.00  0.00     0.343 C 
HETATM   16  O6  UNL     1       2.246   1.287  -0.525  1.00  0.00    -0.249 OA
HETATM   17  N3  UNL     1       2.625  -0.670   0.796  1.00  0.00    -0.372 NA
BRANCH  17  18
HETATM   18  C8  UNL     1       3.371  -1.472   1.479  1.00  0.00     0.258 C 
BRANCH  18  19
HETATM   19  C9  UNL     1       4.680  -2.045   0.981  1.00  0.00     0.242 C 
BRANCH  19  20
HETATM   20  O7  UNL     1       5.208  -2.830   1.874  1.00  0.00    -0.334 OA
ATOM     21  H7  UNL     1       6.030  -3.190   1.561  1.00  0.00     0.220 HD
ENDBRANCH  19  20
BRANCH  19  22
HETATM   22  N4  UNL     1       5.285  -1.816  -0.221  1.00  0.00    -0.394 NA
BRANCH  22  23
HETATM   23  C10 UNL     1       5.896  -1.584  -1.434  1.00  0.00     0.178 C 
BRANCH  23  24
HETATM   24  C11 UNL     1       7.317  -1.036  -1.426  1.00  0.00     0.191 C 
BRANCH  24  25
HETATM   25  N5  UNL     1       7.461   0.235  -0.771  1.00  0.00    -0.311 N 
HETATM   26  C12 UNL     1       7.297   1.489  -1.289  1.00  0.00     0.193 A 
HETATM   27  C13 UNL     1       7.546   2.419  -0.268  1.00  0.00     0.144 A 
HETATM   28  N7  UNL     1       7.851   1.750   0.831  1.00  0.00    -0.352 N 
HETATM   29  C14 UNL     1       7.801   0.439   0.525  1.00  0.00     0.081 A 
ATOM     30  H7  UNL     1       8.081   2.151   1.740  1.00  0.00     0.166 HD
HETATM   31  C15 UNL     1       8.147  -0.592   1.561  1.00  0.00     0.089 C 
BRANCH  26  32
HETATM   32  N6  UNL     1       6.988   1.792  -2.629  1.00  0.00    -0.096 N 
HETATM   33  O8  UNL     1       6.841   3.022  -2.943  1.00  0.00    -0.530 OA
HETATM   34  O9  UNL     1       6.810   0.922  -3.651  1.00  0.00    -0.530 OA
ENDBRANCH  26  32
ENDBRANCH  24  25
ENDBRANCH  23  24
ENDBRANCH  22  23
ENDBRANCH  19  22
ENDBRANCH  18  19
ENDBRANCH  17  18
ENDBRANCH   6  15
BRANCH   8  35
HETATM   35  N8  UNL     1       1.223   1.795   1.913  1.00  0.00    -0.385 N 
ATOM     36  H82 UNL     1       1.905   1.386   1.275  1.00  0.00     0.157 HD
ATOM     37  H81 UNL     1       1.577   2.449   2.611  1.00  0.00     0.157 HD
ENDBRANCH   8  35
BRANCH   1  38
HETATM   38  C4  UNL     1      -3.760  -0.891  -0.160  1.00  0.00     0.241 C 
HETATM   39  O4  UNL     1      -4.469   0.244  -0.584  1.00  0.00    -0.319 OA
HETATM   40  C3  UNL     1      -5.839   0.145  -0.381  1.00  0.00     0.284 C 
HETATM   41  C23 UNL     1      -6.303  -1.249  -0.097  1.00  0.00     0.220 C 
HETATM   42  C22 UNL     1      -5.698  -2.195  -1.080  1.00  0.00     0.157 C 
HETATM   43  C21 UNL     1      -4.192  -1.980  -1.129  1.00  0.00     0.089 C 
BRANCH  40  44
HETATM   44  C2  UNL     1      -6.549   0.642  -1.588  1.00  0.00     0.324 C 
HETATM   45  O2  UNL     1      -6.327   0.286  -2.762  1.00  0.00    -0.259 OA
BRANCH  44  46
HETATM   46  O1  UNL     1      -7.562   1.593  -1.421  1.00  0.00    -0.322 OA
HETATM   47  C1  UNL     1      -8.296   2.099  -2.530  1.00  0.00     0.213 C 
ENDBRANCH  44  46
ENDBRANCH  40  44
BRANCH  40  48
HETATM   48  O3  UNL     1      -6.285   0.943   0.700  1.00  0.00    -0.355 OA
ATOM     49  H3  UNL     1      -5.831   0.625   1.472  1.00  0.00     0.213 HD
ENDBRANCH  40  48
BRANCH  41  50
HETATM   50  O12 UNL     1      -7.718  -1.211  -0.251  1.00  0.00    -0.387 OA
ATOM     51  H12 UNL     1      -8.013  -2.096  -0.071  1.00  0.00     0.210 HD
ENDBRANCH  41  50
BRANCH  42  52
HETATM   52  O11 UNL     1      -6.020  -3.501  -0.663  1.00  0.00    -0.393 OA
ATOM     53  H11 UNL     1      -6.960  -3.635  -0.632  1.00  0.00     0.210 HD
ENDBRANCH  42  52
ENDBRANCH   1  38
BRANCH  11  54
HETATM   54  S1  UNL     1      -3.416   2.490   3.652  1.00  0.00    -0.025 SA
BRANCH  54  55
HETATM   55  C19 UNL     1      -3.926   3.996   2.809  1.00  0.00     0.312 C 
HETATM   56  O10 UNL     1      -3.526   4.320   1.705  1.00  0.00    -0.295 OA
ENDBRANCH  54  55
ENDBRANCH  11  54
TORSDOF 18
