REMARK  1 active torsions:
REMARK  status: ('A' for Active; 'I' for Inactive)
REMARK    1  A    between atoms: C1_2  and  C2_5 
ROOT
HETATM    1  C2  UNL     1      -1.167  -0.919   0.832  1.00  0.00     0.136 C 
HETATM    2  C3  UNL     1      -2.282  -0.684  -0.114  1.00  0.00     0.236 C 
HETATM    3  C4  UNL     1      -3.282  -1.765  -0.319  1.00  0.00     0.038 C 
HETATM    4  C5  UNL     1      -4.063  -1.399  -1.600  1.00  0.00     0.020 C 
HETATM    5  C6  UNL     1      -4.902  -0.199  -1.214  1.00  0.00     0.086 C 
HETATM    6 BR1  UNL     1      -5.987   0.426  -2.666  1.00  0.00    -0.089 Br
HETATM    7  C7  UNL     1      -3.963   0.902  -0.776  1.00  0.00     0.288 C 
HETATM    8  N1  UNL     1      -3.092   0.488   0.295  1.00  0.00     0.095 N 
HETATM    9  C8  UNL     1      -2.306   1.606   0.691  1.00  0.00     0.273 C 
HETATM   10  C9  UNL     1      -1.055   1.833  -0.104  1.00  0.00     0.031 C 
HETATM   11  C10 UNL     1       0.135   1.108   0.460  1.00  0.00     0.013 C 
HETATM   12  C11 UNL     1       0.093  -0.385   0.215  1.00  0.00    -0.016 C 
HETATM   13  C12 UNL     1       0.214  -0.667  -1.281  1.00  0.00     0.044 C 
HETATM   14  C13 UNL     1       1.674  -0.873  -1.075  1.00  0.00     0.196 C 
HETATM   15  N2  UNL     1       2.571   0.178  -1.416  1.00  0.00    -0.062 N 
ATOM     16  H21 UNL     1       2.161   1.103  -1.285  1.00  0.00     0.278 HD
ATOM     17  H22 UNL     1       2.738   0.242  -2.420  1.00  0.00     0.278 HD
HETATM   18  C14 UNL     1       3.787  -0.002  -0.661  1.00  0.00     0.215 C 
HETATM   19  C15 UNL     1       4.862   1.004  -1.004  1.00  0.00     0.038 C 
HETATM   20  C16 UNL     1       5.494   1.410   0.289  1.00  0.00     0.007 C 
HETATM   21  C17 UNL     1       4.497   1.183   1.375  1.00  0.00     0.036 C 
HETATM   22  C18 UNL     1       3.452   0.336   0.763  1.00  0.00    -0.053 C 
HETATM   23  C19 UNL     1       2.318  -0.158   1.228  1.00  0.00    -0.014 C 
HETATM   24  C20 UNL     1       1.392  -1.012   0.406  1.00  0.00     0.048 C 
ENDROOT
BRANCH   1  25
HETATM   25  C1  UNL     1      -1.016  -2.290   1.408  1.00  0.00     0.394 C 
HETATM   26  F1  UNL     1      -0.790  -3.295   0.529  1.00  0.00    -0.171 F 
HETATM   27  F2  UNL     1      -0.120  -2.221   2.461  1.00  0.00    -0.171 F 
HETATM   28  F3  UNL     1      -2.212  -2.602   2.075  1.00  0.00    -0.171 F 
ENDBRANCH   1  25
TORSDOF 1
