REMARK  5 active torsions:
REMARK  status: ('A' for Active; 'I' for Inactive)
REMARK    1  A    between atoms: C2_2  and  C4_5 
REMARK    2  A    between atoms: C5_6  and  C6_7 
REMARK    3  A    between atoms: C7_9  and  C8_10 
REMARK    4  A    between atoms: C9_11  and  C10_12 
REMARK    5  A    between atoms: C10_12  and  C11_15 
ROOT
HETATM    1  C6  UNL     1      -0.105   0.592  -0.576  1.00  0.00     0.189 A 
HETATM    2  F1  UNL     1       0.453   1.646  -1.245  1.00  0.00    -0.227 F 
HETATM    3  C7  UNL     1       0.712  -0.089   0.420  1.00  0.00     0.130 A 
HETATM    4  C12 UNL     1       0.454  -0.814  -0.847  1.00  0.00     0.020 A 
HETATM    5  C13 UNL     1       1.472  -0.859  -1.946  1.00  0.00     0.021 C 
HETATM    6  C14 UNL     1      -0.528  -1.965  -0.821  1.00  0.00     0.021 C 
ENDROOT
BRANCH   3   7
HETATM    7  C8  UNL     1       2.125   0.321   0.599  1.00  0.00    -0.093 C 
HETATM    8  C9  UNL     1       3.281   0.637   0.736  1.00  0.00    -0.061 C 
BRANCH   8   9
HETATM    9  C10 UNL     1       4.686   0.996   0.893  1.00  0.00     0.225 C 
HETATM   10 BR1  UNL     1       5.045   2.492  -0.307  1.00  0.00    -0.046 Br
HETATM   11 BR2  UNL     1       4.904   1.620   2.729  1.00  0.00    -0.046 Br
BRANCH   9  12
HETATM   12  C11 UNL     1       5.589  -0.134   0.609  1.00  0.00     0.217 C 
HETATM   13  O1  UNL     1       5.125  -1.248   0.276  1.00  0.00    -0.645 OA
HETATM   14  O2  UNL     1       6.961   0.001   0.702  1.00  0.00    -0.645 OA
ENDBRANCH   9  12
ENDBRANCH   8   9
ENDBRANCH   3   7
BRANCH   1  15
HETATM   15  C5  UNL     1      -1.567   0.616  -0.333  1.00  0.00    -0.058 C 
HETATM   16  C4  UNL     1      -2.756   0.617  -0.126  1.00  0.00    -0.077 C 
BRANCH  16  17
HETATM   17  C2  UNL     1      -4.204   0.598   0.143  1.00  0.00     0.093 C 
HETATM   18  C1  UNL     1      -4.508  -0.742   0.768  1.00  0.00     0.046 C 
HETATM   19  C3  UNL     1      -4.641   1.742   0.996  1.00  0.00     0.046 C 
HETATM   20 CL1  UNL     1      -5.130   0.672  -1.391  1.00  0.00    -0.106 Cl
ENDBRANCH  16  17
ENDBRANCH   1  15
TORSDOF 5
