REMARK  2 active torsions:
REMARK  status: ('A' for Active; 'I' for Inactive)
REMARK    1  A    between atoms: C7_10  and  C8_11 
REMARK    2  A    between atoms: C10_13  and  C11_14 
ROOT
HETATM    1  C8  UNL     1       2.245   0.642  -0.262  1.00  0.00     0.063 A 
HETATM    2  C9  UNL     1       0.993   0.207   0.120  1.00  0.00     0.066 A 
HETATM    3  C10 UNL     1       0.038   0.907  -0.557  1.00  0.00     0.094 A 
HETATM    4  N3  UNL     1       0.701   1.767  -1.350  1.00  0.00    -0.297 N 
ATOM      5  H3  UNL     1       0.266   2.435  -1.986  1.00  0.00     0.187 HD
HETATM    6  N4  UNL     1       1.993   1.616  -1.181  1.00  0.00    -0.299 N 
ATOM      7  H4  UNL     1       2.709   2.153  -1.670  1.00  0.00     0.187 HD
ENDROOT
BRANCH   3   8
HETATM    8  C11 UNL     1      -1.425   0.794  -0.481  1.00  0.00     0.135 A 
HETATM    9  N1  UNL     1      -2.319   1.516  -1.178  1.00  0.00    -0.339 N 
HETATM   10  C12 UNL     1      -3.576   1.152  -0.863  1.00  0.00     0.061 A 
ATOM     11  H1  UNL     1      -2.078   2.241  -1.854  1.00  0.00     0.167 HD
HETATM   12  C13 UNL     1      -4.837   1.552  -1.264  1.00  0.00     0.032 A 
HETATM   13  C18 UNL     1      -3.463   0.145   0.086  1.00  0.00     0.066 A 
HETATM   14  C14 UNL     1      -5.999   1.009  -0.779  1.00  0.00     0.003 A 
HETATM   15  C15 UNL     1      -5.882  -0.004   0.174  1.00  0.00     0.009 A 
HETATM   16  C16 UNL     1      -4.627  -0.407   0.579  1.00  0.00    -0.033 A 
HETATM   17  C17 UNL     1      -4.540  -1.485   1.593  1.00  0.00     0.050 C 
HETATM   18  N2  UNL     1      -2.150  -0.040   0.286  1.00  0.00    -0.338 N 
ATOM     19  H2  UNL     1      -1.754  -0.722   0.933  1.00  0.00     0.167 HD
ENDBRANCH   3   8
BRANCH   1  20
HETATM   20  C7  UNL     1       3.558   0.186   0.194  1.00  0.00     0.023 A 
HETATM   21  C2  UNL     1       4.238  -0.846  -0.429  1.00  0.00    -0.030 A 
HETATM   22  C1  UNL     1       3.592  -1.485  -1.588  1.00  0.00     0.050 C 
HETATM   23  C3  UNL     1       5.485  -1.258   0.027  1.00  0.00     0.019 A 
HETATM   24 BR1  UNL     1       6.388  -2.700  -0.879  1.00  0.00    -0.050 Br
HETATM   25  C4  UNL     1       6.084  -0.655   1.113  1.00  0.00     0.045 A 
HETATM   26  C5  UNL     1       5.401   0.373   1.731  1.00  0.00     0.058 A 
HETATM   27 CL1  UNL     1       6.107   1.165   3.097  1.00  0.00    -0.082 Cl
HETATM   28  C6  UNL     1       4.161   0.786   1.280  1.00  0.00     0.069 A 
HETATM   29 CL2  UNL     1       3.283   2.101   2.066  1.00  0.00    -0.082 Cl
ENDBRANCH   1  20
TORSDOF 2
