REMARK  13 active torsions:
REMARK  status: ('A' for Active; 'I' for Inactive)
REMARK    1  A    between atoms: C2_2  and  C4_4 
REMARK    2  A    between atoms: C4_4  and  C5_5 
REMARK    3  A    between atoms: C5_5  and  C6_6 
REMARK    4  A    between atoms: C5_5  and  N1_10 
REMARK    5  A    between atoms: C6_6  and  C7_7 
REMARK    6  A    between atoms: N1_10  and  C8_12 
REMARK    7  A    between atoms: C8_12  and  O3_13 
REMARK    8  A    between atoms: C8_12  and  C9_15 
REMARK    9  A    between atoms: C9_15  and  N2_16 
REMARK   10  A    between atoms: C9_15  and  C18_31 
REMARK       I    between atoms: N2_16  and  C10_18 
REMARK   11  A    between atoms: C10_18  and  C11_20 
REMARK   12  A    between atoms: C11_20  and  N3_21 
REMARK   13  A    between atoms: C11_20  and  C12_25 
ROOT
HETATM    1  C9  UNL     1      -0.129  -0.592   0.864  1.00  0.00     0.162 C 
ENDROOT
BRANCH   1   2
HETATM    2  C8  UNL     1       1.008  -0.033   0.176  1.00  0.00     0.135 C 
BRANCH   2   3
HETATM    3  N1  UNL     1       2.288  -0.522  -0.055  1.00  0.00    -0.368 N 
ATOM      4  H1  UNL     1       2.517  -1.448   0.306  1.00  0.00     0.161 HD
BRANCH   3   5
HETATM    5  C5  UNL     1       3.344   0.217  -0.794  1.00  0.00     0.093 C 
BRANCH   5   6
HETATM    6  C4  UNL     1       4.412   0.454   0.186  1.00  0.00     0.029 C 
BRANCH   6   7
HETATM    7  C2  UNL     1       5.583   1.279  -0.144  1.00  0.00    -0.021 C 
HETATM    8  C1  UNL     1       5.231   2.720  -0.503  1.00  0.00     0.009 C 
HETATM    9  C3  UNL     1       6.416   1.397   1.148  1.00  0.00     0.009 C 
ENDBRANCH   6   7
ENDBRANCH   5   6
BRANCH   5  10
HETATM   10  C6  UNL     1       3.640  -0.484  -2.059  1.00  0.00     0.138 C 
BRANCH  10  11
HETATM   11  C7  UNL     1       4.607   0.102  -2.989  1.00  0.00     0.174 C 
HETATM   12  O1  UNL     1       4.415   1.188  -3.592  1.00  0.00    -0.648 OA
HETATM   13  O2  UNL     1       5.845  -0.507  -3.295  1.00  0.00    -0.648 OA
ENDBRANCH  10  11
ENDBRANCH   5  10
ENDBRANCH   3   5
ENDBRANCH   2   3
BRANCH   2  14
HETATM   14  O3  UNL     1       0.812   1.148  -0.331  1.00  0.00    -0.348 OA
ATOM     15  H3  UNL     1      -0.063   1.482  -0.173  1.00  0.00     0.219 HD
ENDBRANCH   2  14
ENDBRANCH   1   2
BRANCH   1  16
HETATM   16  N2  UNL     1      -1.372  -0.355   0.194  1.00  0.00    -0.347 N 
HETATM   17  C10 UNL     1      -2.242  -1.198  -0.481  1.00  0.00     0.249 C 
HETATM   18  O4  UNL     1      -1.979  -2.421  -0.610  1.00  0.00    -0.271 OA
ATOM     19  H2  UNL     1      -1.675   0.619   0.218  1.00  0.00     0.163 HD
BRANCH  17  20
HETATM   20  C11 UNL     1      -3.525  -0.754  -1.101  1.00  0.00     0.278 C 
BRANCH  20  21
HETATM   21  N3  UNL     1      -3.954  -1.861  -1.983  1.00  0.00    -0.066 N 
ATOM     22  H33 UNL     1      -3.246  -2.137  -2.664  1.00  0.00     0.275 HD
ATOM     23  H32 UNL     1      -4.022  -2.760  -1.505  1.00  0.00     0.275 HD
ATOM     24  H31 UNL     1      -4.831  -1.558  -2.407  1.00  0.00     0.275 HD
ENDBRANCH  20  21
BRANCH  20  25
HETATM   25  C12 UNL     1      -4.651  -0.571  -0.143  1.00  0.00     0.025 C 
HETATM   26  C13 UNL     1      -5.860  -0.131  -0.947  1.00  0.00     0.007 C 
HETATM   27  C14 UNL     1      -6.603   0.992  -0.262  1.00  0.00     0.000 C 
HETATM   28  C15 UNL     1      -5.630   2.164  -0.183  1.00  0.00     0.000 C 
HETATM   29  C16 UNL     1      -4.527   1.790   0.746  1.00  0.00     0.000 C 
HETATM   30  C17 UNL     1      -4.428   0.309   1.024  1.00  0.00     0.007 C 
ENDBRANCH  20  25
ENDBRANCH  17  20
ENDBRANCH   1  16
BRANCH   1  31
HETATM   31  C18 UNL     1       0.090  -1.975   1.398  1.00  0.00     0.008 C 
HETATM   32  C19 UNL     1       1.262  -1.990   2.395  1.00  0.00     0.012 C 
HETATM   33  C20 UNL     1      -1.113  -2.453   2.216  1.00  0.00     0.012 C 
ENDBRANCH   1  31
TORSDOF 13
