REMARK  11 active torsions:
REMARK  status: ('A' for Active; 'I' for Inactive)
REMARK    1  A    between atoms: N1_2  and  C2_4 
REMARK    2  A    between atoms: N3_8  and  C4_10 
REMARK    3  A    between atoms: C4_10  and  C5_11 
REMARK    4  A    between atoms: C5_11  and  O1_12 
REMARK    5  A    between atoms: O1_12  and  C6_13 
REMARK    6  A    between atoms: C6_13  and  C7_14 
REMARK    7  A    between atoms: C7_14  and  O2_15 
REMARK    8  A    between atoms: C9_18  and  N4_19 
REMARK    9  A    between atoms: N7_28  and  C12_29 
REMARK   10  A    between atoms: C12_29  and  C13_30 
REMARK   11  A    between atoms: C13_30  and  O3_31 
ROOT
HETATM    1  C2  UNL     1      -2.245  -0.480  -0.931  1.00  0.00     0.683 A 
HETATM    2  N2  UNL     1      -0.927  -0.258  -0.806  1.00  0.00    -0.176 N 
ATOM      3  H2  UNL     1      -0.359  -0.164  -1.648  1.00  0.00     0.186 HD
HETATM    4  C3  UNL     1      -0.327  -0.155   0.411  1.00  0.00     0.134 A 
HETATM    5  N3  UNL     1       0.939   0.058   0.525  1.00  0.00    -0.373 N 
ATOM      6  H3  UNL     1       1.339   0.127   1.461  1.00  0.00     0.161 HD
HETATM    7  C8  UNL     1      -1.097  -0.281   1.533  1.00  0.00     0.097 A 
HETATM    8  C9  UNL     1      -0.514  -0.181   2.765  1.00  0.00     0.117 A 
HETATM    9  N5  UNL     1      -1.276  -0.307   3.863  1.00  0.00    -0.338 N 
ATOM     10  H5  UNL     1      -0.858  -0.235   4.791  1.00  0.00     0.168 HD
HETATM   11  C10 UNL     1      -2.598  -0.529   3.729  1.00  0.00     0.183 A 
HETATM   12  N6  UNL     1      -3.181  -0.630   2.521  1.00  0.00    -0.337 N 
ATOM     13  H6  UNL     1      -4.185  -0.800   2.465  1.00  0.00     0.168 HD
HETATM   14  C11 UNL     1      -2.468  -0.512   1.381  1.00  0.00     0.142 A 
HETATM   15  N7  UNL     1      -3.024  -0.608   0.158  1.00  0.00    -0.165 N 
ENDROOT
BRANCH   5  16
HETATM   16  C4  UNL     1       1.817   0.204  -0.613  1.00  0.00     0.147 C 
BRANCH  16  17
HETATM   17  C5  UNL     1       3.248   0.259  -0.119  1.00  0.00     0.187 C 
BRANCH  17  18
HETATM   18  O1  UNL     1       4.150   0.399  -1.166  1.00  0.00    -0.387 OA
BRANCH  18  19
HETATM   19  C6  UNL     1       5.427   0.442  -0.638  1.00  0.00     0.193 C 
BRANCH  19  20
HETATM   20  C7  UNL     1       6.488   0.594  -1.703  1.00  0.00     0.190 C 
BRANCH  20  21
HETATM   21  O2  UNL     1       7.733   0.627  -1.080  1.00  0.00    -0.399 OA
ATOM     22  H2  UNL     1       8.400   0.723  -1.750  1.00  0.00     0.209 HD
ENDBRANCH  20  21
ENDBRANCH  19  20
ENDBRANCH  18  19
ENDBRANCH  17  18
ENDBRANCH  16  17
ENDBRANCH   5  16
BRANCH   1  23
HETATM   23  N1  UNL     1      -2.752  -0.567  -2.105  1.00  0.00    -0.230 N 
HETATM   24  C1  UNL     1      -2.043  -0.451  -3.332  1.00  0.00     0.165 C 
ATOM     25  H1  UNL     1      -3.756  -0.735  -2.164  1.00  0.00     0.177 HD
ENDBRANCH   1  23
BRANCH   8  26
HETATM   26  N4  UNL     1       0.761   0.033   2.826  1.00  0.00    -0.385 N 
ATOM     27  H42 UNL     1       1.340   0.129   1.992  1.00  0.00     0.157 HD
ATOM     28  H41 UNL     1       1.196   0.108   3.746  1.00  0.00     0.157 HD
ENDBRANCH   8  26
BRANCH  15  29
HETATM   29  C12 UNL     1      -4.432  -0.845   0.076  1.00  0.00     0.175 C 
BRANCH  29  30
HETATM   30  C13 UNL     1      -5.266   0.405   0.035  1.00  0.00     0.185 C 
BRANCH  30  31
HETATM   31  O3  UNL     1      -5.122   1.214   1.134  1.00  0.00    -0.399 OA
ATOM     32  H3  UNL     1      -5.649   2.004   1.108  1.00  0.00     0.209 HD
ENDBRANCH  30  31
ENDBRANCH  29  30
ENDBRANCH  15  29
TORSDOF 11
