REMARK  10 active torsions:
REMARK  status: ('A' for Active; 'I' for Inactive)
REMARK    1  A    between atoms: O1_2  and  C2_3 
REMARK    2  A    between atoms: C5_7  and  O2_8 
REMARK    3  A    between atoms: O2_8  and  C6_9 
REMARK    4  A    between atoms: N1_12  and  C9_13 
REMARK    5  A    between atoms: C9_13  and  C10_14 
REMARK    6  A    between atoms: C10_14  and  C11_15 
REMARK    7  A    between atoms: C11_15  and  S1_16 
REMARK    8  A    between atoms: S1_16  and  C12_17 
REMARK    9  A    between atoms: C13_20  and  C14_21 
REMARK   10  A    between atoms: C18_25  and  O3_26 
ROOT
HETATM    1  C9  UNL     1      -0.317  -1.026   3.041  1.00  0.00     0.273 C 
ENDROOT
BRANCH   1   2
HETATM    2  N1  UNL     1       0.978  -1.141   2.457  1.00  0.00     0.088 N 
HETATM    3  C8  UNL     1       1.910  -0.117   2.861  1.00  0.00     0.275 C 
HETATM    4  C7  UNL     1       3.248  -0.427   2.231  1.00  0.00     0.062 C 
HETATM    5  C6  UNL     1       3.131  -0.131   0.746  1.00  0.00     0.132 C 
HETATM    6  C22 UNL     1       1.715  -0.345   0.253  1.00  0.00     0.062 C 
HETATM    7  C21 UNL     1       0.986  -1.395   1.049  1.00  0.00     0.275 C 
BRANCH   5   8
HETATM    8  O2  UNL     1       4.056  -0.937   0.092  1.00  0.00    -0.346 OA
BRANCH   8   9
HETATM    9  C5  UNL     1       5.129  -0.470  -0.612  1.00  0.00     0.072 A 
HETATM   10  C4  UNL     1       5.957  -1.428  -1.224  1.00  0.00     0.063 A 
HETATM   11  C3  UNL     1       7.062  -1.085  -1.956  1.00  0.00     0.071 A 
HETATM   12  C2  UNL     1       7.425   0.231  -2.134  1.00  0.00     0.111 A 
HETATM   13 CL1  UNL     1       8.081  -2.315  -2.713  1.00  0.00    -0.081 Cl
HETATM   14  C24 UNL     1       6.638   1.191  -1.549  1.00  0.00     0.071 A 
HETATM   15  C23 UNL     1       5.506   0.832  -0.800  1.00  0.00     0.063 A 
HETATM   16 CL4  UNL     1       7.062   2.870  -1.747  1.00  0.00    -0.081 Cl
BRANCH  12  17
HETATM   17  O1  UNL     1       8.540   0.574  -2.872  1.00  0.00    -0.352 OA
HETATM   18  C1  UNL     1       9.786   0.688  -2.225  1.00  0.00     0.210 C 
ENDBRANCH  12  17
ENDBRANCH   8   9
ENDBRANCH   5   8
ENDBRANCH   1   2
BRANCH   1  19
HETATM   19  C10 UNL     1      -1.099   0.180   2.560  1.00  0.00     0.041 C 
BRANCH  19  20
HETATM   20  C11 UNL     1      -2.430   0.191   3.233  1.00  0.00     0.082 C 
BRANCH  20  21
HETATM   21  S1  UNL     1      -3.491   1.575   2.768  1.00  0.00    -0.111 SA
BRANCH  21  22
HETATM   22  C12 UNL     1      -3.912   1.401   1.021  1.00  0.00     0.093 A 
HETATM   23  N2  UNL     1      -4.989   0.679   0.644  1.00  0.00    -0.350 N 
HETATM   24  C13 UNL     1      -5.362   0.515  -0.639  1.00  0.00     0.053 A 
ATOM     25  H2  UNL     1      -5.550   0.234   1.370  1.00  0.00     0.166 HD
HETATM   26  C18 UNL     1      -4.616   1.109  -1.634  1.00  0.00     0.112 A 
HETATM   27  C19 UNL     1      -3.504   1.861  -1.323  1.00  0.00     0.093 A 
HETATM   28 CL2  UNL     1      -2.560   2.613  -2.580  1.00  0.00    -0.079 Cl
HETATM   29  C20 UNL     1      -3.165   1.996   0.028  1.00  0.00     0.092 A 
HETATM   30 CL3  UNL     1      -1.768   2.959   0.438  1.00  0.00    -0.079 Cl
BRANCH  24  31
HETATM   31  C14 UNL     1      -6.538  -0.276  -0.983  1.00  0.00    -0.006 C 
HETATM   32  C15 UNL     1      -7.150  -0.806   0.308  1.00  0.00     0.021 C 
HETATM   33  C16 UNL     1      -6.223  -1.478  -1.846  1.00  0.00     0.021 C 
HETATM   34  C17 UNL     1      -7.642   0.498  -1.669  1.00  0.00     0.021 C 
ENDBRANCH  24  31
BRANCH  26  35
HETATM   35  O3  UNL     1      -5.027   0.920  -2.943  1.00  0.00    -0.357 OA
ATOM     36  H3  UNL     1      -4.513   1.329  -3.629  1.00  0.00     0.217 HD
ENDBRANCH  26  35
ENDBRANCH  21  22
ENDBRANCH  20  21
ENDBRANCH  19  20
ENDBRANCH   1  19
TORSDOF 10
