REMARK  0 active torsions:
REMARK  status: ('A' for Active; 'I' for Inactive)
ROOT
HETATM    1  F1  UNL     1       0.904   2.226   0.179  1.00  0.00    -0.247 F 
HETATM    2  C1  UNL     1       0.958   1.173  -0.747  1.00  0.00     0.201 C 
HETATM    3  C2  UNL     1       2.118   0.310  -0.471  1.00  0.00     0.039 C 
HETATM    4  C3  UNL     1       1.861  -0.980   0.208  1.00  0.00     0.003 C 
HETATM    5  C4  UNL     1       0.510  -0.876   0.917  1.00  0.00     0.007 C 
HETATM    6  C5  UNL     1      -0.477  -0.833  -0.248  1.00  0.00     0.021 C 
HETATM    7  C6  UNL     1      -1.912  -0.863   0.247  1.00  0.00     0.034 C 
HETATM    8  C7  UNL     1      -1.994   0.539   0.857  1.00  0.00     0.233 C 
HETATM    9  N1  UNL     1      -1.378   1.363  -0.135  1.00  0.00    -0.068 N 
ATOM     10  H11 UNL     1      -0.997   2.228   0.249  1.00  0.00     0.277 HD
ATOM     11  H12 UNL     1      -2.052   1.785  -0.775  1.00  0.00     0.277 HD
HETATM   12  C8  UNL     1      -0.378   0.559  -0.817  1.00  0.00     0.223 C 
ENDROOT
TORSDOF 0
