REMARK  3 active torsions:
REMARK  status: ('A' for Active; 'I' for Inactive)
REMARK    1  A    between atoms: C3_5  and  C4_6 
REMARK    2  A    between atoms: C4_6  and  C5_7 
REMARK    3  A    between atoms: N2_17  and  N3_19 
ROOT
HETATM    1  C1  UNL     1      -0.660  -1.205   2.725  1.00  0.00     0.039 C 
HETATM    2  C2  UNL     1      -0.164  -0.822   1.537  1.00  0.00     0.010 C 
HETATM    3  N1  UNL     1       1.193  -1.156   1.269  1.00  0.00    -0.388 N 
ATOM      4  H1  UNL     1       1.695  -1.710   1.963  1.00  0.00     0.159 HD
HETATM    5  C3  UNL     1       1.906  -0.759   0.074  1.00  0.00     0.081 C 
HETATM    6  C7  UNL     1       0.932  -0.347  -0.970  1.00  0.00     0.026 C 
HETATM    7  C8  UNL     1      -0.028   0.657  -0.364  1.00  0.00     0.024 C 
HETATM    8  C9  UNL     1      -0.990  -0.092   0.561  1.00  0.00     0.041 C 
HETATM    9  C10 UNL     1      -1.859   0.935   1.204  1.00  0.00     0.022 C 
HETATM   10  C11 UNL     1      -2.700   1.673   0.200  1.00  0.00     0.002 C 
HETATM   11  C12 UNL     1      -3.494   0.784  -0.704  1.00  0.00     0.006 C 
HETATM   12  C13 UNL     1      -2.681  -0.347  -1.292  1.00  0.00     0.055 C 
HETATM   13  C14 UNL     1      -1.858  -0.995  -0.238  1.00  0.00     0.018 C 
HETATM   14  N2  UNL     1      -1.889  -2.257  -0.021  1.00  0.00    -0.314 N 
ATOM     15  H2  UNL     1      -1.294  -2.622   0.723  1.00  0.00     0.185 HD
ENDROOT
BRANCH  14  16
HETATM   16  N3  UNL     1      -2.669  -3.165  -0.720  1.00  0.00    -0.345 N 
ATOM     17  H32 UNL     1      -3.257  -2.782  -1.460  1.00  0.00     0.176 HD
ATOM     18  H31 UNL     1      -2.694  -4.170  -0.547  1.00  0.00     0.176 HD
ENDBRANCH  14  16
BRANCH   5  19
HETATM   19  C4  UNL     1       2.921   0.275   0.442  1.00  0.00     0.024 C 
BRANCH  19  20
HETATM   20  C5  UNL     1       3.725   0.764  -0.734  1.00  0.00    -0.002 C 
HETATM   21  C6  UNL     1       4.743   1.805  -0.310  1.00  0.00     0.005 C 
ENDBRANCH  19  20
ENDBRANCH   5  19
TORSDOF 3
