REMARK  10 active torsions:
REMARK  status: ('A' for Active; 'I' for Inactive)
REMARK    1  A    between atoms: N1_3  and  C3_5 
REMARK    2  A    between atoms: C3_5  and  C4_6 
REMARK    3  A    between atoms: C3_5  and  N2_14 
REMARK    4  A    between atoms: C4_6  and  C5_7 
REMARK    5  A    between atoms: C5_7  and  C6_8 
REMARK    6  A    between atoms: N2_14  and  C12_16 
REMARK    7  A    between atoms: C12_16  and  C13_17 
REMARK    8  A    between atoms: C13_17  and  C14_18 
REMARK    9  A    between atoms: C14_18  and  N3_19 
REMARK   10  A    between atoms: N3_19  and  C15_21 
ROOT
HETATM    1  C1  UNL     1      -0.277  -3.140  -0.661  1.00  0.00     0.037 C 
HETATM    2  C2  UNL     1      -0.810  -2.113  -0.322  1.00  0.00     0.000 C 
HETATM    3  N1  UNL     1      -1.426  -0.951   0.087  1.00  0.00    -0.306 N 
ATOM      4  H1  UNL     1      -2.062  -0.980   0.884  1.00  0.00     0.177 HD
ENDROOT
BRANCH   3   5
HETATM    5  C3  UNL     1      -1.222   0.160  -0.505  1.00  0.00     0.084 C 
BRANCH   5   6
HETATM    6  C4  UNL     1      -1.837   1.429  -0.132  1.00  0.00     0.081 C 
BRANCH   6   7
HETATM    7  C5  UNL     1      -2.894   1.451   0.897  1.00  0.00     0.046 C 
BRANCH   7   8
HETATM    8  C6  UNL     1      -4.117   0.694   0.622  1.00  0.00    -0.058 A 
HETATM    9  C7  UNL     1      -5.101   1.217  -0.229  1.00  0.00     0.007 A 
HETATM   10  C8  UNL     1      -6.275   0.542  -0.465  1.00  0.00     0.001 A 
HETATM   11  C9  UNL     1      -6.509  -0.683   0.141  1.00  0.00     0.000 A 
HETATM   12  C10 UNL     1      -5.561  -1.219   0.978  1.00  0.00     0.001 A 
HETATM   13  C11 UNL     1      -4.378  -0.519   1.206  1.00  0.00     0.007 A 
ENDBRANCH   7   8
ENDBRANCH   6   7
ENDBRANCH   5   6
BRANCH   5  14
HETATM   14  N2  UNL     1      -0.291   0.092  -1.606  1.00  0.00    -0.379 N 
ATOM     15  H2  UNL     1      -0.500  -0.469  -2.432  1.00  0.00     0.160 HD
BRANCH  14  16
HETATM   16  C12 UNL     1       0.927   0.826  -1.513  1.00  0.00     0.122 C 
BRANCH  16  17
HETATM   17  C13 UNL     1       1.848   0.250  -0.443  1.00  0.00     0.040 C 
BRANCH  17  18
HETATM   18  C14 UNL     1       3.121   1.067  -0.388  1.00  0.00     0.139 C 
BRANCH  18  19
HETATM   19  N3  UNL     1       3.949   0.478   0.639  1.00  0.00    -0.225 N 
ATOM     20  H3  UNL     1       3.624   0.534   1.604  1.00  0.00     0.177 HD
BRANCH  19  21
HETATM   21  C15 UNL     1       5.060  -0.107   0.416  1.00  0.00     0.696 A 
HETATM   22  N4  UNL     1       5.733  -0.333  -0.704  1.00  0.00    -0.128 N 
HETATM   23  N5  UNL     1       6.845  -0.982  -0.408  1.00  0.00    -0.237 N 
ATOM     24  H4  UNL     1       5.440  -0.052  -1.640  1.00  0.00     0.205 HD
HETATM   25  C16 UNL     1       6.917  -1.193   0.921  1.00  0.00     0.353 A 
ATOM     26  H5  UNL     1       7.546  -1.280  -1.086  1.00  0.00     0.192 HD
HETATM   27  O1  UNL     1       7.852  -1.787   1.552  1.00  0.00    -0.245 OA
HETATM   28  N6  UNL     1       5.798  -0.640   1.420  1.00  0.00    -0.139 N 
ATOM     29  H6  UNL     1       5.542  -0.624   2.407  1.00  0.00     0.189 HD
ENDBRANCH  19  21
ENDBRANCH  18  19
ENDBRANCH  17  18
ENDBRANCH  16  17
ENDBRANCH  14  16
ENDBRANCH   5  14
ENDBRANCH   3   5
TORSDOF 10
