REMARK  8 active torsions:
REMARK  status: ('A' for Active; 'I' for Inactive)
REMARK    1  A    between atoms: C1_2  and  C2_4 
REMARK    2  A    between atoms: C4_6  and  C5_7 
REMARK    3  A    between atoms: C6_11  and  N3_12 
REMARK    4  A    between atoms: N3_12  and  C7_14 
REMARK    5  A    between atoms: C8_17  and  O4_18 
REMARK    6  A    between atoms: C9_20  and  O5_21 
REMARK    7  A    between atoms: C9_20  and  C10_23 
REMARK    8  A    between atoms: C10_23  and  O6_24 
ROOT
HETATM    1  N3  UNL     1       0.225   0.666  -1.627  1.00  0.00    -0.154 N 
ATOM      2  H3  UNL     1       0.334   0.870  -2.621  1.00  0.00     0.188 HD
ENDROOT
BRANCH   1   3
HETATM    3  C6  UNL     1      -1.078   0.642  -1.083  1.00  0.00     0.254 C 
HETATM    4  O3  UNL     1      -1.826  -0.486  -1.351  1.00  0.00    -0.302 OA
HETATM    5  C4  UNL     1      -2.943  -1.099  -0.809  1.00  0.00     0.246 C 
HETATM    6  C3  UNL     1      -3.985  -0.147  -0.354  1.00  0.00     0.051 C 
HETATM    7  C2  UNL     1      -3.876   1.081   0.083  1.00  0.00     0.112 C 
HETATM    8  N7  UNL     1      -2.705   1.876   0.252  1.00  0.00    -0.293 N 
HETATM    9  N6  UNL     1      -1.486   1.646  -0.387  1.00  0.00    -0.264 N 
ATOM     10  H7  UNL     1      -2.762   2.672   0.887  1.00  0.00     0.187 HD
ATOM     11  H6  UNL     1      -0.805   2.398  -0.286  1.00  0.00     0.190 HD
BRANCH   5  12
HETATM   12  C5  UNL     1      -2.525  -1.995   0.295  1.00  0.00     0.264 C 
HETATM   13  N2  UNL     1      -3.451  -2.767   1.050  1.00  0.00    -0.059 NA
HETATM   14  O2  UNL     1      -1.300  -2.068   0.566  1.00  0.00    -0.274 OA
ENDBRANCH   5  12
BRANCH   7  15
HETATM   15  C1  UNL     1      -5.128   1.762   0.462  1.00  0.00     0.282 C 
HETATM   16  N1  UNL     1      -6.353   1.056   0.331  1.00  0.00    -0.056 NA
HETATM   17  O1  UNL     1      -5.149   2.923   0.888  1.00  0.00    -0.269 OA
ENDBRANCH   7  15
ENDBRANCH   1   3
BRANCH   1  18
HETATM   18  C7  UNL     1       1.404   0.417  -0.846  1.00  0.00     0.679 C 
HETATM   19  N4  UNL     1       1.800  -0.785  -0.597  1.00  0.00    -0.197 N 
HETATM   20  C8  UNL     1       2.996  -0.957   0.196  1.00  0.00     0.273 C 
ATOM     21  H4  UNL     1       1.284  -1.591  -0.950  1.00  0.00     0.180 HD
HETATM   22  C9  UNL     1       4.076   0.002  -0.277  1.00  0.00     0.139 C 
HETATM   23  C11 UNL     1       3.598   1.420  -0.270  1.00  0.00     0.182 C 
HETATM   24  N5  UNL     1       2.165   1.498  -0.326  1.00  0.00    -0.223 N 
ATOM     25  H5  UNL     1       1.690   2.336   0.010  1.00  0.00     0.177 HD
BRANCH  20  26
HETATM   26  O4  UNL     1       3.499  -2.245   0.088  1.00  0.00    -0.373 OA
ATOM     27  H4  UNL     1       4.285  -2.358   0.609  1.00  0.00     0.212 HD
ENDBRANCH  20  26
BRANCH  22  28
HETATM   28  O5  UNL     1       4.420  -0.410  -1.572  1.00  0.00    -0.381 OA
ATOM     29  H5  UNL     1       5.095   0.189  -1.868  1.00  0.00     0.211 HD
ENDBRANCH  22  28
BRANCH  22  30
HETATM   30  C10 UNL     1       5.268  -0.116   0.632  1.00  0.00     0.208 C 
BRANCH  30  31
HETATM   31  O6  UNL     1       6.290   0.695   0.140  1.00  0.00    -0.398 OA
ATOM     32  H6  UNL     1       7.043   0.620   0.714  1.00  0.00     0.209 HD
ENDBRANCH  30  31
ENDBRANCH  22  30
ENDBRANCH   1  18
TORSDOF 8
