REMARK  3 active torsions:
REMARK  status: ('A' for Active; 'I' for Inactive)
REMARK    1  A    between atoms: N2_15  and  C11_16 
REMARK    2  A    between atoms: C11_16  and  C12_17 
REMARK    3  A    between atoms: C12_17  and  N3_18 
ROOT
HETATM    1  O1  UNL     1       0.727   1.258   1.870  1.00  0.00    -0.273 OA
HETATM    2  C1  UNL     1       0.176   0.517   1.036  1.00  0.00     0.221 C 
HETATM    3  C2  UNL     1      -0.997  -0.335   1.413  1.00  0.00     0.123 C 
HETATM    4  C3  UNL     1      -1.766  -0.275   0.078  1.00  0.00     0.065 C 
HETATM    5  C4  UNL     1      -2.814  -1.328   0.129  1.00  0.00     0.021 C 
HETATM    6  C5  UNL     1      -3.774  -1.340  -1.005  1.00  0.00     0.001 C 
HETATM    7  C6  UNL     1      -4.780  -0.245  -1.040  1.00  0.00     0.002 C 
HETATM    8  C7  UNL     1      -5.313   0.191   0.289  1.00  0.00     0.020 C 
HETATM    9  C8  UNL     1      -4.758   1.477   0.797  1.00  0.00     0.122 C 
HETATM   10  N1  UNL     1      -3.420   1.769   0.351  1.00  0.00    -0.360 N 
ATOM     11  H1  UNL     1      -3.247   2.774   0.383  1.00  0.00     0.162 HD
HETATM   12  C9  UNL     1      -2.283   1.092  -0.114  1.00  0.00     0.228 C 
HETATM   13  O2  UNL     1      -1.540   1.774  -0.846  1.00  0.00    -0.273 OA
HETATM   14  C10 UNL     1      -0.634  -0.555  -0.877  1.00  0.00     0.145 C 
HETATM   15  N2  UNL     1       0.454   0.292  -0.329  1.00  0.00    -0.349 N 
ENDROOT
BRANCH  15  16
HETATM   16  C11 UNL     1       1.583   0.771  -1.087  1.00  0.00     0.156 C 
BRANCH  16  17
HETATM   17  C12 UNL     1       2.757  -0.126  -1.157  1.00  0.00     0.292 C 
BRANCH  17  18
HETATM   18  N3  UNL     1       3.424  -0.435   0.083  1.00  0.00     0.094 N 
HETATM   19  C13 UNL     1       4.402  -1.474  -0.253  1.00  0.00     0.298 C 
HETATM   20  C14 UNL     1       5.636  -0.809  -0.773  1.00  0.00     0.198 C 
HETATM   21  O3  UNL     1       6.287  -0.257   0.328  1.00  0.00    -0.388 OA
HETATM   22  C15 UNL     1       5.476   0.563   1.068  1.00  0.00     0.198 C 
HETATM   23  C16 UNL     1       4.089   0.757   0.561  1.00  0.00     0.298 C 
ENDBRANCH  17  18
ENDBRANCH  16  17
ENDBRANCH  15  16
TORSDOF 3
