REMARK  7 active torsions:
REMARK  status: ('A' for Active; 'I' for Inactive)
REMARK    1  A    between atoms: C4_4  and  C5_5 
REMARK    2  A    between atoms: C6_6  and  C7_7 
REMARK    3  A    between atoms: C9_9  and  C10_10 
REMARK    4  A    between atoms: C10_10  and  C11_11 
REMARK    5  A    between atoms: C11_11  and  C12_12 
REMARK    6  A    between atoms: C12_12  and  O2_14 
REMARK    7  A    between atoms: O2_14  and  C13_15 
ROOT
HETATM    1  C7  UNL     1      -1.597  -1.205   0.066  1.00  0.00     0.052 C 
HETATM    2  C8  UNL     1      -1.017  -1.851  -1.144  1.00  0.00    -0.068 C 
HETATM    3  C9  UNL     1       0.089  -1.614  -1.796  1.00  0.00    -0.022 C 
HETATM    4  C17 UNL     1      -2.030  -2.916  -1.505  1.00  0.00     0.113 C 
HETATM    5  C18 UNL     1      -2.752  -3.195  -0.242  1.00  0.00     0.139 C 
HETATM    6  O3  UNL     1      -3.719  -3.901  -0.106  1.00  0.00    -0.297 OA
HETATM    7  C19 UNL     1      -2.069  -2.444   0.835  1.00  0.00     0.024 C 
HETATM    8  C20 UNL     1      -3.006  -2.064   1.955  1.00  0.00     0.024 C 
HETATM    9  C21 UNL     1      -0.890  -3.236   1.310  1.00  0.00     0.024 C 
ENDROOT
BRANCH   1  10
HETATM   10  C6  UNL     1      -2.785  -0.434  -0.388  1.00  0.00    -0.017 C 
HETATM   11  C5  UNL     1      -3.037   0.791  -0.051  1.00  0.00    -0.003 C 
BRANCH  11  12
HETATM   12  C4  UNL     1      -4.225   1.462  -0.545  1.00  0.00     0.002 C 
HETATM   13  C2  UNL     1      -4.507   2.703  -0.221  1.00  0.00    -0.088 C 
HETATM   14  C1  UNL     1      -5.728   3.372  -0.737  1.00  0.00     0.043 C 
HETATM   15  C3  UNL     1      -3.552   3.415   0.687  1.00  0.00     0.043 C 
ENDBRANCH  11  12
ENDBRANCH   1  10
BRANCH   3  16
HETATM   16  C10 UNL     1       1.022  -0.553  -1.375  1.00  0.00     0.037 C 
BRANCH  16  17
HETATM   17  C11 UNL     1       2.409  -1.115  -1.037  1.00  0.00     0.115 C 
BRANCH  17  18
HETATM   18  C12 UNL     1       3.264   0.023  -0.629  1.00  0.00     0.259 C 
HETATM   19  O1  UNL     1       2.831   1.216  -0.597  1.00  0.00    -0.265 OA
BRANCH  18  20
HETATM   20  O2  UNL     1       4.585  -0.153  -0.259  1.00  0.00    -0.311 OA
BRANCH  20  21
HETATM   21  C13 UNL     1       5.385   0.945   0.127  1.00  0.00     0.060 C 
HETATM   22  C14 UNL     1       4.841   1.672   1.323  1.00  0.00     0.045 C 
HETATM   23  C15 UNL     1       5.616   1.922  -0.988  1.00  0.00     0.045 C 
HETATM   24  C16 UNL     1       6.740   0.381   0.521  1.00  0.00     0.045 C 
ENDBRANCH  20  21
ENDBRANCH  18  20
ENDBRANCH  17  18
ENDBRANCH  16  17
ENDBRANCH   3  16
TORSDOF 7
