REMARK  12 active torsions:
REMARK  status: ('A' for Active; 'I' for Inactive)
REMARK       I    between atoms: C1_4  and  N3_6 
REMARK    1  A    between atoms: N3_6  and  C2_8 
REMARK    2  A    between atoms: C2_8  and  C3_9 
REMARK    3  A    between atoms: N4_11  and  C4_13 
REMARK    4  A    between atoms: C4_13  and  C5_14 
REMARK    5  A    between atoms: C5_14  and  N5_15 
REMARK    6  A    between atoms: C7_17  and  C8_18 
REMARK    7  A    between atoms: C10_22  and  N7_23 
REMARK    8  A    between atoms: C11_28  and  N9_29 
REMARK    9  A    between atoms: C13_37  and  N12_38 
REMARK   10  A    between atoms: N12_38  and  C14_40 
REMARK   11  A    between atoms: C16_42  and  C17_43 
REMARK   12  A    between atoms: C17_43  and  N13_44 
ROOT
HETATM    1  C8  UNL     1      -1.627   1.091   0.378  1.00  0.00     0.107 A 
HETATM    2  N6  UNL     1      -2.079   2.353   0.739  1.00  0.00    -0.345 N 
ATOM      3  H6  UNL     1      -1.403   3.048   1.056  1.00  0.00     0.166 HD
HETATM    4  C9  UNL     1      -3.357   2.681   0.684  1.00  0.00     0.122 A 
HETATM    5  C10 UNL     1      -3.794   3.958   1.052  1.00  0.00     0.145 A 
HETATM    6  N8  UNL     1      -5.100   4.196   0.963  1.00  0.00    -0.175 N 
ATOM      7  H8  UNL     1      -5.438   5.121   1.227  1.00  0.00     0.186 HD
HETATM    8  C11 UNL     1      -6.000   3.289   0.546  1.00  0.00     0.679 A 
HETATM    9  N10 UNL     1      -5.554   2.073   0.199  1.00  0.00    -0.174 N 
ATOM     10  H10 UNL     1      -6.233   1.381  -0.119  1.00  0.00     0.186 HD
HETATM   11  C12 UNL     1      -4.240   1.714   0.249  1.00  0.00     0.153 A 
HETATM   12  N11 UNL     1      -3.830   0.499  -0.102  1.00  0.00    -0.325 N 
ATOM     13  H11 UNL     1      -4.515  -0.187  -0.418  1.00  0.00     0.169 HD
HETATM   14  C13 UNL     1      -2.492   0.146  -0.047  1.00  0.00     0.132 A 
ENDROOT
BRANCH   1  15
HETATM   15  C7  UNL     1      -0.201   0.915   0.505  1.00  0.00     0.097 A 
HETATM   16  C6  UNL     1       0.651  -0.097   0.283  1.00  0.00     0.145 A 
HETATM   17  N5  UNL     1       1.937   0.271   0.573  1.00  0.00    -0.285 N 
HETATM   18  N15 UNL     1       1.877   1.516   0.976  1.00  0.00    -0.240 N 
HETATM   19  N14 UNL     1       0.633   1.934   0.951  1.00  0.00    -0.283 N 
ATOM     20  H15 UNL     1       2.678   2.077   1.266  1.00  0.00     0.208 HD
ATOM     21  H14 UNL     1       0.324   2.868   1.219  1.00  0.00     0.188 HD
BRANCH  17  22
HETATM   22  C5  UNL     1       3.087  -0.589   0.440  1.00  0.00     0.169 C 
BRANCH  22  23
HETATM   23  C4  UNL     1       3.686  -0.454  -0.968  1.00  0.00     0.143 C 
BRANCH  23  24
HETATM   24  N4  UNL     1       4.103   0.852  -1.258  1.00  0.00    -0.367 N 
HETATM   25  C3  UNL     1       5.224   1.362  -0.994  1.00  0.00     0.178 C 
HETATM   26  F1  UNL     1       5.515   2.667  -1.336  1.00  0.00    -0.190 F 
ATOM     27  H4  UNL     1       3.428   1.452  -1.732  1.00  0.00     0.161 HD
BRANCH  25  28
HETATM   28  C2  UNL     1       6.288   0.599  -0.308  1.00  0.00     0.211 C 
BRANCH  28  29
HETATM   29  N3  UNL     1       7.483   0.487  -1.141  1.00  0.00    -0.357 N 
HETATM   30  C1  UNL     1       8.591  -0.215  -0.625  1.00  0.00     0.182 C 
HETATM   31  N1  UNL     1       9.777   0.107  -0.977  1.00  0.00    -0.374 N 
HETATM   32  N2  UNL     1       8.389  -1.273   0.280  1.00  0.00    -0.064 NA
ATOM     33  H12 UNL     1      10.579  -0.401  -0.604  1.00  0.00     0.158 HD
ATOM     34  H11 UNL     1       9.923   0.874  -1.633  1.00  0.00     0.158 HD
ATOM     35  H3  UNL     1       7.515   0.905  -2.071  1.00  0.00     0.162 HD
ENDBRANCH  28  29
ENDBRANCH  25  28
ENDBRANCH  23  24
ENDBRANCH  22  23
ENDBRANCH  17  22
ENDBRANCH   1  15
BRANCH  14  36
HETATM   36  N12 UNL     1      -2.186  -1.182  -0.454  1.00  0.00    -0.369 N 
ATOM     37  H12 UNL     1      -1.224  -1.520  -0.449  1.00  0.00     0.161 HD
BRANCH  36  38
HETATM   38  C14 UNL     1      -3.294  -2.061  -0.884  1.00  0.00     0.089 A 
HETATM   39  C15 UNL     1      -2.879  -3.445  -1.296  1.00  0.00     0.033 A 
HETATM   40  C16 UNL     1      -3.580  -3.277  -0.016  1.00  0.00     0.036 A 
BRANCH  40  41
HETATM   41  C17 UNL     1      -4.993  -3.800   0.048  1.00  0.00     0.236 C 
BRANCH  41  42
HETATM   42  N13 UNL     1      -5.464  -4.198  -1.277  1.00  0.00    -0.079 N 
ATOM     43 3H13 UNL     1      -5.374  -3.439  -1.952  1.00  0.00     0.274 HD
ATOM     44 2H13 UNL     1      -4.833  -4.870  -1.714  1.00  0.00     0.274 HD
ATOM     45 1H13 UNL     1      -6.420  -4.552  -1.234  1.00  0.00     0.274 HD
ENDBRANCH  41  42
ENDBRANCH  40  41
ENDBRANCH  36  38
ENDBRANCH  14  36
BRANCH   5  46
HETATM   46  N7  UNL     1      -2.937   4.840   1.455  1.00  0.00    -0.383 N 
ATOM     47  H72 UNL     1      -1.936   4.658   1.523  1.00  0.00     0.157 HD
ATOM     48  H71 UNL     1      -3.256   5.771   1.723  1.00  0.00     0.157 HD
ENDBRANCH   5  46
BRANCH   8  49
HETATM   49  N9  UNL     1      -7.277   3.585   0.480  1.00  0.00    -0.234 N 
ATOM     50  H92 UNL     1      -7.616   4.510   0.744  1.00  0.00     0.174 HD
ATOM     51  H91 UNL     1      -7.960   2.897   0.164  1.00  0.00     0.174 HD
ENDBRANCH   8  49
TORSDOF 12
