REMARK  17 active torsions:
REMARK  status: ('A' for Active; 'I' for Inactive)
REMARK    1  A    between atoms: C2_2  and  C3_3 
REMARK    2  A    between atoms: C3_3  and  C4_4 
REMARK    3  A    between atoms: C4_4  and  C5_5 
REMARK    4  A    between atoms: C5_5  and  C6_6 
REMARK    5  A    between atoms: C5_5  and  N2_13 
REMARK    6  A    between atoms: C6_6  and  N1_7 
REMARK    7  A    between atoms: C6_6  and  O1_11 
REMARK       I    between atoms: N2_13  and  C8_15 
REMARK    8  A    between atoms: C8_15  and  C9_17 
REMARK    9  A    between atoms: N3_22  and  C14_23 
REMARK   10  A    between atoms: C14_23  and  C15_24 
REMARK   11  A    between atoms: C15_24  and  C16_25 
REMARK   12  A    between atoms: C16_25  and  C17_26 
REMARK   13  A    between atoms: C17_26  and  C18_27 
REMARK   14  A    between atoms: C18_27  and  N4_28 
REMARK   15  A    between atoms: C18_27  and  C25_37 
REMARK       I    between atoms: N4_28  and  C19_29 
REMARK   16  A    between atoms: C19_29  and  C20_31 
REMARK   17  A    between atoms: C20_31  and  C21_33 
ROOT
HETATM    1  C9  UNL     1      -2.392  -0.500   0.639  1.00  0.00     0.064 C 
HETATM    2  C10 UNL     1      -2.782  -0.315   2.101  1.00  0.00     0.027 C 
HETATM    3  C11 UNL     1      -1.769  -1.931   0.488  1.00  0.00     0.022 C 
HETATM    4  C12 UNL     1      -0.705  -2.160   1.520  1.00  0.00     0.031 C 
HETATM    5  C13 UNL     1       0.069  -0.861   1.627  1.00  0.00     0.272 C 
HETATM    6  N3  UNL     1      -0.009  -0.254   0.279  1.00  0.00     0.089 N 
HETATM    7  C26 UNL     1      -1.340   0.440   0.218  1.00  0.00     0.291 C 
ENDROOT
BRANCH   1   8
HETATM    8  C8  UNL     1      -3.637  -0.524  -0.135  1.00  0.00     0.230 C 
HETATM    9  N2  UNL     1      -4.747   0.368  -0.057  1.00  0.00    -0.347 N 
HETATM   10  C7  UNL     1      -4.670   1.574   0.683  1.00  0.00     0.153 C 
HETATM   11  O2  UNL     1      -3.786  -1.467  -0.995  1.00  0.00    -0.272 OA
BRANCH   9  12
HETATM   12  C5  UNL     1      -5.969   0.090  -0.836  1.00  0.00     0.142 C 
BRANCH  12  13
HETATM   13  C4  UNL     1      -6.850  -0.791   0.120  1.00  0.00     0.030 C 
BRANCH  13  14
HETATM   14  C3  UNL     1      -8.086  -1.325  -0.418  1.00  0.00     0.002 C 
BRANCH  14  15
HETATM   15  C2  UNL     1      -9.295  -0.475  -0.587  1.00  0.00    -0.004 C 
HETATM   16  C1  UNL     1      -9.776  -0.000   0.809  1.00  0.00     0.005 C 
ENDBRANCH  14  15
ENDBRANCH  13  14
ENDBRANCH  12  13
BRANCH  12  17
HETATM   17  C6  UNL     1      -6.664   1.226  -1.280  1.00  0.00     0.339 C 
BRANCH  17  18
HETATM   18  N1  UNL     1      -7.122   2.349  -0.474  1.00  0.00    -0.051 N 
ATOM     19  H13 UNL     1      -7.689   1.946   0.272  1.00  0.00     0.277 HD
ATOM     20  H12 UNL     1      -6.298   2.697   0.016  1.00  0.00     0.277 HD
ATOM     21  H11 UNL     1      -7.627   3.174  -0.797  1.00  0.00     0.277 HD
ENDBRANCH  17  18
BRANCH  17  22
HETATM   22  O1  UNL     1      -7.003   1.414  -2.537  1.00  0.00    -0.368 OA
ATOM     23  H1  UNL     1      -7.473   2.183  -2.837  1.00  0.00     0.212 HD
ENDBRANCH  17  22
ENDBRANCH  12  17
ENDBRANCH   9  12
ENDBRANCH   1   8
BRANCH   6  24
HETATM   24  C14 UNL     1       1.031   0.742   0.134  1.00  0.00     0.272 C 
BRANCH  24  25
HETATM   25  C15 UNL     1       1.319   0.892  -1.339  1.00  0.00     0.030 C 
BRANCH  25  26
HETATM   26  C16 UNL     1       1.902  -0.430  -1.902  1.00  0.00     0.005 C 
BRANCH  26  27
HETATM   27  C17 UNL     1       3.165  -0.781  -1.216  1.00  0.00     0.049 C 
BRANCH  27  28
HETATM   28  C18 UNL     1       4.270   0.261  -1.272  1.00  0.00     0.256 C 
BRANCH  28  29
HETATM   29  N4  UNL     1       5.413  -0.025  -0.580  1.00  0.00    -0.394 NA
HETATM   30  C19 UNL     1       6.578  -0.319   0.127  1.00  0.00     0.358 C 
HETATM   31  O3  UNL     1       6.806  -1.374   0.756  1.00  0.00    -0.248 OA
BRANCH  30  32
HETATM   32  C20 UNL     1       7.666   0.698   0.158  1.00  0.00     0.238 C 
HETATM   33  O4  UNL     1       7.428   1.856  -0.326  1.00  0.00    -0.285 OA
BRANCH  32  34
HETATM   34  C21 UNL     1       9.005   0.474   0.693  1.00  0.00     0.020 C 
HETATM   35  C22 UNL     1       9.099   0.258   2.166  1.00  0.00     0.023 C 
HETATM   36  C23 UNL     1       9.591  -0.783   0.023  1.00  0.00     0.023 C 
HETATM   37  C24 UNL     1       9.905   1.678   0.319  1.00  0.00     0.023 C 
ENDBRANCH  32  34
ENDBRANCH  30  32
ENDBRANCH  28  29
BRANCH  28  38
HETATM   38  C25 UNL     1       4.642   0.636  -2.661  1.00  0.00     0.267 C 
HETATM   39  N5  UNL     1       3.916   0.121  -3.747  1.00  0.00    -0.059 NA
HETATM   40  O5  UNL     1       5.584   1.388  -2.931  1.00  0.00    -0.273 OA
ENDBRANCH  28  38
ENDBRANCH  27  28
ENDBRANCH  26  27
ENDBRANCH  25  26
ENDBRANCH  24  25
ENDBRANCH   6  24
TORSDOF 17
