REMARK  5 active torsions:
REMARK  status: ('A' for Active; 'I' for Inactive)
REMARK    1  A    between atoms: O1_2  and  C2_3 
REMARK    2  A    between atoms: C7_8  and  N1_9 
REMARK       I    between atoms: N2_11  and  C8_13 
REMARK    3  A    between atoms: C10_16  and  O3_17 
REMARK    4  A    between atoms: C12_22  and  O4_23 
REMARK    5  A    between atoms: O4_23  and  C13_24 
ROOT
HETATM    1  C2  UNL     1       2.438  -0.354   0.396  1.00  0.00     0.105 A 
HETATM    2  C3  UNL     1       1.670  -1.383   0.966  1.00  0.00     0.047 A 
HETATM    3  C4  UNL     1       0.302  -1.263   0.969  1.00  0.00    -0.044 A 
HETATM    4  C5  UNL     1      -0.521  -2.333   1.563  1.00  0.00     0.049 C 
HETATM    5  C6  UNL     1      -0.308  -0.159   0.424  1.00  0.00     0.032 A 
HETATM    6  C7  UNL     1      -1.613   0.264   0.266  1.00  0.00     0.112 A 
HETATM    7  C10 UNL     1      -1.658   1.489  -0.368  1.00  0.00     0.170 A 
HETATM    8  N3  UNL     1      -0.378   1.825  -0.603  1.00  0.00    -0.332 N 
ATOM      9  H3  UNL     1      -0.080   2.685  -1.064  1.00  0.00     0.168 HD
HETATM   10  C11 UNL     1       0.458   0.873  -0.148  1.00  0.00     0.084 A 
HETATM   11  C12 UNL     1       1.828   0.750  -0.149  1.00  0.00     0.140 A 
ENDROOT
BRANCH   6  12
HETATM   12  N1  UNL     1      -2.728  -0.497   0.714  1.00  0.00    -0.293 N 
HETATM   13  N2  UNL     1      -3.832  -0.380   0.071  1.00  0.00    -0.270 N 
HETATM   14  C8  UNL     1      -4.944  -1.128   0.505  1.00  0.00     0.232 C 
ATOM     15  H2  UNL     1      -3.903   0.240  -0.736  1.00  0.00     0.190 HD
HETATM   16  C9  UNL     1      -6.306  -0.665   0.169  1.00  0.00     0.119 C 
HETATM   17  O2  UNL     1      -4.801  -2.175   1.167  1.00  0.00    -0.272 OA
ATOM     18  H1  UNL     1      -2.652  -1.116   1.521  1.00  0.00     0.187 HD
ENDBRANCH   6  12
BRANCH   7  19
HETATM   19  O3  UNL     1      -2.819   2.189  -0.676  1.00  0.00    -0.344 OA
ATOM     20  H3  UNL     1      -2.850   3.032  -1.112  1.00  0.00     0.219 HD
ENDBRANCH   7  19
BRANCH  11  21
HETATM   21  O4  UNL     1       2.616   1.737  -0.699  1.00  0.00    -0.274 OA
BRANCH  21  22
HETATM   22  C13 UNL     1       3.015   1.773  -2.021  1.00  0.00     0.260 C 
HETATM   23  C14 UNL     1       3.874   2.905  -2.495  1.00  0.00     0.126 C 
HETATM   24  O5  UNL     1       2.647   0.860  -2.777  1.00  0.00    -0.265 OA
ENDBRANCH  21  22
ENDBRANCH  11  21
BRANCH   1  25
HETATM   25  O1  UNL     1       3.821  -0.449   0.380  1.00  0.00    -0.353 OA
HETATM   26  C1  UNL     1       4.493  -1.578   0.934  1.00  0.00     0.210 C 
ENDBRANCH   1  25
TORSDOF 5
