REMARK  5 active torsions:
REMARK  status: ('A' for Active; 'I' for Inactive)
REMARK    1  A    between atoms: C2_2  and  O1_3 
REMARK    2  A    between atoms: O1_3  and  C3_4 
REMARK    3  A    between atoms: C3_4  and  C4_6 
REMARK    4  A    between atoms: C6_8  and  C7_9 
REMARK    5  A    between atoms: C9_12  and  C10_13 
ROOT
HETATM    1  C4  UNL     1       1.850   0.608  -0.031  1.00  0.00     0.053 A 
HETATM    2  C5  UNL     1       0.558   0.227   0.073  1.00  0.00     0.039 A 
HETATM    3  C6  UNL     1      -0.366   0.959  -0.572  1.00  0.00     0.025 A 
HETATM    4  S2  UNL     1       0.553   2.183  -1.328  1.00  0.00    -0.093 SA
HETATM    5  C13 UNL     1       2.107   1.720  -0.794  1.00  0.00    -0.004 A 
HETATM    6  C14 UNL     1       3.443   2.366  -1.081  1.00  0.00     0.057 C 
ENDROOT
BRANCH   3   7
HETATM    7  C7  UNL     1      -1.831   0.851  -0.686  1.00  0.00     0.047 A 
HETATM    8  S1  UNL     1      -2.871   1.888  -1.565  1.00  0.00    -0.098 SA
HETATM    9  C8  UNL     1      -4.353   1.138  -1.221  1.00  0.00     0.066 A 
HETATM   10  C9  UNL     1      -4.015   0.073  -0.415  1.00  0.00     0.018 A 
HETATM   11  C12 UNL     1      -2.687  -0.063  -0.144  1.00  0.00     0.077 A 
HETATM   12  N2  UNL     1      -2.159  -1.142   0.698  1.00  0.00    -0.100 NA
BRANCH  10  13
HETATM   13  C10 UNL     1      -5.098  -0.819   0.081  1.00  0.00     0.011 C 
HETATM   14  C11 UNL     1      -6.529  -0.493  -0.323  1.00  0.00     0.068 C 
HETATM   15  N1  UNL     1      -4.913  -1.809   0.805  1.00  0.00    -0.402 N 
ATOM     16  H12 UNL     1      -3.954  -2.027   1.076  1.00  0.00     0.156 HD
ATOM     17  H11 UNL     1      -5.655  -2.420   1.145  1.00  0.00     0.156 HD
ENDBRANCH  10  13
ENDBRANCH   3   7
BRANCH   1  18
HETATM   18  C3  UNL     1       2.964  -0.115   0.632  1.00  0.00     0.294 C 
HETATM   19  O2  UNL     1       2.764  -1.138   1.338  1.00  0.00    -0.259 OA
BRANCH  18  20
HETATM   20  O1  UNL     1       4.260   0.308   0.499  1.00  0.00    -0.318 OA
BRANCH  20  21
HETATM   21  C2  UNL     1       5.351  -0.352   1.114  1.00  0.00     0.174 C 
HETATM   22  C1  UNL     1       5.489  -1.775   0.673  1.00  0.00     0.034 C 
ENDBRANCH  20  21
ENDBRANCH  18  20
ENDBRANCH   1  18
TORSDOF 5
