REMARK  6 active torsions:
REMARK  status: ('A' for Active; 'I' for Inactive)
REMARK    1  A    between atoms: O1_2  and  C2_3 
REMARK    2  A    between atoms: C4_5  and  C5_6 
REMARK    3  A    between atoms: C6_7  and  C7_8 
REMARK    4  A    between atoms: N3_15  and  N4_16 
REMARK    5  A    between atoms: C14_23  and  O2_24 
REMARK    6  A    between atoms: C16_26  and  O3_27 
ROOT
HETATM    1  C5  UNL     1       0.156   1.413   0.237  1.00  0.00     0.016 C 
HETATM    2  C6  UNL     1      -1.091   1.168   0.066  1.00  0.00     0.052 C 
ENDROOT
BRANCH   1   3
HETATM    3  C4  UNL     1       1.383   0.777  -0.153  1.00  0.00    -0.025 A 
HETATM    4  C3  UNL     1       2.294   1.598  -0.848  1.00  0.00     0.051 A 
HETATM    5  C2  UNL     1       3.538   1.185  -1.214  1.00  0.00     0.104 A 
HETATM    6  C16 UNL     1       3.898  -0.117  -0.870  1.00  0.00     0.133 A 
HETATM    7  C14 UNL     1       3.038  -0.941  -0.193  1.00  0.00     0.110 A 
HETATM    8  C12 UNL     1       1.777  -0.499   0.172  1.00  0.00    -0.015 A 
HETATM    9  C13 UNL     1       0.928  -1.399   1.031  1.00  0.00     0.052 C 
BRANCH   5  10
HETATM   10  O1  UNL     1       4.425   2.004  -1.899  1.00  0.00    -0.353 OA
HETATM   11  C1  UNL     1       4.000   3.315  -2.218  1.00  0.00     0.210 C 
ENDBRANCH   5  10
BRANCH   6  12
HETATM   12  O3  UNL     1       5.173  -0.520  -1.256  1.00  0.00    -0.356 OA
ATOM     13  H3  UNL     1       5.418  -1.407  -1.022  1.00  0.00     0.218 HD
ENDBRANCH   6  12
BRANCH   7  14
HETATM   14  O2  UNL     1       3.424  -2.220   0.131  1.00  0.00    -0.352 OA
HETATM   15  C15 UNL     1       4.098  -2.538   1.332  1.00  0.00     0.210 C 
ENDBRANCH   7  14
ENDBRANCH   1   3
BRANCH   2  16
HETATM   16  C7  UNL     1      -1.815   0.128  -0.626  1.00  0.00     0.144 A 
HETATM   17  N1  UNL     1      -1.345  -0.811  -1.463  1.00  0.00    -0.282 N 
HETATM   18  N2  UNL     1      -2.326  -1.586  -1.885  1.00  0.00    -0.273 N 
ATOM     19  H1  UNL     1      -0.367  -0.911  -1.734  1.00  0.00     0.188 HD
HETATM   20  C8  UNL     1      -3.464  -1.151  -1.316  1.00  0.00     0.214 A 
ATOM     21  H2  UNL     1      -2.237  -2.373  -2.527  1.00  0.00     0.189 HD
HETATM   22  S1  UNL     1      -4.940  -1.843  -1.575  1.00  0.00    -0.037 SA
HETATM   23  N3  UNL     1      -3.168  -0.110  -0.549  1.00  0.00    -0.211 N 
BRANCH  23  24
HETATM   24  N4  UNL     1      -4.050   0.626   0.210  1.00  0.00    -0.299 N 
HETATM   25  C9  UNL     1      -4.732   0.224   1.199  1.00  0.00    -0.004 C 
HETATM   26  C10 UNL     1      -4.714  -1.156   1.745  1.00  0.00     0.064 C 
HETATM   27  C11 UNL     1      -5.629   1.208   1.873  1.00  0.00     0.064 C 
ATOM     28  H4  UNL     1      -4.167   1.604  -0.053  1.00  0.00     0.187 HD
ENDBRANCH  23  24
ENDBRANCH   2  16
TORSDOF 6
