REMARK  6 active torsions:
REMARK  status: ('A' for Active; 'I' for Inactive)
REMARK    1  A    between atoms: S1_2  and  C2_3 
REMARK    2  A    between atoms: C3_5  and  N1_6 
REMARK    3  A    between atoms: C4_11  and  C6_13 
REMARK    4  A    between atoms: C8_18  and  O4_19 
REMARK    5  A    between atoms: C9_21  and  C10_22 
REMARK    6  A    between atoms: C10_22  and  C12_24 
ROOT
HETATM    1  C2  UNL     1       1.257   1.689  -0.800  1.00  0.00     0.052 A 
HETATM    2  S2  UNL     1      -0.419   1.909  -0.693  1.00  0.00    -0.060 SA
HETATM    3  C3  UNL     1      -0.845   0.474   0.083  1.00  0.00     0.137 A 
HETATM    4  C8  UNL     1       0.355  -0.174   0.252  1.00  0.00     0.110 A 
HETATM    5  C9  UNL     1       1.454   0.430  -0.195  1.00  0.00     0.009 A 
ENDROOT
BRANCH   3   6
HETATM    6  N1  UNL     1      -2.166   0.070   0.481  1.00  0.00    -0.197 N 
HETATM    7  N2  UNL     1      -2.578  -0.491   1.684  1.00  0.00    -0.235 N 
HETATM    8  N3  UNL     1      -3.822  -0.748   1.708  1.00  0.00    -0.292 N 
ATOM      9  H2  UNL     1      -1.948  -0.677   2.465  1.00  0.00     0.208 HD
HETATM   10  C4  UNL     1      -4.464  -0.377   0.467  1.00  0.00     0.213 A 
ATOM     11  H3  UNL     1      -4.307  -1.164   2.503  1.00  0.00     0.183 HD
HETATM   12  C5  UNL     1      -5.543   0.665   0.705  1.00  0.00     0.063 C 
HETATM   13  C7  UNL     1      -3.316   0.163  -0.319  1.00  0.00     0.285 A 
HETATM   14  O3  UNL     1      -3.500   0.596  -1.500  1.00  0.00    -0.268 OA
BRANCH  10  15
HETATM   15  C6  UNL     1      -5.029  -1.593  -0.190  1.00  0.00     0.213 C 
HETATM   16  O1  UNL     1      -4.898  -2.695   0.380  1.00  0.00    -0.646 OA
HETATM   17  O2  UNL     1      -5.688  -1.534  -1.402  1.00  0.00    -0.646 OA
ENDBRANCH  10  15
ENDBRANCH   3   6
BRANCH   4  18
HETATM   18  O4  UNL     1       0.306  -1.464   0.879  1.00  0.00    -0.357 OA
ATOM     19  H4  UNL     1       1.136  -1.912   0.996  1.00  0.00     0.217 HD
ENDBRANCH   4  18
BRANCH   1  20
HETATM   20  S1  UNL     1       2.577   2.747  -1.439  1.00  0.00    -0.126 SA
HETATM   21  C1  UNL     1       1.825   4.293  -1.952  1.00  0.00     0.096 C 
ENDBRANCH   1  20
BRANCH   5  22
HETATM   22  C10 UNL     1       2.894  -0.102  -0.175  1.00  0.00     0.044 C 
HETATM   23  C11 UNL     1       3.644   0.633   0.983  1.00  0.00     0.019 C 
BRANCH  22  24
HETATM   24  C12 UNL     1       2.964  -1.519   0.306  1.00  0.00     0.019 C 
HETATM   25  C13 UNL     1       3.700  -2.494  -0.159  1.00  0.00     0.087 C 
HETATM   26  C14 UNL     1       4.657  -2.480  -1.267  1.00  0.00     0.082 C 
HETATM   27  F1  UNL     1       3.567  -3.708   0.528  1.00  0.00    -0.212 F 
ENDBRANCH  22  24
ENDBRANCH   5  22
TORSDOF 6
