REMARK  6 active torsions:
REMARK  status: ('A' for Active; 'I' for Inactive)
REMARK    1  A    between atoms: C2_2  and  N1_4 
REMARK    2  A    between atoms: N1_4  and  C4_6 
REMARK    3  A    between atoms: C5_7  and  N2_8 
REMARK    4  A    between atoms: C6_11  and  O3_12 
REMARK    5  A    between atoms: C8_16  and  C9_17 
REMARK    6  A    between atoms: C15_24  and  N3_25 
ROOT
HETATM    1  C4  UNL     1       1.762  -0.820  -0.415  1.00  0.00     0.099 A 
HETATM    2  C5  UNL     1       1.569  -1.924   0.415  1.00  0.00     0.166 A 
HETATM    3  C6  UNL     1       0.337  -2.474   0.640  1.00  0.00     0.124 A 
HETATM    4  C7  UNL     1      -0.790  -1.945   0.039  1.00  0.00     0.082 A 
HETATM    5 CL1  UNL     1      -2.326  -2.759   0.326  1.00  0.00    -0.080 Cl
HETATM    6  C8  UNL     1      -0.647  -0.865  -0.779  1.00  0.00     0.026 A 
HETATM    7  C15 UNL     1       0.635  -0.313  -0.999  1.00  0.00     0.143 A 
ENDROOT
BRANCH   6   8
HETATM    8  C9  UNL     1      -1.808  -0.231  -1.373  1.00  0.00     0.048 C 
HETATM    9  C10 UNL     1      -2.749   0.426  -0.760  1.00  0.00     0.047 C 
HETATM   10  C11 UNL     1      -2.878   0.700   0.678  1.00  0.00     0.065 C 
HETATM   11  O4  UNL     1      -3.786   0.952  -1.566  1.00  0.00    -0.355 OA
HETATM   12  C12 UNL     1      -4.288   0.435   1.187  1.00  0.00     0.009 C 
HETATM   13  C13 UNL     1      -5.347   0.736   0.155  1.00  0.00     0.027 C 
HETATM   14  C14 UNL     1      -4.762   1.720  -0.862  1.00  0.00     0.175 C 
ENDBRANCH   6   8
BRANCH   7  15
HETATM   15  N3  UNL     1       0.720   0.792  -1.897  1.00  0.00    -0.112 N 
HETATM   16  O5  UNL     1       1.329   0.640  -2.972  1.00  0.00    -0.532 OA
HETATM   17  O6  UNL     1       0.139   2.019  -1.590  1.00  0.00    -0.532 OA
ENDBRANCH   7  15
BRANCH   3  18
HETATM   18  O3  UNL     1       0.203  -3.578   1.482  1.00  0.00    -0.357 OA
ATOM     19  H3  UNL     1      -0.653  -3.960   1.638  1.00  0.00     0.218 HD
ENDBRANCH   3  18
BRANCH   1  20
HETATM   20  N1  UNL     1       3.073  -0.363  -0.578  1.00  0.00    -0.382 N 
ATOM     21  H1  UNL     1       3.598  -0.831  -1.317  1.00  0.00     0.160 HD
BRANCH  20  22
HETATM   22  C2  UNL     1       3.792   0.642   0.113  1.00  0.00     0.073 C 
HETATM   23  C1  UNL     1       3.414   2.065  -0.238  1.00  0.00     0.031 C 
HETATM   24  C3  UNL     1       5.286   0.486  -0.188  1.00  0.00     0.031 C 
ENDBRANCH  20  22
ENDBRANCH   1  20
BRANCH   2  25
HETATM   25  N2  UNL     1       2.675  -2.531   1.030  1.00  0.00    -0.110 N 
HETATM   26  O1  UNL     1       3.177  -2.051   2.036  1.00  0.00    -0.532 OA
HETATM   27  O2  UNL     1       3.181  -3.682   0.507  1.00  0.00    -0.532 OA
ENDBRANCH   2  25
TORSDOF 6
