REMARK  2 active torsions:
REMARK  status: ('A' for Active; 'I' for Inactive)
REMARK       I    between atoms: C1_2  and  N2_4 
REMARK    1  A    between atoms: N2_4  and  C2_6 
REMARK    2  A    between atoms: N5_15  and  N6_16 
ROOT
HETATM    1  C2  UNL     1       0.006  -0.545  -0.459  1.00  0.00     0.715 A 
HETATM    2  N3  UNL     1      -0.655  -1.725  -0.620  1.00  0.00    -0.139 N 
ATOM      3  H3  UNL     1      -0.211  -2.464  -1.165  1.00  0.00     0.189 HD
HETATM    4  C3  UNL     1      -1.859  -1.954  -0.094  1.00  0.00     0.342 A 
HETATM    5  O2  UNL     1      -2.478  -3.048  -0.240  1.00  0.00    -0.246 OA
HETATM    6  N4  UNL     1      -2.450  -0.982   0.626  1.00  0.00    -0.258 N 
ATOM      7  H4  UNL     1      -3.371  -1.129   1.040  1.00  0.00     0.175 HD
HETATM    8  C4  UNL     1      -1.809   0.178   0.789  1.00  0.00     0.363 A 
HETATM    9  O3  UNL     1      -2.338   1.122   1.465  1.00  0.00    -0.244 OA
HETATM   10  N5  UNL     1      -0.574   0.429   0.257  1.00  0.00    -0.037 N 
ENDROOT
BRANCH   1  11
HETATM   11  N2  UNL     1       1.157  -0.390  -0.989  1.00  0.00    -0.141 N 
HETATM   12  C1  UNL     1       2.032   0.676  -0.987  1.00  0.00     0.347 C 
HETATM   13  N1  UNL     1       3.106   0.750  -0.037  1.00  0.00    -0.039 NA
HETATM   14  O1  UNL     1       1.963   1.645  -1.803  1.00  0.00    -0.250 OA
ATOM     15  H2  UNL     1       1.490  -1.202  -1.508  1.00  0.00     0.189 HD
ENDBRANCH   1  11
BRANCH  10  16
HETATM   16  N6  UNL     1       0.014   1.686   0.488  1.00  0.00    -0.320 N 
ATOM     17  H62 UNL     1       0.935   1.873   0.091  1.00  0.00     0.178 HD
ATOM     18  H61 UNL     1      -0.427   2.427   1.033  1.00  0.00     0.178 HD
ENDBRANCH  10  16
TORSDOF 2
