REMARK  15 active torsions:
REMARK  status: ('A' for Active; 'I' for Inactive)
REMARK    1  A    between atoms: N1_1  and  C1_4 
REMARK    2  A    between atoms: C3_8  and  C4_9 
REMARK    3  A    between atoms: C4_9  and  O1_10 
REMARK    4  A    between atoms: C4_9  and  C5_12 
REMARK    5  A    between atoms: N5_16  and  C6_17 
REMARK    6  A    between atoms: C6_17  and  C7_18 
REMARK    7  A    between atoms: C10_27  and  N9_28 
REMARK    8  A    between atoms: N10_31  and  C11_32 
REMARK    9  A    between atoms: C11_32  and  C12_33 
REMARK   10  A    between atoms: C12_33  and  C13_34 
REMARK   11  A    between atoms: C13_34  and  O2_35 
REMARK   12  A    between atoms: C13_34  and  C14_37 
REMARK   13  A    between atoms: C14_37  and  N11_38 
REMARK   14  A    between atoms: C15_42  and  N12_43 
REMARK   15  A    between atoms: C16_50  and  N15_51 
ROOT
HETATM    1  C7  UNL     1      -0.157  -2.290   0.411  1.00  0.00     0.118 C 
HETATM    2  N6  UNL     1       0.888  -1.949  -0.389  1.00  0.00    -0.286 N 
ATOM      3  H6  UNL     1       0.883  -2.362  -1.322  1.00  0.00     0.188 HD
HETATM    4  N7  UNL     1       1.927  -1.141  -0.117  1.00  0.00    -0.281 N 
ATOM      5  H7  UNL     1       2.863  -1.448  -0.383  1.00  0.00     0.188 HD
HETATM    6  C8  UNL     1       1.792   0.071   0.498  1.00  0.00     0.169 A 
HETATM    7  C9  UNL     1       0.798   0.443   1.382  1.00  0.00     0.138 A 
HETATM    8  N8  UNL     1       1.036   1.711   1.747  1.00  0.00    -0.184 N 
ATOM      9  H8  UNL     1       0.481   2.273   2.392  1.00  0.00     0.184 HD
HETATM   10  C10 UNL     1       2.141   2.097   1.102  1.00  0.00     0.680 A 
HETATM   11  N10 UNL     1       2.623   1.119   0.334  1.00  0.00    -0.165 N 
HETATM   12  C15 UNL     1      -0.278  -0.320   1.846  1.00  0.00     0.132 C 
HETATM   13  N13 UNL     1      -0.456  -1.630   1.567  1.00  0.00    -0.328 N 
ATOM     14  H13 UNL     1      -0.864  -2.195   2.312  1.00  0.00     0.169 HD
ENDROOT
BRANCH   1  15
HETATM   15  C6  UNL     1      -0.998  -3.428  -0.006  1.00  0.00     0.245 C 
BRANCH  15  16
HETATM   16  N5  UNL     1      -2.087  -2.930  -0.827  1.00  0.00    -0.209 N 
HETATM   17  N4  UNL     1      -2.099  -2.773  -2.141  1.00  0.00    -0.003 NA
HETATM   18  N3  UNL     1      -3.302  -2.289  -2.489  1.00  0.00    -0.268 N 
HETATM   19  C5  UNL     1      -4.056  -2.140  -1.385  1.00  0.00     0.144 A 
ATOM     20  H3  UNL     1      -3.598  -2.069  -3.440  1.00  0.00     0.185 HD
HETATM   21  N14 UNL     1      -3.277  -2.546  -0.362  1.00  0.00    -0.270 N 
ATOM     22  H14 UNL     1      -3.556  -2.558   0.619  1.00  0.00     0.190 HD
BRANCH  19  23
HETATM   23  C4  UNL     1      -5.454  -1.630  -1.339  1.00  0.00     0.226 C 
BRANCH  23  24
HETATM   24  C3  UNL     1      -5.540  -0.248  -0.837  1.00  0.00     0.038 A 
HETATM   25  C2  UNL     1      -6.092   0.041   0.392  1.00  0.00     0.120 A 
HETATM   26  N2  UNL     1      -6.159   1.319   0.832  1.00  0.00    -0.201 N 
HETATM   27  C1  UNL     1      -5.698   2.345   0.098  1.00  0.00     0.677 A 
ATOM     28  H2  UNL     1      -6.571   1.508   1.746  1.00  0.00     0.183 HD
HETATM   29  N16 UNL     1      -5.154   2.092  -1.106  1.00  0.00    -0.177 N 
HETATM   30  C16 UNL     1      -5.074   0.818  -1.569  1.00  0.00     0.125 A 
ATOM     31  H16 UNL     1      -4.800   2.861  -1.674  1.00  0.00     0.185 HD
BRANCH  27  32
HETATM   32  N1  UNL     1      -5.776   3.558   0.545  1.00  0.00    -0.234 N 
ATOM     33  H12 UNL     1      -6.188   3.750   1.458  1.00  0.00     0.174 HD
ATOM     34  H11 UNL     1      -5.426   4.337  -0.012  1.00  0.00     0.174 HD
ENDBRANCH  27  32
BRANCH  30  35
HETATM   35  N15 UNL     1      -4.551   0.582  -2.727  1.00  0.00    -0.384 N 
ATOM     36 2H15 UNL     1      -4.491  -0.375  -3.075  1.00  0.00     0.157 HD
ATOM     37 1H15 UNL     1      -4.205   1.373  -3.270  1.00  0.00     0.157 HD
ENDBRANCH  30  35
ENDBRANCH  23  24
BRANCH  23  38
HETATM   38  O1  UNL     1      -6.186  -2.490  -0.490  1.00  0.00    -0.383 OA
ATOM     39  H1  UNL     1      -6.131  -3.381  -0.814  1.00  0.00     0.211 HD
ENDBRANCH  23  38
ENDBRANCH  19  23
ENDBRANCH  15  16
ENDBRANCH   1  15
BRANCH  12  40
HETATM   40  N12 UNL     1      -1.102   0.318   2.568  1.00  0.00    -0.383 N 
ATOM     41 2H12 UNL     1      -0.968   1.307   2.779  1.00  0.00     0.157 HD
ATOM     42 1H12 UNL     1      -1.887  -0.239   2.906  1.00  0.00     0.157 HD
ENDBRANCH  12  40
BRANCH  11  43
HETATM   43  C11 UNL     1       3.794   1.094  -0.532  1.00  0.00     0.152 C 
BRANCH  43  44
HETATM   44  C12 UNL     1       5.019   0.623   0.254  1.00  0.00     0.054 C 
BRANCH  44  45
HETATM   45  C13 UNL     1       6.238   0.591  -0.654  1.00  0.00     0.145 C 
BRANCH  45  46
HETATM   46  O2  UNL     1       6.024  -0.282  -1.715  1.00  0.00    -0.394 OA
ATOM     47  H2  UNL     1       6.786  -0.302  -2.282  1.00  0.00     0.210 HD
ENDBRANCH  45  46
BRANCH  45  48
HETATM   48  C14 UNL     1       7.465   0.200   0.149  1.00  0.00     0.261 C 
BRANCH  48  49
HETATM   49  N11 UNL     1       8.646   0.212  -0.667  1.00  0.00    -0.077 N 
ATOM     50 3H11 UNL     1       8.536  -0.375  -1.494  1.00  0.00     0.274 HD
ATOM     51 2H11 UNL     1       8.772   1.112  -1.130  1.00  0.00     0.274 HD
ATOM     52 1H11 UNL     1       9.471  -0.051  -0.127  1.00  0.00     0.274 HD
ENDBRANCH  48  49
ENDBRANCH  45  48
ENDBRANCH  44  45
ENDBRANCH  43  44
ENDBRANCH  11  43
BRANCH  10  53
HETATM   53  N9  UNL     1       2.658   3.263   1.219  1.00  0.00    -0.234 N 
ATOM     54  H92 UNL     1       2.289   4.011   1.806  1.00  0.00     0.174 HD
ATOM     55  H91 UNL     1       3.501   3.558   0.727  1.00  0.00     0.174 HD
ENDBRANCH  10  53
TORSDOF 15
