REMARK  11 active torsions:
REMARK  status: ('A' for Active; 'I' for Inactive)
REMARK    1  A    between atoms: C2_2  and  C3_3 
REMARK    2  A    between atoms: C3_3  and  C4_4 
REMARK    3  A    between atoms: C4_4  and  C5_5 
REMARK    4  A    between atoms: C5_5  and  C6_6 
REMARK    5  A    between atoms: C6_6  and  C7_7 
REMARK    6  A    between atoms: C9_12  and  C10_13 
REMARK    7  A    between atoms: C10_13  and  C11_14 
REMARK    8  A    between atoms: C15_21  and  C16_22 
REMARK    9  A    between atoms: C16_22  and  C17_23 
REMARK   10  A    between atoms: N4_35  and  C27_37 
REMARK   11  A    between atoms: C27_37  and  O3_39 
ROOT
HETATM    1  C7  UNL     1       2.763   0.235  -1.381  1.00  0.00     0.176 C 
HETATM    2  N1  UNL     1       3.391   1.257  -0.593  1.00  0.00    -0.346 N 
ATOM      3  H1  UNL     1       4.352   1.074  -0.305  1.00  0.00     0.163 HD
HETATM    4  C8  UNL     1       2.836   2.491  -0.167  1.00  0.00     0.241 C 
HETATM    5  O1  UNL     1       3.442   3.579  -0.513  1.00  0.00    -0.271 OA
HETATM    6  C9  UNL     1       1.626   2.702   0.637  1.00  0.00     0.177 C 
HETATM    7  N2  UNL     1       0.589   3.119  -0.250  1.00  0.00    -0.344 N 
ATOM      8  H2  UNL     1       0.821   3.913  -0.847  1.00  0.00     0.163 HD
HETATM    9  C14 UNL     1      -0.688   2.604  -0.420  1.00  0.00     0.250 C 
HETATM   10  O2  UNL     1      -1.626   3.456  -0.621  1.00  0.00    -0.268 OA
HETATM   11  C15 UNL     1      -1.097   1.141  -0.394  1.00  0.00     0.038 C 
HETATM   12  C29 UNL     1      -0.692   0.370  -1.547  1.00  0.00     0.058 C 
HETATM   13  C30 UNL     1      -0.106   1.188  -2.705  1.00  0.00     0.044 C 
HETATM   14  C31 UNL     1      -1.782  -0.435  -2.288  1.00  0.00     0.044 C 
HETATM   15  N5  UNL     1       0.332  -0.655  -1.231  1.00  0.00    -0.346 N 
ATOM     16  H5  UNL     1       0.055  -1.625  -1.385  1.00  0.00     0.163 HD
HETATM   17  C32 UNL     1       1.631  -0.459  -0.748  1.00  0.00     0.241 C 
HETATM   18  O4  UNL     1       1.911  -0.946   0.419  1.00  0.00    -0.271 OA
ENDROOT
BRANCH  11  19
HETATM   19  C16 UNL     1      -2.359   1.136   0.321  1.00  0.00     0.030 C 
BRANCH  19  20
HETATM   20  C17 UNL     1      -3.191  -0.015   0.543  1.00  0.00     0.009 A 
HETATM   21  C18 UNL     1      -2.859  -1.089   1.342  1.00  0.00     0.029 A 
HETATM   22  C19 UNL     1      -3.697  -2.170   1.379  1.00  0.00    -0.009 A 
HETATM   23  C20 UNL     1      -3.422  -3.298   2.155  1.00  0.00     0.014 A 
HETATM   24  C25 UNL     1      -4.858  -2.219   0.647  1.00  0.00     0.044 A 
HETATM   25  C21 UNL     1      -4.273  -4.390   2.176  1.00  0.00     0.007 A 
HETATM   26  C22 UNL     1      -5.429  -4.402   1.426  1.00  0.00    -0.060 A 
HETATM   27  C23 UNL     1      -6.380  -5.542   1.394  1.00  0.00     0.048 C 
HETATM   28  C24 UNL     1      -5.717  -3.304   0.658  1.00  0.00     0.037 A 
HETATM   29  N3  UNL     1      -5.198  -1.176  -0.138  1.00  0.00    -0.341 N 
HETATM   30  C26 UNL     1      -4.377  -0.124  -0.169  1.00  0.00     0.114 A 
ATOM     31  H3  UNL     1      -6.055  -1.191  -0.690  1.00  0.00     0.167 HD
HETATM   32  N4  UNL     1      -4.810   0.888  -0.887  1.00  0.00    -0.350 N 
ATOM     33  H4  UNL     1      -4.234   1.730  -0.885  1.00  0.00     0.163 HD
BRANCH  32  34
HETATM   34  C27 UNL     1      -5.992   0.930  -1.662  1.00  0.00     0.214 C 
HETATM   35  C28 UNL     1      -7.134   1.315  -0.710  1.00  0.00     0.063 C 
BRANCH  34  36
HETATM   36  O3  UNL     1      -5.868   2.052  -2.522  1.00  0.00    -0.377 OA
ATOM     37  H3  UNL     1      -6.662   2.080  -3.043  1.00  0.00     0.212 HD
ENDBRANCH  34  36
ENDBRANCH  32  34
ENDBRANCH  19  20
ENDBRANCH  11  19
BRANCH   6  38
HETATM   38  C10 UNL     1       1.874   3.563   1.826  1.00  0.00     0.038 C 
BRANCH  38  39
HETATM   39  C11 UNL     1       2.372   4.936   1.673  1.00  0.00    -0.020 C 
HETATM   40  C12 UNL     1       1.438   5.804   0.872  1.00  0.00     0.009 C 
HETATM   41  C13 UNL     1       2.514   5.609   3.069  1.00  0.00     0.009 C 
ENDBRANCH  38  39
ENDBRANCH   6  38
BRANCH   1  42
HETATM   42  C6  UNL     1       3.827  -0.789  -1.732  1.00  0.00     0.035 C 
BRANCH  42  43
HETATM   43  C5  UNL     1       4.497  -1.446  -0.575  1.00  0.00     0.002 C 
BRANCH  43  44
HETATM   44  C4  UNL     1       5.599  -2.416  -1.044  1.00  0.00     0.000 C 
BRANCH  44  45
HETATM   45  C3  UNL     1       6.165  -2.967   0.273  1.00  0.00    -0.000 C 
BRANCH  45  46
HETATM   46  C2  UNL     1       7.275  -3.957   0.056  1.00  0.00    -0.005 C 
HETATM   47  C1  UNL     1       7.751  -4.416   1.441  1.00  0.00     0.005 C 
ENDBRANCH  45  46
ENDBRANCH  44  45
ENDBRANCH  43  44
ENDBRANCH  42  43
ENDBRANCH   1  42
TORSDOF 11
