REMARK  5 active torsions:
REMARK  status: ('A' for Active; 'I' for Inactive)
REMARK    1  A    between atoms: C2_2  and  C5_5 
REMARK    2  A    between atoms: N1_10  and  C10_12 
REMARK    3  A    between atoms: C10_12  and  O1_13 
REMARK    4  A    between atoms: C10_12  and  C11_15 
REMARK    5  A    between atoms: C11_15  and  C12_16 
ROOT
HETATM    1  C5  UNL     1      -2.186   0.184   0.340  1.00  0.00     0.018 A 
HETATM    2  C6  UNL     1      -2.140   0.289   1.729  1.00  0.00     0.026 A 
HETATM    3  C7  UNL     1      -1.081  -0.214   2.437  1.00  0.00     0.006 A 
HETATM    4  C8  UNL     1      -0.061  -0.824   1.755  1.00  0.00     0.048 A 
HETATM    5  C9  UNL     1      -0.106  -0.926   0.400  1.00  0.00     0.103 A 
HETATM    6  N1  UNL     1       0.796  -1.498  -0.252  1.00  0.00    -0.350 N 
ATOM      7  H1  UNL     1       0.609  -1.483  -1.255  1.00  0.00     0.163 HD
HETATM    8  N3  UNL     1      -1.159  -0.420  -0.262  1.00  0.00    -0.345 N 
ATOM      9  H3  UNL     1      -1.175  -0.501  -1.279  1.00  0.00     0.167 HD
ENDROOT
BRANCH   6  10
HETATM   10  C10 UNL     1       1.989  -2.149   0.043  1.00  0.00     0.223 C 
BRANCH  10  11
HETATM   11  O1  UNL     1       2.468  -2.779  -1.137  1.00  0.00    -0.377 OA
ATOM     12  H1  UNL     1       3.283  -3.224  -0.935  1.00  0.00     0.212 HD
ENDBRANCH  10  11
BRANCH  10  13
HETATM   13  C11 UNL     1       3.123  -1.430   0.653  1.00  0.00     0.093 C 
BRANCH  13  14
HETATM   14  C12 UNL     1       3.672  -0.293  -0.115  1.00  0.00    -0.039 A 
HETATM   15  C13 UNL     1       4.700  -0.484  -1.047  1.00  0.00     0.010 A 
HETATM   16  C14 UNL     1       5.233   0.592  -1.754  1.00  0.00     0.018 A 
HETATM   17  C15 UNL     1       4.722   1.839  -1.514  1.00  0.00     0.087 A 
HETATM   18  N2  UNL     1       3.734   2.053  -0.626  1.00  0.00    -0.375 N 
HETATM   19  C16 UNL     1       3.227   0.998   0.054  1.00  0.00     0.094 A 
ATOM     20  H2  UNL     1       3.373   2.994  -0.468  1.00  0.00     0.164 HD
ENDBRANCH  13  14
ENDBRANCH  10  13
ENDBRANCH   6  10
BRANCH   1  21
HETATM   21  C2  UNL     1      -3.397   0.729  -0.307  1.00  0.00    -0.009 C 
HETATM   22  C1  UNL     1      -4.617  -0.159   0.015  1.00  0.00     0.021 C 
HETATM   23  C3  UNL     1      -3.326   0.838  -1.790  1.00  0.00     0.021 C 
HETATM   24  C4  UNL     1      -3.761   2.090   0.249  1.00  0.00     0.021 C 
ENDBRANCH   1  21
TORSDOF 5
