REMARK  8 active torsions:
REMARK  status: ('A' for Active; 'I' for Inactive)
REMARK    1  A    between atoms: O1_2  and  C2_3 
REMARK    2  A    between atoms: C5_8  and  N2_9 
REMARK    3  A    between atoms: C6_14  and  C7_15 
REMARK    4  A    between atoms: N5_16  and  N6_18 
REMARK    5  A    between atoms: N10_27  and  N11_29 
REMARK    6  A    between atoms: C10_31  and  C11_32 
REMARK    7  A    between atoms: C15_36  and  O2_37 
REMARK    8  A    between atoms: C16_39  and  O3_40 
ROOT
HETATM    1  N6  UNL     1       0.547   1.617  -1.678  1.00  0.00    -0.131 N 
ATOM      2  H6  UNL     1       1.165   1.761  -2.477  1.00  0.00     0.205 HD
HETATM    3  C8  UNL     1      -0.254   0.614  -1.716  1.00  0.00     0.724 C 
HETATM    4  N7  UNL     1      -0.309  -0.287  -2.812  1.00  0.00    -0.114 N 
ATOM      5  H7  UNL     1       0.034   0.021  -3.722  1.00  0.00     0.203 HD
HETATM    6  N8  UNL     1      -0.819  -1.583  -2.683  1.00  0.00     0.007 NA
HETATM    7  N9  UNL     1      -1.946  -1.568  -1.880  1.00  0.00    -0.114 N 
ATOM      8  H9  UNL     1      -2.748  -2.151  -2.121  1.00  0.00     0.203 HD
HETATM    9  C9  UNL     1      -1.993  -0.752  -0.732  1.00  0.00     0.724 C 
HETATM   10  N10 UNL     1      -2.814  -1.025   0.220  1.00  0.00    -0.131 N 
ATOM     11  H10 UNL     1      -2.832  -0.420   1.041  1.00  0.00     0.205 HD
HETATM   12  N12 UNL     1      -1.128   0.387  -0.618  1.00  0.00    -0.018 N 
ATOM     13  H12 UNL     1      -1.139   0.996   0.200  1.00  0.00     0.203 HD
ENDROOT
BRANCH   1  14
HETATM   14  N5  UNL     1       0.631   2.513  -0.634  1.00  0.00    -0.294 N 
HETATM   15  C7  UNL     1       1.605   2.570   0.202  1.00  0.00     0.159 C 
ATOM     16  H5  UNL     1      -0.134   3.178  -0.517  1.00  0.00     0.186 HD
BRANCH  15  17
HETATM   17  C6  UNL     1       2.755   1.679   0.143  1.00  0.00     0.154 A 
HETATM   18  N4  UNL     1       2.908   0.715  -0.787  1.00  0.00    -0.267 N 
HETATM   19  N3  UNL     1       4.060   0.107  -0.536  1.00  0.00    -0.218 N 
ATOM     20  H4  UNL     1       2.259   0.494  -1.542  1.00  0.00     0.190 HD
HETATM   21  N2  UNL     1       4.645   0.643   0.513  1.00  0.00    -0.161 N 
ATOM     22  H3  UNL     1       4.439  -0.668  -1.080  1.00  0.00     0.210 HD
HETATM   23  N13 UNL     1       3.829   1.604   0.913  1.00  0.00    -0.259 N 
ATOM     24  H13 UNL     1       4.005   2.211   1.714  1.00  0.00     0.191 HD
BRANCH  21  25
HETATM   25  C5  UNL     1       5.890   0.255   1.078  1.00  0.00     0.180 A 
HETATM   26  C2  UNL     1       7.140   0.781   0.864  1.00  0.00     0.117 A 
HETATM   27  C3  UNL     1       8.021   0.072   1.634  1.00  0.00     0.058 A 
HETATM   28  C4  UNL     1       7.318  -0.892   2.323  1.00  0.00     0.092 A 
HETATM   29  N1  UNL     1       6.039  -0.764   1.974  1.00  0.00    -0.347 N 
ATOM     30  H1  UNL     1       5.278  -1.345   2.326  1.00  0.00     0.167 HD
BRANCH  26  31
HETATM   31  O1  UNL     1       7.493   1.827   0.039  1.00  0.00    -0.352 OA
HETATM   32  C1  UNL     1       8.787   2.311  -0.130  1.00  0.00     0.210 C 
ENDBRANCH  26  31
ENDBRANCH  21  25
ENDBRANCH  15  17
ENDBRANCH   1  14
BRANCH  10  33
HETATM   33  N11 UNL     1      -3.633  -2.056   0.175  1.00  0.00    -0.297 N 
HETATM   34  C10 UNL     1      -4.845  -2.237   0.244  1.00  0.00     0.122 C 
ATOM     35  H11 UNL     1      -3.128  -2.933   0.050  1.00  0.00     0.186 HD
BRANCH  34  36
HETATM   36  C11 UNL     1      -5.889  -1.245   0.422  1.00  0.00     0.017 A 
HETATM   37  C12 UNL     1      -5.635   0.088   0.540  1.00  0.00     0.016 A 
HETATM   38  C13 UNL     1      -6.637   1.050   0.712  1.00  0.00     0.004 A 
HETATM   39  C14 UNL     1      -7.921   0.613   0.760  1.00  0.00     0.039 A 
HETATM   40  C15 UNL     1      -8.232  -0.710   0.647  1.00  0.00     0.099 A 
HETATM   41  C16 UNL     1      -7.230  -1.653   0.477  1.00  0.00     0.110 A 
BRANCH  40  42
HETATM   42  O2  UNL     1      -9.545  -1.169   0.695  1.00  0.00    -0.358 OA
ATOM     43  H2  UNL     1      -9.762  -2.091   0.616  1.00  0.00     0.217 HD
ENDBRANCH  40  42
BRANCH  41  44
HETATM   44  O3  UNL     1      -7.576  -2.971   0.367  1.00  0.00    -0.357 OA
ATOM     45  H3  UNL     1      -8.484  -3.247   0.404  1.00  0.00     0.217 HD
ENDBRANCH  41  44
ENDBRANCH  34  36
ENDBRANCH  10  33
TORSDOF 8
