REMARK  16 active torsions:
REMARK  status: ('A' for Active; 'I' for Inactive)
REMARK       I    between atoms: C2_2  and  N1_4 
REMARK    1  A    between atoms: N1_4  and  C3_6 
REMARK    2  A    between atoms: C3_6  and  C5_8 
REMARK       I    between atoms: C5_8  and  N2_10 
REMARK    3  A    between atoms: N2_10  and  C6_12 
REMARK    4  A    between atoms: C6_12  and  C7_13 
REMARK       I    between atoms: C7_13  and  N3_15 
REMARK    5  A    between atoms: N3_15  and  C8_17 
REMARK    6  A    between atoms: C8_17  and  C9_18 
REMARK    7  A    between atoms: C8_17  and  C14_23 
REMARK    8  A    between atoms: C9_18  and  C10_19 
REMARK       I    between atoms: C14_23  and  N4_25 
REMARK    9  A    between atoms: N4_25  and  C15_27 
REMARK   10  A    between atoms: C15_27  and  C16_28 
REMARK   11  A    between atoms: C15_27  and  C22_36 
REMARK   12  A    between atoms: C16_28  and  C17_29 
REMARK   13  A    between atoms: C17_29  and  C18_30 
REMARK   14  A    between atoms: C18_30  and  N5_31 
REMARK   15  A    between atoms: C22_36  and  O5_37 
REMARK   16  A    between atoms: C22_36  and  N6_39 
ROOT
HETATM    1  C8  UNL     1       0.708   0.557  -1.965  1.00  0.00     0.177 C 
ENDROOT
BRANCH   1   2
HETATM    2  N3  UNL     1       1.928  -0.138  -1.960  1.00  0.00    -0.346 N 
HETATM    3  C7  UNL     1       3.045   0.013  -1.087  1.00  0.00     0.246 C 
HETATM    4  O3  UNL     1       2.950   0.907  -0.208  1.00  0.00    -0.271 OA
ATOM      5  H3  UNL     1       2.029  -0.851  -2.682  1.00  0.00     0.163 HD
BRANCH   3   6
HETATM    6  C6  UNL     1       4.272  -0.828  -1.179  1.00  0.00     0.114 C 
HETATM    7  C32 UNL     1       4.883  -0.663  -2.539  1.00  0.00     0.041 C 
HETATM    8  C33 UNL     1       5.276  -2.017  -3.084  1.00  0.00     0.003 C 
HETATM    9  C34 UNL     1       5.991  -2.784  -2.014  1.00  0.00     0.000 C 
HETATM   10  C35 UNL     1       4.949  -3.231  -1.000  1.00  0.00     0.003 C 
HETATM   11  C36 UNL     1       3.794  -2.258  -0.965  1.00  0.00     0.041 C 
BRANCH   6  12
HETATM   12  N2  UNL     1       5.203  -0.414  -0.159  1.00  0.00    -0.341 N 
HETATM   13  C5  UNL     1       5.018  -0.446   1.229  1.00  0.00     0.241 C 
HETATM   14  O2  UNL     1       3.964  -0.861   1.734  1.00  0.00    -0.271 OA
ATOM     15  H2  UNL     1       6.100  -0.056  -0.486  1.00  0.00     0.163 HD
BRANCH  13  16
HETATM   16  C3  UNL     1       6.086   0.020   2.177  1.00  0.00     0.172 C 
HETATM   17  C4  UNL     1       7.338  -0.853   1.987  1.00  0.00     0.042 C 
BRANCH  16  18
HETATM   18  N1  UNL     1       5.709  -0.081   3.547  1.00  0.00    -0.348 N 
HETATM   19  C2  UNL     1       5.804   1.056   4.390  1.00  0.00     0.214 C 
HETATM   20  C1  UNL     1       5.431   1.040   5.833  1.00  0.00     0.117 C 
HETATM   21  O1  UNL     1       6.218   2.140   3.925  1.00  0.00    -0.274 OA
ATOM     22  H1  UNL     1       5.372  -0.968   3.921  1.00  0.00     0.163 HD
ENDBRANCH  16  18
ENDBRANCH  13  16
ENDBRANCH   6  12
ENDBRANCH   3   6
ENDBRANCH   1   2
BRANCH   1  23
HETATM   23  C9  UNL     1       0.711   2.027  -2.066  1.00  0.00     0.043 C 
BRANCH  23  24
HETATM   24  C10 UNL     1       1.284   2.677  -3.262  1.00  0.00    -0.049 C 
HETATM   25  C11 UNL     1       1.099   4.207  -3.061  1.00  0.00     0.014 C 
HETATM   26  C12 UNL     1       0.539   2.356  -4.543  1.00  0.00     0.014 C 
HETATM   27  C13 UNL     1       2.733   2.496  -3.532  1.00  0.00     0.014 C 
ENDBRANCH  23  24
ENDBRANCH   1  23
BRANCH   1  28
HETATM   28  C14 UNL     1      -0.212   0.079  -0.855  1.00  0.00     0.241 C 
HETATM   29  O4  UNL     1       0.295  -0.782  -0.076  1.00  0.00    -0.271 OA
HETATM   30  N4  UNL     1      -1.508   0.586  -0.757  1.00  0.00    -0.347 N 
ATOM     31  H4  UNL     1      -1.817   1.280  -1.437  1.00  0.00     0.163 HD
BRANCH  30  32
HETATM   32  C15 UNL     1      -2.448   0.153   0.297  1.00  0.00     0.159 C 
BRANCH  32  33
HETATM   33  C16 UNL     1      -1.925   0.560   1.644  1.00  0.00     0.035 C 
BRANCH  33  34
HETATM   34  C17 UNL     1      -1.768   2.092   1.693  1.00  0.00     0.022 C 
BRANCH  34  35
HETATM   35  C18 UNL     1      -3.055   2.814   1.478  1.00  0.00     0.119 C 
BRANCH  35  36
HETATM   36  N5  UNL     1      -2.801   4.220   1.575  1.00  0.00    -0.397 N 
HETATM   37  C19 UNL     1      -2.684   5.030   0.614  1.00  0.00    -0.026 C 
HETATM   38  C20 UNL     1      -2.421   6.458   0.891  1.00  0.00     0.062 C 
HETATM   39  C21 UNL     1      -2.819   4.565  -0.780  1.00  0.00     0.062 C 
ATOM     40  H5  UNL     1      -2.705   4.605   2.514  1.00  0.00     0.159 HD
ENDBRANCH  35  36
ENDBRANCH  34  35
ENDBRANCH  33  34
ENDBRANCH  32  33
BRANCH  32  41
HETATM   41  C22 UNL     1      -2.767  -1.275   0.133  1.00  0.00     0.137 C 
BRANCH  41  42
HETATM   42  O5  UNL     1      -2.195  -1.898  -0.864  1.00  0.00    -0.348 OA
ATOM     43  H5  UNL     1      -2.401  -2.819  -0.970  1.00  0.00     0.219 HD
ENDBRANCH  41  42
BRANCH  41  44
HETATM   44  N6  UNL     1      -3.607  -2.096   0.890  1.00  0.00    -0.364 N 
HETATM   45  C23 UNL     1      -3.752  -3.500   0.492  1.00  0.00     0.125 C 
HETATM   46  C24 UNL     1      -5.201  -3.833   0.224  1.00  0.00     0.029 C 
HETATM   47  C25 UNL     1      -6.129  -3.192   1.227  1.00  0.00    -0.037 C 
HETATM   48  C26 UNL     1      -7.131  -4.251   1.741  1.00  0.00     0.010 C 
HETATM   49  C29 UNL     1      -7.053  -2.191   0.605  1.00  0.00     0.010 C 
HETATM   50  C30 UNL     1      -5.433  -2.689   2.440  1.00  0.00     0.029 C 
HETATM   51  C27 UNL     1      -8.096  -4.387   0.608  1.00  0.00     0.001 C 
HETATM   52  C28 UNL     1      -8.204  -2.979   0.034  1.00  0.00     0.001 C 
HETATM   53  C31 UNL     1      -4.355  -1.693   2.037  1.00  0.00     0.125 C 
ENDBRANCH  41  44
ENDBRANCH  32  41
ENDBRANCH  30  32
ENDBRANCH   1  28
TORSDOF 16
