REMARK  18 active torsions:
REMARK  status: ('A' for Active; 'I' for Inactive)
REMARK    1  A    between atoms: C2_2  and  C4_4 
REMARK    2  A    between atoms: C4_4  and  C5_5 
REMARK    3  A    between atoms: C5_5  and  N1_6 
REMARK    4  A    between atoms: C5_5  and  C26_37 
REMARK       I    between atoms: N1_6  and  C6_8 
REMARK    5  A    between atoms: C6_8  and  C7_10 
REMARK    6  A    between atoms: C7_10  and  N2_11 
REMARK    7  A    between atoms: C7_10  and  C22_33 
REMARK       I    between atoms: N2_11  and  C8_12 
REMARK       I    between atoms: C8_12  and  N4_16 
REMARK    8  A    between atoms: N4_16  and  C9_18 
REMARK    9  A    between atoms: C9_18  and  C10_19 
REMARK   10  A    between atoms: C9_18  and  C17_26 
REMARK   11  A    between atoms: C17_26  and  O2_27 
REMARK   12  A    between atoms: C17_26  and  C18_29 
REMARK       I    between atoms: C26_37  and  N5_39 
REMARK   13  A    between atoms: N5_39  and  C27_41 
REMARK   14  A    between atoms: C27_41  and  C28_42 
REMARK   15  A    between atoms: C27_41  and  C30_47 
REMARK   16  A    between atoms: N6_43  and  O4_45 
REMARK   17  A    between atoms: C30_47  and  C31_48 
REMARK   18  A    between atoms: C31_48  and  C32_49 
ROOT
HETATM    1  C7  UNL     1       0.253  -1.050  -2.353  1.00  0.00     0.163 C 
ENDROOT
BRANCH   1   2
HETATM    2  C6  UNL     1      -1.191  -1.067  -1.918  1.00  0.00     0.279 C 
HETATM    3  N1  UNL     1      -1.704  -0.241  -0.878  1.00  0.00    -0.342 N 
ATOM      4  H1  UNL     1      -1.090   0.399  -0.374  1.00  0.00     0.163 HD
HETATM    5  O1  UNL     1      -1.950  -1.848  -2.515  1.00  0.00    -0.265 OA
BRANCH   3   6
HETATM    6  C5  UNL     1      -3.114  -0.325  -0.548  1.00  0.00     0.177 C 
BRANCH   6   7
HETATM    7  C4  UNL     1      -3.931   0.515  -1.515  1.00  0.00     0.038 C 
BRANCH   7   8
HETATM    8  C2  UNL     1      -3.610   1.963  -1.587  1.00  0.00    -0.020 C 
HETATM    9  C1  UNL     1      -4.540   2.593  -2.691  1.00  0.00     0.009 C 
HETATM   10  C3  UNL     1      -3.995   2.733  -0.348  1.00  0.00     0.009 C 
ENDBRANCH   7   8
ENDBRANCH   6   7
BRANCH   6  11
HETATM   11  C26 UNL     1      -3.495  -0.119   0.824  1.00  0.00     0.241 C 
HETATM   12  O3  UNL     1      -2.654   0.150   1.761  1.00  0.00    -0.271 OA
HETATM   13  N5  UNL     1      -4.892  -0.219   1.141  1.00  0.00    -0.350 N 
ATOM     14  H5  UNL     1      -5.541  -0.435   0.385  1.00  0.00     0.163 HD
BRANCH  13  15
HETATM   15  C27 UNL     1      -5.424  -0.035   2.447  1.00  0.00     0.125 C 
BRANCH  15  16
HETATM   16  C28 UNL     1      -6.154   1.288   2.527  1.00  0.00     0.114 C 
HETATM   17  N6  UNL     1      -6.312   1.821   3.676  1.00  0.00    -0.278 N 
HETATM   18  C29 UNL     1      -6.998   3.081   3.904  1.00  0.00     0.184 C 
BRANCH  17  19
HETATM   19  O4  UNL     1      -5.816   1.184   4.789  1.00  0.00    -0.289 OA
ATOM     20  H4  UNL     1      -5.934   1.581   5.644  1.00  0.00     0.244 HD
ENDBRANCH  17  19
ENDBRANCH  15  16
BRANCH  15  21
HETATM   21  C30 UNL     1      -6.333  -1.159   2.874  1.00  0.00     0.039 C 
BRANCH  21  22
HETATM   22  C31 UNL     1      -7.519  -1.316   1.938  1.00  0.00     0.102 C 
BRANCH  22  23
HETATM   23  C32 UNL     1      -8.424  -2.399   2.428  1.00  0.00     0.231 C 
HETATM   24  N7  UNL     1      -9.528  -2.810   1.668  1.00  0.00    -0.062 NA
HETATM   25  O5  UNL     1      -8.189  -2.934   3.529  1.00  0.00    -0.277 OA
ENDBRANCH  22  23
ENDBRANCH  21  22
ENDBRANCH  15  21
ENDBRANCH  13  15
ENDBRANCH   6  11
ENDBRANCH   3   6
ENDBRANCH   1   2
BRANCH   1  26
HETATM   26  N2  UNL     1       0.953  -0.336  -1.732  1.00  0.00    -0.370 NA
HETATM   27  C8  UNL     1       1.804   0.459  -1.064  1.00  0.00     0.249 C 
HETATM   28  N3  UNL     1       1.883   1.734  -1.498  1.00  0.00    -0.360 N 
HETATM   29  N4  UNL     1       2.593   0.185   0.060  1.00  0.00    -0.340 N 
ATOM     30  H32 UNL     1       1.308   1.934  -2.317  1.00  0.00     0.160 HD
ATOM     31  H31 UNL     1       2.530   2.338  -0.990  1.00  0.00     0.160 HD
ATOM     32  H4  UNL     1       2.139  -0.221   0.878  1.00  0.00     0.164 HD
BRANCH  29  33
HETATM   33  C9  UNL     1       4.104   0.461   0.131  1.00  0.00     0.138 C 
BRANCH  33  34
HETATM   34  C10 UNL     1       4.385   0.405   1.548  1.00  0.00     0.003 C 
HETATM   35  C11 UNL     1       5.630   0.748   2.201  1.00  0.00    -0.082 C 
HETATM   36  C12 UNL     1       6.895   0.045   1.873  1.00  0.00     0.034 C 
HETATM   37  C16 UNL     1       5.828   2.263   2.317  1.00  0.00     0.034 C 
HETATM   38  C13 UNL     1       8.015   0.744   2.674  1.00  0.00     0.004 C 
HETATM   39  C14 UNL     1       8.281   2.008   1.860  1.00  0.00     0.001 C 
HETATM   40  C15 UNL     1       7.031   2.749   1.582  1.00  0.00     0.004 C 
ENDBRANCH  33  34
BRANCH  33  41
HETATM   41  C17 UNL     1       4.582  -0.441  -0.874  1.00  0.00     0.152 C 
BRANCH  41  42
HETATM   42  O2  UNL     1       3.885  -0.294  -1.983  1.00  0.00    -0.392 OA
ATOM     43  H2  UNL     1       4.202  -0.892  -2.649  1.00  0.00     0.210 HD
ENDBRANCH  41  42
BRANCH  41  44
HETATM   44  C18 UNL     1       5.542  -1.487  -1.174  1.00  0.00    -0.016 A 
HETATM   45  C19 UNL     1       6.801  -1.142  -1.993  1.00  0.00     0.018 C 
HETATM   46  C20 UNL     1       4.985  -2.847  -1.517  1.00  0.00     0.012 A 
HETATM   47  C21 UNL     1       5.688  -2.643  -0.214  1.00  0.00     0.012 A 
ENDBRANCH  41  44
ENDBRANCH  33  41
ENDBRANCH  29  33
ENDBRANCH   1  26
BRANCH   1  48
HETATM   48  C22 UNL     1       0.536  -1.926  -3.524  1.00  0.00     0.010 C 
HETATM   49  C23 UNL     1       1.896  -1.926  -4.089  1.00  0.00     0.022 C 
HETATM   50  C24 UNL     1      -0.421  -1.540  -4.665  1.00  0.00     0.022 C 
HETATM   51  C25 UNL     1       0.131  -3.371  -3.107  1.00  0.00     0.022 C 
ENDBRANCH   1  48
TORSDOF 18
