REMARK  2 active torsions:
REMARK  status: ('A' for Active; 'I' for Inactive)
REMARK    1  A    between atoms: C2_3  and  N2_4 
REMARK    2  A    between atoms: N2_4  and  C3_6 
ROOT
HETATM    1  N1  UNL     1      -4.070  -0.196   1.439  1.00  0.00    -0.196 NA
HETATM    2  C1  UNL     1      -3.477  -0.412   0.463  1.00  0.00     0.078 C 
HETATM    3  C2  UNL     1      -2.730  -0.696  -0.755  1.00  0.00     0.244 C 
ENDROOT
BRANCH   3   4
HETATM    4  N2  UNL     1      -1.423  -1.147  -0.386  1.00  0.00    -0.377 N 
ATOM      5  H2  UNL     1      -1.290  -2.149  -0.251  1.00  0.00     0.160 HD
BRANCH   4   6
HETATM    6  C3  UNL     1      -0.404  -0.382  -0.212  1.00  0.00     0.033 A 
HETATM    7  C4  UNL     1      -0.431   0.986  -0.358  1.00  0.00     0.046 A 
HETATM    8  C5  UNL     1       0.696   1.760  -0.159  1.00  0.00     0.091 A 
HETATM    9  N3  UNL     1       1.865   1.199   0.187  1.00  0.00    -0.354 N 
HETATM   10  C6  UNL     1       1.902  -0.132   0.332  1.00  0.00     0.118 A 
ATOM     11  H3  UNL     1       2.699   1.768   0.335  1.00  0.00     0.166 HD
HETATM   12  N4  UNL     1       3.116  -0.760   0.696  1.00  0.00    -0.083 NA
HETATM   13  C7  UNL     1       0.801  -0.953   0.144  1.00  0.00     0.074 A 
ENDBRANCH   4   6
ENDBRANCH   3   4
TORSDOF 2
