REMARK  6 active torsions:
REMARK  status: ('A' for Active; 'I' for Inactive)
REMARK       I    between atoms: C1_2  and  N1_3 
REMARK       I    between atoms: C1_2  and  N3_12 
REMARK    1  A    between atoms: N1_3  and  C2_5 
REMARK    2  A    between atoms: N3_12  and  C5_14 
REMARK    3  A    between atoms: N4_17  and  C7_18 
REMARK    4  A    between atoms: C9_20  and  C10_21 
REMARK    5  A    between atoms: C13_26  and  O4_27 
REMARK    6  A    between atoms: O4_27  and  C14_28 
ROOT
HETATM    1  C5  UNL     1       2.435  -0.887   0.430  1.00  0.00     0.195 C 
HETATM    2  C6  UNL     1       1.311  -0.070  -0.085  1.00  0.00     0.248 C 
HETATM    3  O3  UNL     1       1.375   1.125  -0.418  1.00  0.00    -0.271 OA
HETATM    4  N4  UNL     1       0.194  -0.942  -0.104  1.00  0.00    -0.312 N 
HETATM    5  C18 UNL     1       0.655  -2.330  -0.065  1.00  0.00     0.150 C 
HETATM    6  C19 UNL     1       2.129  -2.198  -0.215  1.00  0.00     0.076 A 
HETATM    7  C20 UNL     1       2.869  -2.593  -1.411  1.00  0.00     0.100 A 
HETATM    8  C21 UNL     1       3.003  -3.375  -0.128  1.00  0.00     0.256 A 
HETATM    9  F3  UNL     1       2.355  -4.608  -0.169  1.00  0.00    -0.205 F 
HETATM   10  F4  UNL     1       4.175  -3.381   0.568  1.00  0.00    -0.205 F 
ENDROOT
BRANCH   4  11
HETATM   11  C7  UNL     1      -1.183  -0.557  -0.150  1.00  0.00     0.082 A 
HETATM   12  C8  UNL     1      -2.087  -1.188  -0.965  1.00  0.00     0.058 A 
HETATM   13  C9  UNL     1      -3.421  -0.848  -1.037  1.00  0.00     0.018 A 
HETATM   14  N5  UNL     1      -3.859   0.153  -0.270  1.00  0.00    -0.338 N 
HETATM   15  C13 UNL     1      -3.002   0.790   0.537  1.00  0.00     0.185 A 
ATOM     16  H5  UNL     1      -4.840   0.431  -0.299  1.00  0.00     0.168 HD
HETATM   17  C17 UNL     1      -1.662   0.482   0.639  1.00  0.00     0.194 A 
HETATM   18  F2  UNL     1      -0.840   1.152   1.467  1.00  0.00    -0.199 F 
BRANCH  13  19
HETATM   19  C10 UNL     1      -4.364  -1.589  -1.960  1.00  0.00     0.036 A 
HETATM   20  C11 UNL     1      -5.650  -2.105  -1.264  1.00  0.00     0.011 A 
HETATM   21  C12 UNL     1      -5.677  -1.017  -2.258  1.00  0.00     0.011 A 
ENDBRANCH  13  19
BRANCH  15  22
HETATM   22  O4  UNL     1      -3.491   1.826   1.320  1.00  0.00    -0.328 OA
BRANCH  22  23
HETATM   23  C14 UNL     1      -4.820   2.270   1.343  1.00  0.00     0.131 A 
HETATM   24  C15 UNL     1      -4.943   3.780   1.284  1.00  0.00     0.035 A 
HETATM   25  C16 UNL     1      -5.402   2.983   2.480  1.00  0.00     0.035 A 
ENDBRANCH  22  23
ENDBRANCH  15  22
ENDBRANCH   4  11
BRANCH   1  26
HETATM   26  N3  UNL     1       3.730  -0.349   0.181  1.00  0.00    -0.328 N 
HETATM   27  C1  UNL     1       4.658   0.004   1.193  1.00  0.00     0.324 C 
HETATM   28  O1  UNL     1       4.336  -0.158   2.388  1.00  0.00    -0.247 OA
HETATM   29  N1  UNL     1       5.932   0.535   0.892  1.00  0.00    -0.274 N 
ATOM     30  H1  UNL     1       6.724   0.208   1.445  1.00  0.00     0.174 HD
ATOM     31  H3  UNL     1       4.008  -0.208  -0.790  1.00  0.00     0.165 HD
BRANCH  29  32
HETATM   32  C2  UNL     1       6.165   1.403  -0.031  1.00  0.00     0.234 A 
HETATM   33  N2  UNL     1       7.418   1.867  -0.261  1.00  0.00    -0.327 N 
HETATM   34  C3  UNL     1       7.331   2.744  -1.268  1.00  0.00     0.161 A 
ATOM     35  H2  UNL     1       8.266   1.599   0.239  1.00  0.00     0.169 HD
HETATM   36  C4  UNL     1       6.012   2.812  -1.651  1.00  0.00     0.248 A 
HETATM   37  F1  UNL     1       5.530   3.595  -2.645  1.00  0.00    -0.176 F 
HETATM   38  O2  UNL     1       5.357   1.985  -0.873  1.00  0.00    -0.250 OA
ENDBRANCH  29  32
ENDBRANCH   1  26
TORSDOF 6
