REMARK  16 active torsions:
REMARK  status: ('A' for Active; 'I' for Inactive)
REMARK    1  A    between atoms: C3_5  and  O1_6 
REMARK    2  A    between atoms: C4_8  and  C5_9 
REMARK    3  A    between atoms: C5_9  and  C6_10 
REMARK    4  A    between atoms: C6_10  and  C7_11 
REMARK    5  A    between atoms: C7_11  and  C8_12 
REMARK    6  A    between atoms: C8_12  and  C9_13 
REMARK    7  A    between atoms: C9_13  and  C10_14 
REMARK    8  A    between atoms: C10_14  and  C11_15 
REMARK    9  A    between atoms: C11_15  and  C12_17 
REMARK   10  A    between atoms: C16_21  and  N2_22 
REMARK   11  A    between atoms: C22_28  and  C24_30 
REMARK   12  A    between atoms: C24_30  and  O2_31 
REMARK   13  A    between atoms: N3_34  and  C26_35 
REMARK   14  A    between atoms: C26_35  and  C27_36 
REMARK   15  A    between atoms: C32_41  and  O3_42 
REMARK   16  A    between atoms: C34_49  and  O4_50 
ROOT
HETATM    1  C1  UNL     1      -7.427  -4.983   1.214  1.00  0.00     0.041 C 
HETATM    2  C2  UNL     1      -7.030  -3.732   0.397  1.00  0.00     0.155 C 
HETATM    3  N1  UNL     1      -6.371  -2.821   1.247  1.00  0.00    -0.361 N 
ATOM      4  H1  UNL     1      -6.571  -2.889   2.245  1.00  0.00     0.162 HD
HETATM    5  C3  UNL     1      -5.463  -1.827   0.843  1.00  0.00     0.136 C 
HETATM    6  C4  UNL     1      -5.493  -0.982  -0.283  1.00  0.00     0.164 C 
HETATM    7  N3  UNL     1      -6.428   0.158  -0.277  1.00  0.00    -0.339 N 
HETATM    8  C33 UNL     1      -7.782   0.021   0.041  1.00  0.00     0.200 C 
HETATM    9  N4  UNL     1      -8.647  -0.827  -0.003  1.00  0.00    -0.294 N 
ATOM     10  H4  UNL     1      -9.507  -0.415   0.359  1.00  0.00     0.187 HD
HETATM   11  N5  UNL     1      -8.913  -2.101  -0.344  1.00  0.00    -0.281 N 
ATOM     12  H5  UNL     1      -9.892  -2.264  -0.580  1.00  0.00     0.189 HD
HETATM   13  C34 UNL     1      -8.122  -3.239  -0.439  1.00  0.00     0.153 C 
ENDROOT
BRANCH   6  14
HETATM   14  C5  UNL     1      -4.120  -0.564  -0.812  1.00  0.00     0.034 C 
BRANCH  14  15
HETATM   15  C6  UNL     1      -3.183  -0.009   0.159  1.00  0.00     0.006 C 
BRANCH  15  16
HETATM   16  C7  UNL     1      -1.919   0.535  -0.564  1.00  0.00     0.027 C 
BRANCH  16  17
HETATM   17  C8  UNL     1      -0.805  -0.155   0.199  1.00  0.00    -0.027 C 
BRANCH  17  18
HETATM   18  C9  UNL     1       0.034  -0.929  -0.404  1.00  0.00    -0.005 C 
BRANCH  18  19
HETATM   19  C10 UNL     1       1.117  -1.734  -0.150  1.00  0.00     0.010 C 
BRANCH  19  20
HETATM   20  C11 UNL     1       2.526  -1.881  -0.326  1.00  0.00     0.197 C 
HETATM   21  F1  UNL     1       2.847  -3.255   0.143  1.00  0.00    -0.245 F 
BRANCH  20  22
HETATM   22  C12 UNL     1       3.573  -1.077   0.470  1.00  0.00     0.024 C 
HETATM   23  C13 UNL     1       4.879  -1.760   0.159  1.00  0.00     0.012 C 
HETATM   24  C14 UNL     1       5.728  -1.408  -0.933  1.00  0.00    -0.008 C 
HETATM   25  C15 UNL     1       7.179  -1.237  -0.381  1.00  0.00     0.041 C 
HETATM   26  C20 UNL     1       5.539  -0.091  -1.628  1.00  0.00    -0.007 C 
HETATM   27  C16 UNL     1       7.308   0.247  -0.245  1.00  0.00     0.227 C 
HETATM   28  C19 UNL     1       5.989   0.841  -0.480  1.00  0.00     0.033 C 
HETATM   29  C22 UNL     1       4.947   1.025   0.497  1.00  0.00    -0.016 C 
HETATM   30  C23 UNL     1       4.527   2.533   0.344  1.00  0.00     0.018 C 
HETATM   31  C25 UNL     1       3.576   0.350   0.211  1.00  0.00     0.019 C 
HETATM   32  C21 UNL     1       6.544  -0.025  -2.767  1.00  0.00     0.011 C 
BRANCH  27  33
HETATM   33  N2  UNL     1       8.163   0.728   0.761  1.00  0.00     0.085 N 
HETATM   34  C17 UNL     1       9.019   1.795   0.189  1.00  0.00     0.309 C 
HETATM   35  C18 UNL     1       9.111  -0.229   1.272  1.00  0.00     0.309 C 
ENDBRANCH  27  33
BRANCH  29  36
HETATM   36  C24 UNL     1       5.184   0.987   1.957  1.00  0.00     0.173 C 
BRANCH  36  37
HETATM   37  O2  UNL     1       6.106   1.965   2.418  1.00  0.00    -0.400 OA
ATOM     38  H2  UNL     1       6.258   1.941   3.355  1.00  0.00     0.209 HD
ENDBRANCH  36  37
ENDBRANCH  29  36
ENDBRANCH  20  22
ENDBRANCH  19  20
ENDBRANCH  18  19
ENDBRANCH  17  18
ENDBRANCH  16  17
ENDBRANCH  15  16
ENDBRANCH  14  15
ENDBRANCH   6  14
BRANCH   5  39
HETATM   39  O1  UNL     1      -4.466  -1.750   1.699  1.00  0.00    -0.348 OA
ATOM     40  H1  UNL     1      -3.852  -1.078   1.426  1.00  0.00     0.219 HD
ENDBRANCH   5  39
BRANCH   7  41
HETATM   41  C26 UNL     1      -5.854   1.442  -0.544  1.00  0.00     0.107 C 
BRANCH  41  42
HETATM   42  C27 UNL     1      -6.651   2.641  -0.470  1.00  0.00     0.013 A 
HETATM   43  C28 UNL     1      -7.674   2.998  -1.300  1.00  0.00     0.015 A 
HETATM   44  C29 UNL     1      -8.171   4.303  -1.259  1.00  0.00     0.001 A 
HETATM   45  C30 UNL     1      -7.666   5.260  -0.410  1.00  0.00     0.003 A 
HETATM   46  C31 UNL     1      -6.648   4.902   0.422  1.00  0.00     0.037 A 
HETATM   47  C32 UNL     1      -6.146   3.641   0.404  1.00  0.00     0.077 A 
BRANCH  47  48
HETATM   48  O3  UNL     1      -5.105   3.340   1.278  1.00  0.00    -0.360 OA
ATOM     49  H3  UNL     1      -4.767   4.009   1.862  1.00  0.00     0.217 HD
ENDBRANCH  47  48
ENDBRANCH  41  42
ENDBRANCH   7  41
BRANCH  13  50
HETATM   50  O4  UNL     1      -8.387  -4.035  -1.437  1.00  0.00    -0.347 OA
ATOM     51  H4  UNL     1      -9.097  -3.714  -1.981  1.00  0.00     0.219 HD
ENDBRANCH  13  50
TORSDOF 16
