REMARK  8 active torsions:
REMARK  status: ('A' for Active; 'I' for Inactive)
REMARK    1  A    between atoms: N1_2  and  C1_4 
REMARK    2  A    between atoms: N2_13  and  C10_14 
REMARK    3  A    between atoms: C10_14  and  C11_15 
REMARK    4  A    between atoms: C19_24  and  N3_25 
REMARK    5  A    between atoms: N3_25  and  C20_27 
REMARK    6  A    between atoms: C20_27  and  C21_28 
REMARK    7  A    between atoms: C24_31  and  N4_32 
REMARK    8  A    between atoms: N4_32  and  C25_34 
ROOT
HETATM    1  C1  UNL     1      -0.806   3.069  -0.084  1.00  0.00     0.130 A 
HETATM    2  C2  UNL     1      -2.169   3.304  -0.381  1.00  0.00     0.053 A 
HETATM    3  C3  UNL     1      -3.027   2.291  -0.674  1.00  0.00     0.006 A 
HETATM    4  C4  UNL     1      -4.368   2.283  -0.994  1.00  0.00     0.003 A 
HETATM    5  C5  UNL     1      -5.307   3.276  -1.131  1.00  0.00     0.014 A 
HETATM    6  C6  UNL     1      -6.631   2.999  -1.479  1.00  0.00     0.001 A 
HETATM    7  C7  UNL     1      -6.971   1.683  -1.683  1.00  0.00     0.002 A 
HETATM    8  C8  UNL     1      -6.017   0.699  -1.541  1.00  0.00     0.030 A 
HETATM    9  C9  UNL     1      -4.704   0.967  -1.196  1.00  0.00     0.046 A 
HETATM   10  N2  UNL     1      -3.627   0.168  -1.013  1.00  0.00    -0.341 N 
HETATM   11  C17 UNL     1      -2.597   0.980  -0.694  1.00  0.00     0.048 A 
HETATM   12  C18 UNL     1      -1.272   0.762  -0.404  1.00  0.00     0.062 A 
HETATM   13  C19 UNL     1      -0.373   1.788  -0.100  1.00  0.00     0.064 A 
ENDROOT
BRANCH  13  14
HETATM   14  N3  UNL     1       0.965   1.457   0.229  1.00  0.00    -0.384 N 
ATOM     15  H3  UNL     1       1.605   2.186   0.544  1.00  0.00     0.160 HD
BRANCH  14  16
HETATM   16  C20 UNL     1       1.436   0.069   0.119  1.00  0.00     0.158 C 
BRANCH  16  17
HETATM   17  C21 UNL     1       2.855  -0.031   0.533  1.00  0.00    -0.040 A 
HETATM   18  C22 UNL     1       3.873   0.343  -0.321  1.00  0.00     0.011 A 
HETATM   19  C23 UNL     1       5.185   0.253   0.050  1.00  0.00     0.030 A 
HETATM   20  C24 UNL     1       5.559  -0.216   1.297  1.00  0.00     0.049 A 
HETATM   21  C28 UNL     1       4.540  -0.591   2.156  1.00  0.00     0.030 A 
HETATM   22  C29 UNL     1       3.218  -0.500   1.779  1.00  0.00     0.011 A 
BRANCH  20  23
HETATM   23  N4  UNL     1       6.918  -0.312   1.697  1.00  0.00    -0.192 N 
ATOM     24  H4  UNL     1       7.246   0.227   2.499  1.00  0.00     0.184 HD
BRANCH  23  25
HETATM   25  C25 UNL     1       7.736  -1.064   1.067  1.00  0.00     0.682 A 
HETATM   26  N5  UNL     1       7.510  -1.847  -0.001  1.00  0.00    -0.200 N 
HETATM   27  C26 UNL     1       8.624  -2.483  -0.373  1.00  0.00     0.123 A 
ATOM     28  H5  UNL     1       6.607  -1.943  -0.466  1.00  0.00     0.183 HD
HETATM   29  C27 UNL     1       9.613  -2.103   0.481  1.00  0.00     0.123 A 
HETATM   30  N6  UNL     1       9.062  -1.245   1.347  1.00  0.00    -0.200 N 
ATOM     31  H6  UNL     1       9.562  -0.789   2.110  1.00  0.00     0.183 HD
ENDBRANCH  23  25
ENDBRANCH  20  23
ENDBRANCH  16  17
ENDBRANCH  14  16
ENDBRANCH  13  14
BRANCH   1  32
HETATM   32  N1  UNL     1      -0.025   4.198   0.201  1.00  0.00    -0.113 N 
HETATM   33  O1  UNL     1      -0.589   5.205   0.733  1.00  0.00    -0.532 OA
HETATM   34  O2  UNL     1       1.293   4.292  -0.049  1.00  0.00    -0.532 OA
ENDBRANCH   1  32
BRANCH  10  35
HETATM   35  C10 UNL     1      -3.538  -1.251  -1.111  1.00  0.00     0.168 C 
BRANCH  35  36
HETATM   36  C11 UNL     1      -3.791  -1.992   0.150  1.00  0.00    -0.040 A 
HETATM   37  C12 UNL     1      -2.796  -2.320   1.043  1.00  0.00     0.012 A 
HETATM   38  C13 UNL     1      -3.097  -3.008   2.198  1.00  0.00     0.043 A 
HETATM   39  C14 UNL     1      -4.398  -3.384   2.487  1.00  0.00     0.116 A 
HETATM   40  F1  UNL     1      -4.738  -4.061   3.613  1.00  0.00    -0.206 F 
HETATM   41  C15 UNL     1      -5.397  -3.064   1.607  1.00  0.00     0.043 A 
HETATM   42  C16 UNL     1      -5.080  -2.375   0.454  1.00  0.00     0.012 A 
ENDBRANCH  35  36
ENDBRANCH  10  35
TORSDOF 8
