REMARK  10 active torsions:
REMARK  status: ('A' for Active; 'I' for Inactive)
REMARK    1  A    between atoms: C2_2  and  C3_3 
REMARK    2  A    between atoms: C3_3  and  C4_4 
REMARK    3  A    between atoms: C4_4  and  N1_5 
REMARK    4  A    between atoms: C4_4  and  C11_16 
REMARK       I    between atoms: N1_5  and  C5_7 
REMARK       I    between atoms: C5_7  and  N2_9 
REMARK    5  A    between atoms: N2_9  and  C6_11 
REMARK    6  A    between atoms: C6_11  and  C8_13 
REMARK    7  A    between atoms: C12_19  and  N4_20 
REMARK    8  A    between atoms: N4_20  and  C13_22 
REMARK    9  A    between atoms: C15_24  and  C16_25 
REMARK   10  A    between atoms: N5_27  and  C18_28 
ROOT
HETATM    1  C11 UNL     1       1.079  -0.031   0.292  1.00  0.00     0.095 A 
HETATM    2  N3  UNL     1      -0.064  -0.748   0.353  1.00  0.00    -0.188 N 
ATOM      3  H3  UNL     1      -0.008  -1.749   0.163  1.00  0.00     0.184 HD
HETATM    4  C12 UNL     1      -1.260  -0.238   0.644  1.00  0.00     0.683 A 
HETATM    5  N6  UNL     1      -1.361   1.072   0.897  1.00  0.00    -0.200 N 
ATOM      6  H6  UNL     1      -2.265   1.488   1.122  1.00  0.00     0.183 HD
HETATM    7  C23 UNL     1      -0.253   1.832   0.850  1.00  0.00     0.132 A 
HETATM    8  C24 UNL     1       0.981   1.296   0.547  1.00  0.00     0.079 A 
HETATM    9 CL1  UNL     1       2.402   2.298   0.486  1.00  0.00    -0.080 Cl
ENDROOT
BRANCH   1  10
HETATM   10  C4  UNL     1       2.305  -0.771   0.000  1.00  0.00     0.042 C 
BRANCH  10  11
HETATM   11  C3  UNL     1       2.101  -2.135  -0.619  1.00  0.00     0.059 C 
BRANCH  11  12
HETATM   12  C2  UNL     1       1.934  -2.170  -2.084  1.00  0.00     0.002 C 
HETATM   13  C1  UNL     1       0.785  -1.407  -2.662  1.00  0.00     0.005 C 
ENDBRANCH  11  12
ENDBRANCH  10  11
BRANCH  10  14
HETATM   14  N1  UNL     1       3.428  -0.062  -0.499  1.00  0.00    -0.310 N 
HETATM   15  C5  UNL     1       4.655  -0.034   0.190  1.00  0.00     0.320 C 
HETATM   16  O1  UNL     1       4.765  -0.654   1.278  1.00  0.00    -0.247 OA
HETATM   17  N2  UNL     1       5.779   0.666  -0.285  1.00  0.00    -0.338 N 
ATOM     18  H2  UNL     1       5.693   1.170  -1.168  1.00  0.00     0.164 HD
ATOM     19  H1  UNL     1       3.344   0.442  -1.382  1.00  0.00     0.170 HD
BRANCH  17  20
HETATM   20  C6  UNL     1       7.046   0.713   0.402  1.00  0.00     0.085 C 
HETATM   21  C7  UNL     1       7.476   2.103   0.779  1.00  0.00     0.032 C 
BRANCH  20  22
HETATM   22  C8  UNL     1       8.111   0.081  -0.443  1.00  0.00    -0.000 C 
HETATM   23  C9  UNL     1       9.443   0.147   0.315  1.00  0.00     0.011 C 
HETATM   24  C10 UNL     1       8.244   0.688  -1.808  1.00  0.00     0.011 C 
ENDBRANCH  20  22
ENDBRANCH  17  20
ENDBRANCH  10  14
ENDBRANCH   1  10
BRANCH   4  25
HETATM   25  N4  UNL     1      -2.258  -1.062   0.667  1.00  0.00    -0.190 N 
ATOM     26  H4  UNL     1      -2.061  -2.042   0.462  1.00  0.00     0.184 HD
BRANCH  25  27
HETATM   27  C13 UNL     1      -3.597  -0.716   0.953  1.00  0.00     0.066 A 
HETATM   28  C14 UNL     1      -4.145  -0.147   2.073  1.00  0.00     0.056 A 
HETATM   29  C15 UNL     1      -5.516   0.010   1.911  1.00  0.00     0.014 A 
HETATM   30  N5  UNL     1      -5.815  -0.455   0.709  1.00  0.00    -0.349 N 
HETATM   31  C22 UNL     1      -4.667  -0.902   0.104  1.00  0.00     0.122 A 
BRANCH  29  32
HETATM   32  C16 UNL     1      -6.450   0.599   2.892  1.00  0.00     0.053 C 
HETATM   33  C17 UNL     1      -6.622   2.095   2.706  1.00  0.00     0.011 C 
ENDBRANCH  29  32
BRANCH  30  34
HETATM   34  C18 UNL     1      -7.047  -0.551  -0.009  1.00  0.00     0.026 C 
HETATM   35  C19 UNL     1      -7.162   0.503  -1.118  1.00  0.00     0.038 C 
HETATM   36  C20 UNL     1      -7.021  -1.890  -0.780  1.00  0.00     0.038 C 
HETATM   37  C21 UNL     1      -8.301  -0.602   0.757  1.00  0.00     0.038 C 
ENDBRANCH  30  34
ENDBRANCH  25  27
ENDBRANCH   4  25
TORSDOF 10
