REMARK  8 active torsions:
REMARK  status: ('A' for Active; 'I' for Inactive)
REMARK    1  A    between atoms: C7_8  and  C8_9 
REMARK    2  A    between atoms: N2_12  and  C9_13 
REMARK    3  A    between atoms: C14_18  and  C15_19 
REMARK    4  A    between atoms: N4_25  and  C19_27 
REMARK    5  A    between atoms: C19_27  and  C20_28 
REMARK    6  A    between atoms: C20_28  and  C21_29 
REMARK    7  A    between atoms: C21_29  and  C22_30 
REMARK    8  A    between atoms: C22_30  and  N5_33 
ROOT
HETATM    1  C8  UNL     1      -2.948   0.858   0.233  1.00  0.00     0.074 A 
HETATM    2  N1  UNL     1      -3.899   1.814   0.227  1.00  0.00    -0.296 N 
ATOM      3  H1  UNL     1      -4.886   1.650   0.424  1.00  0.00     0.187 HD
HETATM    4  N2  UNL     1      -3.379   2.992  -0.068  1.00  0.00    -0.292 N 
HETATM    5  C13 UNL     1      -2.053   2.807  -0.260  1.00  0.00     0.127 A 
HETATM    6  C14 UNL     1      -1.752   1.475  -0.078  1.00  0.00     0.037 A 
ENDROOT
BRANCH   6   7
HETATM    7  C15 UNL     1      -0.477   0.783  -0.176  1.00  0.00     0.064 A 
HETATM    8  C16 UNL     1      -0.194  -0.221  -1.076  1.00  0.00     0.048 A 
HETATM    9  C17 UNL     1       1.048  -0.836  -1.113  1.00  0.00     0.108 A 
HETATM   10  N3  UNL     1       2.023  -0.451  -0.245  1.00  0.00    -0.202 N 
HETATM   11  C18 UNL     1       1.742   0.524   0.627  1.00  0.00     0.678 A 
ATOM     12  H3  UNL     1       2.942  -0.893  -0.259  1.00  0.00     0.183 HD
HETATM   13  N4  UNL     1       2.651   0.900   1.450  1.00  0.00    -0.226 N 
HETATM   14  N6  UNL     1       0.510   1.130   0.659  1.00  0.00    -0.191 N 
ATOM     15  H4  UNL     1       2.429   1.644   2.112  1.00  0.00     0.177 HD
ATOM     16  H6  UNL     1       0.342   1.869   1.342  1.00  0.00     0.184 HD
BRANCH  13  17
HETATM   17  C19 UNL     1       3.998   0.310   1.485  1.00  0.00     0.138 C 
BRANCH  17  18
HETATM   18  C20 UNL     1       4.864   0.898   0.421  1.00  0.00     0.023 C 
BRANCH  18  19
HETATM   19  C21 UNL     1       6.254   0.450   0.319  1.00  0.00     0.039 C 
BRANCH  19  20
HETATM   20  C22 UNL     1       6.578  -0.967   0.049  1.00  0.00     0.116 C 
HETATM   21  C23 UNL     1       8.114  -1.152  -0.048  1.00  0.00     0.045 C 
HETATM   22  C24 UNL     1       6.170  -1.867   1.194  1.00  0.00     0.045 C 
BRANCH  20  23
HETATM   23  N5  UNL     1       6.027  -1.496  -1.154  1.00  0.00    -0.071 N 
ATOM     24  H53 UNL     1       5.016  -1.358  -1.168  1.00  0.00     0.275 HD
ATOM     25  H52 UNL     1       6.297  -0.916  -1.949  1.00  0.00     0.275 HD
ATOM     26  H51 UNL     1       6.251  -2.474  -1.340  1.00  0.00     0.275 HD
ENDBRANCH  20  23
ENDBRANCH  19  20
ENDBRANCH  18  19
ENDBRANCH  17  18
ENDBRANCH  13  17
ENDBRANCH   6   7
BRANCH   1  27
HETATM   27  C7  UNL     1      -3.097  -0.568   0.506  1.00  0.00     0.021 A 
HETATM   28  C6  UNL     1      -3.852  -1.445  -0.244  1.00  0.00     0.005 A 
HETATM   29  C5  UNL     1      -4.630  -1.283  -1.377  1.00  0.00     0.018 A 
HETATM   30  C26 UNL     1      -3.755  -2.718   0.319  1.00  0.00     0.052 A 
HETATM   31  C4  UNL     1      -5.299  -2.365  -1.940  1.00  0.00     0.044 A 
HETATM   32  C3  UNL     1      -5.178  -3.608  -1.353  1.00  0.00     0.124 A 
HETATM   33  C2  UNL     1      -4.407  -3.809  -0.218  1.00  0.00     0.004 A 
HETATM   34  F1  UNL     1      -5.820  -4.697  -1.877  1.00  0.00    -0.205 F 
HETATM   35  C1  UNL     1      -4.290  -5.155   0.399  1.00  0.00     0.054 C 
HETATM   36  N7  UNL     1      -2.945  -2.617   1.406  1.00  0.00    -0.364 N 
HETATM   37  C25 UNL     1      -2.555  -1.336   1.514  1.00  0.00     0.103 A 
ATOM     38  H7  UNL     1      -2.680  -3.379   2.030  1.00  0.00     0.165 HD
ENDBRANCH   1  27
BRANCH   4  39
HETATM   39  C9  UNL     1      -4.134   4.245  -0.161  1.00  0.00     0.049 A 
HETATM   40  C10 UNL     1      -5.451   4.251   0.585  1.00  0.00     0.041 C 
HETATM   41  C11 UNL     1      -4.135   4.986  -1.447  1.00  0.00     0.035 A 
HETATM   42  C12 UNL     1      -3.375   5.505  -0.282  1.00  0.00     0.035 A 
ENDBRANCH   4  39
TORSDOF 8
