REMARK  16 active torsions:
REMARK  status: ('A' for Active; 'I' for Inactive)
REMARK    1  A    between atoms: C2_2  and  C3_3 
REMARK    2  A    between atoms: C3_3  and  C4_4 
REMARK    3  A    between atoms: C9_9  and  O1_10 
REMARK    4  A    between atoms: O1_10  and  C10_11 
REMARK    5  A    between atoms: C10_11  and  C11_13 
REMARK    6  A    between atoms: C11_13  and  S1_14 
REMARK    7  A    between atoms: S1_14  and  C12_16 
REMARK    8  A    between atoms: C12_16  and  C13_17 
REMARK    9  A    between atoms: C13_17  and  N1_18 
REMARK       I    between atoms: N1_18  and  C15_20 
REMARK   10  A    between atoms: C19_26  and  O6_27 
REMARK   11  A    between atoms: C19_26  and  C25_34 
REMARK   12  A    between atoms: O6_27  and  C20_28 
REMARK   13  A    between atoms: C20_28  and  C21_30 
REMARK   14  A    between atoms: C25_34  and  O8_35 
REMARK   15  A    between atoms: N2_37  and  O9_39 
REMARK   16  A    between atoms: C26_41  and  C27_42 
ROOT
HETATM    1  C4  UNL     1      -1.584  -3.983  -0.936  1.00  0.00    -0.003 C 
HETATM    2  C5  UNL     1      -2.713  -3.607  -0.006  1.00  0.00     0.013 C 
HETATM    3  C6  UNL     1      -2.880  -2.321  -0.821  1.00  0.00     0.026 C 
HETATM    4  C7  UNL     1      -1.680  -2.642  -1.577  1.00  0.00     0.021 C 
HETATM    5  C8  UNL     1      -0.510  -1.797  -1.412  1.00  0.00     0.014 C 
HETATM    6  C9  UNL     1      -0.137  -0.861  -0.571  1.00  0.00     0.083 C 
HETATM    7  C17 UNL     1      -0.852  -0.324   0.584  1.00  0.00     0.190 C 
HETATM    8  O5  UNL     1      -1.801  -1.247   1.024  1.00  0.00    -0.369 OA
HETATM    9  C18 UNL     1      -2.849  -1.164   0.103  1.00  0.00     0.171 C 
HETATM   10  C19 UNL     1      -2.933   0.210  -0.463  1.00  0.00     0.172 C 
HETATM   11  C26 UNL     1      -1.704   0.856   0.171  1.00  0.00     0.089 C 
ENDROOT
BRANCH  10  12
HETATM   12  O6  UNL     1      -4.120   0.863   0.016  1.00  0.00    -0.297 OA
BRANCH  12  13
HETATM   13  C20 UNL     1      -4.585   2.084  -0.349  1.00  0.00     0.267 C 
HETATM   14  O7  UNL     1      -3.961   2.758  -1.203  1.00  0.00    -0.264 OA
BRANCH  13  15
HETATM   15  C21 UNL     1      -5.829   2.685   0.222  1.00  0.00     0.037 C 
HETATM   16  C22 UNL     1      -6.053   4.039  -0.403  1.00  0.00     0.025 C 
HETATM   17  C23 UNL     1      -5.667   2.917   1.722  1.00  0.00     0.025 C 
HETATM   18  C24 UNL     1      -7.038   1.827  -0.020  1.00  0.00     0.025 C 
ENDBRANCH  13  15
ENDBRANCH  12  13
ENDBRANCH  10  12
BRANCH  10  19
HETATM   19  C25 UNL     1      -2.924   0.347  -1.926  1.00  0.00     0.175 C 
HETATM   20  N2  UNL     1      -3.724  -0.299  -2.690  1.00  0.00    -0.248 N 
ATOM     21  H2  UNL     1      -4.394  -0.935  -2.256  1.00  0.00     0.196 HD
BRANCH  19  22
HETATM   22  O8  UNL     1      -1.980   1.240  -2.491  1.00  0.00    -0.346 OA
ATOM     23  H8  UNL     1      -1.974   1.329  -3.437  1.00  0.00     0.219 HD
ENDBRANCH  19  22
BRANCH  20  24
HETATM   24  O9  UNL     1      -3.733  -0.188  -4.037  1.00  0.00    -0.288 OA
ATOM     25  H9  UNL     1      -4.326  -0.667  -4.604  1.00  0.00     0.244 HD
ENDBRANCH  20  24
ENDBRANCH  10  19
BRANCH  11  26
HETATM   26  C27 UNL     1      -1.970   1.681   1.341  1.00  0.00    -0.026 C 
HETATM   27  C28 UNL     1      -1.520   1.433   2.553  1.00  0.00     0.007 C 
ENDBRANCH  11  26
BRANCH   6  28
HETATM   28  O1  UNL     1       1.106  -0.278  -0.774  1.00  0.00    -0.280 OA
BRANCH  28  29
HETATM   29  C10 UNL     1       2.283  -0.727  -0.213  1.00  0.00     0.275 C 
HETATM   30  O2  UNL     1       2.225  -1.735   0.539  1.00  0.00    -0.264 OA
BRANCH  29  31
HETATM   31  C11 UNL     1       3.596  -0.069  -0.462  1.00  0.00     0.220 C 
BRANCH  31  32
HETATM   32  S1  UNL     1       3.885   1.228   0.742  1.00  0.00     0.025 S 
HETATM   33  O3  UNL     1       3.886   0.557   2.281  1.00  0.00    -0.258 OA
BRANCH  32  34
HETATM   34  C12 UNL     1       5.494   1.919   0.358  1.00  0.00     0.129 C 
BRANCH  34  35
HETATM   35  C13 UNL     1       6.491   0.785   0.484  1.00  0.00     0.137 C 
BRANCH  35  36
HETATM   36  N1  UNL     1       7.845   1.205   0.200  1.00  0.00    -0.356 N 
HETATM   37  C14 UNL     1       8.411   1.157  -1.122  1.00  0.00     0.152 C 
HETATM   38  C15 UNL     1       8.644   1.681   1.271  1.00  0.00     0.215 C 
HETATM   39  C16 UNL     1      10.051   2.134   1.065  1.00  0.00     0.117 C 
HETATM   40  O4  UNL     1       8.185   1.737   2.434  1.00  0.00    -0.274 OA
ENDBRANCH  35  36
ENDBRANCH  34  35
ENDBRANCH  32  34
ENDBRANCH  31  32
ENDBRANCH  29  31
ENDBRANCH  28  29
ENDBRANCH   6  28
BRANCH   1  41
HETATM   41  C3  UNL     1      -0.345  -4.295  -0.136  1.00  0.00     0.031 C 
BRANCH  41  42
HETATM   42  C2  UNL     1      -0.715  -5.453   0.761  1.00  0.00    -0.037 C 
HETATM   43  C1  UNL     1      -0.068  -6.608   0.687  1.00  0.00     0.007 C 
ENDBRANCH  41  42
ENDBRANCH   1  41
TORSDOF 16
