REMARK  11 active torsions:
REMARK  status: ('A' for Active; 'I' for Inactive)
REMARK    1  A    between atoms: O1_2  and  C2_3 
REMARK    2  A    between atoms: C2_3  and  C3_4 
REMARK    3  A    between atoms: C3_4  and  O2_5 
REMARK    4  A    between atoms: O2_5  and  C4_6 
REMARK    5  A    between atoms: C7_9  and  N1_10 
REMARK    6  A    between atoms: C11_17  and  C12_18 
REMARK    7  A    between atoms: C14_20  and  N3_21 
REMARK       I    between atoms: N4_24  and  C17_25 
REMARK    8  A    between atoms: C17_25  and  C18_27 
REMARK    9  A    between atoms: C18_27  and  C19_28 
REMARK   10  A    between atoms: C19_28  and  C20_29 
REMARK   11  A    between atoms: C20_29  and  N5_30 
ROOT
HETATM    1  N1  UNL     1      -4.429   0.235  -0.158  1.00  0.00    -0.342 N 
ATOM      2  H1  UNL     1      -3.798   1.036  -0.160  1.00  0.00     0.167 HD
HETATM    3  C8  UNL     1      -3.945  -0.961  -0.071  1.00  0.00     0.108 A 
HETATM    4  C9  UNL     1      -4.789  -2.046  -0.068  1.00  0.00     0.065 A 
HETATM    5  C10 UNL     1      -4.251  -3.307   0.024  1.00  0.00     0.093 A 
HETATM    6  N2  UNL     1      -2.911  -3.449   0.109  1.00  0.00    -0.350 N 
ATOM      7  H2  UNL     1      -2.514  -4.386   0.176  1.00  0.00     0.166 HD
HETATM    8  C11 UNL     1      -2.080  -2.379   0.107  1.00  0.00     0.135 A 
HETATM    9  N8  UNL     1      -2.604  -1.149   0.017  1.00  0.00    -0.327 N 
ATOM     10  H8  UNL     1      -1.984  -0.339   0.015  1.00  0.00     0.169 HD
ENDROOT
BRANCH   8  11
HETATM   11  C12 UNL     1      -0.636  -2.629   0.203  1.00  0.00     0.095 A 
HETATM   12  C13 UNL     1       0.326  -1.641   0.209  1.00  0.00     0.084 A 
HETATM   13  C14 UNL     1       1.566  -2.239   0.308  1.00  0.00     0.120 A 
HETATM   14  N6  UNL     1       1.312  -3.557   0.359  1.00  0.00    -0.285 N 
HETATM   15  N7  UNL     1       0.014  -3.778   0.296  1.00  0.00    -0.295 N 
ATOM     16  H6  UNL     1       2.023  -4.284   0.436  1.00  0.00     0.188 HD
ATOM     17  H7  UNL     1      -0.425  -4.699   0.316  1.00  0.00     0.187 HD
BRANCH  13  18
HETATM   18  N3  UNL     1       2.860  -1.673   0.353  1.00  0.00    -0.363 N 
HETATM   19  C15 UNL     1       4.035  -2.514   0.410  1.00  0.00     0.144 C 
HETATM   20  C16 UNL     1       5.011  -1.900  -0.605  1.00  0.00     0.145 C 
HETATM   21  N4  UNL     1       5.379  -0.603  -0.080  1.00  0.00    -0.349 N 
HETATM   22  C17 UNL     1       6.700  -0.088  -0.245  1.00  0.00     0.219 C 
HETATM   23  C25 UNL     1       4.402   0.197   0.625  1.00  0.00     0.145 C 
HETATM   24  O3  UNL     1       7.522  -0.806  -0.864  1.00  0.00    -0.273 OA
HETATM   25  C26 UNL     1       2.996  -0.239   0.342  1.00  0.00     0.144 C 
BRANCH  22  26
HETATM   26  C18 UNL     1       7.122   1.218   0.268  1.00  0.00     0.105 C 
BRANCH  26  27
HETATM   27  C19 UNL     1       8.610   1.411   0.308  1.00  0.00     0.039 C 
BRANCH  27  28
HETATM   28  C20 UNL     1       9.243   0.443   1.229  1.00  0.00     0.273 C 
BRANCH  28  29
HETATM   29  N5  UNL     1      10.673   0.557   1.334  1.00  0.00     0.088 N 
HETATM   30  C21 UNL     1      11.377   0.187   0.152  1.00  0.00     0.272 C 
HETATM   31  C22 UNL     1      12.057   1.415  -0.378  1.00  0.00     0.032 C 
HETATM   32  C23 UNL     1      12.212   2.272   0.871  1.00  0.00     0.032 C 
HETATM   33  C24 UNL     1      11.160   1.795   1.826  1.00  0.00     0.272 C 
ENDBRANCH  28  29
ENDBRANCH  27  28
ENDBRANCH  26  27
ENDBRANCH  22  26
ENDBRANCH  13  18
ENDBRANCH   8  11
BRANCH   1  34
HETATM   34  C7  UNL     1      -5.833   0.444  -0.251  1.00  0.00     0.040 A 
HETATM   35  C6  UNL     1      -6.669   0.511   0.838  1.00  0.00     0.033 A 
HETATM   36  C5  UNL     1      -8.029   0.715   0.686  1.00  0.00     0.039 A 
HETATM   37  C4  UNL     1      -8.615   0.861  -0.554  1.00  0.00     0.075 A 
HETATM   38  C28 UNL     1      -7.760   0.791  -1.647  1.00  0.00    -0.016 A 
HETATM   39  C27 UNL     1      -6.398   0.587  -1.508  1.00  0.00    -0.022 A 
HETATM   40  C29 UNL     1      -8.090   0.910  -3.098  1.00  0.00     0.042 C 
HETATM   41  C31 UNL     1      -5.775   0.563  -2.870  1.00  0.00     0.042 C 
HETATM   42  C30 UNL     1      -6.770   1.348  -3.692  1.00  0.00     0.009 C 
BRANCH  37  43
HETATM   43  O2  UNL     1      -9.978   1.066  -0.715  1.00  0.00    -0.348 OA
BRANCH  43  44
HETATM   44  C3  UNL     1     -10.762   1.122   0.479  1.00  0.00     0.201 C 
BRANCH  44  45
HETATM   45  C2  UNL     1     -12.207   1.344   0.182  1.00  0.00     0.193 C 
BRANCH  45  46
HETATM   46  O1  UNL     1     -13.003   1.400   1.307  1.00  0.00    -0.394 OA
HETATM   47  C1  UNL     1     -12.665   2.408   2.165  1.00  0.00     0.201 C 
ENDBRANCH  45  46
ENDBRANCH  44  45
ENDBRANCH  43  44
ENDBRANCH  37  43
ENDBRANCH   1  34
TORSDOF 11
