REMARK  12 active torsions:
REMARK  status: ('A' for Active; 'I' for Inactive)
REMARK    1  A    between atoms: O1_2  and  C2_3 
REMARK    2  A    between atoms: C3_4  and  C4_5 
REMARK    3  A    between atoms: C4_5  and  N1_6 
REMARK    4  A    between atoms: N2_9  and  C7_10 
REMARK    5  A    between atoms: C7_10  and  C8_11 
REMARK    6  A    between atoms: C14_17  and  C15_18 
REMARK    7  A    between atoms: C17_22  and  C18_23 
REMARK    8  A    between atoms: C21_28  and  N5_29 
REMARK    9  A    between atoms: N5_29  and  C22_31 
REMARK   10  A    between atoms: C22_31  and  C23_32 
REMARK   11  A    between atoms: C23_32  and  C24_33 
REMARK   12  A    between atoms: C24_33  and  N6_34 
ROOT
HETATM    1  C18 UNL     1      -0.407  -0.872   0.824  1.00  0.00     0.122 A 
HETATM    2  N4  UNL     1      -1.334   0.091   0.521  1.00  0.00    -0.338 N 
ATOM      3  H4  UNL     1      -1.130   1.085   0.419  1.00  0.00     0.167 HD
HETATM    4  C19 UNL     1      -2.553  -0.465   0.378  1.00  0.00     0.083 A 
HETATM    5  C20 UNL     1      -3.808   0.067   0.078  1.00  0.00     0.083 A 
HETATM    6  C21 UNL     1      -4.888  -0.775   0.001  1.00  0.00     0.117 A 
HETATM    7  N7  UNL     1      -4.633  -2.102   0.233  1.00  0.00    -0.284 N 
ATOM      8  H7  UNL     1      -5.416  -2.754   0.184  1.00  0.00     0.188 HD
HETATM    9  N8  UNL     1      -3.448  -2.588   0.514  1.00  0.00    -0.282 N 
ATOM     10  H8  UNL     1      -3.351  -3.591   0.671  1.00  0.00     0.188 HD
HETATM   11  C30 UNL     1      -2.356  -1.808   0.602  1.00  0.00     0.150 A 
HETATM   12  N9  UNL     1      -1.033  -2.044   0.876  1.00  0.00    -0.320 N 
HETATM   13  C31 UNL     1      -0.518  -3.372   1.199  1.00  0.00     0.159 C 
ENDROOT
BRANCH   1  14
HETATM   14  C17 UNL     1       0.977  -0.507   1.087  1.00  0.00     0.043 A 
HETATM   15  C2  UNL     1       2.001  -0.670   0.204  1.00  0.00     0.090 A 
HETATM   16  C3  UNL     1       3.326  -0.222   0.475  1.00  0.00    -0.005 A 
HETATM   17  C13 UNL     1       3.525   0.389   1.683  1.00  0.00     0.028 A 
HETATM   18  C14 UNL     1       2.526   0.585   2.624  1.00  0.00     0.030 A 
HETATM   19  C16 UNL     1       1.283   0.133   2.303  1.00  0.00     0.034 A 
BRANCH  15  20
HETATM   20  O1  UNL     1       1.846  -1.265  -1.013  1.00  0.00    -0.354 OA
HETATM   21  C1  UNL     1       2.049  -2.601  -1.375  1.00  0.00     0.210 C 
ENDBRANCH  15  20
BRANCH  16  22
HETATM   22  C4  UNL     1       4.363  -0.422  -0.566  1.00  0.00     0.158 C 
BRANCH  22  23
HETATM   23  N1  UNL     1       5.644   0.023  -0.163  1.00  0.00    -0.405 N 
HETATM   24  C5  UNL     1       6.294  -0.684   0.879  1.00  0.00     0.147 C 
HETATM   25  C6  UNL     1       7.393  -1.617   0.414  1.00  0.00     0.291 C 
HETATM   26  N2  UNL     1       8.315  -0.938  -0.473  1.00  0.00     0.091 N 
HETATM   27  C11 UNL     1       7.532  -0.522  -1.631  1.00  0.00     0.291 C 
HETATM   28  C12 UNL     1       6.497   0.499  -1.222  1.00  0.00     0.147 C 
BRANCH  26  29
HETATM   29  C7  UNL     1       8.888   0.174   0.220  1.00  0.00     0.276 C 
BRANCH  29  30
HETATM   30  C8  UNL     1       9.872   0.943  -0.645  1.00  0.00     0.006 C 
HETATM   31  C9  UNL     1      11.023   0.099  -1.110  1.00  0.00     0.011 C 
HETATM   32  C10 UNL     1      10.405   2.107   0.157  1.00  0.00     0.011 C 
ENDBRANCH  29  30
ENDBRANCH  26  29
ENDBRANCH  22  23
ENDBRANCH  16  22
BRANCH  18  33
HETATM   33  C15 UNL     1       2.838   1.249   3.891  1.00  0.00     0.265 C 
HETATM   34  N3  UNL     1       1.850   1.496   4.855  1.00  0.00    -0.057 NA
HETATM   35  O2  UNL     1       4.026   1.617   4.136  1.00  0.00    -0.271 OA
ENDBRANCH  18  33
ENDBRANCH   1  14
BRANCH   6  36
HETATM   36  N5  UNL     1      -6.089  -0.402  -0.267  1.00  0.00    -0.375 N 
ATOM     37  H5  UNL     1      -6.813  -1.120  -0.298  1.00  0.00     0.161 HD
BRANCH  36  38
HETATM   38  C22 UNL     1      -6.479   0.940  -0.523  1.00  0.00     0.123 C 
BRANCH  38  39
HETATM   39  C23 UNL     1      -7.372   1.491   0.603  1.00  0.00     0.039 C 
BRANCH  39  40
HETATM   40  C24 UNL     1      -8.623   0.664   0.712  1.00  0.00     0.118 C 
BRANCH  40  41
HETATM   41  N6  UNL     1      -9.388   0.646  -0.482  1.00  0.00    -0.412 N 
HETATM   42  C25 UNL     1     -10.562  -0.187  -0.405  1.00  0.00     0.117 C 
HETATM   43  C26 UNL     1     -11.562   0.232  -1.487  1.00  0.00     0.019 C 
HETATM   44  C27 UNL     1     -12.079   1.585  -1.054  1.00  0.00     0.003 C 
HETATM   45  C28 UNL     1     -10.933   2.530  -0.927  1.00  0.00     0.019 C 
HETATM   46  C29 UNL     1      -9.601   1.860  -1.174  1.00  0.00     0.117 C 
ENDBRANCH  40  41
ENDBRANCH  39  40
ENDBRANCH  38  39
ENDBRANCH  36  38
ENDBRANCH   6  36
TORSDOF 12
