REMARK  12 active torsions:
REMARK  status: ('A' for Active; 'I' for Inactive)
REMARK    1  A    between atoms: C2_2  and  C3_3 
REMARK    2  A    between atoms: C3_3  and  N1_4 
REMARK    3  A    between atoms: N1_4  and  C5_6 
REMARK    4  A    between atoms: C5_6  and  C6_7 
REMARK    5  A    between atoms: C6_7  and  N2_8 
REMARK    6  A    between atoms: N3_13  and  C10_14 
REMARK    7  A    between atoms: C10_14  and  C11_15 
REMARK    8  A    between atoms: N4_24  and  C19_25 
REMARK    9  A    between atoms: C25_33  and  N6_34 
REMARK   10  A    between atoms: N6_34  and  C26_36 
REMARK   11  A    between atoms: C26_36  and  C27_37 
REMARK   12  A    between atoms: C27_37  and  O3_38 
ROOT
HETATM    1  N2  UNL     1      -2.137  -0.969   0.523  1.00  0.00    -0.264 N 
HETATM    2  C7  UNL     1      -1.315  -1.670  -0.273  1.00  0.00     0.260 A 
HETATM    3  O1  UNL     1      -1.520  -2.882  -0.559  1.00  0.00    -0.267 OA
HETATM    4  C8  UNL     1      -0.216  -1.018  -0.782  1.00  0.00     0.043 A 
HETATM    5  C9  UNL     1       0.051   0.332  -0.489  1.00  0.00     0.070 A 
HETATM    6  N3  UNL     1      -0.785   0.996   0.301  1.00  0.00    -0.276 N 
HETATM    7  C17 UNL     1      -1.865   0.313   0.787  1.00  0.00     0.336 A 
HETATM    8  O2  UNL     1      -2.696   0.912   1.554  1.00  0.00    -0.246 OA
HETATM    9  C18 UNL     1       1.185   1.106  -0.930  1.00  0.00     0.123 C 
HETATM   10  N4  UNL     1       2.477   0.468  -0.748  1.00  0.00    -0.335 N 
HETATM   11  C24 UNL     1       2.661  -0.914  -0.510  1.00  0.00     0.135 A 
HETATM   12  N5  UNL     1       3.771  -1.161   0.196  1.00  0.00    -0.176 N 
ATOM     13  H5  UNL     1       4.347  -0.375   0.497  1.00  0.00     0.186 HD
HETATM   14  C25 UNL     1       4.154  -2.406   0.523  1.00  0.00     0.682 A 
HETATM   15  N7  UNL     1       3.432  -3.502   0.154  1.00  0.00    -0.156 N 
ATOM     16  H7  UNL     1       3.726  -4.447   0.403  1.00  0.00     0.187 HD
HETATM   17  C29 UNL     1       2.300  -3.270  -0.563  1.00  0.00     0.270 A 
HETATM   18  O4  UNL     1       1.605  -4.259  -0.921  1.00  0.00    -0.267 OA
HETATM   19  C30 UNL     1       1.910  -2.010  -0.894  1.00  0.00     0.059 A 
HETATM   20  C31 UNL     1       0.634  -1.914  -1.647  1.00  0.00     0.095 C 
ENDROOT
BRANCH   1  21
HETATM   21  C6  UNL     1      -3.312  -1.619   1.088  1.00  0.00     0.167 C 
BRANCH  21  22
HETATM   22  C5  UNL     1      -4.512  -1.471   0.202  1.00  0.00     0.292 C 
BRANCH  22  23
HETATM   23  N1  UNL     1      -5.702  -2.087   0.710  1.00  0.00     0.085 N 
HETATM   24  C4  UNL     1      -6.871  -1.709  -0.069  1.00  0.00     0.309 C 
BRANCH  23  25
HETATM   25  C3  UNL     1      -5.669  -3.531   0.741  1.00  0.00     0.271 C 
BRANCH  25  26
HETATM   26  C2  UNL     1      -6.832  -4.066   1.561  1.00  0.00     0.026 C 
HETATM   27  C1  UNL     1      -6.822  -5.574   1.612  1.00  0.00     0.007 C 
ENDBRANCH  25  26
ENDBRANCH  23  25
ENDBRANCH  22  23
ENDBRANCH  21  22
ENDBRANCH   1  21
BRANCH   6  28
HETATM   28  C10 UNL     1      -0.688   2.358   0.606  1.00  0.00     0.079 C 
BRANCH  28  29
HETATM   29  C11 UNL     1      -1.557   3.277  -0.219  1.00  0.00     0.025 C 
HETATM   30  C12 UNL     1      -1.360   3.290  -1.685  1.00  0.00     0.010 C 
HETATM   31  C13 UNL     1      -2.352   4.204  -2.387  1.00  0.00     0.001 C 
HETATM   32  C14 UNL     1      -3.241   4.935  -1.421  1.00  0.00     0.000 C 
HETATM   33  C15 UNL     1      -2.503   5.577  -0.299  1.00  0.00     0.001 C 
HETATM   34  C16 UNL     1      -1.398   4.736   0.232  1.00  0.00     0.010 C 
ENDBRANCH  28  29
ENDBRANCH   6  28
BRANCH  10  35
HETATM   35  C19 UNL     1       3.676   1.278  -0.809  1.00  0.00     0.091 C 
HETATM   36  C20 UNL     1       3.605   2.112  -2.101  1.00  0.00     0.026 C 
HETATM   37  C21 UNL     1       3.311   3.510  -1.701  1.00  0.00     0.002 C 
HETATM   38  C22 UNL     1       3.436   3.650  -0.233  1.00  0.00     0.002 C 
HETATM   39  C23 UNL     1       3.839   2.307   0.228  1.00  0.00     0.026 C 
ENDBRANCH  10  35
BRANCH  14  40
HETATM   40  N6  UNL     1       5.229  -2.601   1.196  1.00  0.00    -0.224 N 
ATOM     41  H6  UNL     1       5.510  -3.551   1.438  1.00  0.00     0.177 HD
BRANCH  40  42
HETATM   42  C26 UNL     1       6.033  -1.500   1.607  1.00  0.00     0.164 C 
BRANCH  42  43
HETATM   43  C27 UNL     1       7.245  -1.798   2.404  1.00  0.00     0.187 C 
BRANCH  43  44
HETATM   44  O3  UNL     1       8.206  -2.567   1.862  1.00  0.00    -0.394 OA
HETATM   45  C28 UNL     1       7.860  -3.826   1.509  1.00  0.00     0.201 C 
ENDBRANCH  43  44
ENDBRANCH  42  43
ENDBRANCH  40  42
ENDBRANCH  14  40
TORSDOF 12
