REMARK  3 active torsions:
REMARK  status: ('A' for Active; 'I' for Inactive)
REMARK    1  A    between atoms: C2_2  and  C4_5 
REMARK    2  A    between atoms: C4_5  and  N3_9 
REMARK    3  A    between atoms: N3_9  and  C5_11 
ROOT
HETATM    1  C1  UNL     1      -2.962  -0.552  -1.054  1.00  0.00     0.039 C 
HETATM    2  C2  UNL     1      -2.956   0.303  -0.048  1.00  0.00     0.078 C 
HETATM    3  C3  UNL     1      -4.064   1.213   0.063  1.00  0.00     0.102 C 
HETATM    4  N1  UNL     1      -4.977   1.937   0.152  1.00  0.00    -0.191 NA
ENDROOT
BRANCH   2   5
HETATM    5  C4  UNL     1      -1.872   0.313   0.897  1.00  0.00     0.116 C 
HETATM    6  N2  UNL     1      -1.866   1.139   1.868  1.00  0.00    -0.384 N 
ATOM      7  H22 UNL     1      -2.643   1.793   1.962  1.00  0.00     0.157 HD
ATOM      8  H21 UNL     1      -1.097   1.146   2.538  1.00  0.00     0.157 HD
BRANCH   5   9
HETATM    9  N3  UNL     1      -0.793  -0.594   0.766  1.00  0.00    -0.348 N 
ATOM     10  H3  UNL     1      -0.974  -1.543   0.440  1.00  0.00     0.163 HD
BRANCH   9  11
HETATM   11  C5  UNL     1       0.564  -0.199   1.086  1.00  0.00     0.285 C 
HETATM   12  C6  UNL     1       0.912   0.961   0.168  1.00  0.00     0.054 C 
HETATM   13  C7  UNL     1       1.404   0.328  -1.129  1.00  0.00     0.005 C 
HETATM   14  C8  UNL     1       2.756  -0.264  -0.827  1.00  0.00     0.028 C 
HETATM   15  C9  UNL     1       2.752  -1.003   0.476  1.00  0.00     0.235 C 
HETATM   16  N4  UNL     1       1.421  -1.318   0.948  1.00  0.00    -0.054 N 
ATOM     17  H42 UNL     1       1.469  -1.838   1.824  1.00  0.00     0.279 HD
ATOM     18  H41 UNL     1       0.990  -2.023   0.349  1.00  0.00     0.279 HD
ENDBRANCH   9  11
ENDBRANCH   5   9
ENDBRANCH   2   5
TORSDOF 3
