REMARK  13 active torsions:
REMARK  status: ('A' for Active; 'I' for Inactive)
REMARK    1  A    between atoms: C1_2  and  C2_4 
REMARK    2  A    between atoms: C2_4  and  C3_5 
REMARK    3  A    between atoms: C3_5  and  N2_6 
REMARK    4  A    between atoms: C3_5  and  C19_36 
REMARK    5  A    between atoms: N2_6  and  C4_8 
REMARK    6  A    between atoms: C4_8  and  C5_9 
REMARK    7  A    between atoms: C5_9  and  C6_10 
REMARK    8  A    between atoms: C6_10  and  C7_11 
REMARK    9  A    between atoms: C7_11  and  C8_12 
REMARK   10  A    between atoms: C8_12  and  N3_13 
REMARK   11  A    between atoms: C10_18  and  O2_19 
REMARK   12  A    between atoms: C10_18  and  N6_21 
REMARK   13  A    between atoms: N7_24  and  C13_25 
ROOT
HETATM    1  C4  UNL     1      -0.929   0.341   0.999  1.00  0.00     0.057 C 
HETATM    2  C10 UNL     1       0.414   0.706   1.358  1.00  0.00     0.161 C 
ENDROOT
BRANCH   1   3
HETATM    3  N2  UNL     1      -1.793   1.365   0.588  1.00  0.00    -0.381 N 
ATOM      4  H2  UNL     1      -2.745   1.076   0.362  1.00  0.00     0.160 HD
BRANCH   3   5
HETATM    5  C3  UNL     1      -1.527   2.719   0.448  1.00  0.00     0.123 C 
BRANCH   5   6
HETATM    6  C2  UNL     1      -0.567   2.995  -0.683  1.00  0.00     0.129 C 
BRANCH   6   7
HETATM    7  C1  UNL     1      -0.206   4.402  -0.885  1.00  0.00     0.233 C 
HETATM    8  N1  UNL     1       0.643   4.666  -2.017  1.00  0.00    -0.062 NA
HETATM    9  O1  UNL     1      -0.594   5.308  -0.146  1.00  0.00    -0.277 OA
ENDBRANCH   6   7
ENDBRANCH   5   6
BRANCH   5  10
HETATM   10  C19 UNL     1      -2.789   3.465   0.061  1.00  0.00    -0.032 A 
HETATM   11  C20 UNL     1      -3.467   3.118  -1.069  1.00  0.00     0.033 A 
HETATM   12  C21 UNL     1      -4.645   3.754  -1.436  1.00  0.00     0.036 A 
HETATM   13 CL2  UNL     1      -5.480   3.294  -2.885  1.00  0.00    -0.084 Cl
HETATM   14  C22 UNL     1      -5.137   4.753  -0.642  1.00  0.00     0.047 A 
HETATM   15  C23 UNL     1      -4.465   5.127   0.517  1.00  0.00     0.036 A 
HETATM   16 CL3  UNL     1      -5.134   6.402   1.503  1.00  0.00    -0.084 Cl
HETATM   17  C24 UNL     1      -3.266   4.459   0.862  1.00  0.00     0.033 A 
ENDBRANCH   5  10
ENDBRANCH   3   5
ENDBRANCH   1   3
BRANCH   1  18
HETATM   18  C5  UNL     1      -1.324  -0.943   0.399  1.00  0.00     0.061 C 
BRANCH  18  19
HETATM   19  C6  UNL     1      -0.681  -2.195   0.851  1.00  0.00     0.008 C 
BRANCH  19  20
HETATM   20  C7  UNL     1      -1.220  -3.383   0.066  1.00  0.00     0.020 C 
BRANCH  20  21
HETATM   21  C8  UNL     1      -2.707  -3.572   0.212  1.00  0.00     0.122 C 
BRANCH  21  22
HETATM   22  N3  UNL     1      -3.090  -4.737  -0.520  1.00  0.00    -0.367 N 
HETATM   23  C9  UNL     1      -4.246  -5.099  -0.827  1.00  0.00     0.196 C 
HETATM   24  N4  UNL     1      -5.417  -4.344  -0.467  1.00  0.00    -0.067 NA
HETATM   25  N5  UNL     1      -4.476  -6.317  -1.555  1.00  0.00    -0.067 NA
ATOM     26  H3  UNL     1      -2.331  -5.345  -0.828  1.00  0.00     0.161 HD
ENDBRANCH  21  22
ENDBRANCH  20  21
ENDBRANCH  19  20
ENDBRANCH  18  19
ENDBRANCH   1  18
BRANCH   2  27
HETATM   27  O2  UNL     1       0.464   1.628   2.335  1.00  0.00    -0.345 OA
ATOM     28  H2  UNL     1       1.352   1.869   2.572  1.00  0.00     0.219 HD
ENDBRANCH   2  27
BRANCH   2  29
HETATM   29  N6  UNL     1       1.701   0.363   0.951  1.00  0.00    -0.357 N 
HETATM   30  C11 UNL     1       2.098  -0.351  -0.206  1.00  0.00     0.145 C 
HETATM   31  C12 UNL     1       3.220  -1.345   0.075  1.00  0.00     0.161 C 
HETATM   32  N7  UNL     1       4.387  -0.614   0.553  1.00  0.00    -0.214 N 
HETATM   33  C17 UNL     1       4.150   0.655   1.173  1.00  0.00     0.161 C 
HETATM   34  C18 UNL     1       2.826   0.740   1.843  1.00  0.00     0.145 C 
BRANCH  32  35
HETATM   35  C13 UNL     1       5.682  -1.136   0.407  1.00  0.00     0.680 A 
HETATM   36  N8  UNL     1       6.736  -0.347   0.757  1.00  0.00    -0.200 N 
HETATM   37  C14 UNL     1       7.992  -0.808   0.629  1.00  0.00     0.131 A 
ATOM     38  H8  UNL     1       6.572   0.593   1.116  1.00  0.00     0.183 HD
HETATM   39  C15 UNL     1       8.203  -2.076   0.146  1.00  0.00     0.065 A 
HETATM   40 CL1  UNL     1       9.841  -2.696  -0.028  1.00  0.00    -0.081 Cl
HETATM   41  C16 UNL     1       7.096  -2.859  -0.204  1.00  0.00     0.131 A 
HETATM   42  N9  UNL     1       5.862  -2.371  -0.065  1.00  0.00    -0.200 N 
ATOM     43  H9  UNL     1       5.056  -2.942  -0.320  1.00  0.00     0.183 HD
ENDBRANCH  32  35
ENDBRANCH   2  29
TORSDOF 13
