REMARK  13 active torsions:
REMARK  status: ('A' for Active; 'I' for Inactive)
REMARK    1  A    between atoms: C2_2  and  C3_3 
REMARK    2  A    between atoms: N1_7  and  C7_8 
REMARK    3  A    between atoms: C7_8  and  C8_9 
REMARK       I    between atoms: C8_9  and  N2_11 
REMARK    4  A    between atoms: N2_11  and  C9_13 
REMARK    5  A    between atoms: C12_16  and  C13_17 
REMARK    6  A    between atoms: C13_17  and  C14_18 
REMARK    7  A    between atoms: C14_18  and  N3_19 
REMARK    8  A    between atoms: N4_22  and  C17_23 
REMARK    9  A    between atoms: C17_23  and  C18_24 
REMARK   10  A    between atoms: C18_24  and  O2_25 
REMARK   11  A    between atoms: C18_24  and  C19_27 
REMARK   12  A    between atoms: C19_27  and  S1_28 
REMARK   13  A    between atoms: S1_28  and  C20_29 
ROOT
HETATM    1  N3  UNL     1       1.474  -0.949  -0.813  1.00  0.00    -0.185 NA
HETATM    2  C15 UNL     1       2.181  -1.885  -1.678  1.00  0.00     0.141 C 
HETATM    3  C16 UNL     1       3.507  -2.295  -1.129  1.00  0.00     0.145 C 
HETATM    4  N4  UNL     1       4.203  -1.197  -0.468  1.00  0.00    -0.323 N 
HETATM    5  C27 UNL     1       3.640   0.096  -0.617  1.00  0.00     0.380 C 
HETATM    6  O3  UNL     1       4.390   1.094  -0.762  1.00  0.00    -0.237 OA
HETATM    7  O4  UNL     1       2.239   0.179  -0.592  1.00  0.00    -0.207 OA
ENDROOT
BRANCH   1   8
HETATM    8  C14 UNL     1       1.145  -1.616   0.415  1.00  0.00     0.121 C 
BRANCH   8   9
HETATM    9  C13 UNL     1       0.097  -2.640   0.333  1.00  0.00     0.021 C 
BRANCH   9  10
HETATM   10  C12 UNL     1      -1.289  -2.283   0.007  1.00  0.00    -0.013 C 
HETATM   11  C11 UNL     1      -1.588  -1.619  -1.271  1.00  0.00     0.007 C 
HETATM   12  C10 UNL     1      -2.192  -0.227  -1.086  1.00  0.00     0.025 C 
HETATM   13  C9  UNL     1      -3.429  -0.257  -0.259  1.00  0.00     0.084 C 
HETATM   14  C29 UNL     1      -3.460  -1.449   0.694  1.00  0.00     0.025 C 
HETATM   15  C28 UNL     1      -2.020  -1.620   1.182  1.00  0.00     0.007 C 
BRANCH  13  16
HETATM   16  N2  UNL     1      -4.659  -0.210  -1.010  1.00  0.00    -0.355 N 
HETATM   17  C8  UNL     1      -5.740   0.637  -0.600  1.00  0.00     0.246 C 
HETATM   18  O1  UNL     1      -5.628   1.341   0.427  1.00  0.00    -0.272 OA
ATOM     19  H2  UNL     1      -4.761  -0.788  -1.845  1.00  0.00     0.162 HD
BRANCH  17  20
HETATM   20  C7  UNL     1      -7.001   0.699  -1.374  1.00  0.00     0.375 C 
BRANCH  20  21
HETATM   21  N1  UNL     1      -7.999   1.559  -0.844  1.00  0.00     0.101 N 
HETATM   22  C3  UNL     1      -8.600   1.140   0.387  1.00  0.00     0.223 C 
HETATM   23  C4  UNL     1      -8.959   2.367   1.158  1.00  0.00     0.037 C 
HETATM   24  C5  UNL     1      -8.041   3.433   0.631  1.00  0.00     0.032 C 
HETATM   25  C6  UNL     1      -7.634   2.926  -0.724  1.00  0.00     0.273 C 
BRANCH  22  26
HETATM   26  C2  UNL     1      -9.862   0.355   0.001  1.00  0.00     0.031 C 
HETATM   27  C1  UNL     1     -10.570  -0.032   1.256  1.00  0.00     0.007 C 
ENDBRANCH  22  26
ENDBRANCH  20  21
ENDBRANCH  17  20
ENDBRANCH  13  16
ENDBRANCH   9  10
ENDBRANCH   8   9
ENDBRANCH   1   8
BRANCH   4  28
HETATM   28  C17 UNL     1       5.395  -1.454   0.281  1.00  0.00     0.160 C 
BRANCH  28  29
HETATM   29  C18 UNL     1       6.679  -1.390  -0.492  1.00  0.00     0.145 C 
BRANCH  29  30
HETATM   30  O2  UNL     1       6.688  -2.285  -1.569  1.00  0.00    -0.393 OA
ATOM     31  H2  UNL     1       7.501  -2.244  -2.059  1.00  0.00     0.210 HD
ENDBRANCH  29  30
BRANCH  29  32
HETATM   32  C19 UNL     1       7.767  -1.830   0.497  1.00  0.00     0.112 C 
BRANCH  32  33
HETATM   33  S1  UNL     1       7.812  -0.709   1.895  1.00  0.00    -0.127 SA
BRANCH  33  34
HETATM   34  C20 UNL     1       8.464   0.873   1.344  1.00  0.00     0.001 A 
HETATM   35  C21 UNL     1       7.675   1.903   0.900  1.00  0.00     0.020 A 
HETATM   36  C22 UNL     1       8.230   3.085   0.493  1.00  0.00     0.026 A 
HETATM   37  C23 UNL     1       9.590   3.276   0.516  1.00  0.00     0.040 A 
HETATM   38 CL1  UNL     1      10.357   4.755   0.011  1.00  0.00    -0.084 Cl
HETATM   39  C24 UNL     1      10.392   2.233   0.966  1.00  0.00    -0.039 A 
HETATM   40  C25 UNL     1      11.872   2.421   1.005  1.00  0.00     0.050 C 
HETATM   41  C26 UNL     1       9.839   1.051   1.374  1.00  0.00     0.027 A 
ENDBRANCH  33  34
ENDBRANCH  32  33
ENDBRANCH  29  32
ENDBRANCH  28  29
ENDBRANCH   4  28
TORSDOF 13
