REMARK  16 active torsions:
REMARK  status: ('A' for Active; 'I' for Inactive)
REMARK    1  A    between atoms: C2_2  and  C3_3 
REMARK    2  A    between atoms: C3_3  and  C4_4 
REMARK    3  A    between atoms: C4_4  and  C5_5 
REMARK    4  A    between atoms: C5_5  and  C6_6 
REMARK    5  A    between atoms: C5_5  and  N1_11 
REMARK    6  A    between atoms: C6_6  and  O1_7 
REMARK    7  A    between atoms: O1_7  and  C7_8 
REMARK       I    between atoms: N1_11  and  C9_13 
REMARK    8  A    between atoms: C9_13  and  C10_15 
REMARK    9  A    between atoms: C10_15  and  N2_17 
REMARK   10  A    between atoms: C17_24  and  C18_25 
REMARK   11  A    between atoms: C19_26  and  C20_27 
REMARK   12  A    between atoms: C22_29  and  C23_30 
REMARK   13  A    between atoms: C23_30  and  C24_31 
REMARK   14  A    between atoms: C24_31  and  C25_32 
REMARK   15  A    between atoms: C25_32  and  C27_34 
REMARK   16  A    between atoms: C33_42  and  O6_43 
ROOT
HETATM    1  C3  UNL     1      -1.664   0.660  -0.894  1.00  0.00     0.014 C 
HETATM    2  C13 UNL     1      -1.001   0.555   0.400  1.00  0.00    -0.072 C 
HETATM    3  C14 UNL     1      -1.719  -0.256   1.471  1.00  0.00     0.044 C 
HETATM    4  C15 UNL     1       0.409   0.394   0.636  1.00  0.00     0.011 C 
HETATM    5  C16 UNL     1       1.630   0.082   0.235  1.00  0.00    -0.047 C 
HETATM    6  C17 UNL     1       2.664   0.190   1.215  1.00  0.00     0.008 C 
HETATM    7  C28 UNL     1       2.112  -0.334  -1.073  1.00  0.00     0.089 C 
HETATM    8  C29 UNL     1       2.898   0.822  -1.725  1.00  0.00     0.023 C 
HETATM    9  C30 UNL     1       1.087  -0.757  -2.045  1.00  0.00     0.162 C 
HETATM   10  O5  UNL     1       1.580  -0.621  -3.185  1.00  0.00    -0.292 OA
HETATM   11  C31 UNL     1      -0.264  -1.259  -2.001  1.00  0.00    -0.008 C 
HETATM   12  C32 UNL     1      -0.362  -2.490  -1.125  1.00  0.00     0.050 C 
HETATM   13  C33 UNL     1      -1.377  -0.332  -1.973  1.00  0.00     0.163 C 
ENDROOT
BRANCH   1  14
HETATM   14  C2  UNL     1      -1.707   2.066  -1.456  1.00  0.00     0.012 C 
HETATM   15  C1  UNL     1      -0.420   2.667  -1.892  1.00  0.00     0.006 C 
ENDBRANCH   1  14
BRANCH   1  16
HETATM   16  C4  UNL     1      -3.131   0.408  -0.636  1.00  0.00     0.044 C 
BRANCH  16  17
HETATM   17  C5  UNL     1      -4.107   1.008   0.188  1.00  0.00     0.110 C 
BRANCH  17  18
HETATM   18  C6  UNL     1      -4.514   2.452   0.051  1.00  0.00     0.204 C 
BRANCH  18  19
HETATM   19  O1  UNL     1      -5.693   2.684   0.887  1.00  0.00    -0.320 OA
BRANCH  19  20
HETATM   20  C7  UNL     1      -6.283   3.919   0.957  1.00  0.00     0.254 C 
HETATM   21  C8  UNL     1      -7.474   4.189   1.791  1.00  0.00     0.126 C 
HETATM   22  O2  UNL     1      -5.793   4.866   0.283  1.00  0.00    -0.266 OA
ENDBRANCH  19  20
ENDBRANCH  18  19
ENDBRANCH  17  18
BRANCH  17  23
HETATM   23  N1  UNL     1      -5.402   0.325  -0.214  1.00  0.00    -0.353 N 
HETATM   24  C9  UNL     1      -6.237  -0.238   0.764  1.00  0.00     0.240 C 
HETATM   25  O3  UNL     1      -5.938  -0.194   2.013  1.00  0.00    -0.271 OA
ATOM     26  H1  UNL     1      -5.666   0.275  -1.198  1.00  0.00     0.163 HD
BRANCH  24  27
HETATM   27  C10 UNL     1      -7.512  -0.920   0.461  1.00  0.00     0.165 C 
HETATM   28  C11 UNL     1      -7.177  -2.052  -0.521  1.00  0.00     0.042 C 
BRANCH  27  29
HETATM   29  N2  UNL     1      -8.197  -1.406   1.612  1.00  0.00    -0.414 N 
HETATM   30  C12 UNL     1      -7.493  -2.404   2.361  1.00  0.00     0.140 C 
ATOM     31  H2  UNL     1      -9.121  -1.068   1.883  1.00  0.00     0.153 HD
ENDBRANCH  27  29
ENDBRANCH  24  27
ENDBRANCH  17  23
ENDBRANCH  16  17
ENDBRANCH   1  16
BRANCH  13  32
HETATM   32  O6  UNL     1      -2.492  -1.121  -2.352  1.00  0.00    -0.390 OA
ATOM     33  H6  UNL     1      -2.309  -1.752  -3.038  1.00  0.00     0.210 HD
ENDBRANCH  13  32
BRANCH   6  34
HETATM   34  C18 UNL     1       3.924  -0.008   1.342  1.00  0.00     0.001 C 
HETATM   35  C19 UNL     1       5.019  -0.455   0.577  1.00  0.00     0.007 C 
BRANCH  35  36
HETATM   36  C20 UNL     1       6.312  -0.558   0.985  1.00  0.00    -0.062 C 
HETATM   37  C21 UNL     1       6.706  -0.194   2.327  1.00  0.00     0.048 C 
HETATM   38  C22 UNL     1       7.255  -1.033  -0.003  1.00  0.00     0.007 C 
BRANCH  38  39
HETATM   39  C23 UNL     1       8.500  -1.270  -0.017  1.00  0.00     0.001 C 
BRANCH  39  40
HETATM   40  C24 UNL     1       9.484  -1.146   1.003  1.00  0.00     0.010 C 
BRANCH  40  41
HETATM   41  C25 UNL     1      10.784  -1.428   0.849  1.00  0.00    -0.024 C 
HETATM   42  C26 UNL     1      11.720  -1.261   1.986  1.00  0.00     0.051 C 
BRANCH  41  43
HETATM   43  C27 UNL     1      11.286  -1.892  -0.416  1.00  0.00     0.265 C 
HETATM   44  O4  UNL     1      12.546  -2.152  -0.515  1.00  0.00    -0.302 OA
ENDBRANCH  41  43
ENDBRANCH  40  41
ENDBRANCH  39  40
ENDBRANCH  38  39
ENDBRANCH  35  36
ENDBRANCH   6  34
TORSDOF 16
