REMARK  17 active torsions:
REMARK  status: ('A' for Active; 'I' for Inactive)
REMARK    1  A    between atoms: C2_2  and  C3_3 
REMARK    2  A    between atoms: C3_3  and  C5_5 
REMARK    3  A    between atoms: C5_5  and  N1_6 
REMARK    4  A    between atoms: C5_5  and  C19_27 
REMARK       I    between atoms: N1_6  and  C6_8 
REMARK       I    between atoms: C6_8  and  N2_10 
REMARK       I    between atoms: N3_13  and  C9_14 
REMARK    5  A    between atoms: C9_14  and  C10_16 
REMARK    6  A    between atoms: C17_23  and  C18_24 
REMARK    7  A    between atoms: C19_27  and  C20_29 
REMARK    8  A    between atoms: C20_29  and  C21_30 
REMARK    9  A    between atoms: C20_29  and  C22_32 
REMARK   10  A    between atoms: C22_32  and  C23_33 
REMARK   11  A    between atoms: C22_32  and  C27_40 
REMARK   12  A    between atoms: C23_33  and  C24_34 
REMARK   13  A    between atoms: C24_34  and  S1_35 
REMARK   14  A    between atoms: S1_35  and  C25_36 
REMARK   15  A    between atoms: C25_36  and  C26_37 
REMARK   16  A    between atoms: C26_37  and  O7_38 
REMARK   17  A    between atoms: C27_40  and  C28_41 
ROOT
HETATM    1  C5  UNL     1      -1.183  -1.735   1.554  1.00  0.00     0.160 C 
ENDROOT
BRANCH   1   2
HETATM    2  C3  UNL     1      -0.982  -3.027   2.219  1.00  0.00     0.011 C 
HETATM    3  C4  UNL     1       0.347  -3.136   2.984  1.00  0.00     0.012 C 
BRANCH   2   4
HETATM    4  C2  UNL     1      -2.009  -3.778   2.925  1.00  0.00     0.002 C 
HETATM    5  C1  UNL     1      -2.273  -3.408   4.359  1.00  0.00     0.005 C 
ENDBRANCH   2   4
ENDBRANCH   1   2
BRANCH   1   6
HETATM    6  N1  UNL     1       0.142  -1.302   0.997  1.00  0.00    -0.331 N 
HETATM    7  C6  UNL     1       0.381  -1.165  -0.388  1.00  0.00     0.319 C 
HETATM    8  O1  UNL     1      -0.522  -1.405  -1.254  1.00  0.00    -0.247 OA
HETATM    9  N2  UNL     1       1.641  -0.752  -0.895  1.00  0.00    -0.316 N 
HETATM   10  C7  UNL     1       1.816  -0.601  -2.320  1.00  0.00     0.148 C 
HETATM   11  C17 UNL     1       2.778  -0.474  -0.051  1.00  0.00     0.207 C 
HETATM   12  C8  UNL     1       2.689   0.623  -2.598  1.00  0.00     0.145 C 
HETATM   13  N3  UNL     1       3.982   0.477  -1.953  1.00  0.00    -0.348 N 
HETATM   14  C9  UNL     1       5.069   1.254  -2.430  1.00  0.00     0.224 C 
HETATM   15  C16 UNL     1       4.062  -0.439  -0.859  1.00  0.00     0.162 C 
HETATM   16  O2  UNL     1       4.927   2.086  -3.370  1.00  0.00    -0.273 OA
ATOM     17  H1  UNL     1       0.902  -1.098   1.646  1.00  0.00     0.165 HD
BRANCH  14  18
HETATM   18  C10 UNL     1       6.443   1.125  -1.846  1.00  0.00     0.078 C 
HETATM   19  C11 UNL     1       7.288   2.276  -2.298  1.00  0.00     0.014 C 
HETATM   20  C12 UNL     1       8.763   2.048  -2.080  1.00  0.00     0.001 C 
HETATM   21  C13 UNL     1       9.112   0.893  -3.022  1.00  0.00     0.000 C 
HETATM   22  C14 UNL     1       8.440  -0.321  -2.484  1.00  0.00     0.001 C 
HETATM   23  C15 UNL     1       6.996  -0.219  -2.175  1.00  0.00     0.014 C 
ENDBRANCH  14  18
BRANCH  11  24
HETATM   24  C18 UNL     1       2.651   0.762   0.714  1.00  0.00     0.198 C 
HETATM   25  O3  UNL     1       1.628   1.470   0.606  1.00  0.00    -0.646 OA
HETATM   26  O4  UNL     1       3.655   1.166   1.564  1.00  0.00    -0.646 OA
ENDBRANCH  11  24
ENDBRANCH   1   6
BRANCH   1  27
HETATM   27  C19 UNL     1      -1.815  -0.618   2.233  1.00  0.00     0.161 C 
HETATM   28  O5  UNL     1      -1.065   0.312   2.586  1.00  0.00    -0.295 OA
BRANCH  27  29
HETATM   29  C20 UNL     1      -3.218  -0.468   2.532  1.00  0.00     0.126 C 
BRANCH  29  30
HETATM   30  C21 UNL     1      -3.502   0.773   3.284  1.00  0.00     0.244 C 
HETATM   31  O6  UNL     1      -2.817   1.790   3.252  1.00  0.00    -0.306 OA
ENDBRANCH  29  30
BRANCH  29  32
HETATM   32  C22 UNL     1      -4.101  -0.470   1.184  1.00  0.00     0.027 C 
BRANCH  32  33
HETATM   33  C23 UNL     1      -5.449  -0.331   1.738  1.00  0.00    -0.014 C 
BRANCH  33  34
HETATM   34  C24 UNL     1      -6.700  -0.378   0.991  1.00  0.00     0.041 C 
BRANCH  34  35
HETATM   35  S1  UNL     1      -7.161   0.794  -0.220  1.00  0.00    -0.140 SA
BRANCH  35  36
HETATM   36  C25 UNL     1      -7.467   2.466   0.340  1.00  0.00     0.104 C 
BRANCH  36  37
HETATM   37  C26 UNL     1      -7.863   3.284  -0.893  1.00  0.00     0.174 C 
BRANCH  37  38
HETATM   38  O7  UNL     1      -8.113   4.593  -0.530  1.00  0.00    -0.400 OA
ATOM     39  H7  UNL     1      -8.359   5.100  -1.295  1.00  0.00     0.209 HD
ENDBRANCH  37  38
ENDBRANCH  36  37
ENDBRANCH  35  36
ENDBRANCH  34  35
ENDBRANCH  33  34
ENDBRANCH  32  33
BRANCH  32  40
HETATM   40  C27 UNL     1      -3.420   0.527   0.373  1.00  0.00     0.013 C 
BRANCH  40  41
HETATM   41  C28 UNL     1      -3.797   0.901  -0.992  1.00  0.00    -0.022 C 
HETATM   42  C29 UNL     1      -3.832  -0.209  -1.999  1.00  0.00     0.009 C 
HETATM   43  C30 UNL     1      -2.608   1.809  -1.564  1.00  0.00     0.009 C 
ENDBRANCH  40  41
ENDBRANCH  32  40
ENDBRANCH  29  32
ENDBRANCH  27  29
ENDBRANCH   1  27
TORSDOF 17
