REMARK  12 active torsions:
REMARK  status: ('A' for Active; 'I' for Inactive)
REMARK    1  A    between atoms: C2_2  and  C3_3 
REMARK    2  A    between atoms: C5_5  and  O1_6 
REMARK    3  A    between atoms: C6_8  and  O2_9 
REMARK    4  A    between atoms: O2_9  and  C7_10 
REMARK    5  A    between atoms: C7_10  and  C8_12 
REMARK    6  A    between atoms: C8_12  and  C9_13 
REMARK    7  A    between atoms: C9_13  and  C10_14 
REMARK    8  A    between atoms: C10_14  and  C11_15 
REMARK    9  A    between atoms: C20_26  and  C21_27 
REMARK   10  A    between atoms: C20_26  and  C25_31 
REMARK   11  A    between atoms: C22_28  and  C23_29 
REMARK   12  A    between atoms: C26_34  and  C27_35 
ROOT
HETATM    1  C3  UNL     1       1.924  -1.874  -1.425  1.00  0.00     0.005 C 
HETATM    2  C4  UNL     1       2.381  -3.303  -1.077  1.00  0.00     0.022 C 
HETATM    3  C5  UNL     1       3.066  -0.965  -1.112  1.00  0.00     0.160 C 
HETATM    4  C6  UNL     1       3.050  -0.285   0.193  1.00  0.00     0.162 C 
HETATM    5  C12 UNL     1       1.826  -0.581   1.058  1.00  0.00     0.041 C 
HETATM    6  C13 UNL     1       0.649  -0.332   0.148  1.00  0.00     0.010 C 
HETATM    7  C14 UNL     1       0.623  -1.546  -0.768  1.00  0.00     0.005 C 
HETATM    8  C15 UNL     1      -0.552  -1.508  -1.672  1.00  0.00     0.007 C 
HETATM    9  C16 UNL     1      -1.272  -0.166  -1.611  1.00  0.00     0.015 C 
HETATM   10  C17 UNL     1      -1.673   0.345  -0.295  1.00  0.00    -0.004 C 
HETATM   11  C18 UNL     1      -1.320   1.846  -0.474  1.00  0.00     0.021 C 
HETATM   12  C19 UNL     1      -2.996   0.253   0.270  1.00  0.00    -0.042 C 
HETATM   13  C20 UNL     1      -4.129  -0.434  -0.008  1.00  0.00     0.044 C 
HETATM   14  C26 UNL     1      -3.177   1.214   1.434  1.00  0.00     0.085 C 
HETATM   15  C28 UNL     1      -2.077   1.063   2.456  1.00  0.00     0.095 C 
HETATM   16  C29 UNL     1      -0.750   0.816   1.868  1.00  0.00     0.137 C 
HETATM   17  O9  UNL     1       0.135   1.462   2.360  1.00  0.00    -0.297 OA
HETATM   18  C30 UNL     1      -0.653  -0.161   0.775  1.00  0.00     0.032 C 
HETATM   19  C31 UNL     1      -1.101  -1.452   1.397  1.00  0.00     0.025 C 
ENDROOT
BRANCH   4  20
HETATM   20  O2  UNL     1       4.246  -0.378   0.925  1.00  0.00    -0.313 OA
BRANCH  20  21
HETATM   21  C7  UNL     1       5.036   0.711   1.289  1.00  0.00     0.259 C 
HETATM   22  O3  UNL     1       4.608   1.801   0.919  1.00  0.00    -0.265 OA
BRANCH  21  23
HETATM   23  C8  UNL     1       6.238   0.444   2.041  1.00  0.00     0.111 C 
BRANCH  23  24
HETATM   24  C9  UNL     1       7.296   1.454   2.164  1.00  0.00     0.020 C 
BRANCH  24  25
HETATM   25  C10 UNL     1       8.063   1.794   0.942  1.00  0.00     0.113 C 
BRANCH  25  26
HETATM   26  C11 UNL     1       7.375   2.329  -0.221  1.00  0.00     0.172 C 
HETATM   27  O4  UNL     1       7.053   1.564  -1.198  1.00  0.00    -0.648 OA
HETATM   28  O5  UNL     1       7.072   3.695  -0.259  1.00  0.00    -0.648 OA
ENDBRANCH  25  26
ENDBRANCH  24  25
ENDBRANCH  23  24
ENDBRANCH  21  23
ENDBRANCH  20  21
ENDBRANCH   4  20
BRANCH   3  29
HETATM   29  O1  UNL     1       4.270  -1.717  -1.176  1.00  0.00    -0.392 OA
ATOM     30  H1  UNL     1       4.997  -1.139  -0.977  1.00  0.00     0.210 HD
ENDBRANCH   3  29
BRANCH   1  31
HETATM   31  C2  UNL     1       1.838  -1.905  -2.919  1.00  0.00    -0.025 C 
HETATM   32  C1  UNL     1       2.061  -2.923  -3.695  1.00  0.00     0.008 C 
ENDBRANCH   1  31
BRANCH  13  33
HETATM   33  C21 UNL     1      -5.356  -0.274   0.869  1.00  0.00     0.014 C 
HETATM   34  C22 UNL     1      -6.472   0.548   0.524  1.00  0.00    -0.026 C 
BRANCH  34  35
HETATM   35  C23 UNL     1      -7.319   0.419  -0.674  1.00  0.00     0.022 C 
HETATM   36  C24 UNL     1      -8.370   1.565  -0.606  1.00  0.00     0.009 C 
ENDBRANCH  34  35
ENDBRANCH  13  33
BRANCH  13  37
HETATM   37  C25 UNL     1      -4.415  -1.316  -1.101  1.00  0.00     0.209 C 
HETATM   38  O6  UNL     1      -3.854  -1.686  -2.116  1.00  0.00    -0.644 OA
HETATM   39  O7  UNL     1      -5.705  -1.992  -1.034  1.00  0.00    -0.644 OA
ENDBRANCH  13  37
BRANCH  14  40
HETATM   40  C27 UNL     1      -3.346   2.642   1.087  1.00  0.00     0.240 C 
HETATM   41  O8  UNL     1      -4.057   3.179   0.306  1.00  0.00    -0.306 OA
ENDBRANCH  14  40
TORSDOF 12
