REMARK  14 active torsions:
REMARK  status: ('A' for Active; 'I' for Inactive)
REMARK    1  A    between atoms: C2_2  and  O1_3 
REMARK    2  A    between atoms: O1_3  and  C3_4 
REMARK    3  A    between atoms: C3_4  and  C4_5 
REMARK    4  A    between atoms: C4_5  and  C5_6 
REMARK    5  A    between atoms: C5_6  and  N1_7 
REMARK    6  A    between atoms: C6_14  and  S1_15 
REMARK    7  A    between atoms: S1_15  and  C7_16 
REMARK    8  A    between atoms: C7_16  and  C8_17 
REMARK    9  A    between atoms: C8_17  and  C9_18 
REMARK   10  A    between atoms: C9_18  and  C10_19 
REMARK   11  A    between atoms: C10_19  and  C11_20 
REMARK   12  A    between atoms: C19_28  and  C20_29 
REMARK   13  A    between atoms: C20_29  and  O2_30 
REMARK   14  A    between atoms: C20_29  and  C21_32 
ROOT
HETATM    1  C11 UNL     1      -0.918   0.446  -2.946  1.00  0.00    -0.039 C 
HETATM    2  C12 UNL     1      -0.261  -0.497  -3.905  1.00  0.00     0.015 C 
HETATM    3  C13 UNL     1      -1.985   1.183  -3.758  1.00  0.00     0.014 C 
HETATM    4  C14 UNL     1      -3.327   0.856  -3.162  1.00  0.00    -0.013 C 
HETATM    5  C15 UNL     1      -3.581  -0.643  -3.163  1.00  0.00     0.010 C 
HETATM    6  C16 UNL     1      -2.486  -1.379  -2.422  1.00  0.00    -0.009 C 
HETATM    7  C17 UNL     1      -3.037  -2.289  -1.343  1.00  0.00     0.005 C 
HETATM    8  C18 UNL     1      -2.788  -1.678   0.045  1.00  0.00     0.008 C 
HETATM    9  C19 UNL     1      -3.296  -0.280  -0.028  1.00  0.00     0.023 C 
HETATM   10  C27 UNL     1      -2.403   0.570  -0.950  1.00  0.00    -0.002 C 
HETATM   11  C28 UNL     1      -3.361   1.425  -1.768  1.00  0.00     0.010 C 
HETATM   12  C29 UNL     1      -1.571  -0.343  -1.823  1.00  0.00     0.002 C 
ENDROOT
BRANCH   1  13
HETATM   13  C10 UNL     1       0.029   1.450  -2.418  1.00  0.00     0.010 C 
BRANCH  13  14
HETATM   14  C9  UNL     1       1.208   1.060  -1.623  1.00  0.00     0.002 C 
BRANCH  14  15
HETATM   15  C8  UNL     1       2.245   0.204  -2.191  1.00  0.00     0.010 C 
BRANCH  15  16
HETATM   16  C7  UNL     1       3.361  -0.078  -1.236  1.00  0.00     0.082 C 
BRANCH  16  17
HETATM   17  S1  UNL     1       4.342   1.225  -0.607  1.00  0.00    -0.091 SA
BRANCH  17  18
HETATM   18  C6  UNL     1       3.677   2.325   0.576  1.00  0.00     0.178 A 
HETATM   19  N1  UNL     1       3.698   2.055   1.928  1.00  0.00    -0.254 N 
HETATM   20  N2  UNL     1       3.183   3.066   2.601  1.00  0.00    -0.224 N 
HETATM   21  N3  UNL     1       2.825   3.991   1.732  1.00  0.00    -0.226 N 
ATOM     22  H2  UNL     1       3.080   3.122   3.614  1.00  0.00     0.210 HD
HETATM   23  N4  UNL     1       3.120   3.548   0.528  1.00  0.00    -0.263 N 
ATOM     24  H3  UNL     1       2.396   4.890   1.953  1.00  0.00     0.210 HD
ATOM     25  H4  UNL     1       2.948   4.067  -0.333  1.00  0.00     0.190 HD
BRANCH  19  26
HETATM   26  C5  UNL     1       4.195   0.864   2.586  1.00  0.00     0.155 C 
BRANCH  26  27
HETATM   27  C4  UNL     1       5.656   1.074   2.909  1.00  0.00     0.048 C 
BRANCH  27  28
HETATM   28  C3  UNL     1       6.273  -0.089   3.608  1.00  0.00     0.169 C 
BRANCH  28  29
HETATM   29  O1  UNL     1       6.251  -1.276   2.927  1.00  0.00    -0.391 OA
BRANCH  29  30
HETATM   30  C2  UNL     1       6.950  -1.165   1.740  1.00  0.00     0.163 C 
HETATM   31  C1  UNL     1       6.876  -2.508   1.044  1.00  0.00     0.033 C 
ENDBRANCH  29  30
ENDBRANCH  28  29
ENDBRANCH  27  28
ENDBRANCH  26  27
ENDBRANCH  19  26
ENDBRANCH  17  18
ENDBRANCH  16  17
ENDBRANCH  15  16
ENDBRANCH  14  15
ENDBRANCH  13  14
ENDBRANCH   1  13
BRANCH   9  32
HETATM   32  C20 UNL     1      -3.416   0.440   1.271  1.00  0.00     0.155 C 
BRANCH  32  33
HETATM   33  O2  UNL     1      -2.160   0.499   1.884  1.00  0.00    -0.391 OA
ATOM     34  H2  UNL     1      -2.237   0.958   2.712  1.00  0.00     0.210 HD
ENDBRANCH  32  33
BRANCH  32  35
HETATM   35  C21 UNL     1      -4.434  -0.073   2.183  1.00  0.00    -0.029 A 
HETATM   36  C22 UNL     1      -5.427  -0.949   1.817  1.00  0.00     0.010 A 
HETATM   37  C23 UNL     1      -6.365  -1.412   2.713  1.00  0.00     0.001 A 
HETATM   38  C24 UNL     1      -6.330  -0.998   4.025  1.00  0.00     0.000 A 
HETATM   39  C25 UNL     1      -5.335  -0.109   4.429  1.00  0.00     0.001 A 
HETATM   40  C26 UNL     1      -4.408   0.342   3.521  1.00  0.00     0.010 A 
ENDBRANCH  32  35
ENDBRANCH   9  32
TORSDOF 14
