REMARK  7 active torsions:
REMARK  status: ('A' for Active; 'I' for Inactive)
REMARK    1  A    between atoms: C2_2  and  C3_3 
REMARK    2  A    between atoms: C3_3  and  N1_4 
REMARK    3  A    between atoms: N1_4  and  C4_6 
REMARK    4  A    between atoms: C5_11  and  N4_12 
REMARK    5  A    between atoms: N4_12  and  C6_14 
REMARK    6  A    between atoms: C6_14  and  C7_15 
REMARK    7  A    between atoms: C7_15  and  N5_16 
ROOT
HETATM    1  C4  UNL     1       0.834  -0.541   0.509  1.00  0.00     0.707 A 
HETATM    2  N2  UNL     1       0.925   0.676   1.057  1.00  0.00    -0.117 N 
ATOM      3  H2  UNL     1       1.755   1.073   1.498  1.00  0.00     0.206 HD
HETATM    4  N3  UNL     1      -0.244   1.275   0.928  1.00  0.00    -0.117 N 
ATOM      5  H3  UNL     1      -0.464   2.215   1.256  1.00  0.00     0.206 HD
HETATM    6  C5  UNL     1      -1.097   0.456   0.299  1.00  0.00     0.707 A 
HETATM    7  N6  UNL     1      -0.417  -0.670   0.044  1.00  0.00    -0.020 N 
ATOM      8  H6  UNL     1      -0.791  -1.493  -0.428  1.00  0.00     0.203 HD
ENDROOT
BRANCH   6   9
HETATM    9  N4  UNL     1      -2.340   0.744   0.014  1.00  0.00    -0.223 N 
ATOM     10  H4  UNL     1      -2.751   1.644   0.263  1.00  0.00     0.177 HD
BRANCH   9  11
HETATM   11  C6  UNL     1      -3.106  -0.275  -0.672  1.00  0.00     0.165 C 
BRANCH  11  12
HETATM   12  C7  UNL     1      -4.380   0.296  -1.267  1.00  0.00     0.249 C 
BRANCH  12  13
HETATM   13  N5  UNL     1      -5.193   0.850  -0.215  1.00  0.00    -0.078 N 
ATOM     14  H53 UNL     1      -5.382   0.173   0.524  1.00  0.00     0.274 HD
ATOM     15  H52 UNL     1      -4.686   1.537   0.343  1.00  0.00     0.274 HD
ATOM     16  H51 UNL     1      -6.049   1.234  -0.615  1.00  0.00     0.274 HD
ENDBRANCH  12  13
ENDBRANCH  11  12
ENDBRANCH   9  11
ENDBRANCH   6   9
BRANCH   1  17
HETATM   17  N1  UNL     1       1.774  -1.410   0.448  1.00  0.00    -0.224 N 
ATOM     18  H1  UNL     1       1.584  -2.308   0.003  1.00  0.00     0.177 HD
BRANCH  17  19
HETATM   19  C3  UNL     1       3.073  -1.170   0.977  1.00  0.00     0.138 C 
BRANCH  19  20
HETATM   20  C2  UNL     1       4.113  -0.839  -0.062  1.00  0.00     0.016 C 
HETATM   21  C1  UNL     1       3.748   0.408  -0.843  1.00  0.00     0.006 C 
ENDBRANCH  19  20
ENDBRANCH  17  19
ENDBRANCH   1  17
TORSDOF 7
