REMARK  6 active torsions:
REMARK  status: ('A' for Active; 'I' for Inactive)
REMARK    1  A    between atoms: N1_1  and  C1_5 
REMARK    2  A    between atoms: N2_8  and  C4_9 
REMARK    3  A    between atoms: C7_12  and  C8_13 
REMARK    4  A    between atoms: C12_23  and  N6_24 
REMARK       I    between atoms: N6_24  and  C13_26 
REMARK    5  A    between atoms: C13_26  and  C14_28 
REMARK    6  A    between atoms: C17_31  and  C18_32 
ROOT
HETATM    1  C4  UNL     1      -2.607  -0.786   0.403  1.00  0.00     0.075 A 
HETATM    2  C5  UNL     1      -3.019   0.056   1.447  1.00  0.00     0.036 A 
HETATM    3  C6  UNL     1      -2.112   0.908   2.021  1.00  0.00     0.036 A 
HETATM    4  C7  UNL     1      -0.810   0.912   1.547  1.00  0.00     0.078 A 
HETATM    5  N5  UNL     1      -0.457   0.090   0.546  1.00  0.00    -0.338 N 
ATOM      6  H5  UNL     1       0.510   0.122   0.224  1.00  0.00     0.167 HD
HETATM    7  C12 UNL     1      -1.286  -0.767  -0.058  1.00  0.00     0.135 A 
ENDROOT
BRANCH   7   8
HETATM    8  N6  UNL     1      -0.889  -1.650  -1.059  1.00  0.00    -0.307 N 
HETATM    9  C13 UNL     1       0.378  -1.698  -1.626  1.00  0.00     0.257 C 
HETATM   10  O1  UNL     1       0.552  -2.623  -2.509  1.00  0.00    -0.267 OA
ATOM     11  H6  UNL     1      -1.583  -2.314  -1.403  1.00  0.00     0.170 HD
BRANCH   9  12
HETATM   12  C14 UNL     1       1.499  -0.817  -1.321  1.00  0.00     0.032 A 
HETATM   13  C15 UNL     1       2.548  -1.200  -0.511  1.00  0.00     0.018 A 
HETATM   14  C16 UNL     1       3.635  -0.384  -0.267  1.00  0.00     0.013 A 
HETATM   15  C17 UNL     1       3.718   0.871  -0.834  1.00  0.00    -0.026 A 
HETATM   16  C24 UNL     1       2.670   1.259  -1.644  1.00  0.00     0.013 A 
HETATM   17  C25 UNL     1       1.584   0.443  -1.887  1.00  0.00     0.018 A 
BRANCH  15  18
HETATM   18  C18 UNL     1       4.864   1.751  -0.589  1.00  0.00    -0.026 A 
HETATM   19  C19 UNL     1       4.746   3.119  -0.575  1.00  0.00     0.012 A 
HETATM   20  C20 UNL     1       5.851   3.904  -0.340  1.00  0.00     0.001 A 
HETATM   21  C21 UNL     1       7.096   3.346  -0.114  1.00  0.00     0.000 A 
HETATM   22  C22 UNL     1       7.210   1.975  -0.129  1.00  0.00     0.001 A 
HETATM   23  C23 UNL     1       6.104   1.199  -0.364  1.00  0.00     0.012 A 
ENDBRANCH  15  18
ENDBRANCH   9  12
ENDBRANCH   7   8
BRANCH   1  24
HETATM   24  N2  UNL     1      -3.540  -1.642  -0.225  1.00  0.00    -0.378 N 
HETATM   25  C3  UNL     1      -4.004  -1.310  -1.553  1.00  0.00     0.125 C 
HETATM   26  C2  UNL     1      -4.605  -2.545  -2.214  1.00  0.00     0.052 C 
HETATM   27  C1  UNL     1      -5.705  -3.166  -1.413  1.00  0.00     0.186 C 
HETATM   28  C27 UNL     1      -5.565  -2.839   0.054  1.00  0.00     0.052 C 
HETATM   29  C26 UNL     1      -4.076  -2.845   0.368  1.00  0.00     0.125 C 
BRANCH  27  30
HETATM   30  N1  UNL     1      -5.611  -4.628  -1.518  1.00  0.00    -0.075 N 
ATOM     31  H13 UNL     1      -5.609  -4.948  -2.487  1.00  0.00     0.274 HD
ATOM     32  H12 UNL     1      -4.691  -4.977  -1.249  1.00  0.00     0.274 HD
ATOM     33  H11 UNL     1      -6.361  -5.051  -0.972  1.00  0.00     0.274 HD
ENDBRANCH  27  30
ENDBRANCH   1  24
BRANCH   4  34
HETATM   34  C8  UNL     1       0.101   1.837   2.210  1.00  0.00     0.132 A 
HETATM   35  N3  UNL     1       1.394   1.958   1.881  1.00  0.00    -0.350 N 
HETATM   36  C9  UNL     1       2.252   2.799   2.473  1.00  0.00     0.091 A 
ATOM     37  H3  UNL     1       1.750   1.369   1.128  1.00  0.00     0.166 HD
HETATM   38  C10 UNL     1       1.814   3.612   3.495  1.00  0.00     0.034 A 
HETATM   39  C11 UNL     1       0.487   3.508   3.854  1.00  0.00     0.091 A 
HETATM   40  N4  UNL     1      -0.322   2.644   3.220  1.00  0.00    -0.350 N 
ATOM     41  H4  UNL     1      -1.299   2.590   3.509  1.00  0.00     0.166 HD
ENDBRANCH   4  34
TORSDOF 6
