REMARK  14 active torsions:
REMARK  status: ('A' for Active; 'I' for Inactive)
REMARK    1  A    between atoms: C2_2  and  O2_4 
REMARK    2  A    between atoms: O2_4  and  C3_5 
REMARK    3  A    between atoms: C3_5  and  C4_6 
REMARK    4  A    between atoms: C5_9  and  N2_10 
REMARK    5  A    between atoms: N2_10  and  N3_12 
REMARK    6  A    between atoms: C6_15  and  C7_16 
REMARK    7  A    between atoms: C7_16  and  N5_18 
REMARK    8  A    between atoms: N5_18  and  N6_20 
REMARK    9  A    between atoms: N6_20  and  C8_22 
REMARK   10  A    between atoms: N7_23  and  N8_25 
REMARK   11  A    between atoms: C11_32  and  O4_33 
REMARK   12  A    between atoms: C12_35  and  N11_36 
REMARK   13  A    between atoms: C14_38  and  N12_39 
REMARK   14  A    between atoms: C16_44  and  N13_45 
ROOT
HETATM    1  C4  UNL     1      -1.111   0.715  -1.071  1.00  0.00     0.086 C 
HETATM    2  N1  UNL     1       0.094   0.441  -1.713  1.00  0.00    -0.337 N 
ATOM      3  H1  UNL     1       0.055   0.343  -2.728  1.00  0.00     0.167 HD
HETATM    4  C5  UNL     1       1.322   0.289  -1.134  1.00  0.00     0.138 C 
HETATM    5  C6  UNL     1       1.670  -0.006   0.160  1.00  0.00     0.105 C 
HETATM    6  C10 UNL     1       0.858   0.280   1.265  1.00  0.00     0.224 C 
HETATM    7  O3  UNL     1       1.468   0.528   2.328  1.00  0.00    -0.284 OA
HETATM    8  C11 UNL     1      -0.519   0.307   1.265  1.00  0.00     0.146 C 
HETATM    9  C12 UNL     1      -1.414   0.264   0.175  1.00  0.00     0.097 C 
ENDROOT
BRANCH   5  10
HETATM   10  C7  UNL     1       2.822  -0.599   0.404  1.00  0.00     0.149 C 
HETATM   11  N4  UNL     1       3.675  -0.919  -0.680  1.00  0.00    -0.080 NA
BRANCH  10  12
HETATM   12  N5  UNL     1       3.219  -0.926   1.740  1.00  0.00    -0.286 N 
ATOM     13  H5  UNL     1       2.678  -1.596   2.287  1.00  0.00     0.188 HD
BRANCH  12  14
HETATM   14  N6  UNL     1       4.340  -0.329   2.284  1.00  0.00    -0.294 N 
ATOM     15  H6  UNL     1       4.429   0.686   2.241  1.00  0.00     0.187 HD
BRANCH  14  16
HETATM   16  C8  UNL     1       5.376  -1.086   2.903  1.00  0.00     0.214 C 
HETATM   17  N7  UNL     1       6.608  -0.935   2.546  1.00  0.00    -0.293 N 
ATOM     18  H7  UNL     1       7.339  -1.484   2.999  1.00  0.00     0.187 HD
BRANCH  17  19
HETATM   19  N8  UNL     1       6.940  -0.031   1.551  1.00  0.00    -0.275 N 
HETATM   20  C9  UNL     1       7.810  -0.308   0.624  1.00  0.00     0.215 C 
HETATM   21  N9  UNL     1       8.121   0.645  -0.375  1.00  0.00    -0.065 NA
HETATM   22  N10 UNL     1       8.461  -1.570   0.597  1.00  0.00    -0.065 NA
ATOM     23  H8  UNL     1       6.487   0.883   1.545  1.00  0.00     0.189 HD
ENDBRANCH  17  19
ENDBRANCH  14  16
ENDBRANCH  12  14
ENDBRANCH  10  12
ENDBRANCH   5  10
BRANCH   4  24
HETATM   24  N2  UNL     1       2.332   0.454  -1.933  1.00  0.00    -0.291 N 
ATOM     25  H2  UNL     1       3.277   0.354  -1.562  1.00  0.00     0.188 HD
BRANCH  24  26
HETATM   26  N3  UNL     1       2.166   0.764  -3.284  1.00  0.00    -0.344 N 
ATOM     27  H32 UNL     1       1.215   0.860  -3.639  1.00  0.00     0.176 HD
ATOM     28  H31 UNL     1       2.959   0.894  -3.912  1.00  0.00     0.176 HD
ENDBRANCH  24  26
ENDBRANCH   4  24
BRANCH   8  29
HETATM   29  O4  UNL     1      -1.116   0.387   2.506  1.00  0.00    -0.355 OA
ATOM     30  H4  UNL     1      -2.066   0.406   2.506  1.00  0.00     0.218 HD
ENDBRANCH   8  29
BRANCH   1  31
HETATM   31  C3  UNL     1      -1.936   1.358  -1.789  1.00  0.00     0.177 C 
BRANCH  31  32
HETATM   32  O2  UNL     1      -3.195   1.863  -1.642  1.00  0.00    -0.289 OA
BRANCH  32  33
HETATM   33  C2  UNL     1      -3.434   3.216  -1.367  1.00  0.00     0.259 C 
HETATM   34  C1  UNL     1      -4.784   3.799  -1.201  1.00  0.00     0.126 C 
HETATM   35  O1  UNL     1      -2.429   3.951  -1.261  1.00  0.00    -0.265 OA
ENDBRANCH  32  33
ENDBRANCH  31  32
ENDBRANCH   1  31
BRANCH   9  36
HETATM   36  N11 UNL     1      -2.655  -0.305   0.498  1.00  0.00    -0.373 N 
HETATM   37  C13 UNL     1      -3.684   0.441   1.150  1.00  0.00     0.155 C 
HETATM   38  C14 UNL     1      -5.027  -0.111   0.685  1.00  0.00     0.203 C 
HETATM   39  C15 UNL     1      -5.083  -1.518   1.242  1.00  0.00     0.068 C 
HETATM   40  C16 UNL     1      -4.070  -2.352   0.545  1.00  0.00     0.203 C 
HETATM   41  C17 UNL     1      -2.822  -1.699   0.124  1.00  0.00     0.155 C 
BRANCH  38  42
HETATM   42  N12 UNL     1      -6.123   0.707   1.144  1.00  0.00    -0.073 N 
ATOM     43 3H12 UNL     1      -6.100   0.828   2.157  1.00  0.00     0.274 HD
ATOM     44 2H12 UNL     1      -6.004   1.681   0.866  1.00  0.00     0.274 HD
ATOM     45 1H12 UNL     1      -7.021   0.338   0.833  1.00  0.00     0.274 HD
ENDBRANCH  38  42
BRANCH  40  46
HETATM   46  N13 UNL     1      -4.757  -3.003  -0.584  1.00  0.00    -0.073 N 
ATOM     47 3H13 UNL     1      -5.585  -3.528  -0.302  1.00  0.00     0.274 HD
ATOM     48 2H13 UNL     1      -5.228  -2.343  -1.202  1.00  0.00     0.274 HD
ATOM     49 1H13 UNL     1      -4.062  -3.576  -1.062  1.00  0.00     0.274 HD
ENDBRANCH  40  46
ENDBRANCH   9  36
TORSDOF 14
