REMARK  7 active torsions:
REMARK  status: ('A' for Active; 'I' for Inactive)
REMARK    1  A    between atoms: N1_1  and  C1_4 
REMARK    2  A    between atoms: C2_7  and  N3_8 
REMARK    3  A    between atoms: C4_10  and  N4_11 
REMARK    4  A    between atoms: N5_16  and  N6_17 
REMARK    5  A    between atoms: N7_19  and  C6_21 
REMARK    6  A    between atoms: N9_27  and  N10_28 
REMARK    7  A    between atoms: C10_35  and  N13_36 
ROOT
HETATM    1  N3  UNL     1      -0.813   1.408  -0.152  1.00  0.00    -0.104 N 
HETATM    2  C3  UNL     1      -1.175   2.738  -0.547  1.00  0.00     0.204 C 
HETATM    3  C4  UNL     1       0.072   3.536  -0.304  1.00  0.00     0.225 C 
HETATM    4  C5  UNL     1       1.147   2.533  -0.708  1.00  0.00     0.206 C 
HETATM    5  N5  UNL     1       0.571   1.327  -0.114  1.00  0.00    -0.201 N 
ENDROOT
BRANCH   1   6
HETATM    6  C2  UNL     1      -1.746   0.360   0.149  1.00  0.00     0.703 A 
HETATM    7  N2  UNL     1      -1.850  -0.200   1.365  1.00  0.00    -0.173 N 
HETATM    8  C1  UNL     1      -2.741  -1.185   1.631  1.00  0.00     0.151 A 
ATOM      9  H2  UNL     1      -1.238   0.127   2.113  1.00  0.00     0.186 HD
HETATM   10  C10 UNL     1      -3.562  -1.623   0.627  1.00  0.00     0.188 A 
HETATM   11  C9  UNL     1      -3.454  -1.040  -0.637  1.00  0.00     0.168 A 
HETATM   12  N11 UNL     1      -2.551  -0.067  -0.841  1.00  0.00    -0.174 N 
HETATM   13  N12 UNL     1      -4.291  -1.460  -1.705  1.00  0.00    -0.079 NA
ATOM     14  H11 UNL     1      -2.474   0.357  -1.765  1.00  0.00     0.185 HD
BRANCH   8  15
HETATM   15  N1  UNL     1      -2.818  -1.706   2.810  1.00  0.00    -0.383 N 
ATOM     16  H12 UNL     1      -2.206  -1.380   3.558  1.00  0.00     0.157 HD
ATOM     17  H11 UNL     1      -3.489  -2.448   3.010  1.00  0.00     0.157 HD
ENDBRANCH   8  15
BRANCH  10  18
HETATM   18  N13 UNL     1      -4.518  -2.653   0.810  1.00  0.00    -0.108 N 
HETATM   19  O2  UNL     1      -4.103  -3.820   0.920  1.00  0.00    -0.532 OA
HETATM   20  O3  UNL     1      -5.865  -2.421   0.874  1.00  0.00    -0.532 OA
ENDBRANCH  10  18
ENDBRANCH   1   6
BRANCH   5  21
HETATM   21  N6  UNL     1       1.334   0.261   0.415  1.00  0.00    -0.224 N 
HETATM   22  N7  UNL     1       2.536   0.104   0.036  1.00  0.00    -0.267 N 
ATOM     23  H7  UNL     1       2.922   0.756  -0.647  1.00  0.00     0.190 HD
ATOM     24  H6  UNL     1       0.922  -0.377   1.096  1.00  0.00     0.210 HD
BRANCH  22  25
HETATM   25  C6  UNL     1       3.360  -0.934   0.520  1.00  0.00     0.163 A 
HETATM   26  C7  UNL     1       3.559  -1.325   1.847  1.00  0.00     0.144 A 
HETATM   27  N8  UNL     1       4.426  -2.358   1.874  1.00  0.00    -0.314 N 
HETATM   28  C8  UNL     1       4.775  -2.626   0.608  1.00  0.00     0.346 A 
ATOM     29  H8  UNL     1       4.756  -2.846   2.706  1.00  0.00     0.170 HD
HETATM   30  O1  UNL     1       5.584  -3.547   0.264  1.00  0.00    -0.245 OA
HETATM   31  N9  UNL     1       4.131  -1.768  -0.207  1.00  0.00    -0.193 N 
BRANCH  31  32
HETATM   32  N10 UNL     1       4.225  -1.727  -1.581  1.00  0.00    -0.333 N 
ATOM     33 2H10 UNL     1       3.737  -1.077  -2.198  1.00  0.00     0.177 HD
ATOM     34 1H10 UNL     1       4.808  -2.358  -2.131  1.00  0.00     0.177 HD
ENDBRANCH  31  32
ENDBRANCH  22  25
ENDBRANCH   5  21
BRANCH   3  35
HETATM   35  N4  UNL     1       0.136   4.731  -1.121  1.00  0.00    -0.072 N 
ATOM     36  H43 UNL     1       0.032   4.505  -2.110  1.00  0.00     0.274 HD
ATOM     37  H42 UNL     1      -0.697   5.306  -0.996  1.00  0.00     0.274 HD
ATOM     38  H41 UNL     1       0.984   5.274  -0.956  1.00  0.00     0.274 HD
ENDBRANCH   3  35
TORSDOF 7
