REMARK  9 active torsions:
REMARK  status: ('A' for Active; 'I' for Inactive)
REMARK    1  A    between atoms: S1_2  and  C2_5 
REMARK    2  A    between atoms: C3_10  and  S2_11 
REMARK    3  A    between atoms: S2_11  and  C4_12 
REMARK    4  A    between atoms: C4_12  and  O3_18 
REMARK    5  A    between atoms: N3_13  and  N4_15 
REMARK    6  A    between atoms: O3_18  and  C5_19 
REMARK    7  A    between atoms: C5_19  and  N6_23 
REMARK    8  A    between atoms: N6_23  and  C6_25 
REMARK    9  A    between atoms: C7_31  and  N10_32 
ROOT
HETATM    1  C4  UNL     1      -0.682  -0.117   0.230  1.00  0.00     0.212 C 
HETATM    2  N3  UNL     1      -0.316   0.278   1.360  1.00  0.00    -0.280 N 
ATOM      3  H3  UNL     1       0.693   0.244   1.504  1.00  0.00     0.189 HD
ENDROOT
BRANCH   1   4
HETATM    4  S2  UNL     1       0.519  -0.699  -1.005  1.00  0.00    -0.007 SA
BRANCH   4   5
HETATM    5  C3  UNL     1       2.165  -0.596  -0.320  1.00  0.00     0.169 A 
HETATM    6  N2  UNL     1       2.577  -0.182   0.877  1.00  0.00    -0.277 N 
HETATM    7  N1  UNL     1       3.900  -0.276   0.961  1.00  0.00    -0.274 N 
ATOM      8  H2  UNL     1       1.967   0.157   1.620  1.00  0.00     0.189 HD
HETATM    9  C2  UNL     1       4.361  -0.769  -0.226  1.00  0.00     0.219 A 
ATOM     10  H1  UNL     1       4.470  -0.025   1.769  1.00  0.00     0.189 HD
HETATM   11  N11 UNL     1       3.263  -0.956  -0.995  1.00  0.00    -0.311 N 
ATOM     12  H11 UNL     1       3.271  -1.318  -1.949  1.00  0.00     0.170 HD
BRANCH   9  13
HETATM   13  S1  UNL     1       6.037  -1.085  -0.639  1.00  0.00     0.204 S 
HETATM   14  C1  UNL     1       6.943   0.438  -0.524  1.00  0.00     0.170 C 
HETATM   15  O1  UNL     1       6.068  -1.509  -2.082  1.00  0.00    -0.220 OA
HETATM   16  O2  UNL     1       6.588  -2.131   0.262  1.00  0.00    -0.220 OA
ENDBRANCH   9  13
ENDBRANCH   4   5
ENDBRANCH   1   4
BRANCH   1  17
HETATM   17  O3  UNL     1      -2.040  -0.104  -0.076  1.00  0.00    -0.254 OA
BRANCH  17  18
HETATM   18  C5  UNL     1      -2.838   0.990   0.281  1.00  0.00     0.221 C 
HETATM   19  N5  UNL     1      -2.307   2.159   0.228  1.00  0.00    -0.365 N 
ATOM     20  H52 UNL     1      -1.335   2.257  -0.066  1.00  0.00     0.159 HD
ATOM     21  H51 UNL     1      -2.888   2.956   0.488  1.00  0.00     0.159 HD
BRANCH  18  22
HETATM   22  N6  UNL     1      -4.203   0.853   0.694  1.00  0.00    -0.330 N 
ATOM     23  H6  UNL     1      -4.581   1.482   1.403  1.00  0.00     0.165 HD
BRANCH  22  24
HETATM   24  C6  UNL     1      -5.048  -0.163   0.120  1.00  0.00     0.270 A 
HETATM   25  N7  UNL     1      -4.487  -1.479   0.212  1.00  0.00    -0.092 NA
HETATM   26  N8  UNL     1      -4.392  -1.993  -1.064  1.00  0.00    -0.243 N 
HETATM   27  N9  UNL     1      -4.736  -1.158  -1.933  1.00  0.00    -0.275 N 
ATOM     28  H8  UNL     1      -4.079  -2.940  -1.276  1.00  0.00     0.204 HD
HETATM   29  C7  UNL     1      -5.124   0.078  -1.332  1.00  0.00     0.131 A 
ATOM     30  H9  UNL     1      -4.739  -1.338  -2.937  1.00  0.00     0.189 HD
BRANCH  29  31
HETATM   31  N10 UNL     1      -5.467   1.171  -1.918  1.00  0.00    -0.385 N 
ATOM     32 2H10 UNL     1      -5.744   2.054  -1.489  1.00  0.00     0.157 HD
ATOM     33 1H10 UNL     1      -5.520   1.338  -2.923  1.00  0.00     0.157 HD
ENDBRANCH  29  31
ENDBRANCH  22  24
ENDBRANCH  18  22
ENDBRANCH  17  18
ENDBRANCH   1  17
BRANCH   2  34
HETATM   34  N4  UNL     1      -1.011   0.743   2.429  1.00  0.00    -0.343 N 
ATOM     35  H42 UNL     1      -2.017   0.769   2.264  1.00  0.00     0.176 HD
ATOM     36  H41 UNL     1      -0.713   1.065   3.350  1.00  0.00     0.176 HD
ENDBRANCH   2  34
TORSDOF 9
