REMARK  3 active torsions:
REMARK  status: ('A' for Active; 'I' for Inactive)
REMARK    1  A    between atoms: N1_1  and  C1_5 
REMARK    2  A    between atoms: C1_5  and  C2_6 
REMARK    3  A    between atoms: C2_6  and  N2_7 
ROOT
HETATM    1  N2  UNL     1       0.513  -0.347  -0.443  1.00  0.00    -0.250 N 
HETATM    2  N3  UNL     1       1.126   0.642  -1.092  1.00  0.00    -0.004 NA
HETATM    3  N4  UNL     1       2.279   0.916  -0.509  1.00  0.00    -0.006 NA
HETATM    4  N5  UNL     1       2.417   0.102   0.523  1.00  0.00    -0.261 N 
ATOM      5  H5  UNL     1       3.208   0.075   1.166  1.00  0.00     0.186 HD
HETATM    6  C3  UNL     1       1.335  -0.679   0.572  1.00  0.00     0.204 A 
HETATM    7  S1  UNL     1       0.992  -1.864   1.652  1.00  0.00    -0.038 SA
ENDROOT
BRANCH   1   8
HETATM    8  C2  UNL     1      -0.775  -0.929  -0.780  1.00  0.00     0.176 C 
BRANCH   8   9
HETATM    9  C1  UNL     1      -1.917  -0.209  -0.080  1.00  0.00     0.251 C 
BRANCH   9  10
HETATM   10  N1  UNL     1      -1.951   1.179  -0.457  1.00  0.00    -0.078 N 
ATOM     11  H13 UNL     1      -1.056   1.638  -0.289  1.00  0.00     0.274 HD
ATOM     12  H12 UNL     1      -1.996   1.295  -1.469  1.00  0.00     0.274 HD
ATOM     13  H11 UNL     1      -2.717   1.662   0.013  1.00  0.00     0.274 HD
ENDBRANCH   9  10
ENDBRANCH   8   9
ENDBRANCH   1   8
TORSDOF 3
