REMARK  6 active torsions:
REMARK  status: ('A' for Active; 'I' for Inactive)
REMARK       I    between atoms: C2_2  and  N1_4 
REMARK    1  A    between atoms: N1_4  and  C3_6 
REMARK    2  A    between atoms: C4_7  and  O2_8 
REMARK    3  A    between atoms: C5_10  and  C6_11 
REMARK    4  A    between atoms: C6_11  and  O4_13 
REMARK    5  A    between atoms: O4_13  and  C7_14 
REMARK    6  A    between atoms: C12_21  and  O6_22 
ROOT
HETATM    1  C3  UNL     1       1.775   0.201  -0.680  1.00  0.00     0.121 A 
HETATM    2  C4  UNL     1       0.425   0.255  -0.290  1.00  0.00     0.118 A 
HETATM    3  C5  UNL     1      -0.343  -0.881  -0.276  1.00  0.00     0.143 A 
HETATM    4  C10 UNL     1       0.294  -2.065  -0.665  1.00  0.00     0.268 A 
HETATM    5  O5  UNL     1      -0.424  -3.115  -0.649  1.00  0.00    -0.267 OA
HETATM    6  N2  UNL     1       1.579  -2.129  -1.038  1.00  0.00    -0.296 N 
HETATM    7  C11 UNL     1       2.186  -3.385  -1.432  1.00  0.00     0.161 C 
HETATM    8  C12 UNL     1       2.324  -1.000  -1.047  1.00  0.00     0.175 A 
ENDROOT
BRANCH   3   9
HETATM    9  C6  UNL     1      -1.753  -0.916   0.115  1.00  0.00     0.302 C 
HETATM   10  O3  UNL     1      -2.382  -2.034   0.093  1.00  0.00    -0.259 OA
BRANCH   9  11
HETATM   11  O4  UNL     1      -2.504   0.150   0.515  1.00  0.00    -0.313 OA
BRANCH  11  12
HETATM   12  C7  UNL     1      -3.854   0.098   0.886  1.00  0.00     0.124 C 
HETATM   13  C8  UNL     1      -4.041   0.446   2.355  1.00  0.00     0.040 C 
HETATM   14  C9  UNL     1      -4.750   0.911   0.006  1.00  0.00     0.040 C 
ENDBRANCH  11  12
ENDBRANCH   9  11
ENDBRANCH   3   9
BRANCH   2  15
HETATM   15  O2  UNL     1      -0.039   1.480   0.057  1.00  0.00    -0.357 OA
ATOM     16  H2  UNL     1      -0.951   1.516   0.320  1.00  0.00     0.217 HD
ENDBRANCH   2  15
BRANCH   1  17
HETATM   17  N1  UNL     1       2.593   1.357  -0.705  1.00  0.00    -0.322 N 
HETATM   18  C2  UNL     1       3.326   1.722   0.451  1.00  0.00     0.218 C 
HETATM   19  C1  UNL     1       4.180   2.934   0.419  1.00  0.00     0.117 C 
HETATM   20  O1  UNL     1       3.254   1.030   1.487  1.00  0.00    -0.274 OA
ATOM     21  H1  UNL     1       2.654   1.924  -1.551  1.00  0.00     0.169 HD
ENDBRANCH   1  17
BRANCH   8  22
HETATM   22  O6  UNL     1       3.642  -1.105  -1.437  1.00  0.00    -0.344 OA
ATOM     23  H6  UNL     1       4.023  -1.937  -1.691  1.00  0.00     0.219 HD
ENDBRANCH   8  22
TORSDOF 6
