REMARK  11 active torsions:
REMARK  status: ('A' for Active; 'I' for Inactive)
REMARK    1  A    between atoms: O1_2  and  C2_3 
REMARK    2  A    between atoms: C2_3  and  C3_5 
REMARK    3  A    between atoms: C3_5  and  O3_6 
REMARK    4  A    between atoms: C5_9  and  O4_10 
REMARK    5  A    between atoms: C8_14  and  S1_15 
REMARK    6  A    between atoms: C13_21  and  C14_22 
REMARK    7  A    between atoms: C14_22  and  C15_23 
REMARK    8  A    between atoms: C18_27  and  C19_28 
REMARK    9  A    between atoms: C19_28  and  C21_30 
REMARK   10  A    between atoms: C19_28  and  C24_34 
REMARK   11  A    between atoms: C21_30  and  C22_31 
ROOT
HETATM    1  C3  UNL     1       3.239   0.289  -0.149  1.00  0.00     0.152 C 
HETATM    2  C4  UNL     1       3.514  -0.135   1.306  1.00  0.00     0.081 C 
HETATM    3  C5  UNL     1       3.018  -1.364   1.873  1.00  0.00     0.127 C 
HETATM    4  C6  UNL     1       1.751  -1.502   2.608  1.00  0.00     0.089 C 
HETATM    5  C7  UNL     1       0.492  -1.059   1.837  1.00  0.00     0.016 C 
HETATM    6  C8  UNL     1      -0.490  -0.815   2.621  1.00  0.00     0.069 C 
HETATM    7  N1  UNL     1       0.230  -0.815   0.472  1.00  0.00    -0.377 N 
HETATM    8  C10 UNL     1       1.217  -1.041  -0.580  1.00  0.00     0.131 C 
HETATM    9  C11 UNL     1       1.862   0.390  -0.409  1.00  0.00     0.049 C 
HETATM   10  C12 UNL     1       0.958   1.179  -1.190  1.00  0.00     0.016 C 
HETATM   11  C13 UNL     1      -0.452   1.162  -0.651  1.00  0.00     0.013 C 
HETATM   12  C18 UNL     1      -0.903  -0.131   0.149  1.00  0.00     0.101 C 
ENDROOT
BRANCH  12  13
HETATM   13  C19 UNL     1      -1.977  -0.746  -0.790  1.00  0.00     0.002 C 
HETATM   14  C20 UNL     1      -1.541  -0.980  -2.191  1.00  0.00     0.022 C 
BRANCH  13  15
HETATM   15  C21 UNL     1      -3.120   0.227  -0.630  1.00  0.00     0.034 C 
BRANCH  15  16
HETATM   16  C22 UNL     1      -4.377   0.117  -1.305  1.00  0.00     0.142 C 
HETATM   17  C23 UNL     1      -4.709   0.034  -2.739  1.00  0.00     0.095 C 
HETATM   18  O5  UNL     1      -5.414   0.088  -0.583  1.00  0.00    -0.294 OA
ENDBRANCH  15  16
ENDBRANCH  13  15
BRANCH  13  19
HETATM   19  C24 UNL     1      -2.343  -2.139  -0.356  1.00  0.00    -0.000 A 
HETATM   20  C25 UNL     1      -3.015  -2.595   0.831  1.00  0.00     0.006 A 
HETATM   21  C26 UNL     1      -3.622  -2.822  -0.522  1.00  0.00     0.006 A 
ENDBRANCH  13  19
ENDBRANCH  12  13
BRANCH  11  22
HETATM   22  C14 UNL     1      -0.584   2.355   0.262  1.00  0.00     0.035 C 
BRANCH  22  23
HETATM   23  C15 UNL     1      -0.373   3.662  -0.406  1.00  0.00    -0.007 C 
HETATM   24  C16 UNL     1      -1.405   4.518  -0.372  1.00  0.00     0.004 C 
HETATM   25  C17 UNL     1      -1.298   5.859  -1.013  1.00  0.00     0.061 C 
HETATM   26 CL1  UNL     1      -2.923   4.147   0.412  1.00  0.00    -0.090 Cl
ENDBRANCH  22  23
ENDBRANCH  11  22
BRANCH   6  27
HETATM   27  S1  UNL     1      -0.266  -1.010   4.385  1.00  0.00    -0.144 SA
HETATM   28  C9  UNL     1      -0.450  -2.759   4.854  1.00  0.00     0.095 C 
ENDBRANCH   6  27
BRANCH   3  29
HETATM   29  O4  UNL     1       3.957  -1.572   2.977  1.00  0.00    -0.395 OA
ATOM     30  H4  UNL     1       3.630  -2.382   3.351  1.00  0.00     0.210 HD
ENDBRANCH   3  29
BRANCH   1  31
HETATM   31  C2  UNL     1       4.121  -0.363  -1.118  1.00  0.00     0.293 C 
HETATM   32  O2  UNL     1       4.015  -1.579  -1.368  1.00  0.00    -0.262 OA
BRANCH  31  33
HETATM   33  O1  UNL     1       5.135   0.295  -1.835  1.00  0.00    -0.324 OA
HETATM   34  C1  UNL     1       5.955  -0.418  -2.768  1.00  0.00     0.213 C 
ENDBRANCH  31  33
ENDBRANCH   1  31
BRANCH   1  35
HETATM   35  O3  UNL     1       3.739   1.656  -0.118  1.00  0.00    -0.379 OA
ATOM     36  H3  UNL     1       3.166   2.079   0.511  1.00  0.00     0.211 HD
ENDBRANCH   1  35
TORSDOF 11
