REMARK  4 active torsions:
REMARK  status: ('A' for Active; 'I' for Inactive)
REMARK    1  A    between atoms: C2_2  and  N1_3 
REMARK    2  A    between atoms: C2_2  and  S1_14 
REMARK    3  A    between atoms: C4_10  and  N5_11 
REMARK    4  A    between atoms: S1_14  and  N6_15 
ROOT
HETATM    1  N1  UNL     1       0.378  -0.157  -0.073  1.00  0.00    -0.072 N 
HETATM    2  N2  UNL     1       1.024  -0.199   1.123  1.00  0.00    -0.251 N 
ATOM      3  H2  UNL     1       0.699  -0.694   1.953  1.00  0.00     0.191 HD
HETATM    4  C3  UNL     1       2.155   0.513   1.038  1.00  0.00     0.222 A 
HETATM    5  N3  UNL     1       3.133   0.734   2.059  1.00  0.00    -0.061 NA
HETATM    6  N4  UNL     1       2.187   0.985  -0.215  1.00  0.00    -0.161 N 
ATOM      7  H4  UNL     1       2.932   1.570  -0.593  1.00  0.00     0.187 HD
HETATM    8  C4  UNL     1       1.088   0.578  -0.919  1.00  0.00     0.700 A 
ENDROOT
BRANCH   1   9
HETATM    9  C2  UNL     1      -0.871  -0.796  -0.315  1.00  0.00     0.179 C 
HETATM   10  C1  UNL     1      -1.244  -1.310  -1.455  1.00  0.00     0.061 C 
BRANCH   9  11
HETATM   11  S1  UNL     1      -2.025  -0.912   1.035  1.00  0.00     0.274 S 
HETATM   12  O1  UNL     1      -2.875  -2.141   0.882  1.00  0.00    -0.199 OA
HETATM   13  O2  UNL     1      -1.272  -0.981   2.333  1.00  0.00    -0.199 OA
BRANCH  11  14
HETATM   14  N6  UNL     1      -3.049   0.476   1.045  1.00  0.00    -0.323 N 
ATOM     15  H62 UNL     1      -2.990   1.240   0.372  1.00  0.00     0.169 HD
ATOM     16  H61 UNL     1      -3.710   0.410   1.819  1.00  0.00     0.169 HD
ENDBRANCH  11  14
ENDBRANCH   9  11
ENDBRANCH   1   9
BRANCH   8  17
HETATM   17  N5  UNL     1       0.846   0.912  -2.124  1.00  0.00    -0.233 N 
ATOM     18  H52 UNL     1       0.026   0.608  -2.649  1.00  0.00     0.174 HD
ATOM     19  H51 UNL     1       1.392   1.477  -2.774  1.00  0.00     0.174 HD
ENDBRANCH   8  17
TORSDOF 4
