REMARK  10 active torsions:
REMARK  status: ('A' for Active; 'I' for Inactive)
REMARK    1  A    between atoms: N2_7  and  N3_8 
REMARK    2  A    between atoms: N3_8  and  C4_10 
REMARK    3  A    between atoms: C5_13  and  N5_14 
REMARK    4  A    between atoms: N5_14  and  C6_16 
REMARK    5  A    between atoms: C6_16  and  C7_17 
REMARK    6  A    between atoms: C7_17  and  O2_18 
REMARK    7  A    between atoms: C8_22  and  N7_23 
REMARK    8  A    between atoms: N7_23  and  C9_25 
REMARK    9  A    between atoms: C9_25  and  C10_26 
REMARK   10  A    between atoms: C10_26  and  O3_27 
ROOT
HETATM    1  C4  UNL     1       0.891  -0.738   0.112  1.00  0.00     0.726 A 
HETATM    2  N4  UNL     1      -0.070  -1.674   0.195  1.00  0.00    -0.020 N 
ATOM      3  H4  UNL     1       0.179  -2.631   0.444  1.00  0.00     0.203 HD
HETATM    4  C5  UNL     1      -1.352  -1.364  -0.046  1.00  0.00     0.707 A 
HETATM    5  N6  UNL     1      -1.662  -0.094  -0.372  1.00  0.00    -0.022 N 
ATOM      6  H6  UNL     1      -2.638   0.142  -0.554  1.00  0.00     0.203 HD
HETATM    7  C8  UNL     1      -0.736   0.872  -0.466  1.00  0.00     0.707 A 
HETATM    8  N8  UNL     1       0.540   0.527  -0.219  1.00  0.00    -0.020 N 
ATOM      9  H8  UNL     1       1.266   1.241  -0.283  1.00  0.00     0.203 HD
ENDROOT
BRANCH   1  10
HETATM   10  N3  UNL     1       2.126  -1.032   0.342  1.00  0.00    -0.125 N 
ATOM     11  H3  UNL     1       2.382  -1.988   0.590  1.00  0.00     0.206 HD
BRANCH  10  12
HETATM   12  N2  UNL     1       3.104  -0.058   0.254  1.00  0.00    -0.227 N 
HETATM   13  C1  UNL     1       3.570   0.812   1.307  1.00  0.00     0.337 C 
HETATM   14  O1  UNL     1       2.974   1.060   2.389  1.00  0.00    -0.245 OA
HETATM   15  N1  UNL     1       4.829   1.354   0.929  1.00  0.00    -0.340 N 
HETATM   16  C2  UNL     1       5.243   0.619  -0.249  1.00  0.00     0.146 C 
ATOM     17  H1  UNL     1       5.337   2.107   1.393  1.00  0.00     0.164 HD
HETATM   18  C3  UNL     1       3.893   0.325  -0.904  1.00  0.00     0.174 C 
ENDBRANCH  10  12
ENDBRANCH   1  10
BRANCH   4  19
HETATM   19  N5  UNL     1      -2.305  -2.227   0.021  1.00  0.00    -0.223 N 
ATOM     20  H5  UNL     1      -3.272  -1.963  -0.167  1.00  0.00     0.177 HD
BRANCH  19  21
HETATM   21  C6  UNL     1      -1.952  -3.587   0.374  1.00  0.00     0.164 C 
BRANCH  21  22
HETATM   22  C7  UNL     1      -3.260  -4.380   0.433  1.00  0.00     0.184 C 
BRANCH  22  23
HETATM   23  O2  UNL     1      -4.080  -3.801   1.399  1.00  0.00    -0.399 OA
ATOM     24  H2  UNL     1      -4.892  -4.293   1.436  1.00  0.00     0.209 HD
ENDBRANCH  22  23
ENDBRANCH  21  22
ENDBRANCH  19  21
ENDBRANCH   4  19
BRANCH   7  25
HETATM   25  N7  UNL     1      -0.996   2.069  -0.770  1.00  0.00    -0.223 N 
ATOM     26  H7  UNL     1      -0.194   2.699  -0.805  1.00  0.00     0.177 HD
BRANCH  25  27
HETATM   27  C9  UNL     1      -2.259   2.662  -1.071  1.00  0.00     0.164 C 
BRANCH  27  28
HETATM   28  C10 UNL     1      -2.374   4.083  -0.542  1.00  0.00     0.184 C 
BRANCH  28  29
HETATM   29  O3  UNL     1      -2.228   4.123   0.839  1.00  0.00    -0.399 OA
ATOM     30  H3  UNL     1      -2.300   5.011   1.169  1.00  0.00     0.209 HD
ENDBRANCH  28  29
ENDBRANCH  27  28
ENDBRANCH  25  27
ENDBRANCH   7  25
TORSDOF 10
