REMARK  12 active torsions:
REMARK  status: ('A' for Active; 'I' for Inactive)
REMARK    1  A    between atoms: C2_2  and  C3_3 
REMARK    2  A    between atoms: C4_4  and  O1_5 
REMARK    3  A    between atoms: O1_5  and  C5_6 
REMARK    4  A    between atoms: C6_8  and  C7_9 
REMARK    5  A    between atoms: C7_9  and  O3_10 
REMARK    6  A    between atoms: O3_10  and  C8_11 
REMARK    7  A    between atoms: C9_14  and  O5_15 
REMARK    8  A    between atoms: C10_17  and  O6_18 
REMARK    9  A    between atoms: C11_20  and  O7_21 
REMARK   10  A    between atoms: C12_23  and  O8_24 
REMARK   11  A    between atoms: C13_26  and  O9_27 
REMARK   12  A    between atoms: O9_27  and  C14_28 
ROOT
HETATM    1  C3  UNL     1      -1.343  -1.444   1.264  1.00  0.00     0.047 C 
HETATM    2  C4  UNL     1      -0.176  -0.925   0.593  1.00  0.00     0.164 C 
HETATM    3  C12 UNL     1      -0.660   0.304  -0.245  1.00  0.00     0.176 C 
HETATM    4  C13 UNL     1      -1.870  -0.073  -1.018  1.00  0.00     0.154 C 
HETATM    5  C18 UNL     1      -2.145  -1.554  -1.104  1.00  0.00     0.044 C 
HETATM    6  C19 UNL     1      -2.283  -2.162   0.267  1.00  0.00    -0.036 C 
HETATM    7  C20 UNL     1      -3.728  -2.000   0.686  1.00  0.00     0.015 C 
HETATM    8  C21 UNL     1      -2.000  -3.624   0.185  1.00  0.00     0.015 C 
ENDROOT
BRANCH   2   9
HETATM    9  O1  UNL     1       0.939  -0.509   1.169  1.00  0.00    -0.350 OA
BRANCH   9  10
HETATM   10  C5  UNL     1       2.201  -0.728   0.883  1.00  0.00     0.292 C 
HETATM   11  O2  UNL     1       2.671   0.551   0.408  1.00  0.00    -0.348 OA
HETATM   12  C6  UNL     1       3.856   0.327  -0.324  1.00  0.00     0.180 C 
HETATM   13  C9  UNL     1       4.935   0.096   0.656  1.00  0.00     0.180 C 
HETATM   14  C10 UNL     1       4.565  -1.279   1.280  1.00  0.00     0.183 C 
HETATM   15  C11 UNL     1       3.179  -1.130   1.926  1.00  0.00     0.204 C 
BRANCH  12  16
HETATM   16  C7  UNL     1       3.974   1.335  -1.381  1.00  0.00     0.215 C 
BRANCH  16  17
HETATM   17  O3  UNL     1       4.112   2.666  -1.139  1.00  0.00    -0.304 OA
BRANCH  17  18
HETATM   18  C8  UNL     1       5.148   3.436  -0.701  1.00  0.00     0.372 C 
HETATM   19  N1  UNL     1       5.048   4.843  -0.479  1.00  0.00    -0.032 NA
HETATM   20  O4  UNL     1       6.247   2.879  -0.481  1.00  0.00    -0.242 OA
ENDBRANCH  17  18
ENDBRANCH  16  17
ENDBRANCH  12  16
BRANCH  13  21
HETATM   21  O5  UNL     1       5.010   1.014   1.704  1.00  0.00    -0.390 OA
ATOM     22  H5  UNL     1       5.705   0.865   2.335  1.00  0.00     0.210 HD
ENDBRANCH  13  21
BRANCH  14  23
HETATM   23  O6  UNL     1       4.452  -2.153   0.218  1.00  0.00    -0.390 OA
ATOM     24  H6  UNL     1       4.226  -2.993   0.599  1.00  0.00     0.210 HD
ENDBRANCH  14  23
BRANCH  15  25
HETATM   25  O7  UNL     1       3.255  -0.217   2.989  1.00  0.00    -0.388 OA
ATOM     26  H7  UNL     1       3.881  -0.474   3.656  1.00  0.00     0.210 HD
ENDBRANCH  15  25
ENDBRANCH   9  10
ENDBRANCH   2   9
BRANCH   1  27
HETATM   27  C2  UNL     1      -1.274  -2.191   2.516  1.00  0.00    -0.029 C 
HETATM   28  C1  UNL     1      -0.246  -2.775   3.088  1.00  0.00     0.007 C 
ENDBRANCH   1  27
BRANCH   3  29
HETATM   29  O8  UNL     1       0.355   0.509  -1.208  1.00  0.00    -0.390 OA
ATOM     30  H8  UNL     1       0.061   1.255  -1.717  1.00  0.00     0.210 HD
ENDBRANCH   3  29
BRANCH   4  31
HETATM   31  O9  UNL     1      -2.976   0.570  -0.438  1.00  0.00    -0.376 OA
BRANCH  31  32
HETATM   32  C14 UNL     1      -3.645   1.400  -1.302  1.00  0.00     0.149 C 
HETATM   33  C15 UNL     1      -5.082   0.962  -1.456  1.00  0.00     0.061 C 
HETATM   34  C16 UNL     1      -5.896   2.221  -1.610  1.00  0.00     0.235 C 
HETATM   35  N2  UNL     1      -5.002   3.334  -1.415  1.00  0.00    -0.073 N 
HETATM   36  C17 UNL     1      -3.809   2.816  -0.770  1.00  0.00     0.264 C 
ATOM     37  H22 UNL     1      -4.802   3.842  -2.276  1.00  0.00     0.277 HD
ATOM     38  H21 UNL     1      -5.430   4.106  -0.904  1.00  0.00     0.277 HD
ENDBRANCH  31  32
ENDBRANCH   4  31
TORSDOF 12
