REMARK  11 active torsions:
REMARK  status: ('A' for Active; 'I' for Inactive)
REMARK    1  A    between atoms: C2_2  and  C3_3 
REMARK    2  A    between atoms: C3_3  and  C5_5 
REMARK    3  A    between atoms: C5_5  and  N1_6 
REMARK    4  A    between atoms: C5_5  and  C8_11 
REMARK       I    between atoms: N1_6  and  C6_8 
REMARK    5  A    between atoms: C8_11  and  N2_12 
REMARK    6  A    between atoms: C8_11  and  C13_23 
REMARK    7  A    between atoms: N2_12  and  S1_14 
REMARK    8  A    between atoms: S1_14  and  C9_16 
REMARK    9  A    between atoms: C9_16  and  C10_17 
REMARK   10  A    between atoms: C10_17  and  C11_18 
REMARK   11  A    between atoms: C11_18  and  C12_19 
ROOT
HETATM    1  C8  UNL     1      -0.154  -0.353  -0.251  1.00  0.00     0.079 C 
ENDROOT
BRANCH   1   2
HETATM    2  C5  UNL     1      -1.549   0.174  -0.149  1.00  0.00     0.041 C 
BRANCH   2   3
HETATM    3  C3  UNL     1      -2.054   0.665   1.126  1.00  0.00     0.033 C 
HETATM    4  C4  UNL     1      -1.786   2.071   1.542  1.00  0.00     0.016 C 
BRANCH   3   5
HETATM    5  C2  UNL     1      -3.590   0.499   1.252  1.00  0.00     0.006 C 
HETATM    6  C1  UNL     1      -4.364   1.438   0.415  1.00  0.00     0.006 C 
ENDBRANCH   3   5
ENDBRANCH   2   3
BRANCH   2   7
HETATM    7  N1  UNL     1      -1.998   0.807  -1.368  1.00  0.00    -0.329 N 
HETATM    8  C6  UNL     1      -2.836   0.314  -2.362  1.00  0.00     0.217 C 
HETATM    9  C7  UNL     1      -3.151   1.158  -3.529  1.00  0.00     0.117 C 
HETATM   10  O1  UNL     1      -3.350  -0.826  -2.325  1.00  0.00    -0.274 OA
ATOM     11  H1  UNL     1      -1.649   1.753  -1.522  1.00  0.00     0.168 HD
ENDBRANCH   2   7
ENDBRANCH   1   2
BRANCH   1  12
HETATM   12  N2  UNL     1       0.930   0.468   0.051  1.00  0.00    -0.327 N 
ATOM     13  H2  UNL     1       1.536   0.760  -0.716  1.00  0.00     0.174 HD
BRANCH  12  14
HETATM   14  S1  UNL     1       1.296   0.999   1.572  1.00  0.00    -0.030 SA
HETATM   15 CL1  UNL     1       1.228  -0.327   3.102  1.00  0.00    -0.034 Cl
BRANCH  14  16
HETATM   16  C9  UNL     1       2.963   1.729   1.536  1.00  0.00     0.102 C 
BRANCH  16  17
HETATM   17  C10 UNL     1       3.925   0.673   1.101  1.00  0.00     0.021 C 
BRANCH  17  18
HETATM   18  C11 UNL     1       5.320   1.117   0.964  1.00  0.00     0.118 C 
BRANCH  18  19
HETATM   19  C12 UNL     1       5.956   1.640   2.193  1.00  0.00     0.387 C 
HETATM   20  F1  UNL     1       7.308   1.995   1.945  1.00  0.00    -0.171 F 
HETATM   21  F2  UNL     1       5.333   2.842   2.564  1.00  0.00    -0.171 F 
HETATM   22  F3  UNL     1       5.951   0.788   3.266  1.00  0.00    -0.171 F 
ENDBRANCH  18  19
ENDBRANCH  17  18
ENDBRANCH  16  17
ENDBRANCH  14  16
ENDBRANCH  12  14
ENDBRANCH   1  12
BRANCH   1  23
HETATM   23  C13 UNL     1      -0.032  -1.762   0.354  1.00  0.00     0.331 C 
HETATM   24  N3  UNL     1      -0.959  -2.602  -0.416  1.00  0.00    -0.036 N 
HETATM   25  C14 UNL     1      -0.355  -2.792  -1.715  1.00  0.00     0.283 C 
ATOM     26  H32 UNL     1      -1.195  -3.477   0.052  1.00  0.00     0.281 HD
ATOM     27  H31 UNL     1      -1.905  -2.223  -0.461  1.00  0.00     0.281 HD
HETATM   28  C15 UNL     1      -0.489  -4.286  -2.033  1.00  0.00     0.063 C 
HETATM   29  N4  UNL     1       1.057  -2.550  -1.509  1.00  0.00    -0.331 N 
HETATM   30  C16 UNL     1       1.259  -2.385  -0.100  1.00  0.00     0.256 C 
ATOM     31  H4  UNL     1       1.775  -2.505  -2.232  1.00  0.00     0.164 HD
HETATM   32  O2  UNL     1       2.281  -2.696   0.569  1.00  0.00    -0.271 OA
ENDBRANCH   1  23
TORSDOF 11
