REMARK  13 active torsions:
REMARK  status: ('A' for Active; 'I' for Inactive)
REMARK    1  A    between atoms: N1_1  and  N2_4 
REMARK    2  A    between atoms: C1_6  and  C2_7 
REMARK    3  A    between atoms: C1_6  and  N5_18 
REMARK    4  A    between atoms: C2_7  and  C3_8 
REMARK    5  A    between atoms: C3_8  and  C4_9 
REMARK    6  A    between atoms: N4_11  and  C5_13 
REMARK    7  A    between atoms: C5_13  and  C6_14 
REMARK    8  A    between atoms: C6_14  and  C7_15 
REMARK    9  A    between atoms: N5_18  and  C8_20 
REMARK   10  A    between atoms: C8_20  and  C9_21 
REMARK   11  A    between atoms: C8_20  and  C18_35 
REMARK   12  A    between atoms: C10_22  and  C11_23 
REMARK   13  A    between atoms: C13_25  and  N6_26 
REMARK       I    between atoms: N6_26  and  C14_28 
ROOT
HETATM    1  N5  UNL     1       1.298   0.400  -0.012  1.00  0.00    -0.368 N 
ATOM      2  H5  UNL     1       1.672   1.189   0.516  1.00  0.00     0.161 HD
ENDROOT
BRANCH   1   3
HETATM    3  C1  UNL     1       1.569  -0.910   0.459  1.00  0.00     0.092 C 
HETATM    4  N2  UNL     1       1.188  -1.895  -0.277  1.00  0.00    -0.296 N 
ATOM      5  H2  UNL     1       0.722  -1.667  -1.155  1.00  0.00     0.187 HD
BRANCH   4   6
HETATM    6  N1  UNL     1       1.355  -3.230   0.017  1.00  0.00    -0.344 N 
ATOM      7  H12 UNL     1       1.823  -3.439   0.899  1.00  0.00     0.176 HD
ATOM      8  H11 UNL     1       1.053  -4.010  -0.566  1.00  0.00     0.176 HD
ENDBRANCH   4   6
BRANCH   3   9
HETATM    9  C2  UNL     1       2.241  -1.185   1.727  1.00  0.00     0.084 C 
BRANCH   9  10
HETATM   10  C3  UNL     1       3.599  -0.601   1.893  1.00  0.00     0.080 C 
BRANCH  10  11
HETATM   11  C4  UNL     1       4.577  -1.070   0.879  1.00  0.00     0.089 C 
HETATM   12  N3  UNL     1       4.883  -2.441   0.729  1.00  0.00    -0.088 NA
HETATM   13  N4  UNL     1       5.204  -0.263   0.090  1.00  0.00    -0.382 N 
ATOM     14  H4  UNL     1       5.856  -0.685  -0.571  1.00  0.00     0.160 HD
BRANCH  13  15
HETATM   15  C5  UNL     1       5.079   1.155   0.047  1.00  0.00     0.126 C 
BRANCH  15  16
HETATM   16  C6  UNL     1       6.139   1.710  -0.902  1.00  0.00     0.090 C 
BRANCH  16  17
HETATM   17  C7  UNL     1       7.519   1.348  -0.431  1.00  0.00     0.354 C 
HETATM   18  F1  UNL     1       7.682   1.899   0.833  1.00  0.00    -0.214 F 
HETATM   19  F2  UNL     1       7.665  -0.012  -0.310  1.00  0.00    -0.214 F 
ENDBRANCH  16  17
ENDBRANCH  15  16
ENDBRANCH  13  15
ENDBRANCH  10  11
ENDBRANCH   9  10
ENDBRANCH   3   9
ENDBRANCH   1   3
BRANCH   1  20
HETATM   20  C8  UNL     1       0.528   0.677  -1.187  1.00  0.00     0.134 C 
BRANCH  20  21
HETATM   21  C9  UNL     1      -0.873   0.123  -1.109  1.00  0.00    -0.003 C 
HETATM   22  C10 UNL     1      -1.534   0.048   0.005  1.00  0.00    -0.022 C 
BRANCH  22  23
HETATM   23  C11 UNL     1      -2.902  -0.469   0.232  1.00  0.00     0.028 C 
HETATM   24  C12 UNL     1      -3.691   0.655   0.839  1.00  0.00     0.035 C 
HETATM   25  C13 UNL     1      -5.176   0.507   0.784  1.00  0.00     0.086 C 
HETATM   26  C15 UNL     1      -5.617  -0.894   0.514  1.00  0.00     0.027 C 
HETATM   27  C16 UNL     1      -4.954  -1.517  -0.661  1.00  0.00     0.023 C 
HETATM   28  C17 UNL     1      -3.583  -0.983  -0.985  1.00  0.00     0.090 C 
HETATM   29 CL1  UNL     1      -2.676  -2.415  -1.621  1.00  0.00    -0.124 Cl
BRANCH  25  30
HETATM   30  N6  UNL     1      -5.718   1.379  -0.265  1.00  0.00    -0.341 N 
HETATM   31  C14 UNL     1      -6.674   2.367   0.053  1.00  0.00     0.329 C 
HETATM   32  N7  UNL     1      -7.189   3.200  -0.963  1.00  0.00    -0.040 NA
HETATM   33  O1  UNL     1      -7.063   2.506   1.228  1.00  0.00    -0.251 OA
ATOM     34  H6  UNL     1      -5.402   1.270  -1.229  1.00  0.00     0.164 HD
ENDBRANCH  25  30
ENDBRANCH  22  23
ENDBRANCH  20  21
BRANCH  20  35
HETATM   35  C18 UNL     1       1.183   0.266  -2.478  1.00  0.00     0.251 C 
HETATM   36  F3  UNL     1       2.372   0.921  -2.629  1.00  0.00    -0.253 F 
ENDBRANCH  20  35
ENDBRANCH   1  20
TORSDOF 13
