REMARK  11 active torsions:
REMARK  status: ('A' for Active; 'I' for Inactive)
REMARK    1  A    between atoms: C2_2  and  C3_3 
REMARK    2  A    between atoms: C3_3  and  C4_4 
REMARK    3  A    between atoms: C3_3  and  C6_10 
REMARK    4  A    between atoms: C4_4  and  N1_5 
REMARK    5  A    between atoms: N1_5  and  O1_6 
REMARK    6  A    between atoms: N1_5  and  C5_8 
REMARK       I    between atoms: C6_10  and  N2_12 
REMARK       I    between atoms: N3_18  and  C12_19 
REMARK    7  A    between atoms: C12_19  and  C13_21 
REMARK    8  A    between atoms: C13_21  and  C14_22 
REMARK    9  A    between atoms: C13_21  and  N4_29 
REMARK   10  A    between atoms: C14_22  and  C15_23 
REMARK       I    between atoms: N4_29  and  C21_31 
REMARK       I    between atoms: C21_31  and  N5_33 
REMARK   11  A    between atoms: N5_33  and  C22_35 
REMARK       I    between atoms: N6_38  and  C25_39 
ROOT
HETATM    1  C13 UNL     1       1.702  -1.483   0.432  1.00  0.00     0.179 C 
ENDROOT
BRANCH   1   2
HETATM    2  C12 UNL     1       0.337  -0.980   0.467  1.00  0.00     0.242 C 
HETATM    3  N3  UNL     1      -0.694  -1.407   1.318  1.00  0.00    -0.350 N 
HETATM    4  C11 UNL     1      -0.582  -2.361   2.398  1.00  0.00     0.126 C 
HETATM    5  C29 UNL     1      -2.062  -0.884   1.122  1.00  0.00     0.138 C 
HETATM    6  C10 UNL     1      -1.214  -1.715   3.622  1.00  0.00     0.021 C 
HETATM    7  C9  UNL     1      -1.384  -0.218   3.429  1.00  0.00     0.016 C 
HETATM    8  C8  UNL     1      -2.319   0.024   2.293  1.00  0.00     0.008 C 
HETATM    9  C7  UNL     1      -3.790   0.177   2.629  1.00  0.00     0.138 C 
HETATM   10  C30 UNL     1      -2.478   1.473   1.869  1.00  0.00     0.138 C 
HETATM   11  N2  UNL     1      -3.851   1.141   1.550  1.00  0.00    -0.350 N 
HETATM   12  C6  UNL     1      -4.801   1.566   0.604  1.00  0.00     0.225 C 
HETATM   13  O3  UNL     1      -4.537   2.468  -0.241  1.00  0.00    -0.273 OA
HETATM   14  O4  UNL     1       0.019  -0.045  -0.354  1.00  0.00    -0.271 OA
BRANCH  12  15
HETATM   15  C3  UNL     1      -6.142   0.906   0.634  1.00  0.00     0.098 C 
BRANCH  15  16
HETATM   16  C2  UNL     1      -6.900   1.250   1.877  1.00  0.00     0.011 C 
HETATM   17  C1  UNL     1      -7.256   2.719   1.946  1.00  0.00     0.006 C 
ENDBRANCH  15  16
BRANCH  15  18
HETATM   18  C4  UNL     1      -6.838   1.180  -0.644  1.00  0.00     0.172 C 
BRANCH  18  19
HETATM   19  N1  UNL     1      -8.082   0.465  -0.798  1.00  0.00    -0.235 N 
BRANCH  19  20
HETATM   20  O1  UNL     1      -9.200   1.087  -0.348  1.00  0.00    -0.285 OA
ATOM     21  H1  UNL     1     -10.019   0.616  -0.449  1.00  0.00     0.245 HD
ENDBRANCH  19  20
BRANCH  19  22
HETATM   22  C5  UNL     1      -8.208  -0.819  -1.378  1.00  0.00     0.376 C 
HETATM   23  O2  UNL     1      -9.344  -1.361  -1.468  1.00  0.00    -0.281 OA
ENDBRANCH  19  22
ENDBRANCH  18  19
ENDBRANCH  15  18
ENDBRANCH  12  15
ENDBRANCH   1   2
BRANCH   1  24
HETATM   24  C14 UNL     1       1.942  -2.885  -0.002  1.00  0.00     0.039 C 
BRANCH  24  25
HETATM   25  C15 UNL     1       1.556  -3.293  -1.386  1.00  0.00    -0.012 C 
HETATM   26  C16 UNL     1       0.140  -3.200  -1.772  1.00  0.00     0.005 C 
HETATM   27  C17 UNL     1      -0.394  -4.143  -2.790  1.00  0.00     0.000 C 
HETATM   28  C18 UNL     1       0.414  -5.346  -3.115  1.00  0.00     0.000 C 
HETATM   29  C19 UNL     1       1.173  -5.720  -1.843  1.00  0.00     0.000 C 
HETATM   30  C20 UNL     1       2.221  -4.628  -1.708  1.00  0.00     0.005 C 
ENDBRANCH  24  25
ENDBRANCH   1  24
BRANCH   1  31
HETATM   31  N4  UNL     1       2.525  -0.567  -0.404  1.00  0.00    -0.330 N 
HETATM   32  C21 UNL     1       3.566   0.192   0.191  1.00  0.00     0.317 C 
HETATM   33  O5  UNL     1       3.812   0.077   1.413  1.00  0.00    -0.247 OA
HETATM   34  N5  UNL     1       4.330   1.082  -0.585  1.00  0.00    -0.338 N 
ATOM     35  H5  UNL     1       4.136   1.187  -1.581  1.00  0.00     0.164 HD
ATOM     36  H4  UNL     1       2.341  -0.485  -1.404  1.00  0.00     0.165 HD
BRANCH  34  37
HETATM   37  C22 UNL     1       5.389   1.847   0.030  1.00  0.00     0.089 C 
HETATM   38  C23 UNL     1       6.653   1.753  -0.745  1.00  0.00     0.045 C 
HETATM   39  C24 UNL     1       6.618   2.862  -1.813  1.00  0.00     0.127 C 
HETATM   40  N6  UNL     1       6.792   4.098  -1.077  1.00  0.00    -0.352 N 
HETATM   41  C25 UNL     1       7.651   5.094  -1.597  1.00  0.00     0.215 C 
HETATM   42  C27 UNL     1       6.072   4.261   0.167  1.00  0.00     0.127 C 
HETATM   43  C26 UNL     1       8.392   4.951  -2.864  1.00  0.00     0.117 C 
HETATM   44  O6  UNL     1       7.789   6.162  -0.939  1.00  0.00    -0.274 OA
HETATM   45  C28 UNL     1       4.955   3.268   0.314  1.00  0.00     0.045 C 
ENDBRANCH  34  37
ENDBRANCH   1  31
TORSDOF 11
