REMARK  15 active torsions:
REMARK  status: ('A' for Active; 'I' for Inactive)
REMARK    1  A    between atoms: C3_3  and  C4_4 
REMARK    2  A    between atoms: C5_5  and  C6_6 
REMARK    3  A    between atoms: C6_6  and  N1_7 
REMARK    4  A    between atoms: C9_13  and  C10_14 
REMARK    5  A    between atoms: C10_14  and  C11_15 
REMARK    6  A    between atoms: C14_18  and  O2_19 
REMARK    7  A    between atoms: C19_26  and  O3_27 
REMARK    8  A    between atoms: C20_31  and  C21_32 
REMARK    9  A    between atoms: C21_32  and  C22_33 
REMARK   10  A    between atoms: C25_36  and  O4_37 
REMARK   11  A    between atoms: C26_41  and  C27_42 
REMARK   12  A    between atoms: C27_42  and  C28_43 
REMARK   13  A    between atoms: C28_43  and  C29_44 
REMARK   14  A    between atoms: C29_44  and  C30_45 
REMARK   15  A    between atoms: C30_45  and  N6_46 
REMARK       I    between atoms: N6_46  and  C31_48 
ROOT
HETATM    1  C1  UNL     1      -1.791   6.496  -5.904  1.00  0.00     0.113 C 
HETATM    2  C2  UNL     1      -1.027   5.848  -4.833  1.00  0.00    -0.097 C 
HETATM    3  C3  UNL     1      -0.383   5.329  -3.946  1.00  0.00    -0.015 C 
ENDROOT
BRANCH   3   4
HETATM    4  C4  UNL     1       0.383   4.744  -2.910  1.00  0.00    -0.013 C 
HETATM    5  C5  UNL     1       1.055   4.258  -2.013  1.00  0.00    -0.073 C 
BRANCH   5   6
HETATM    6  C6  UNL     1       1.886   3.687  -0.944  1.00  0.00     0.221 C 
BRANCH   6   7
HETATM    7  N1  UNL     1       1.341   2.368  -0.639  1.00  0.00    -0.328 N 
HETATM    8  C7  UNL     1       0.309   2.276   0.388  1.00  0.00     0.230 C 
HETATM    9  C8  UNL     1      -0.775   3.238   0.236  1.00  0.00     0.240 C 
HETATM   10  O1  UNL     1      -0.569   4.370   0.824  1.00  0.00    -0.271 OA
HETATM   11  N2  UNL     1      -2.006   3.136  -0.446  1.00  0.00    -0.322 N 
HETATM   12  C9  UNL     1      -3.054   2.143  -0.290  1.00  0.00     0.082 C 
ATOM     13  H2  UNL     1      -2.184   3.858  -1.144  1.00  0.00     0.169 HD
HETATM   14  C14 UNL     1      -2.780   0.851  -0.907  1.00  0.00     0.166 C 
HETATM   15  N3  UNL     1      -3.301  -0.428  -0.854  1.00  0.00    -0.348 N 
HETATM   16  C15 UNL     1      -3.839  -1.210  -2.001  1.00  0.00     0.126 C 
HETATM   17  C18 UNL     1      -3.455  -1.309   0.270  1.00  0.00     0.160 C 
HETATM   18  C16 UNL     1      -4.189  -2.543  -1.537  1.00  0.00     0.022 C 
HETATM   19  C17 UNL     1      -4.383  -2.414  -0.080  1.00  0.00     0.035 C 
HETATM   20  C19 UNL     1      -2.235  -1.767   0.972  1.00  0.00     0.135 C 
HETATM   21  N4  UNL     1      -0.903  -1.835   0.705  1.00  0.00    -0.361 N 
HETATM   22  C20 UNL     1       0.031  -2.654  -0.024  1.00  0.00     0.158 C 
ATOM     23  H4  UNL     1      -0.413  -1.067   1.164  1.00  0.00     0.162 HD
HETATM   24  C25 UNL     1       0.525  -1.937  -1.192  1.00  0.00     0.139 C 
HETATM   25  N5  UNL     1       1.668  -1.181  -1.450  1.00  0.00    -0.338 N 
HETATM   26  C26 UNL     1       2.284  -0.068  -0.841  1.00  0.00     0.079 C 
ATOM     27  H5  UNL     1       2.177  -1.510  -2.270  1.00  0.00     0.167 HD
HETATM   28  C32 UNL     1       1.834   1.264  -1.356  1.00  0.00     0.267 C 
HETATM   29  O5  UNL     1       1.920   1.395  -2.632  1.00  0.00    -0.266 OA
BRANCH  12  30
HETATM   30  C10 UNL     1      -3.938   2.349   0.852  1.00  0.00     0.011 C 
BRANCH  30  31
HETATM   31  C11 UNL     1      -3.470   2.452   2.233  1.00  0.00     0.002 C 
HETATM   32  C12 UNL     1      -2.738   1.402   2.920  1.00  0.00     0.013 C 
HETATM   33  C13 UNL     1      -4.754   2.687   3.076  1.00  0.00     0.013 C 
ENDBRANCH  30  31
ENDBRANCH  12  30
BRANCH  14  34
HETATM   34  O2  UNL     1      -1.767   0.958  -1.731  1.00  0.00    -0.344 OA
ATOM     35  H2  UNL     1      -1.588   0.116  -2.133  1.00  0.00     0.219 HD
ENDBRANCH  14  34
BRANCH  20  36
HETATM   36  O3  UNL     1      -2.586  -2.210   2.159  1.00  0.00    -0.348 OA
ATOM     37  H3  UNL     1      -1.803  -2.504   2.610  1.00  0.00     0.219 HD
ENDBRANCH  20  36
BRANCH  22  38
HETATM   38  C21 UNL     1      -0.441  -4.055  -0.321  1.00  0.00     0.037 C 
BRANCH  38  39
HETATM   39  C22 UNL     1       0.507  -4.910  -1.068  1.00  0.00    -0.020 C 
HETATM   40  C23 UNL     1      -0.207  -6.265  -1.237  1.00  0.00     0.009 C 
HETATM   41  C24 UNL     1       1.782  -5.209  -0.319  1.00  0.00     0.009 C 
ENDBRANCH  38  39
ENDBRANCH  22  38
BRANCH  24  42
HETATM   42  O4  UNL     1      -0.306  -2.049  -2.196  1.00  0.00    -0.348 OA
ATOM     43  H4  UNL     1       0.016  -1.581  -2.958  1.00  0.00     0.219 HD
ENDBRANCH  24  42
BRANCH  26  44
HETATM   44  C27 UNL     1       2.605  -0.097   0.606  1.00  0.00     0.063 C 
BRANCH  44  45
HETATM   45  C28 UNL     1       3.574  -1.206   0.972  1.00  0.00     0.008 C 
BRANCH  45  46
HETATM   46  C29 UNL     1       3.823  -1.151   2.459  1.00  0.00     0.020 C 
BRANCH  46  47
HETATM   47  C30 UNL     1       4.414   0.180   2.884  1.00  0.00     0.122 C 
BRANCH  47  48
HETATM   48  N6  UNL     1       5.674   0.460   2.241  1.00  0.00    -0.365 N 
HETATM   49  C31 UNL     1       6.856  -0.267   2.502  1.00  0.00     0.181 C 
HETATM   50  N7  UNL     1       7.017  -0.909   3.586  1.00  0.00    -0.374 N 
HETATM   51  N8  UNL     1       7.892  -0.277   1.517  1.00  0.00    -0.064 NA
ATOM     52  H72 UNL     1       6.278  -0.902   4.289  1.00  0.00     0.158 HD
ATOM     53  H71 UNL     1       7.871  -1.434   3.775  1.00  0.00     0.158 HD
ATOM     54  H6  UNL     1       5.713   1.222   1.564  1.00  0.00     0.162 HD
ENDBRANCH  47  48
ENDBRANCH  46  47
ENDBRANCH  45  46
ENDBRANCH  44  45
ENDBRANCH  26  44
ENDBRANCH   6   7
ENDBRANCH   5   6
ENDBRANCH   3   4
TORSDOF 15
