REMARK  13 active torsions:
REMARK  status: ('A' for Active; 'I' for Inactive)
REMARK    1  A    between atoms: C2_2  and  C4_4 
REMARK    2  A    between atoms: C4_4  and  C5_5 
REMARK    3  A    between atoms: C4_4  and  N9_40 
REMARK    4  A    between atoms: C5_5  and  N1_6 
REMARK    5  A    between atoms: N1_6  and  C6_8 
REMARK    6  A    between atoms: C6_8  and  C14_20 
REMARK       I    between atoms: N3_15  and  C13_17 
REMARK    7  A    between atoms: C14_20  and  N5_22 
REMARK    8  A    between atoms: N5_22  and  C16_24 
REMARK    9  A    between atoms: C16_24  and  C17_28 
REMARK   10  A    between atoms: C17_28  and  N7_29 
REMARK       I    between atoms: N7_29  and  C18_31 
REMARK   11  A    between atoms: C18_31  and  C19_33 
REMARK   12  A    between atoms: C19_33  and  N8_35 
REMARK       I    between atoms: N8_35  and  C21_37 
REMARK       I    between atoms: N9_40  and  C23_42 
REMARK   13  A    between atoms: C23_42  and  C24_44 
ROOT
HETATM    1  C6  UNL     1       0.605   1.901  -0.161  1.00  0.00     0.089 C 
HETATM    2  C7  UNL     1       1.308   2.987   0.169  1.00  0.00     0.340 C 
HETATM    3  N2  UNL     1       2.693   3.234  -0.054  1.00  0.00    -0.018 N 
HETATM    4  C8  UNL     1       3.571   2.457   0.778  1.00  0.00     0.281 C 
HETATM    5  C9  UNL     1       3.134   3.158  -1.410  1.00  0.00     0.281 C 
HETATM    6  C10 UNL     1       2.896   4.633   0.319  1.00  0.00     0.274 C 
HETATM    7  C11 UNL     1       1.865   4.881   1.364  1.00  0.00     0.285 C 
HETATM    8  N3  UNL     1       0.734   4.086   0.857  1.00  0.00     0.065 N 
HETATM    9  C12 UNL     1      -0.001   3.715   2.055  1.00  0.00     0.294 C 
HETATM   10  C13 UNL     1       0.013   4.989   0.051  1.00  0.00     0.434 C 
HETATM   11  N4  UNL     1      -1.059   5.720   0.600  1.00  0.00    -0.033 NA
HETATM   12  O1  UNL     1       0.317   5.145  -1.142  1.00  0.00    -0.242 OA
ENDROOT
BRANCH   1  13
HETATM   13  N1  UNL     1      -0.789   1.716   0.087  1.00  0.00    -0.386 N 
ATOM     14  H1  UNL     1      -1.066   1.436   1.028  1.00  0.00     0.159 HD
BRANCH  13  15
HETATM   15  C5  UNL     1      -1.821   1.891  -0.875  1.00  0.00     0.149 C 
BRANCH  15  16
HETATM   16  C4  UNL     1      -3.187   1.541  -0.480  1.00  0.00     0.130 C 
BRANCH  16  17
HETATM   17  C2  UNL     1      -3.813   2.179   0.675  1.00  0.00    -0.069 C 
HETATM   18  C1  UNL     1      -4.748   3.124   0.489  1.00  0.00     0.016 C 
HETATM   19  C3  UNL     1      -3.493   1.875   2.101  1.00  0.00     0.044 C 
ENDBRANCH  16  17
BRANCH  16  20
HETATM   20  N9  UNL     1      -3.436   0.086  -0.306  1.00  0.00    -0.347 N 
HETATM   21  C23 UNL     1      -4.484  -0.542  -1.013  1.00  0.00     0.253 C 
HETATM   22  O4  UNL     1      -5.202   0.200  -1.800  1.00  0.00    -0.268 OA
ATOM     23  H9  UNL     1      -2.849  -0.459   0.325  1.00  0.00     0.163 HD
BRANCH  21  24
HETATM   24  C24 UNL     1      -4.868  -1.922  -0.964  1.00  0.00     0.043 A 
HETATM   25  C25 UNL     1      -3.988  -2.960  -0.752  1.00  0.00    -0.045 A 
HETATM   26  C26 UNL     1      -2.505  -2.786  -0.662  1.00  0.00     0.049 C 
HETATM   27  C27 UNL     1      -4.411  -4.284  -0.646  1.00  0.00     0.014 A 
HETATM   28  C28 UNL     1      -5.749  -4.579  -0.756  1.00  0.00    -0.061 A 
HETATM   29  C29 UNL     1      -6.247  -5.987  -0.650  1.00  0.00     0.048 C 
HETATM   30  C30 UNL     1      -6.608  -3.545  -0.967  1.00  0.00     0.014 A 
HETATM   31  C31 UNL     1      -6.237  -2.225  -1.077  1.00  0.00    -0.045 A 
HETATM   32  C32 UNL     1      -7.273  -1.176  -1.291  1.00  0.00     0.049 C 
ENDBRANCH  21  24
ENDBRANCH  16  20
ENDBRANCH  15  16
ENDBRANCH  13  15
ENDBRANCH   1  13
BRANCH   1  33
HETATM   33  C14 UNL     1       1.230   0.731  -0.842  1.00  0.00     0.132 C 
HETATM   34  C15 UNL     1       0.905   0.691  -2.340  1.00  0.00     0.039 C 
BRANCH  33  35
HETATM   35  N5  UNL     1       0.757  -0.524  -0.299  1.00  0.00    -0.369 N 
ATOM     36  H5  UNL     1       0.167  -1.090  -0.909  1.00  0.00     0.161 HD
BRANCH  35  37
HETATM   37  C16 UNL     1       1.023  -1.050   0.983  1.00  0.00     0.089 C 
HETATM   38  N6  UNL     1       0.018  -1.250   1.774  1.00  0.00    -0.388 N 
ATOM     39  H62 UNL     1      -0.922  -1.018   1.452  1.00  0.00     0.157 HD
ATOM     40  H61 UNL     1       0.210  -1.630   2.701  1.00  0.00     0.157 HD
BRANCH  37  41
HETATM   41  C17 UNL     1       2.394  -1.388   1.453  1.00  0.00     0.198 C 
BRANCH  41  42
HETATM   42  N7  UNL     1       3.123  -2.172   0.511  1.00  0.00    -0.352 N 
HETATM   43  C18 UNL     1       4.447  -2.581   0.801  1.00  0.00     0.240 C 
HETATM   44  O2  UNL     1       4.965  -2.248   1.903  1.00  0.00    -0.271 OA
ATOM     45  H7  UNL     1       2.690  -2.439  -0.373  1.00  0.00     0.162 HD
BRANCH  43  46
HETATM   46  C19 UNL     1       5.258  -3.390  -0.146  1.00  0.00     0.172 C 
HETATM   47  C20 UNL     1       5.512  -2.581  -1.434  1.00  0.00     0.042 C 
BRANCH  46  48
HETATM   48  N8  UNL     1       6.541  -3.645   0.419  1.00  0.00    -0.349 N 
HETATM   49  C21 UNL     1       7.081  -4.955   0.468  1.00  0.00     0.214 C 
HETATM   50  C22 UNL     1       8.435  -5.151   1.073  1.00  0.00     0.117 C 
HETATM   51  O3  UNL     1       6.402  -5.912  -0.001  1.00  0.00    -0.274 OA
ATOM     52  H8  UNL     1       7.083  -2.868   0.797  1.00  0.00     0.163 HD
ENDBRANCH  46  48
ENDBRANCH  43  46
ENDBRANCH  41  42
ENDBRANCH  37  41
ENDBRANCH  35  37
ENDBRANCH  33  35
ENDBRANCH   1  33
TORSDOF 13
