REMARK  1 active torsions:
REMARK  status: ('A' for Active; 'I' for Inactive)
REMARK    1  A    between atoms: N1_1  and  C1_5 
ROOT
HETATM    1  C1  UNL     1       1.122   0.266   0.388  1.00  0.00     0.183 C 
HETATM    2  C2  UNL     1       1.045  -0.929  -0.500  1.00  0.00     0.033 C 
HETATM    3  C3  UNL     1      -0.250  -1.642  -0.505  1.00  0.00     0.002 C 
HETATM    4  C4  UNL     1      -1.298  -1.083   0.399  1.00  0.00     0.000 C 
HETATM    5  C5  UNL     1      -1.853   0.231  -0.017  1.00  0.00     0.000 C 
HETATM    6  C6  UNL     1      -1.019   1.414   0.393  1.00  0.00     0.002 C 
HETATM    7  C7  UNL     1       0.325   1.386  -0.285  1.00  0.00     0.033 C 
ENDROOT
BRANCH   1   8
HETATM    8  N1  UNL     1       2.476   0.724   0.524  1.00  0.00    -0.075 N 
ATOM      9  H13 UNL     1       3.094  -0.022   0.844  1.00  0.00     0.274 HD
ATOM     10  H12 UNL     1       2.905   0.903  -0.384  1.00  0.00     0.274 HD
ATOM     11  H11 UNL     1       2.529   1.542   1.132  1.00  0.00     0.274 HD
ENDBRANCH   1   8
TORSDOF 1
