REMARK  3 active torsions:
REMARK  status: ('A' for Active; 'I' for Inactive)
REMARK    1  A    between atoms: C1_2  and  C2_4 
REMARK       I    between atoms: N1_8  and  C6_9 
REMARK       I    between atoms: C6_9  and  N2_11 
REMARK    2  A    between atoms: N2_11  and  N3_13 
REMARK       I    between atoms: N3_13  and  C7_15 
REMARK    3  A    between atoms: C7_15  and  C8_17 
ROOT
HETATM    1  C2  UNL     1      -3.596   0.626   0.157  1.00  0.00     0.105 C 
HETATM    2  C3  UNL     1      -3.574  -0.443  -0.938  1.00  0.00     0.019 C 
HETATM    3  C4  UNL     1      -3.122  -1.711  -0.200  1.00  0.00     0.021 C 
HETATM    4  C5  UNL     1      -1.624  -1.607  -0.074  1.00  0.00     0.127 C 
HETATM    5  N1  UNL     1      -1.306  -0.277   0.410  1.00  0.00    -0.332 N 
HETATM    6  C6  UNL     1       0.082   0.091   0.361  1.00  0.00     0.337 C 
HETATM    7  O3  UNL     1       0.417   1.233   0.766  1.00  0.00    -0.245 OA
HETATM    8  N2  UNL     1       1.078  -0.771  -0.121  1.00  0.00    -0.249 N 
ATOM      9  H2  UNL     1       0.790  -1.693  -0.448  1.00  0.00     0.192 HD
HETATM   10  C11 UNL     1      -2.290   0.644   0.916  1.00  0.00     0.143 C 
ENDROOT
BRANCH   8  11
HETATM   11  N3  UNL     1       2.428  -0.457  -0.184  1.00  0.00    -0.266 N 
HETATM   12  C7  UNL     1       3.190  -0.144   0.968  1.00  0.00     0.240 C 
HETATM   13  O4  UNL     1       2.590  -0.159   2.084  1.00  0.00    -0.271 OA
ATOM     14  H3  UNL     1       2.889  -0.451  -1.094  1.00  0.00     0.190 HD
BRANCH  12  15
HETATM   15  C8  UNL     1       4.640   0.191   0.898  1.00  0.00     0.080 A 
HETATM   16  C9  UNL     1       5.501  -0.453  -0.125  1.00  0.00     0.015 A 
HETATM   17  C10 UNL     1       5.055   0.973  -0.323  1.00  0.00     0.015 A 
ENDBRANCH  12  15
ENDBRANCH   8  11
BRANCH   1  18
HETATM   18  C1  UNL     1      -4.000   1.941  -0.357  1.00  0.00     0.178 C 
HETATM   19  O1  UNL     1      -5.029   2.543   0.083  1.00  0.00    -0.648 OA
HETATM   20  O2  UNL     1      -3.274   2.569  -1.337  1.00  0.00    -0.648 OA
ENDBRANCH   1  18
TORSDOF 3
