REMARK  14 active torsions:
REMARK  status: ('A' for Active; 'I' for Inactive)
REMARK    1  A    between atoms: C2_2  and  C3_3 
REMARK    2  A    between atoms: C3_3  and  C4_4 
REMARK    3  A    between atoms: C4_4  and  C5_5 
REMARK    4  A    between atoms: C4_4  and  C8_8 
REMARK    5  A    between atoms: C4_4  and  C12_16 
REMARK    6  A    between atoms: C5_5  and  C6_6 
REMARK    7  A    between atoms: C8_8  and  C9_9 
REMARK    8  A    between atoms: C9_9  and  C10_10 
REMARK    9  A    between atoms: C10_10  and  C11_11 
REMARK   10  A    between atoms: C11_11  and  N1_12 
REMARK   11  A    between atoms: C12_16  and  C13_17 
REMARK   12  A    between atoms: C13_17  and  O1_18 
REMARK   13  A    between atoms: O1_18  and  N2_19 
REMARK   14  A    between atoms: N2_19  and  C14_21 
ROOT
HETATM    1  C4  UNL     1      -0.468  -0.287  -0.488  1.00  0.00    -0.038 C 
ENDROOT
BRANCH   1   2
HETATM    2  C3  UNL     1      -0.871  -0.763  -1.820  1.00  0.00     0.009 C 
BRANCH   2   3
HETATM    3  C2  UNL     1      -0.290  -1.966  -2.415  1.00  0.00    -0.004 C 
HETATM    4  C1  UNL     1      -0.963  -2.152  -3.795  1.00  0.00     0.005 C 
ENDBRANCH   2   3
ENDBRANCH   1   2
BRANCH   1   5
HETATM    5  C5  UNL     1      -0.646  -1.262   0.633  1.00  0.00     0.009 C 
BRANCH   5   6
HETATM    6  C6  UNL     1      -2.048  -1.720   0.842  1.00  0.00    -0.004 C 
HETATM    7  C7  UNL     1      -2.114  -2.703   2.001  1.00  0.00     0.005 C 
ENDBRANCH   5   6
ENDBRANCH   1   5
BRANCH   1   8
HETATM    8  C8  UNL     1      -1.556   0.864  -0.258  1.00  0.00     0.010 C 
BRANCH   8   9
HETATM    9  C9  UNL     1      -1.392   1.524   1.036  1.00  0.00     0.002 C 
BRANCH   9  10
HETATM   10  C10 UNL     1      -2.385   2.618   1.303  1.00  0.00     0.027 C 
BRANCH  10  11
HETATM   11  C11 UNL     1      -3.825   2.242   1.353  1.00  0.00     0.229 C 
BRANCH  11  12
HETATM   12  N1  UNL     1      -4.418   1.709   0.186  1.00  0.00    -0.079 N 
ATOM     13  H13 UNL     1      -4.270   2.356  -0.588  1.00  0.00     0.274 HD
ATOM     14  H12 UNL     1      -3.874   0.904  -0.126  1.00  0.00     0.274 HD
ATOM     15  H11 UNL     1      -5.404   1.451   0.220  1.00  0.00     0.274 HD
ENDBRANCH  11  12
ENDBRANCH  10  11
ENDBRANCH   9  10
ENDBRANCH   8   9
ENDBRANCH   1   8
BRANCH   1  16
HETATM   16  C12 UNL     1       0.809   0.440  -0.437  1.00  0.00     0.038 C 
BRANCH  16  17
HETATM   17  C13 UNL     1       2.061  -0.214  -0.894  1.00  0.00     0.202 C 
BRANCH  17  18
HETATM   18  O1  UNL     1       3.109   0.770  -0.625  1.00  0.00    -0.278 OA
BRANCH  18  19
HETATM   19  N2  UNL     1       4.374   0.416  -0.957  1.00  0.00    -0.244 N 
ATOM     20  H2  UNL     1       4.594   0.028  -1.875  1.00  0.00     0.196 HD
BRANCH  19  21
HETATM   21  C14 UNL     1       5.308   0.593  -0.046  1.00  0.00     0.168 A 
HETATM   22  N3  UNL     1       5.185   1.083   1.186  1.00  0.00    -0.345 N 
HETATM   23  C15 UNL     1       6.246   1.176   1.937  1.00  0.00     0.097 A 
ATOM     24  H3  UNL     1       4.275   1.381   1.536  1.00  0.00     0.167 HD
HETATM   25  C16 UNL     1       7.441   0.760   1.411  1.00  0.00     0.070 A 
HETATM   26  S1  UNL     1       6.983   0.250  -0.151  1.00  0.00    -0.063 SA
ENDBRANCH  19  21
ENDBRANCH  18  19
ENDBRANCH  17  18
ENDBRANCH  16  17
ENDBRANCH   1  16
TORSDOF 14
