REMARK  9 active torsions:
REMARK  status: ('A' for Active; 'I' for Inactive)
REMARK    1  A    between atoms: N1_1  and  C1_4 
REMARK    2  A    between atoms: C2_7  and  N3_8 
REMARK    3  A    between atoms: N3_8  and  O1_9 
REMARK    4  A    between atoms: N3_8  and  C3_11 
REMARK    5  A    between atoms: C4_13  and  N4_14 
REMARK    6  A    between atoms: N4_14  and  C5_16 
REMARK    7  A    between atoms: C5_16  and  N5_18 
REMARK    8  A    between atoms: N5_18  and  N6_20 
REMARK    9  A    between atoms: N6_20  and  C6_22 
ROOT
HETATM    1  C1  UNL     1      -3.150   0.615   1.433  1.00  0.00     0.680 A 
HETATM    2  N2  UNL     1      -2.758   0.624   0.146  1.00  0.00    -0.172 N 
ATOM      3  H2  UNL     1      -3.327   1.086  -0.563  1.00  0.00     0.186 HD
HETATM    4  C2  UNL     1      -1.597   0.011  -0.197  1.00  0.00     0.183 A 
HETATM    5  C4  UNL     1      -0.815  -0.620   0.751  1.00  0.00     0.151 A 
HETATM    6  C7  UNL     1      -1.274  -0.593   2.051  1.00  0.00     0.290 A 
HETATM    7  O4  UNL     1      -0.602  -1.149   2.939  1.00  0.00    -0.265 OA
HETATM    8  N7  UNL     1      -2.427   0.015   2.395  1.00  0.00    -0.154 N 
ATOM      9  H7  UNL     1      -2.744   0.020   3.364  1.00  0.00     0.187 HD
ENDROOT
BRANCH   5  10
HETATM   10  N4  UNL     1       0.390  -1.248   0.392  1.00  0.00    -0.324 N 
ATOM     11  H4  UNL     1       0.358  -2.229   0.113  1.00  0.00     0.168 HD
BRANCH  10  12
HETATM   12  C5  UNL     1       1.654  -0.590   0.396  1.00  0.00     0.191 C 
HETATM   13  S1  UNL     1       1.728   0.991   0.845  1.00  0.00    -0.039 SA
BRANCH  12  14
HETATM   14  N5  UNL     1       2.823  -1.283   0.022  1.00  0.00    -0.274 N 
ATOM     15  H5  UNL     1       2.736  -2.262  -0.250  1.00  0.00     0.189 HD
BRANCH  14  16
HETATM   16  N6  UNL     1       4.089  -0.705   0.004  1.00  0.00    -0.275 N 
ATOM     17  H6  UNL     1       4.799  -1.093   0.625  1.00  0.00     0.189 HD
BRANCH  16  18
HETATM   18  C6  UNL     1       4.454   0.384  -0.819  1.00  0.00     0.368 C 
HETATM   19  O3  UNL     1       3.669   0.944  -1.622  1.00  0.00    -0.282 OA
ENDBRANCH  16  18
ENDBRANCH  14  16
ENDBRANCH  12  14
ENDBRANCH  10  12
ENDBRANCH   5  10
BRANCH   4  20
HETATM   20  N3  UNL     1      -1.162   0.002  -1.551  1.00  0.00    -0.179 N 
BRANCH  20  21
HETATM   21  O1  UNL     1      -1.109  -1.100  -2.145  1.00  0.00    -0.279 OA
ATOM     22  H1  UNL     1      -0.818  -1.106  -3.049  1.00  0.00     0.245 HD
ENDBRANCH  20  21
BRANCH  20  23
HETATM   23  C3  UNL     1      -0.794   1.161  -2.242  1.00  0.00     0.383 C 
HETATM   24  O2  UNL     1      -0.854   2.267  -1.621  1.00  0.00    -0.281 OA
ENDBRANCH  20  23
ENDBRANCH   4  20
BRANCH   1  25
HETATM   25  N1  UNL     1      -4.273   1.210   1.753  1.00  0.00    -0.234 N 
ATOM     26  H12 UNL     1      -4.821   1.665   1.023  1.00  0.00     0.174 HD
ATOM     27  H11 UNL     1      -4.570   1.203   2.729  1.00  0.00     0.174 HD
ENDBRANCH   1  25
TORSDOF 9
