REMARK  6 active torsions:
REMARK  status: ('A' for Active; 'I' for Inactive)
REMARK    1  A    between atoms: C3_6  and  C4_7 
REMARK    2  A    between atoms: C4_7  and  N2_8 
REMARK    3  A    between atoms: N2_8  and  C5_11 
REMARK    4  A    between atoms: C5_11  and  C6_12 
REMARK    5  A    between atoms: C6_12  and  N3_13 
REMARK    6  A    between atoms: N3_13  and  C7_15 
ROOT
HETATM    1  N2  UNL     1      -0.272  -0.475  -0.492  1.00  0.00    -0.072 N 
ATOM      2  H21 UNL     1       0.084   0.439  -0.212  1.00  0.00     0.277 HD
ATOM      3  H22 UNL     1      -0.499  -0.261  -1.463  1.00  0.00     0.277 HD
ENDROOT
BRANCH   1   4
HETATM    4  C4  UNL     1      -1.458  -0.848   0.269  1.00  0.00     0.265 C 
BRANCH   4   5
HETATM    5  C3  UNL     1      -2.493   0.228   0.078  1.00  0.00     0.211 C 
HETATM    6  N1  UNL     1      -2.866   0.407  -1.319  1.00  0.00    -0.069 N 
HETATM    7  C2  UNL     1      -4.053   1.235  -1.226  1.00  0.00     0.233 C 
ATOM      8  H12 UNL     1      -2.988  -0.459  -1.844  1.00  0.00     0.277 HD
ATOM      9  H11 UNL     1      -2.128   0.782  -1.915  1.00  0.00     0.277 HD
HETATM   10  C1  UNL     1      -4.803   0.744   0.013  1.00  0.00     0.029 C 
HETATM   11  C10 UNL     1      -3.843  -0.229   0.661  1.00  0.00     0.036 C 
ENDBRANCH   4   5
ENDBRANCH   1   4
BRANCH   1  12
HETATM   12  C5  UNL     1       0.748  -1.501  -0.393  1.00  0.00     0.252 C 
BRANCH  12  13
HETATM   13  C6  UNL     1       1.289  -1.536   0.997  1.00  0.00     0.150 C 
BRANCH  13  14
HETATM   14  N3  UNL     1       1.909  -0.261   1.311  1.00  0.00    -0.361 N 
ATOM     15  H3  UNL     1       1.486   0.362   1.999  1.00  0.00     0.162 HD
BRANCH  14  16
HETATM   16  C7  UNL     1       3.129   0.117   0.641  1.00  0.00     0.171 C 
HETATM   17  N4  UNL     1       3.805  -0.668  -0.124  1.00  0.00    -0.361 N 
HETATM   18  C8  UNL     1       4.973  -0.007  -0.645  1.00  0.00     0.142 C 
ATOM     19  H4  UNL     1       3.547  -1.632  -0.333  1.00  0.00     0.162 HD
HETATM   20  C9  UNL     1       4.857   1.391  -0.171  1.00  0.00     0.142 C 
HETATM   21  N5  UNL     1       3.737   1.379   0.732  1.00  0.00    -0.361 N 
ATOM     22  H5  UNL     1       3.438   2.149   1.331  1.00  0.00     0.162 HD
ENDBRANCH  14  16
ENDBRANCH  13  14
ENDBRANCH  12  13
ENDBRANCH   1  12
TORSDOF 6
