REMARK  4 active torsions:
REMARK  status: ('A' for Active; 'I' for Inactive)
REMARK    1  A    between atoms: C2_2  and  C3_3 
REMARK    2  A    between atoms: C2_2  and  C8_10 
REMARK    3  A    between atoms: C3_3  and  N1_4 
REMARK    4  A    between atoms: N1_4  and  C4_6 
ROOT
HETATM    1  C1  UNL     1       1.012  -0.541   1.764  1.00  0.00     0.014 C 
HETATM    2  C2  UNL     1       1.104   0.341   0.512  1.00  0.00     0.029 C 
ENDROOT
BRANCH   2   3
HETATM    3  C3  UNL     1      -0.078  -0.042  -0.380  1.00  0.00     0.120 C 
BRANCH   3   4
HETATM    4  N1  UNL     1      -1.265   0.206   0.370  1.00  0.00    -0.413 N 
ATOM      5  H1  UNL     1      -1.237   0.565   1.324  1.00  0.00     0.153 HD
BRANCH   4   6
HETATM    6  C4  UNL     1      -2.501  -0.080  -0.298  1.00  0.00     0.014 C 
HETATM    7  C5  UNL     1      -2.682   0.816  -1.505  1.00  0.00     0.037 C 
HETATM    8  C6  UNL     1      -3.629   0.219   0.666  1.00  0.00     0.037 C 
HETATM    9  C7  UNL     1      -2.609  -1.540  -0.698  1.00  0.00     0.037 C 
ENDBRANCH   4   6
ENDBRANCH   3   4
ENDBRANCH   2   3
BRANCH   2  10
HETATM   10  C8  UNL     1       2.410  -0.031  -0.133  1.00  0.00     0.192 C 
HETATM   11  C9  UNL     1       3.548   0.261   0.851  1.00  0.00     0.061 C 
HETATM   12  C10 UNL     1       4.311   0.454  -0.469  1.00  0.00     0.235 C 
HETATM   13  N2  UNL     1       3.021   0.914  -1.012  1.00  0.00    -0.070 N 
ATOM     14  H22 UNL     1       2.833   0.908  -2.014  1.00  0.00     0.277 HD
ATOM     15  H21 UNL     1       2.759   1.900  -1.000  1.00  0.00     0.277 HD
ENDBRANCH   2  10
TORSDOF 4
