REMARK  9 active torsions:
REMARK  status: ('A' for Active; 'I' for Inactive)
REMARK    1  A    between atoms: C2_2  and  C3_3 
REMARK    2  A    between atoms: C4_4  and  O1_5 
REMARK    3  A    between atoms: C9_10  and  O2_11 
REMARK    4  A    between atoms: C10_13  and  C11_14 
REMARK    5  A    between atoms: C13_16  and  O3_17 
REMARK    6  A    between atoms: C15_19  and  O4_20 
REMARK    7  A    between atoms: C17_22  and  O5_23 
REMARK    8  A    between atoms: C20_26  and  C21_27 
REMARK    9  A    between atoms: C22_30  and  O8_31 
ROOT
HETATM    1  C3  UNL     1      -2.629   1.185   1.483  1.00  0.00     0.030 A 
HETATM    2  C4  UNL     1      -3.747   0.883   0.756  1.00  0.00     0.081 A 
HETATM    3  C6  UNL     1      -3.646   0.377  -0.535  1.00  0.00     0.048 A 
HETATM    4  C7  UNL     1      -2.401   0.179  -1.085  1.00  0.00    -0.016 A 
HETATM    5  C8  UNL     1      -1.280   0.482  -0.358  1.00  0.00    -0.006 A 
HETATM    6  C9  UNL     1      -1.362   0.984   0.924  1.00  0.00     0.086 A 
HETATM    7  C10 UNL     1      -0.109   0.168  -1.244  1.00  0.00     0.072 C 
HETATM    8  C20 UNL     1      -0.629  -0.966  -2.057  1.00  0.00     0.133 C 
HETATM    9  C22 UNL     1      -1.997  -0.368  -2.449  1.00  0.00     0.167 C 
ENDROOT
BRANCH   7  10
HETATM   10  C11 UNL     1       1.133  -0.090  -0.534  1.00  0.00    -0.043 A 
HETATM   11  C12 UNL     1       2.053   0.933  -0.412  1.00  0.00     0.047 A 
HETATM   12  C13 UNL     1       3.260   0.778   0.245  1.00  0.00     0.104 A 
HETATM   13  C15 UNL     1       3.537  -0.463   0.796  1.00  0.00     0.135 A 
HETATM   14  C17 UNL     1       2.650  -1.513   0.700  1.00  0.00     0.104 A 
HETATM   15  C19 UNL     1       1.464  -1.308   0.037  1.00  0.00     0.047 A 
BRANCH  12  16
HETATM   16  O3  UNL     1       4.167   1.804   0.359  1.00  0.00    -0.353 OA
HETATM   17  C14 UNL     1       3.981   3.093  -0.161  1.00  0.00     0.210 C 
ENDBRANCH  12  16
BRANCH  13  18
HETATM   18  O4  UNL     1       4.751  -0.637   1.463  1.00  0.00    -0.351 OA
HETATM   19  C16 UNL     1       5.919  -1.070   0.802  1.00  0.00     0.210 C 
ENDBRANCH  13  18
BRANCH  14  20
HETATM   20  O5  UNL     1       2.971  -2.733   1.266  1.00  0.00    -0.353 OA
HETATM   21  C18 UNL     1       2.030  -3.800   1.148  1.00  0.00     0.210 C 
ENDBRANCH  14  20
ENDBRANCH   7  10
BRANCH   8  22
HETATM   22  C21 UNL     1       0.177  -1.240  -3.270  1.00  0.00     0.180 C 
HETATM   23  O6  UNL     1       1.184  -0.574  -3.558  1.00  0.00    -0.648 OA
HETATM   24  O7  UNL     1      -0.216  -2.272  -4.098  1.00  0.00    -0.648 OA
ENDBRANCH   8  22
BRANCH   6  25
HETATM   25  O2  UNL     1      -0.233   1.270   1.610  1.00  0.00    -0.359 OA
ATOM     26  H2  UNL     1       0.627   1.134   1.231  1.00  0.00     0.217 HD
ENDBRANCH   6  25
BRANCH   9  27
HETATM   27  O8  UNL     1      -1.797   0.729  -3.261  1.00  0.00    -0.390 OA
ATOM     28  H8  UNL     1      -1.545   0.388  -4.111  1.00  0.00     0.210 HD
ENDBRANCH   9  27
BRANCH   1  29
HETATM   29  C2  UNL     1      -2.655   1.686   2.833  1.00  0.00     0.007 C 
HETATM   30  C1  UNL     1      -3.635   1.549   3.689  1.00  0.00     0.012 C 
ENDBRANCH   1  29
BRANCH   2  31
HETATM   31  O1  UNL     1      -4.996   1.086   1.311  1.00  0.00    -0.355 OA
HETATM   32  C5  UNL     1      -6.140   0.770   0.547  1.00  0.00     0.210 C 
ENDBRANCH   2  31
TORSDOF 9
