REMARK  7 active torsions:
REMARK  status: ('A' for Active; 'I' for Inactive)
REMARK    1  A    between atoms: C2_2  and  O1_4 
REMARK    2  A    between atoms: O1_4  and  C4_5 
REMARK    3  A    between atoms: C6_7  and  N1_8 
REMARK    4  A    between atoms: N1_8  and  C7_10 
REMARK    5  A    between atoms: C10_19  and  N5_20 
REMARK    6  A    between atoms: C12_25  and  S2_26 
REMARK    7  A    between atoms: S2_26  and  C13_27 
ROOT
HETATM    1  N1  UNL     1       1.354   0.688  -1.239  1.00  0.00    -0.340 N 
ATOM      2  H1  UNL     1       1.259   1.442  -1.919  1.00  0.00     0.167 HD
ENDROOT
BRANCH   1   3
HETATM    3  C6  UNL     1       0.201   0.449  -0.488  1.00  0.00     0.053 A 
HETATM    4  C5  UNL     1      -0.794  -0.414  -0.831  1.00  0.00     0.071 A 
HETATM    5  C4  UNL     1      -1.950  -0.631  -0.058  1.00  0.00     0.110 A 
HETATM    6  C17 UNL     1      -2.073   0.073   1.108  1.00  0.00     0.151 A 
HETATM    7  C16 UNL     1      -1.048   0.964   1.466  1.00  0.00     0.066 A 
HETATM    8  F1  UNL     1      -3.153  -0.049   1.952  1.00  0.00    -0.203 F 
HETATM    9  C12 UNL     1       0.069   1.162   0.700  1.00  0.00     0.030 A 
BRANCH   5  10
HETATM   10  O1  UNL     1      -2.884  -1.509  -0.482  1.00  0.00    -0.344 OA
BRANCH  10  11
HETATM   11  C2  UNL     1      -4.078  -1.986  -0.070  1.00  0.00     0.121 C 
HETATM   12  C1  UNL     1      -4.065  -3.523   0.115  1.00  0.00     0.040 C 
HETATM   13  C3  UNL     1      -5.143  -1.774  -1.171  1.00  0.00     0.040 C 
ENDBRANCH  10  11
ENDBRANCH   5  10
BRANCH   9  14
HETATM   14  S2  UNL     1       1.319   2.307   1.231  1.00  0.00    -0.123 SA
BRANCH  14  15
HETATM   15  C13 UNL     1       1.043   3.973   0.649  1.00  0.00     0.044 C 
HETATM   16  C14 UNL     1      -0.188   4.616   1.246  1.00  0.00     0.021 C 
HETATM   17  C15 UNL     1       0.958   4.035  -0.869  1.00  0.00     0.021 C 
ENDBRANCH  14  15
ENDBRANCH   9  14
ENDBRANCH   1   3
BRANCH   1  18
HETATM   18  C7  UNL     1       2.481   0.147  -1.231  1.00  0.00     0.128 A 
HETATM   19  N2  UNL     1       3.458   0.576  -2.085  1.00  0.00    -0.337 N 
HETATM   20  C8  UNL     1       4.635  -0.101  -1.969  1.00  0.00     0.183 A 
ATOM     21  H2  UNL     1       3.318   1.336  -2.751  1.00  0.00     0.168 HD
HETATM   22  N3  UNL     1       4.877  -1.088  -1.131  1.00  0.00    -0.337 N 
HETATM   23  C9  UNL     1       3.915  -1.541  -0.261  1.00  0.00     0.129 A 
ATOM     24  H3  UNL     1       5.798  -1.525  -1.128  1.00  0.00     0.168 HD
HETATM   25  N4  UNL     1       4.033  -2.513   0.618  1.00  0.00    -0.322 N 
HETATM   26  C11 UNL     1       2.720  -0.888  -0.347  1.00  0.00     0.096 A 
HETATM   27  C10 UNL     1       2.977  -2.806   1.377  1.00  0.00     0.144 A 
ATOM     28  H4  UNL     1       4.908  -3.028   0.716  1.00  0.00     0.169 HD
HETATM   29  S1  UNL     1       1.797  -1.693   0.844  1.00  0.00    -0.047 SA
BRANCH  27  30
HETATM   30  N5  UNL     1       2.897  -3.735   2.305  1.00  0.00    -0.380 N 
ATOM     31  H52 UNL     1       3.602  -4.400   2.623  1.00  0.00     0.158 HD
ATOM     32  H51 UNL     1       2.089  -3.959   2.886  1.00  0.00     0.158 HD
ENDBRANCH  27  30
ENDBRANCH   1  18
TORSDOF 7
