REMARK  7 active torsions:
REMARK  status: ('A' for Active; 'I' for Inactive)
REMARK    1  A    between atoms: C2_2  and  C3_3 
REMARK    2  A    between atoms: C3_3  and  C4_4 
REMARK    3  A    between atoms: C4_4  and  C5_5 
REMARK    4  A    between atoms: N1_11  and  N2_13 
REMARK    5  A    between atoms: C12_18  and  O1_19 
REMARK    6  A    between atoms: N5_23  and  O2_24 
REMARK    7  A    between atoms: C14_26  and  C15_27 
ROOT
HETATM    1  N2  UNL     1      -0.254  -1.107  -2.458  1.00  0.00    -0.130 N 
ATOM      2  H2  UNL     1       0.195  -1.535  -3.268  1.00  0.00     0.205 HD
HETATM    3  C11 UNL     1      -1.515  -1.219  -2.431  1.00  0.00     0.723 A 
HETATM    4  N3  UNL     1      -2.240  -1.869  -3.417  1.00  0.00    -0.164 N 
ATOM      5  H3  UNL     1      -1.866  -2.315  -4.255  1.00  0.00     0.186 HD
HETATM    6  C12 UNL     1      -3.506  -1.799  -3.062  1.00  0.00     0.192 A 
HETATM    7  C13 UNL     1      -3.622  -1.138  -1.905  1.00  0.00     0.164 A 
HETATM    8  N4  UNL     1      -2.385  -0.775  -1.509  1.00  0.00    -0.052 N 
HETATM    9  N5  UNL     1      -2.298  -0.047  -0.304  1.00  0.00    -0.173 N 
HETATM   10  C14 UNL     1      -3.028  -0.277   0.878  1.00  0.00     0.148 C 
HETATM   11  C18 UNL     1      -4.447  -0.727   0.781  1.00  0.00     0.111 C 
HETATM   12  S1  UNL     1      -5.055  -0.743  -0.928  1.00  0.00    -0.103 SA
ENDROOT
BRANCH   1  13
HETATM   13  N1  UNL     1       0.585  -0.521  -1.600  1.00  0.00    -0.295 N 
HETATM   14  C2  UNL     1       1.851  -0.467  -1.759  1.00  0.00     0.000 C 
HETATM   15  C1  UNL     1       2.474  -1.074  -2.948  1.00  0.00     0.065 C 
ATOM     16  H1  UNL     1       0.190  -0.089  -0.765  1.00  0.00     0.186 HD
BRANCH  14  17
HETATM   17  C3  UNL     1       2.687   0.204  -0.750  1.00  0.00     0.058 C 
BRANCH  17  18
HETATM   18  C4  UNL     1       3.713  -0.746  -0.131  1.00  0.00     0.044 C 
BRANCH  18  19
HETATM   19  C5  UNL     1       4.478   0.058   0.858  1.00  0.00    -0.058 A 
HETATM   20  C6  UNL     1       4.042   0.131   2.165  1.00  0.00     0.007 A 
HETATM   21  C7  UNL     1       4.722   0.868   3.123  1.00  0.00     0.001 A 
HETATM   22  C8  UNL     1       5.868   1.559   2.797  1.00  0.00     0.000 A 
HETATM   23  C9  UNL     1       6.303   1.485   1.489  1.00  0.00     0.001 A 
HETATM   24  C10 UNL     1       5.625   0.748   0.524  1.00  0.00     0.007 A 
ENDBRANCH  18  19
ENDBRANCH  17  18
ENDBRANCH  14  17
ENDBRANCH   1  13
BRANCH   6  25
HETATM   25  O1  UNL     1      -4.543  -2.363  -3.842  1.00  0.00    -0.344 OA
ATOM     26  H1  UNL     1      -5.456  -2.312  -3.586  1.00  0.00     0.219 HD
ENDBRANCH   6  25
BRANCH   9  27
HETATM   27  O2  UNL     1      -1.416   0.983  -0.309  1.00  0.00    -0.271 OA
ATOM     28  H2  UNL     1      -1.357   1.473   0.503  1.00  0.00     0.246 HD
ENDBRANCH   9  27
BRANCH  10  29
HETATM   29  C15 UNL     1      -3.061   1.008   1.698  1.00  0.00     0.005 C 
HETATM   30  C16 UNL     1      -3.859   0.784   2.983  1.00  0.00     0.012 C 
HETATM   31  C17 UNL     1      -3.753   2.128   0.947  1.00  0.00     0.012 C 
ENDBRANCH  10  29
TORSDOF 7
