REMARK  8 active torsions:
REMARK  status: ('A' for Active; 'I' for Inactive)
REMARK    1  A    between atoms: O1_2  and  C2_3 
REMARK    2  A    between atoms: C5_6  and  C6_7 
REMARK    3  A    between atoms: C6_7  and  C7_8 
REMARK    4  A    between atoms: C9_11  and  C10_12 
REMARK    5  A    between atoms: N3_19  and  C13_20 
REMARK    6  A    between atoms: C13_20  and  C14_21 
REMARK    7  A    between atoms: C20_28  and  O4_29 
REMARK    8  A    between atoms: C22_31  and  O5_32 
ROOT
HETATM    1  C10 UNL     1       0.755   4.184  -2.366  1.00  0.00     0.127 C 
HETATM    2  C11 UNL     1       1.498   5.333  -2.747  1.00  0.00     0.090 C 
HETATM    3  N1  UNL     1       2.123   6.261  -3.065  1.00  0.00    -0.192 NA
ENDROOT
BRANCH   1   4
HETATM    4  C9  UNL     1       1.337   3.042  -2.044  1.00  0.00     0.099 A 
HETATM    5  C8  UNL     1       0.592   1.924  -1.673  1.00  0.00     0.226 A 
HETATM    6  C7  UNL     1       1.178   0.727  -1.325  1.00  0.00     0.096 A 
HETATM    7  O2  UNL     1      -0.669   2.093  -1.679  1.00  0.00    -0.283 OA
HETATM    8  N3  UNL     1       2.521   0.596  -1.331  1.00  0.00    -0.270 N 
HETATM    9  C12 UNL     1       3.230   1.700  -1.703  1.00  0.00     0.331 A 
HETATM   10  N2  UNL     1       2.658   2.862  -2.040  1.00  0.00    -0.304 N 
HETATM   11  O3  UNL     1       4.513   1.682  -1.766  1.00  0.00    -0.246 OA
ATOM     12  H2  UNL     1       3.258   3.643  -2.305  1.00  0.00     0.171 HD
BRANCH   6  13
HETATM   13  C6  UNL     1       0.370  -0.268  -1.030  1.00  0.00     0.048 C 
BRANCH  13  14
HETATM   14  C5  UNL     1      -1.084  -0.283  -1.013  1.00  0.00     0.003 A 
HETATM   15  C4  UNL     1      -1.831  -0.629  -2.129  1.00  0.00     0.017 A 
HETATM   16  C3  UNL     1      -3.193  -0.667  -2.050  1.00  0.00     0.040 A 
HETATM   17  C2  UNL     1      -3.865  -0.374  -0.896  1.00  0.00     0.104 A 
HETATM   18  C22 UNL     1      -3.147  -0.021   0.251  1.00  0.00     0.136 A 
HETATM   19  C20 UNL     1      -1.773   0.020   0.175  1.00  0.00     0.114 A 
BRANCH  17  20
HETATM   20  O1  UNL     1      -5.233  -0.413  -0.811  1.00  0.00    -0.353 OA
HETATM   21  C1  UNL     1      -6.076  -0.756  -1.895  1.00  0.00     0.210 C 
ENDBRANCH  17  20
BRANCH  18  22
HETATM   22  O5  UNL     1      -3.796   0.277   1.416  1.00  0.00    -0.351 OA
HETATM   23  C23 UNL     1      -4.149  -0.630   2.419  1.00  0.00     0.210 C 
ENDBRANCH  18  22
BRANCH  19  24
HETATM   24  O4  UNL     1      -1.029   0.359   1.263  1.00  0.00    -0.352 OA
HETATM   25  C21 UNL     1      -0.501  -0.450   2.257  1.00  0.00     0.210 C 
ENDBRANCH  19  24
ENDBRANCH  13  14
ENDBRANCH   6  13
BRANCH   8  26
HETATM   26  C13 UNL     1       3.182  -0.610  -1.043  1.00  0.00     0.115 C 
BRANCH  26  27
HETATM   27  C14 UNL     1       3.336  -1.189   0.268  1.00  0.00     0.002 A 
HETATM   28  C15 UNL     1       2.945  -2.541   0.474  1.00  0.00     0.014 A 
HETATM   29  C16 UNL     1       3.129  -3.225   1.635  1.00  0.00     0.001 A 
HETATM   30  C17 UNL     1       3.727  -2.627   2.716  1.00  0.00     0.002 A 
HETATM   31  C18 UNL     1       4.122  -1.334   2.578  1.00  0.00     0.024 A 
HETATM   32  C19 UNL     1       3.924  -0.643   1.376  1.00  0.00     0.045 A 
HETATM   33 CL1  UNL     1       4.422   1.011   1.378  1.00  0.00    -0.083 Cl
ENDBRANCH  26  27
ENDBRANCH   8  26
ENDBRANCH   1   4
TORSDOF 8
