REMARK  8 active torsions:
REMARK  status: ('A' for Active; 'I' for Inactive)
REMARK    1  A    between atoms: C3_5  and  C4_6 
REMARK    2  A    between atoms: C4_6  and  C5_7 
REMARK       I    between atoms: N2_12  and  C9_13 
REMARK    3  A    between atoms: C9_13  and  C10_15 
REMARK    4  A    between atoms: C13_19  and  C14_20 
REMARK    5  A    between atoms: C15_21  and  N3_22 
REMARK    6  A    between atoms: C18_25  and  C19_26 
REMARK    7  A    between atoms: C19_26  and  O4_28 
REMARK    8  A    between atoms: O4_28  and  C20_29 
ROOT
HETATM    1  C1  UNL     1      -0.147   2.545   2.168  1.00  0.00     0.044 C 
HETATM    2  C2  UNL     1      -0.427   1.513   1.410  1.00  0.00     0.040 A 
HETATM    3  N1  UNL     1       0.512   0.606   1.038  1.00  0.00    -0.355 N 
ATOM      4  H1  UNL     1       1.497   0.626   1.301  1.00  0.00     0.166 HD
HETATM    5  C3  UNL     1      -0.065  -0.307   0.279  1.00  0.00     0.045 A 
HETATM    6  C13 UNL     1      -1.439  -0.035   0.112  1.00  0.00     0.010 A 
HETATM    7  C18 UNL     1      -1.651   1.113   0.834  1.00  0.00     0.077 A 
ENDROOT
BRANCH   5   8
HETATM    8  C4  UNL     1       0.549  -1.342  -0.271  1.00  0.00     0.047 C 
BRANCH   8   9
HETATM    9  C5  UNL     1       1.991  -1.562  -0.063  1.00  0.00     0.036 A 
HETATM   10  C6  UNL     1       2.474  -2.595   0.712  1.00  0.00     0.037 A 
HETATM   11  C7  UNL     1       3.827  -2.795   0.902  1.00  0.00     0.028 A 
HETATM   12 BR1  UNL     1       4.537  -4.194   1.955  1.00  0.00    -0.050 Br
HETATM   13  C8  UNL     1       4.690  -1.913   0.280  1.00  0.00     0.122 A 
HETATM   14  N2  UNL     1       4.208  -0.900  -0.481  1.00  0.00    -0.258 N 
HETATM   15  C9  UNL     1       5.119   0.015  -1.126  1.00  0.00     0.230 C 
HETATM   16  C12 UNL     1       2.890  -0.711  -0.662  1.00  0.00     0.264 A 
HETATM   17  O1  UNL     1       4.687   0.953  -1.831  1.00  0.00    -0.273 OA
HETATM   18  O2  UNL     1       2.515   0.263  -1.391  1.00  0.00    -0.267 OA
BRANCH  15  19
HETATM   19  C10 UNL     1       6.574  -0.177  -0.939  1.00  0.00     0.099 C 
HETATM   20  C11 UNL     1       7.324   0.884  -1.697  1.00  0.00     0.014 C 
ENDBRANCH  15  19
ENDBRANCH   8   9
ENDBRANCH   5   8
BRANCH   6  21
HETATM   21  C14 UNL     1      -2.301  -0.905  -0.627  1.00  0.00     0.031 C 
HETATM   22  C15 UNL     1      -3.436  -0.811  -1.215  1.00  0.00     0.085 C 
BRANCH  22  23
HETATM   23  N3  UNL     1      -4.031  -1.964  -1.887  1.00  0.00    -0.398 N 
HETATM   24  C16 UNL     1      -3.915  -3.300  -1.340  1.00  0.00     0.148 C 
HETATM   25  C17 UNL     1      -4.762  -1.828  -3.130  1.00  0.00     0.148 C 
ENDBRANCH  22  23
ENDBRANCH   6  21
BRANCH   7  26
HETATM   26  C19 UNL     1      -2.909   1.805   1.058  1.00  0.00     0.296 C 
HETATM   27  O3  UNL     1      -4.029   1.515   0.620  1.00  0.00    -0.259 OA
BRANCH  26  28
HETATM   28  O4  UNL     1      -2.930   2.959   1.869  1.00  0.00    -0.318 OA
BRANCH  28  29
HETATM   29  C20 UNL     1      -4.137   3.637   2.096  1.00  0.00     0.174 C 
HETATM   30  C21 UNL     1      -4.775   4.143   0.837  1.00  0.00     0.034 C 
ENDBRANCH  28  29
ENDBRANCH  26  28
ENDBRANCH   7  26
TORSDOF 8
