REMARK  7 active torsions:
REMARK  status: ('A' for Active; 'I' for Inactive)
REMARK    1  A    between atoms: S1_2  and  C2_5 
REMARK    2  A    between atoms: C5_8  and  C6_9 
REMARK    3  A    between atoms: C6_9  and  S2_10 
REMARK    4  A    between atoms: S2_10  and  C7_13 
REMARK    5  A    between atoms: C9_17  and  N2_18 
REMARK       I    between atoms: N2_18  and  C10_20 
REMARK    6  A    between atoms: C10_20  and  C11_22 
REMARK    7  A    between atoms: C11_22  and  C12_23 
ROOT
HETATM    1  C7  UNL     1       0.093   1.246   0.225  1.00  0.00     0.091 A 
HETATM    2  C8  UNL     1       1.046   0.268   0.321  1.00  0.00     0.131 A 
HETATM    3  N1  UNL     1       2.291   0.533  -0.173  1.00  0.00    -0.200 N 
ATOM      4  H1  UNL     1       3.007  -0.191  -0.105  1.00  0.00     0.183 HD
HETATM    5  C9  UNL     1       2.611   1.690  -0.738  1.00  0.00     0.684 A 
HETATM    6  N3  UNL     1       1.689   2.667  -0.843  1.00  0.00    -0.200 N 
ATOM      7  H3  UNL     1       1.925   3.560  -1.276  1.00  0.00     0.183 HD
HETATM    8  C18 UNL     1       0.431   2.439  -0.359  1.00  0.00     0.131 A 
ENDROOT
BRANCH   1   9
HETATM    9  S2  UNL     1      -1.507   0.949   0.842  1.00  0.00     0.182 S 
HETATM   10  O3  UNL     1      -2.095   2.293   1.243  1.00  0.00    -0.222 OA
HETATM   11  O4  UNL     1      -1.501   0.068   2.056  1.00  0.00    -0.222 OA
BRANCH   9  12
HETATM   12  C6  UNL     1      -2.488   0.254  -0.451  1.00  0.00     0.184 C 
BRANCH  12  13
HETATM   13  C5  UNL     1      -3.867  -0.040  -0.043  1.00  0.00    -0.044 A 
HETATM   14  C4  UNL     1      -4.873   0.896  -0.174  1.00  0.00     0.009 A 
HETATM   15  C3  UNL     1      -6.174   0.619   0.211  1.00  0.00     0.024 A 
HETATM   16  C2  UNL     1      -6.515  -0.607   0.742  1.00  0.00     0.058 A 
HETATM   17  C20 UNL     1      -5.516  -1.548   0.876  1.00  0.00     0.024 A 
HETATM   18  C19 UNL     1      -4.219  -1.270   0.492  1.00  0.00     0.009 A 
BRANCH  16  19
HETATM   19  S1  UNL     1      -8.171  -0.944   1.226  1.00  0.00     0.171 S 
HETATM   20  C1  UNL     1      -9.054  -1.628  -0.149  1.00  0.00     0.167 C 
HETATM   21  O1  UNL     1      -8.879   0.308   1.648  1.00  0.00    -0.223 OA
HETATM   22  O2  UNL     1      -8.187  -1.889   2.393  1.00  0.00    -0.223 OA
ENDBRANCH  16  19
ENDBRANCH  12  13
ENDBRANCH   9  12
ENDBRANCH   1   9
BRANCH   5  23
HETATM   23  N2  UNL     1       3.780   1.931  -1.198  1.00  0.00    -0.159 N 
HETATM   24  C10 UNL     1       4.856   1.028  -1.171  1.00  0.00     0.240 C 
HETATM   25  O5  UNL     1       5.342   0.571  -2.236  1.00  0.00    -0.272 OA
ATOM     26  H2  UNL     1       3.943   2.847  -1.616  1.00  0.00     0.187 HD
BRANCH  24  27
HETATM   27  C11 UNL     1       5.441   0.597   0.126  1.00  0.00     0.142 C 
BRANCH  27  28
HETATM   28  C12 UNL     1       6.558  -0.351  -0.075  1.00  0.00    -0.049 A 
HETATM   29  C13 UNL     1       7.867   0.044  -0.219  1.00  0.00     0.011 A 
HETATM   30  C14 UNL     1       8.859  -0.878  -0.403  1.00  0.00     0.043 A 
HETATM   31  C15 UNL     1       8.574  -2.239  -0.450  1.00  0.00     0.116 A 
HETATM   32  F1  UNL     1       9.624  -3.074  -0.636  1.00  0.00    -0.206 F 
HETATM   33  C16 UNL     1       7.277  -2.643  -0.308  1.00  0.00     0.043 A 
HETATM   34  C17 UNL     1       6.295  -1.707  -0.125  1.00  0.00     0.011 A 
ENDBRANCH  27  28
ENDBRANCH  24  27
ENDBRANCH   5  23
TORSDOF 7
