REMARK  4 active torsions:
REMARK  status: ('A' for Active; 'I' for Inactive)
REMARK    1  A    between atoms: C2_2  and  C3_3 
REMARK    2  A    between atoms: N1_4  and  C4_6 
REMARK    3  A    between atoms: C4_6  and  C5_7 
REMARK    4  A    between atoms: C5_7  and  C6_8 
ROOT
HETATM    1  C3  UNL     1      -0.656   0.130  -1.372  1.00  0.00     0.095 C 
HETATM    2  N1  UNL     1       0.554   0.158  -1.605  1.00  0.00    -0.378 N 
ATOM      3  H1  UNL     1       0.779   0.753  -2.402  1.00  0.00     0.164 HD
ENDROOT
BRANCH   1   4
HETATM    4  C2  UNL     1      -1.415  -0.559  -0.366  1.00  0.00    -0.023 C 
HETATM    5  C1  UNL     1      -0.836  -1.434   0.655  1.00  0.00     0.051 C 
HETATM    6  C9  UNL     1      -2.744  -0.412  -0.337  1.00  0.00     0.053 C 
HETATM    7  S1  UNL     1      -3.518   0.635  -1.546  1.00  0.00    -0.102 SA
HETATM    8  S2  UNL     1      -3.797  -1.205   0.846  1.00  0.00    -0.047 SA
HETATM    9  C10 UNL     1      -5.270   0.901  -1.152  1.00  0.00     0.202 C 
HETATM   10  N4  UNL     1      -5.515   0.907   0.263  1.00  0.00    -0.362 N 
HETATM   11  C11 UNL     1      -5.196  -0.150   1.157  1.00  0.00     0.139 C 
ATOM     12  H4  UNL     1      -5.954   1.738   0.659  1.00  0.00     0.162 HD
HETATM   13  N5  UNL     1      -5.907  -0.364   2.200  1.00  0.00    -0.380 N 
ATOM     14  H52 UNL     1      -6.709   0.241   2.378  1.00  0.00     0.158 HD
ATOM     15  H51 UNL     1      -5.678  -1.123   2.842  1.00  0.00     0.158 HD
ENDBRANCH   1   4
BRANCH   2  16
HETATM   16  C4  UNL     1       1.676  -0.417  -1.053  1.00  0.00     0.064 C 
BRANCH  16  17
HETATM   17  C5  UNL     1       2.405   0.457  -0.034  1.00  0.00     0.099 C 
BRANCH  17  18
HETATM   18  C6  UNL     1       3.599  -0.370   0.439  1.00  0.00     0.288 C 
HETATM   19  N2  UNL     1       4.399  -0.651  -0.695  1.00  0.00    -0.374 N 
HETATM   20  C7  UNL     1       5.447   0.050  -0.633  1.00  0.00     0.084 C 
ATOM     21  H2  UNL     1       4.167  -1.310  -1.438  1.00  0.00     0.160 HD
HETATM   22  C8  UNL     1       5.468   0.899   0.576  1.00  0.00     0.279 C 
HETATM   23  N3  UNL     1       4.379   0.372   1.382  1.00  0.00    -0.050 N 
ATOM     24  H32 UNL     1       3.857   1.078   1.902  1.00  0.00     0.280 HD
ATOM     25  H31 UNL     1       4.676  -0.162   2.199  1.00  0.00     0.280 HD
ENDBRANCH  17  18
ENDBRANCH  16  17
ENDBRANCH   2  16
TORSDOF 4
