REMARK  6 active torsions:
REMARK  status: ('A' for Active; 'I' for Inactive)
REMARK    1  A    between atoms: O1_1  and  C1_3 
REMARK    2  A    between atoms: C1_3  and  N1_4 
REMARK    3  A    between atoms: C1_3  and  C8_12 
REMARK    4  A    between atoms: N1_4  and  C2_6 
REMARK    5  A    between atoms: C8_12  and  O2_13 
REMARK    6  A    between atoms: C8_12  and  C9_15 
ROOT
HETATM    1  C1  UNL     1       0.797  -0.181   0.020  1.00  0.00     0.247 C 
ENDROOT
BRANCH   1   2
HETATM    2  O1  UNL     1       0.750   1.032  -0.644  1.00  0.00    -0.374 OA
ATOM      3  H1  UNL     1       1.477   1.115  -1.249  1.00  0.00     0.212 HD
ENDBRANCH   1   2
BRANCH   1   4
HETATM    4  N1  UNL     1      -0.299  -0.306   0.932  1.00  0.00    -0.390 N 
ATOM      5  H1  UNL     1      -0.147  -0.459   1.929  1.00  0.00     0.156 HD
BRANCH   4   6
HETATM    6  C2  UNL     1      -1.599  -0.209   0.392  1.00  0.00     0.079 C 
HETATM    7  C3  UNL     1      -1.974  -1.260  -0.601  1.00  0.00     0.025 C 
HETATM    8  C4  UNL     1      -3.405  -1.007  -1.020  1.00  0.00     0.002 C 
HETATM    9  C5  UNL     1      -4.114  -0.039  -0.097  1.00  0.00     0.000 C 
HETATM   10  C6  UNL     1      -3.438   1.321  -0.073  1.00  0.00     0.002 C 
HETATM   11  C7  UNL     1      -1.922   1.141  -0.225  1.00  0.00     0.025 C 
ENDBRANCH   4   6
ENDBRANCH   1   4
BRANCH   1  12
HETATM   12  C8  UNL     1       2.053  -0.273   0.867  1.00  0.00     0.207 C 
BRANCH  12  13
HETATM   13  O2  UNL     1       2.011  -1.528   1.489  1.00  0.00    -0.386 OA
ATOM     14  H2  UNL     1       2.797  -1.586   2.019  1.00  0.00     0.210 HD
ENDBRANCH  12  13
BRANCH  12  15
HETATM   15  C9  UNL     1       3.302  -0.199   0.057  1.00  0.00     0.034 A 
HETATM   16  C10 UNL     1       4.214   0.821  -0.038  1.00  0.00     0.107 A 
HETATM   17  N2  UNL     1       5.244   0.654  -0.819  1.00  0.00    -0.350 N 
HETATM   18  C11 UNL     1       5.360  -0.495  -1.485  1.00  0.00     0.143 A 
ATOM     19  H2  UNL     1       5.946   1.387  -0.919  1.00  0.00     0.166 HD
HETATM   20  S1  UNL     1       6.565  -0.947  -2.530  1.00  0.00    -0.052 SA
HETATM   21  S2  UNL     1       3.976  -1.363  -0.993  1.00  0.00    -0.061 SA
ENDBRANCH  12  15
ENDBRANCH   1  12
TORSDOF 6
