REMARK  2 active torsions:
REMARK  status: ('A' for Active; 'I' for Inactive)
REMARK    1  A    between atoms: C2_2  and  O1_3 
REMARK    2  A    between atoms: O1_3  and  C3_4 
ROOT
HETATM    1  C3  UNL     1      -0.348  -0.135   0.365  1.00  0.00     0.084 A 
HETATM    2  C4  UNL     1      -1.345  -0.551   1.126  1.00  0.00     0.043 A 
HETATM    3  C5  UNL     1      -2.258  -0.412  -0.015  1.00  0.00     0.249 A 
HETATM    4  N1  UNL     1      -2.408   0.871  -0.618  1.00  0.00    -0.053 N 
ATOM      5  H11 UNL     1      -2.593   1.821  -0.297  1.00  0.00     0.279 HD
ATOM      6  H12 UNL     1      -3.102   1.335  -1.204  1.00  0.00     0.279 HD
HETATM    7  C6  UNL     1      -1.229   0.039  -0.833  1.00  0.00     0.277 A 
ENDROOT
BRANCH   1   8
HETATM    8  O1  UNL     1       0.993   0.045   0.667  1.00  0.00    -0.326 OA
BRANCH   8   9
HETATM    9  C2  UNL     1       2.004  -0.241  -0.250  1.00  0.00     0.132 C 
HETATM   10  C1  UNL     1       3.125   0.442  -0.098  1.00  0.00     0.037 C 
ENDBRANCH   8   9
ENDBRANCH   1   8
TORSDOF 2
