REMARK  3 active torsions:
REMARK  status: ('A' for Active; 'I' for Inactive)
REMARK    1  A    between atoms: N1_2  and  N2_3 
REMARK    2  A    between atoms: N2_3  and  N3_4 
REMARK    3  A    between atoms: N3_4  and  C2_6 
ROOT
HETATM    1  C2  UNL     1       0.722   0.291  -0.233  1.00  0.00     0.119 A 
HETATM    2  C3  UNL     1       0.840   1.799  -0.308  1.00  0.00     0.064 C 
HETATM    3  C4  UNL     1       1.521  -0.219   0.937  1.00  0.00     0.127 A 
HETATM    4  C5  UNL     1       2.366  -0.784  -0.131  1.00  0.00     0.095 A 
HETATM    5  N4  UNL     1       3.574  -1.574  -0.002  1.00  0.00    -0.088 NA
HETATM    6  N5  UNL     1       1.673  -0.342  -1.105  1.00  0.00    -0.355 N 
ATOM      7  H5  UNL     1       1.760  -0.411  -2.119  1.00  0.00     0.163 HD
ENDROOT
BRANCH   1   8
HETATM    8  N3  UNL     1      -0.588  -0.239  -0.239  1.00  0.00    -0.295 N 
ATOM      9  H3  UNL     1      -0.922  -0.799   0.545  1.00  0.00     0.180 HD
BRANCH   8  10
HETATM   10  N2  UNL     1      -1.386   0.005  -1.290  1.00  0.00    -0.035 NA
BRANCH  10  11
HETATM   11  N1  UNL     1      -2.569   0.673  -0.875  1.00  0.00    -0.131 NA
HETATM   12  C1  UNL     1      -3.516  -0.281  -0.333  1.00  0.00     0.156 C 
ENDBRANCH  10  11
ENDBRANCH   8  10
ENDBRANCH   1   8
TORSDOF 3
