REMARK  5 active torsions:
REMARK  status: ('A' for Active; 'I' for Inactive)
REMARK    1  A    between atoms: N1_1  and  C1_4 
REMARK    2  A    between atoms: C3_8  and  N3_9 
REMARK    3  A    between atoms: N3_9  and  C4_11 
REMARK    4  A    between atoms: C4_11  and  C5_12 
REMARK    5  A    between atoms: C5_12  and  N4_13 
ROOT
HETATM    1  C1  UNL     1      -3.423  -0.247   0.759  1.00  0.00     0.690 A 
HETATM    2  N2  UNL     1      -2.339  -0.701   1.405  1.00  0.00    -0.197 N 
ATOM      3  H2  UNL     1      -2.480  -1.190   2.289  1.00  0.00     0.183 HD
HETATM    4  C2  UNL     1      -1.079  -0.553   0.962  1.00  0.00     0.155 A 
HETATM    5  C3  UNL     1      -0.905   0.110  -0.234  1.00  0.00     0.132 A 
HETATM    6  N5  UNL     1      -1.991   0.558  -0.870  1.00  0.00    -0.270 N 
ATOM      7  H5  UNL     1      -1.867   1.048  -1.756  1.00  0.00     0.189 HD
HETATM    8  N6  UNL     1      -3.224   0.396  -0.405  1.00  0.00    -0.131 N 
ATOM      9  H6  UNL     1      -4.019   0.759  -0.930  1.00  0.00     0.205 HD
ENDROOT
BRANCH   5  10
HETATM   10  N3  UNL     1       0.390   0.314  -0.781  1.00  0.00    -0.373 N 
ATOM     11  H3  UNL     1       0.472   0.810  -1.668  1.00  0.00     0.161 HD
BRANCH  10  12
HETATM   12  C4  UNL     1       1.590  -0.149  -0.137  1.00  0.00     0.148 C 
BRANCH  12  13
HETATM   13  C5  UNL     1       2.829   0.200  -0.932  1.00  0.00     0.249 C 
BRANCH  13  14
HETATM   14  N4  UNL     1       4.032  -0.251  -0.308  1.00  0.00    -0.078 N 
ATOM     15  H43 UNL     1       4.101   0.098   0.648  1.00  0.00     0.274 HD
ATOM     16  H42 UNL     1       3.991  -1.252  -0.116  1.00  0.00     0.274 HD
ATOM     17  H41 UNL     1       4.867  -0.016  -0.844  1.00  0.00     0.274 HD
ENDBRANCH  13  14
ENDBRANCH  12  13
ENDBRANCH  10  12
ENDBRANCH   5  10
BRANCH   1  18
HETATM   18  N1  UNL     1      -4.636  -0.409   1.221  1.00  0.00    -0.233 N 
ATOM     19  H12 UNL     1      -4.787  -0.897   2.104  1.00  0.00     0.174 HD
ATOM     20  H11 UNL     1      -5.460  -0.064   0.730  1.00  0.00     0.174 HD
ENDBRANCH   1  18
TORSDOF 5
