REMARK  6 active torsions:
REMARK  status: ('A' for Active; 'I' for Inactive)
REMARK       I    between atoms: C1_4  and  N3_6 
REMARK    1  A    between atoms: N3_6  and  N4_8 
REMARK    2  A    between atoms: C9_21  and  C10_22 
REMARK       I    between atoms: C10_22  and  N5_24 
REMARK    3  A    between atoms: N5_24  and  C11_26 
REMARK    4  A    between atoms: C11_26  and  C12_27 
REMARK    5  A    between atoms: C11_26  and  C14_30 
REMARK    6  A    between atoms: C12_27  and  C13_28 
ROOT
HETATM    1  N4  UNL     1       3.544   1.603   0.235  1.00  0.00    -0.307 N 
ATOM      2  H4  UNL     1       3.421   2.231   1.030  1.00  0.00     0.186 HD
HETATM    3  C2  UNL     1       2.531   1.155  -0.394  1.00  0.00     0.004 C 
HETATM    4  C3  UNL     1       1.126   1.489  -0.046  1.00  0.00     0.057 C 
HETATM    5  C4  UNL     1       0.242   0.738  -1.050  1.00  0.00     0.045 C 
HETATM    6  C5  UNL     1       0.504  -0.718  -1.058  1.00  0.00     0.088 C 
HETATM    7  C6  UNL     1       1.987  -1.040  -1.186  1.00  0.00     0.045 C 
HETATM    8  C7  UNL     1       2.712   0.232  -1.561  1.00  0.00     0.057 C 
HETATM    9  O1  UNL     1      -0.182  -1.279  -2.127  1.00  0.00    -0.364 OA
HETATM   10  C8  UNL     1       0.017  -2.630  -2.173  1.00  0.00     0.309 C 
HETATM   11  S1  UNL     1       0.159  -3.085  -0.432  1.00  0.00     0.182 S 
HETATM   12  O2  UNL     1      -0.949  -3.965   0.004  1.00  0.00    -0.225 OA
HETATM   13  O3  UNL     1       1.506  -3.617  -0.121  1.00  0.00    -0.225 OA
HETATM   14  C9  UNL     1      -0.051  -1.389   0.168  1.00  0.00     0.236 C 
ENDROOT
BRANCH  14  15
HETATM   15  C10 UNL     1      -1.465  -1.152   0.350  1.00  0.00     0.240 C 
HETATM   16  O4  UNL     1      -2.280  -2.019  -0.144  1.00  0.00    -0.272 OA
HETATM   17  N5  UNL     1      -2.085  -0.066   1.014  1.00  0.00    -0.345 N 
ATOM     18  H5  UNL     1      -1.499   0.657   1.431  1.00  0.00     0.163 HD
BRANCH  17  19
HETATM   19  C11 UNL     1      -3.535   0.052   1.121  1.00  0.00     0.186 C 
BRANCH  19  20
HETATM   20  C12 UNL     1      -4.004   1.324   0.469  1.00  0.00     0.047 C 
BRANCH  20  21
HETATM   21  C13 UNL     1      -5.478   1.561   0.505  1.00  0.00     0.088 C 
HETATM   22  S2  UNL     1      -5.740   3.150  -0.403  1.00  0.00    -0.098 SA
ENDBRANCH  20  21
ENDBRANCH  19  20
BRANCH  19  23
HETATM   23  C14 UNL     1      -3.934   0.020   2.534  1.00  0.00     0.196 C 
HETATM   24  O5  UNL     1      -3.006  -0.025   3.410  1.00  0.00    -0.646 OA
HETATM   25  O6  UNL     1      -5.236   0.031   3.007  1.00  0.00    -0.646 OA
ENDBRANCH  19  23
ENDBRANCH  17  19
ENDBRANCH  14  15
BRANCH   1  26
HETATM   26  N3  UNL     1       4.822   1.226  -0.175  1.00  0.00    -0.274 N 
HETATM   27  C1  UNL     1       5.697   0.459   0.658  1.00  0.00     0.200 C 
HETATM   28  N1  UNL     1       5.335  -0.606   1.285  1.00  0.00    -0.372 N 
HETATM   29  N2  UNL     1       7.037   0.889   0.807  1.00  0.00    -0.062 NA
ATOM     30  H12 UNL     1       5.959  -1.153   1.879  1.00  0.00     0.158 HD
ATOM     31  H11 UNL     1       4.369  -0.916   1.178  1.00  0.00     0.158 HD
ATOM     32  H3  UNL     1       5.145   1.507  -1.101  1.00  0.00     0.189 HD
ENDBRANCH   1  26
TORSDOF 6
