REMARK  8 active torsions:
REMARK  status: ('A' for Active; 'I' for Inactive)
REMARK    1  A    between atoms: O1_2  and  C2_3 
REMARK    2  A    between atoms: C2_3  and  C3_4 
REMARK    3  A    between atoms: C3_4  and  N1_5 
REMARK    4  A    between atoms: C4_6  and  C5_7 
REMARK    5  A    between atoms: C5_7  and  N3_11 
REMARK       I    between atoms: N3_11  and  C6_13 
REMARK       I    between atoms: C6_13  and  N10_27 
REMARK    6  A    between atoms: N4_14  and  N5_16 
REMARK    7  A    between atoms: N8_23  and  N9_24 
REMARK    8  A    between atoms: C12_34  and  N13_35 
ROOT
HETATM    1  N5  UNL     1      -4.173  -0.108  -0.031  1.00  0.00    -0.174 N 
HETATM    2  C7  UNL     1      -5.154   0.097   0.997  1.00  0.00     0.177 C 
HETATM    3  C8  UNL     1      -6.339   0.112   0.364  1.00  0.00     0.146 C 
HETATM    4  C9  UNL     1      -7.635   0.289   0.975  1.00  0.00     0.120 C 
HETATM    5  N6  UNL     1      -8.689   0.422   1.458  1.00  0.00    -0.190 NA
HETATM    6  N7  UNL     1      -6.095  -0.079  -1.024  1.00  0.00    -0.271 N 
ATOM      7  H7  UNL     1      -6.751  -0.421  -1.726  1.00  0.00     0.185 HD
HETATM    8  N8  UNL     1      -4.766   0.302  -1.222  1.00  0.00    -0.024 NA
ENDROOT
BRANCH   1   9
HETATM    9  N4  UNL     1      -2.907  -0.621   0.228  1.00  0.00    -0.112 N 
HETATM   10  C6  UNL     1      -2.054  -0.045   1.007  1.00  0.00     0.709 C 
HETATM   11  N3  UNL     1      -0.793  -0.661   1.196  1.00  0.00    -0.171 N 
HETATM   12  N10 UNL     1      -2.436   1.171   1.625  1.00  0.00    -0.124 N 
ATOM     13  H3  UNL     1      -0.543  -1.078   2.093  1.00  0.00     0.186 HD
HETATM   14  C10 UNL     1      -2.090   1.455   2.965  1.00  0.00     0.196 C 
ATOM     15  H10 UNL     1      -2.972   1.856   1.092  1.00  0.00     0.197 HD
HETATM   16  N11 UNL     1      -1.815   1.694   4.066  1.00  0.00    -0.171 NA
ATOM     17  H4  UNL     1      -2.639  -1.497  -0.220  1.00  0.00     0.207 HD
BRANCH  11  18
HETATM   18  C5  UNL     1       0.131  -0.683   0.082  1.00  0.00     0.159 C 
HETATM   19  N2  UNL     1      -0.156  -1.370  -0.958  1.00  0.00    -0.382 N 
ATOM     20  H22 UNL     1       0.495  -1.386  -1.743  1.00  0.00     0.157 HD
ATOM     21  H21 UNL     1      -1.012  -1.916  -1.055  1.00  0.00     0.157 HD
BRANCH  18  22
HETATM   22  C4  UNL     1       1.355   0.097   0.221  1.00  0.00     0.155 A 
HETATM   23  N1  UNL     1       2.344   0.258  -0.636  1.00  0.00    -0.312 N 
HETATM   24  C14 UNL     1       3.254   1.099  -0.058  1.00  0.00     0.141 A 
HETATM   25  C11 UNL     1       2.799   1.449   1.178  1.00  0.00     0.122 A 
HETATM   26  N15 UNL     1       4.433   1.607  -0.460  1.00  0.00    -0.336 N 
HETATM   27  N12 UNL     1       1.640   0.838   1.350  1.00  0.00    -0.333 N 
HETATM   28  C12 UNL     1       3.569   2.312   1.966  1.00  0.00     0.131 A 
ATOM     29  H12 UNL     1       1.052   0.903   2.181  1.00  0.00     0.168 HD
HETATM   30  N14 UNL     1       4.740   2.800   1.534  1.00  0.00    -0.337 N 
HETATM   31  C13 UNL     1       5.159   2.435   0.312  1.00  0.00     0.183 A 
ATOM     32  H14 UNL     1       5.295   3.428   2.115  1.00  0.00     0.168 HD
ATOM     33  H15 UNL     1       4.789   1.355  -1.382  1.00  0.00     0.168 HD
BRANCH  23  34
HETATM   34  C3  UNL     1       2.579  -0.309  -1.925  1.00  0.00     0.158 C 
BRANCH  34  35
HETATM   35  C2  UNL     1       3.443  -1.527  -1.953  1.00  0.00     0.187 C 
BRANCH  35  36
HETATM   36  O1  UNL     1       3.009  -2.606  -1.231  1.00  0.00    -0.394 OA
HETATM   37  C1  UNL     1       3.935  -3.630  -1.379  1.00  0.00     0.201 C 
ENDBRANCH  35  36
ENDBRANCH  34  35
ENDBRANCH  23  34
BRANCH  28  38
HETATM   38  N13 UNL     1       3.169   2.664   3.138  1.00  0.00    -0.383 N 
ATOM     39 2H13 UNL     1       2.278   2.293   3.467  1.00  0.00     0.157 HD
ATOM     40 1H13 UNL     1       3.730   3.293   3.712  1.00  0.00     0.157 HD
ENDBRANCH  28  38
ENDBRANCH  18  22
ENDBRANCH  11  18
ENDBRANCH   1   9
BRANCH   8  41
HETATM   41  N9  UNL     1      -4.227  -0.348  -2.335  1.00  0.00    -0.326 NA
ATOM     42  H92 UNL     1      -3.256  -0.070  -2.480  1.00  0.00     0.174 HD
ATOM     43  H91 UNL     1      -4.661  -0.048  -3.208  1.00  0.00     0.174 HD
ENDBRANCH   8  41
TORSDOF 8
