REMARK  5 active torsions:
REMARK  status: ('A' for Active; 'I' for Inactive)
REMARK    1  A    between atoms: C2_2  and  C3_3 
REMARK    2  A    between atoms: C3_3  and  C4_4 
REMARK    3  A    between atoms: C4_4  and  C5_5 
REMARK    4  A    between atoms: C9_9  and  C10_10 
REMARK    5  A    between atoms: C14_17  and  C15_18 
ROOT
HETATM    1  C10 UNL     1      -1.557  -2.166  -0.642  1.00  0.00     0.005 A 
HETATM    2  C11 UNL     1      -2.027  -3.295  -1.288  1.00  0.00     0.055 A 
HETATM    3  C12 UNL     1      -3.349  -3.037  -1.626  1.00  0.00     0.115 A 
HETATM    4  C13 UNL     1      -4.195  -3.961  -2.312  1.00  0.00     0.117 C 
HETATM    5  N1  UNL     1      -4.871  -4.698  -2.876  1.00  0.00    -0.190 NA
HETATM    6  N2  UNL     1      -3.672  -1.784  -1.196  1.00  0.00    -0.346 N 
ATOM      7  H2  UNL     1      -4.578  -1.328  -1.308  1.00  0.00     0.167 HD
HETATM    8  C14 UNL     1      -2.588  -1.252  -0.598  1.00  0.00     0.054 A 
ENDROOT
BRANCH   1   9
HETATM    9  C9  UNL     1      -0.233  -1.918  -0.085  1.00  0.00    -0.023 A 
HETATM   10  C8  UNL     1       0.305  -2.684   0.927  1.00  0.00     0.012 A 
HETATM   11  C7  UNL     1       1.556  -2.456   1.458  1.00  0.00     0.001 A 
HETATM   12  C6  UNL     1       2.296  -1.420   0.951  1.00  0.00     0.007 A 
HETATM   13  C5  UNL     1       1.804  -0.618  -0.067  1.00  0.00    -0.057 A 
HETATM   14  C21 UNL     1       0.533  -0.883  -0.575  1.00  0.00     0.019 A 
BRANCH  13  15
HETATM   15  C4  UNL     1       2.610   0.485  -0.596  1.00  0.00     0.038 C 
BRANCH  15  16
HETATM   16  C3  UNL     1       2.340   1.743   0.167  1.00  0.00     0.004 C 
BRANCH  16  17
HETATM   17  C2  UNL     1       3.190   2.885  -0.400  1.00  0.00    -0.004 C 
HETATM   18  C1  UNL     1       4.653   2.553  -0.289  1.00  0.00     0.005 C 
ENDBRANCH  16  17
ENDBRANCH  15  16
ENDBRANCH  13  15
ENDBRANCH   1   9
BRANCH   8  19
HETATM   19  C15 UNL     1      -2.521   0.076  -0.001  1.00  0.00    -0.009 A 
HETATM   20  C16 UNL     1      -2.293   0.272   1.348  1.00  0.00     0.014 A 
HETATM   21  C17 UNL     1      -2.229   1.527   1.911  1.00  0.00     0.001 A 
HETATM   22  C18 UNL     1      -2.395   2.652   1.131  1.00  0.00     0.000 A 
HETATM   23  C19 UNL     1      -2.621   2.494  -0.198  1.00  0.00     0.001 A 
HETATM   24  C20 UNL     1      -2.683   1.232  -0.752  1.00  0.00     0.014 A 
ENDBRANCH   8  19
TORSDOF 5
