REMARK  5 active torsions:
REMARK  status: ('A' for Active; 'I' for Inactive)
REMARK    1  A    between atoms: C2_2  and  C3_3 
REMARK    2  A    between atoms: C6_8  and  C7_9 
REMARK    3  A    between atoms: C7_9  and  S1_10 
REMARK    4  A    between atoms: S1_10  and  C8_11 
REMARK    5  A    between atoms: C11_14  and  C12_15 
ROOT
HETATM    1  C8  UNL     1      -0.191  -0.010  -1.438  1.00  0.00     0.000 A 
HETATM    2  C9  UNL     1      -1.009  -1.149  -1.354  1.00  0.00     0.019 A 
HETATM    3  C10 UNL     1      -2.275  -1.108  -0.820  1.00  0.00     0.013 A 
HETATM    4  C11 UNL     1      -2.794   0.073  -0.340  1.00  0.00    -0.026 A 
HETATM    5  C18 UNL     1      -2.013   1.205  -0.411  1.00  0.00     0.013 A 
HETATM    6  C19 UNL     1      -0.734   1.143  -0.955  1.00  0.00     0.019 A 
ENDROOT
BRANCH   1   7
HETATM    7  S1  UNL     1       1.410  -0.169  -2.169  1.00  0.00    -0.125 SA
BRANCH   7   8
HETATM    8  C7  UNL     1       2.705  -0.717  -1.089  1.00  0.00     0.120 C 
BRANCH   8   9
HETATM    9  C6  UNL     1       3.159   0.294  -0.115  1.00  0.00    -0.026 A 
HETATM   10  C3  UNL     1       4.120   0.071   0.871  1.00  0.00    -0.035 A 
HETATM   11  C4  UNL     1       4.343   1.217   1.578  1.00  0.00     0.095 A 
HETATM   12  N1  UNL     1       3.543   2.151   1.056  1.00  0.00    -0.374 N 
HETATM   13  C5  UNL     1       2.825   1.614   0.037  1.00  0.00     0.096 A 
ATOM     14  H1  UNL     1       3.481   3.118   1.374  1.00  0.00     0.164 HD
BRANCH  10  15
HETATM   15  C2  UNL     1       4.785  -1.232   1.091  1.00  0.00     0.036 C 
HETATM   16  C1  UNL     1       5.841  -1.515   0.048  1.00  0.00     0.010 C 
ENDBRANCH  10  15
ENDBRANCH   8   9
ENDBRANCH   7   8
ENDBRANCH   1   7
BRANCH   4  17
HETATM   17  C12 UNL     1      -4.155   0.118   0.234  1.00  0.00    -0.026 A 
HETATM   18  C13 UNL     1      -4.667  -0.960   0.889  1.00  0.00     0.012 A 
HETATM   19  C14 UNL     1      -5.951  -0.916   1.432  1.00  0.00     0.001 A 
HETATM   20  C15 UNL     1      -6.687   0.257   1.284  1.00  0.00     0.000 A 
HETATM   21  C16 UNL     1      -6.184   1.353   0.626  1.00  0.00     0.001 A 
HETATM   22  C17 UNL     1      -4.915   1.253   0.112  1.00  0.00     0.012 A 
ENDBRANCH   4  17
TORSDOF 5
