REMARK  10 active torsions:
REMARK  status: ('A' for Active; 'I' for Inactive)
REMARK    1  A    between atoms: C2_2  and  C3_4 
REMARK    2  A    between atoms: C4_6  and  N1_7 
REMARK    3  A    between atoms: C4_6  and  C12_20 
REMARK       I    between atoms: N1_7  and  C5_9 
REMARK    4  A    between atoms: C5_9  and  C6_11 
REMARK    5  A    between atoms: C12_20  and  O2_22 
REMARK    6  A    between atoms: O2_22  and  C14_23 
REMARK    7  A    between atoms: C14_23  and  C15_25 
REMARK    8  A    between atoms: C15_25  and  N3_26 
REMARK    9  A    between atoms: N3_26  and  S1_28 
REMARK   10  A    between atoms: S1_28  and  N4_31 
ROOT
HETATM    1  C3  UNL     1      -2.543  -1.742   3.287  1.00  0.00     0.055 C 
HETATM    2 CL2  UNL     1      -1.217  -2.230   4.374  1.00  0.00    -0.085 Cl
HETATM    3  C4  UNL     1      -2.333  -1.711   2.002  1.00  0.00     0.060 C 
ENDROOT
BRANCH   3   4
HETATM    4  N1  UNL     1      -3.335  -1.348   1.098  1.00  0.00    -0.325 N 
HETATM    5  C5  UNL     1      -3.319  -1.249  -0.296  1.00  0.00     0.253 C 
HETATM    6  O1  UNL     1      -2.346  -1.482  -1.008  1.00  0.00    -0.271 OA
ATOM      7  H1  UNL     1      -4.230  -1.116   1.529  1.00  0.00     0.168 HD
BRANCH   5   8
HETATM    8  C6  UNL     1      -4.575  -0.827  -1.003  1.00  0.00     0.281 C 
HETATM    9  N2  UNL     1      -4.391  -0.783  -2.439  1.00  0.00    -0.058 N 
HETATM   10  C7  UNL     1      -4.631   0.585  -2.854  1.00  0.00     0.187 C 
ATOM     11  H22 UNL     1      -3.483  -1.139  -2.738  1.00  0.00     0.278 HD
ATOM     12  H21 UNL     1      -4.967  -1.461  -2.938  1.00  0.00     0.278 HD
HETATM   13  C8  UNL     1      -3.519   1.428  -2.327  1.00  0.00     0.033 C 
HETATM   14  C11 UNL     1      -5.761   0.960  -1.878  1.00  0.00     0.040 C 
HETATM   15  C9  UNL     1      -3.737   1.445  -0.821  1.00  0.00     0.009 C 
HETATM   16  C10 UNL     1      -4.959   0.580  -0.622  1.00  0.00     0.028 C 
ENDBRANCH   5   8
ENDBRANCH   3   4
BRANCH   3  17
HETATM   17  C12 UNL     1      -0.965  -2.100   1.523  1.00  0.00     0.179 C 
HETATM   18  C13 UNL     1      -0.960  -3.436   0.810  1.00  0.00     0.047 C 
BRANCH  17  19
HETATM   19  O2  UNL     1      -0.318  -1.073   0.816  1.00  0.00    -0.309 OA
BRANCH  19  20
HETATM   20  C14 UNL     1       0.876  -0.490   1.187  1.00  0.00     0.273 C 
HETATM   21  O3  UNL     1       1.428  -0.911   2.235  1.00  0.00    -0.264 OA
BRANCH  20  22
HETATM   22  C15 UNL     1       1.487   0.607   0.365  1.00  0.00     0.219 C 
BRANCH  22  23
HETATM   23  N3  UNL     1       2.734   1.049   0.943  1.00  0.00    -0.188 NA
HETATM   24  C16 UNL     1       2.817   2.488   0.937  1.00  0.00     0.131 C 
BRANCH  23  25
HETATM   25  S1  UNL     1       4.115   0.245   0.353  1.00  0.00     0.307 S 
HETATM   26  O4  UNL     1       3.705  -1.179  -0.012  1.00  0.00    -0.188 OA
HETATM   27  O5  UNL     1       5.149   0.106   1.464  1.00  0.00    -0.188 OA
BRANCH  25  28
HETATM   28  N4  UNL     1       4.857   0.925  -0.991  1.00  0.00    -0.257 N 
HETATM   29  C17 UNL     1       5.385   2.218  -0.906  1.00  0.00     0.082 C 
HETATM   30  C18 UNL     1       6.790   2.376  -1.437  1.00  0.00     0.046 C 
HETATM   31  C19 UNL     1       6.790   1.793  -2.839  1.00  0.00     0.010 C 
HETATM   32  C20 UNL     1       6.559   0.295  -2.665  1.00  0.00     0.046 C 
HETATM   33  C21 UNL     1       5.187   0.095  -2.074  1.00  0.00     0.082 C 
ENDBRANCH  25  28
ENDBRANCH  23  25
ENDBRANCH  22  23
ENDBRANCH  20  22
ENDBRANCH  19  20
ENDBRANCH  17  19
ENDBRANCH   3  17
BRANCH   1  34
HETATM   34  C2  UNL     1      -3.799  -1.417   3.967  1.00  0.00     0.125 C 
HETATM   35  C1  UNL     1      -4.308  -2.660   4.732  1.00  0.00     0.032 C 
HETATM   36 CL1  UNL     1      -3.532  -0.192   5.256  1.00  0.00    -0.119 Cl
ENDBRANCH   1  34
TORSDOF 10
