REMARK  8 active torsions:
REMARK  status: ('A' for Active; 'I' for Inactive)
REMARK    1  A    between atoms: C2_2  and  C3_3 
REMARK    2  A    between atoms: C3_3  and  C4_4 
REMARK    3  A    between atoms: C4_4  and  C5_5 
REMARK    4  A    between atoms: C7_7  and  O1_8 
REMARK       I    between atoms: N2_19  and  C14_20 
REMARK    5  A    between atoms: C14_20  and  C15_22 
REMARK    6  A    between atoms: C17_24  and  N3_25 
REMARK    7  A    between atoms: N4_39  and  C30_40 
REMARK    8  A    between atoms: C30_40  and  C31_41 
ROOT
HETATM    1  C5  UNL     1       5.116   0.591   0.461  1.00  0.00     0.014 A 
HETATM    2  C6  UNL     1       4.384   1.733   0.698  1.00  0.00     0.064 A 
HETATM    3  C7  UNL     1       3.305   2.055  -0.116  1.00  0.00     0.098 A 
HETATM    4  C8  UNL     1       3.012   1.196  -1.151  1.00  0.00     0.115 A 
HETATM    5  C9  UNL     1       3.800   0.049  -1.331  1.00  0.00     0.172 A 
HETATM    6  N1  UNL     1       4.822  -0.255  -0.558  1.00  0.00    -0.339 N 
ATOM      7  H1  UNL     1       5.374  -1.098  -0.720  1.00  0.00     0.168 HD
HETATM    8  O2  UNL     1       3.521  -0.864  -2.378  1.00  0.00    -0.333 OA
HETATM    9  C10 UNL     1       2.232  -1.304  -2.770  1.00  0.00     0.190 C 
HETATM   10  C11 UNL     1       1.083  -0.651  -2.098  1.00  0.00     0.015 C 
HETATM   11  C12 UNL     1      -0.156  -1.341  -2.725  1.00  0.00     0.035 C 
HETATM   12  C13 UNL     1      -1.272  -1.067  -1.763  1.00  0.00     0.127 C 
HETATM   13  N2  UNL     1      -0.607  -1.066  -0.495  1.00  0.00    -0.347 N 
HETATM   14  C14 UNL     1      -1.257  -1.125   0.755  1.00  0.00     0.254 C 
HETATM   15  O3  UNL     1      -0.582  -1.120   1.806  1.00  0.00    -0.267 OA
HETATM   16  C28 UNL     1       0.849  -0.992  -0.671  1.00  0.00     0.139 C 
HETATM   17  C29 UNL     1       0.858   0.812  -2.390  1.00  0.00     0.136 C 
HETATM   18  N4  UNL     1       1.890   1.699  -1.906  1.00  0.00    -0.372 N 
ENDROOT
BRANCH  18  19
HETATM   19  C30 UNL     1       1.913   3.108  -2.042  1.00  0.00     0.154 C 
BRANCH  19  20
HETATM   20  C31 UNL     1       1.971   3.392  -3.568  1.00  0.00     0.241 C 
HETATM   21  F2  UNL     1       0.864   2.969  -4.249  1.00  0.00    -0.254 F 
ENDBRANCH  19  20
ENDBRANCH  18  19
BRANCH  14  22
HETATM   22  C15 UNL     1      -2.705  -1.193   0.902  1.00  0.00     0.041 A 
HETATM   23  C16 UNL     1      -3.436  -0.027   0.998  1.00  0.00     0.047 A 
HETATM   24  C17 UNL     1      -4.811   0.010   1.139  1.00  0.00     0.031 A 
HETATM   25  C22 UNL     1      -5.483  -1.173   1.186  1.00  0.00     0.037 A 
HETATM   26  C23 UNL     1      -4.803  -2.364   1.095  1.00  0.00    -0.049 A 
HETATM   27  C24 UNL     1      -3.412  -2.375   0.952  1.00  0.00    -0.036 A 
HETATM   28  C27 UNL     1      -5.309  -3.759   1.121  1.00  0.00     0.039 C 
HETATM   29  C25 UNL     1      -2.967  -3.791   0.881  1.00  0.00     0.040 C 
HETATM   30  C26 UNL     1      -4.209  -4.485   0.347  1.00  0.00     0.009 C 
BRANCH  24  31
HETATM   31  N3  UNL     1      -5.537   1.222   1.235  1.00  0.00    -0.378 N 
HETATM   32  C18 UNL     1      -6.957   1.362   1.389  1.00  0.00     0.126 C 
HETATM   33  C19 UNL     1      -7.303   2.770   0.944  1.00  0.00     0.058 C 
HETATM   34  C20 UNL     1      -5.985   3.518   0.902  1.00  0.00     0.189 C 
HETATM   35  F1  UNL     1      -5.980   4.517   1.851  1.00  0.00    -0.248 F 
HETATM   36  C21 UNL     1      -4.900   2.533   1.185  1.00  0.00     0.160 C 
ENDBRANCH  24  31
ENDBRANCH  14  22
BRANCH   3  37
HETATM   37  O1  UNL     1       2.529   3.165   0.066  1.00  0.00    -0.358 OA
ATOM     38  H1  UNL     1       1.791   3.385  -0.491  1.00  0.00     0.217 HD
ENDBRANCH   3  37
BRANCH   1  39
HETATM   39  C4  UNL     1       6.262   0.309   1.374  1.00  0.00     0.057 C 
BRANCH  39  40
HETATM   40  C3  UNL     1       6.970  -0.969   0.996  1.00  0.00     0.006 C 
BRANCH  40  41
HETATM   41  C2  UNL     1       8.107  -1.159   1.978  1.00  0.00    -0.004 C 
HETATM   42  C1  UNL     1       7.615  -1.262   3.400  1.00  0.00     0.005 C 
ENDBRANCH  40  41
ENDBRANCH  39  40
ENDBRANCH   1  39
TORSDOF 8
