REMARK  13 active torsions:
REMARK  status: ('A' for Active; 'I' for Inactive)
REMARK    1  A    between atoms: C2_3  and  C3_4 
REMARK    2  A    between atoms: C3_4  and  O2_6 
REMARK    3  A    between atoms: O2_6  and  C4_7 
REMARK    4  A    between atoms: C4_7  and  O3_8 
REMARK    5  A    between atoms: O3_8  and  C5_9 
REMARK    6  A    between atoms: C6_14  and  C7_15 
REMARK    7  A    between atoms: N4_16  and  N5_18 
REMARK    8  A    between atoms: N5_18  and  C8_20 
REMARK    9  A    between atoms: C9_21  and  N6_22 
REMARK   10  A    between atoms: N8_29  and  O4_30 
REMARK   11  A    between atoms: N9_32  and  O5_33 
REMARK   12  A    between atoms: N11_38  and  N12_39 
REMARK   13  A    between atoms: C13_42  and  N13_43 
ROOT
HETATM    1  C7  UNL     1      -0.309  -0.360  -1.015  1.00  0.00     0.142 C 
HETATM    2  N4  UNL     1       0.865  -0.220  -1.342  1.00  0.00    -0.308 N 
ATOM      3  H4  UNL     1       0.952   0.704  -1.765  1.00  0.00     0.186 HD
ENDROOT
BRANCH   1   4
HETATM    4  C6  UNL     1      -1.001  -1.485  -0.368  1.00  0.00     0.124 A 
HETATM    5  C2  UNL     1      -2.362  -1.477  -0.064  1.00  0.00     0.157 A 
HETATM    6  N1  UNL     1      -2.592  -2.685   0.514  1.00  0.00    -0.178 N 
HETATM    7  C1  UNL     1      -3.901  -3.121   1.000  1.00  0.00     0.176 C 
HETATM    8  C13 UNL     1      -1.497  -3.413   0.583  1.00  0.00     0.699 A 
HETATM    9  N11 UNL     1      -0.520  -2.664   0.035  1.00  0.00    -0.089 N 
BRANCH   5  10
HETATM   10  C3  UNL     1      -3.375  -0.461  -0.276  1.00  0.00     0.315 C 
HETATM   11  O1  UNL     1      -4.578  -0.707   0.103  1.00  0.00    -0.257 OA
BRANCH  10  12
HETATM   12  O2  UNL     1      -3.212   0.770  -0.848  1.00  0.00    -0.290 OA
BRANCH  12  13
HETATM   13  C4  UNL     1      -4.236   1.716  -1.028  1.00  0.00     0.358 C 
BRANCH  13  14
HETATM   14  O3  UNL     1      -4.828   2.112   0.191  1.00  0.00    -0.298 OA
BRANCH  14  15
HETATM   15  C5  UNL     1      -5.853   3.046   0.126  1.00  0.00     0.227 C 
HETATM   16  N2  UNL     1      -6.141   3.662  -0.968  1.00  0.00    -0.368 N 
ATOM     17  H22 UNL     1      -5.579   3.431  -1.787  1.00  0.00     0.159 HD
ATOM     18  H21 UNL     1      -6.894   4.348  -1.016  1.00  0.00     0.159 HD
HETATM   19  N3  UNL     1      -6.645   3.371   1.281  1.00  0.00    -0.057 NA
ENDBRANCH  14  15
ENDBRANCH  13  14
ENDBRANCH  12  13
ENDBRANCH  10  12
ENDBRANCH   5  10
BRANCH   8  20
HETATM   20  N13 UNL     1      -1.329  -4.599   1.060  1.00  0.00    -0.233 N 
ATOM     21 2H13 UNL     1      -2.069  -5.166   1.475  1.00  0.00     0.174 HD
ATOM     22 1H13 UNL     1      -0.481  -5.163   1.113  1.00  0.00     0.174 HD
ENDBRANCH   8  20
BRANCH   9  23
HETATM   23  N12 UNL     1       0.790  -3.112  -0.067  1.00  0.00    -0.324 N 
ATOM     24 2H12 UNL     1       1.530  -2.545  -0.482  1.00  0.00     0.178 HD
ATOM     25 1H12 UNL     1       1.157  -4.012   0.241  1.00  0.00     0.178 HD
ENDBRANCH   9  23
ENDBRANCH   1   4
BRANCH   2  26
HETATM   26  N5  UNL     1       2.060  -0.775  -1.370  1.00  0.00    -0.281 N 
ATOM     27  H5  UNL     1       2.073  -1.726  -1.739  1.00  0.00     0.188 HD
BRANCH  26  28
HETATM   28  C8  UNL     1       3.199  -0.335  -1.018  1.00  0.00     0.193 A 
HETATM   29  C9  UNL     1       4.311  -1.129  -1.154  1.00  0.00     0.149 A 
HETATM   30  N7  UNL     1       5.548  -0.683  -0.784  1.00  0.00    -0.323 N 
HETATM   31  C10 UNL     1       5.657   0.561  -0.280  1.00  0.00     0.153 A 
ATOM     32  H7  UNL     1       6.370  -1.278  -0.887  1.00  0.00     0.169 HD
HETATM   33  C11 UNL     1       4.558   1.378  -0.133  1.00  0.00     0.202 A 
HETATM   34  N10 UNL     1       6.805   1.282   0.184  1.00  0.00    -0.355 N 
HETATM   35  N8  UNL     1       3.338   0.898  -0.513  1.00  0.00    -0.180 N 
HETATM   36  N9  UNL     1       4.967   2.631   0.422  1.00  0.00    -0.221 N 
HETATM   37  C12 UNL     1       6.416   2.655   0.470  1.00  0.00     0.281 C 
ATOM     38  H10 UNL     1       7.742   0.896   0.296  1.00  0.00     0.163 HD
BRANCH  29  39
HETATM   39  N6  UNL     1       4.163  -2.311  -1.640  1.00  0.00    -0.382 N 
ATOM     40  H62 UNL     1       3.239  -2.644  -1.916  1.00  0.00     0.157 HD
ATOM     41  H61 UNL     1       4.989  -2.901  -1.741  1.00  0.00     0.157 HD
ENDBRANCH  29  39
BRANCH  35  42
HETATM   42  O4  UNL     1       2.267   1.739  -0.353  1.00  0.00    -0.279 OA
ATOM     43  H4  UNL     1       2.366   2.613   0.005  1.00  0.00     0.245 HD
ENDBRANCH  35  42
BRANCH  36  44
HETATM   44  O5  UNL     1       4.168   3.645   0.842  1.00  0.00    -0.284 OA
ATOM     45  H5  UNL     1       4.440   4.477   1.211  1.00  0.00     0.245 HD
ENDBRANCH  36  44
ENDBRANCH  26  28
ENDBRANCH   2  26
TORSDOF 13
