REMARK  3 active torsions:
REMARK  status: ('A' for Active; 'I' for Inactive)
REMARK       I    between atoms: N1_2  and  C2_4 
REMARK       I    between atoms: C2_4  and  N4_10 
REMARK    1  A    between atoms: N2_5  and  N3_7 
REMARK       I    between atoms: N4_10  and  C3_12 
REMARK    2  A    between atoms: C3_12  and  C4_14 
REMARK    3  A    between atoms: C4_14  and  N5_16 
ROOT
HETATM    1  C1  UNL     1      -2.795  -0.765   0.322  1.00  0.00     0.165 C 
HETATM    2  N1  UNL     1      -1.936   0.045  -0.537  1.00  0.00    -0.229 N 
ATOM      3  H1  UNL     1      -1.943  -0.073  -1.550  1.00  0.00     0.177 HD
HETATM    4  C2  UNL     1      -1.100   0.991   0.077  1.00  0.00     0.694 C 
HETATM    5  N2  UNL     1      -1.571   2.128   0.418  1.00  0.00    -0.139 N 
ATOM      6  H2  UNL     1      -0.961   2.813   0.863  1.00  0.00     0.205 HD
HETATM    7  N4  UNL     1       0.266   0.682   0.317  1.00  0.00    -0.157 N 
ATOM      8  H4  UNL     1       0.862   1.379   0.764  1.00  0.00     0.187 HD
HETATM    9  C3  UNL     1       0.819  -0.562  -0.046  1.00  0.00     0.266 C 
HETATM   10  O1  UNL     1       0.096  -1.418  -0.593  1.00  0.00    -0.270 OA
ENDROOT
BRANCH   9  11
HETATM   11  C4  UNL     1       2.237  -0.876   0.205  1.00  0.00     0.271 C 
HETATM   12  C5  UNL     1       2.890  -1.200  -1.118  1.00  0.00     0.050 C 
BRANCH  11  13
HETATM   13  N5  UNL     1       2.880   0.254   0.844  1.00  0.00    -0.067 N 
ATOM     14  H53 UNL     1       2.766   1.115   0.309  1.00  0.00     0.275 HD
ATOM     15  H52 UNL     1       2.394   0.543   1.693  1.00  0.00     0.275 HD
ATOM     16  H51 UNL     1       3.861   0.037   1.018  1.00  0.00     0.275 HD
ENDBRANCH  11  13
ENDBRANCH   9  11
BRANCH   5  17
HETATM   17  N3  UNL     1      -2.901   2.441   0.190  1.00  0.00    -0.331 N 
ATOM     18  H32 UNL     1      -3.497   1.744  -0.256  1.00  0.00     0.177 HD
ATOM     19  H31 UNL     1      -3.277   3.349   0.462  1.00  0.00     0.177 HD
ENDBRANCH   5  17
TORSDOF 3
