REMARK  16 active torsions:
REMARK  status: ('A' for Active; 'I' for Inactive)
REMARK    1  A    between atoms: C2_2  and  C3_3 
REMARK    2  A    between atoms: C2_2  and  N4_22 
REMARK    3  A    between atoms: C3_3  and  C4_4 
REMARK    4  A    between atoms: C4_4  and  C5_5 
REMARK    5  A    between atoms: C5_5  and  C6_6 
REMARK    6  A    between atoms: C6_6  and  N1_7 
REMARK       I    between atoms: N1_7  and  C7_9 
REMARK    7  A    between atoms: C7_9  and  C8_11 
REMARK    8  A    between atoms: N4_22  and  C15_24 
REMARK    9  A    between atoms: C15_24  and  C16_25 
REMARK   10  A    between atoms: C16_25  and  C17_26 
REMARK   11  A    between atoms: C20_32  and  C21_33 
REMARK   12  A    between atoms: C21_33  and  C22_34 
REMARK   13  A    between atoms: N6_40  and  C28_41 
REMARK   14  A    between atoms: C28_41  and  C29_42 
REMARK   15  A    between atoms: N7_45  and  C32_46 
REMARK   16  A    between atoms: C32_46  and  C33_47 
ROOT
HETATM    1  C17 UNL     1      -1.614  -0.054  -1.444  1.00  0.00     0.085 C 
HETATM    2  C18 UNL     1      -1.024  -1.036  -2.396  1.00  0.00     0.143 C 
HETATM    3  N5  UNL     1      -1.868  -2.013  -2.999  1.00  0.00    -0.355 N 
ATOM      4  H5  UNL     1      -1.489  -2.873  -3.396  1.00  0.00     0.162 HD
HETATM    5  C19 UNL     1      -3.275  -1.732  -3.022  1.00  0.00     0.258 C 
HETATM    6  O3  UNL     1      -4.041  -2.573  -3.474  1.00  0.00    -0.267 OA
HETATM    7  C20 UNL     1      -3.615  -0.421  -2.467  1.00  0.00     0.057 C 
HETATM    8  N6  UNL     1      -2.990  -0.323  -1.147  1.00  0.00    -0.275 NA
ENDROOT
BRANCH   1   9
HETATM    9  C16 UNL     1      -0.672   0.056  -0.278  1.00  0.00     0.066 C 
BRANCH   9  10
HETATM   10  C15 UNL     1       0.660   0.536  -0.797  1.00  0.00     0.057 C 
BRANCH  10  11
HETATM   11  N4  UNL     1       1.673   0.713   0.139  1.00  0.00    -0.398 N 
ATOM     12  H4  UNL     1       1.978   1.665   0.343  1.00  0.00     0.159 HD
BRANCH  11  13
HETATM   13  C2  UNL     1       2.297  -0.336   0.815  1.00  0.00     0.076 C 
HETATM   14  C1  UNL     1       1.468  -1.151   1.770  1.00  0.00     0.032 C 
BRANCH  13  15
HETATM   15  C3  UNL     1       2.956  -1.349  -0.123  1.00  0.00     0.024 C 
BRANCH  15  16
HETATM   16  C4  UNL     1       3.801  -2.278   0.668  1.00  0.00     0.004 C 
BRANCH  16  17
HETATM   17  C5  UNL     1       4.941  -1.658   1.413  1.00  0.00     0.020 C 
BRANCH  17  18
HETATM   18  C6  UNL     1       5.923  -0.978   0.476  1.00  0.00     0.122 C 
BRANCH  18  19
HETATM   19  N1  UNL     1       7.032  -0.392   1.179  1.00  0.00    -0.359 N 
HETATM   20  C7  UNL     1       8.097   0.281   0.516  1.00  0.00     0.251 C 
HETATM   21  O1  UNL     1       8.023   0.340  -0.736  1.00  0.00    -0.271 OA
ATOM     22  H1  UNL     1       7.057  -0.461   2.196  1.00  0.00     0.162 HD
BRANCH  20  23
HETATM   23  C8  UNL     1       9.232   0.882   1.206  1.00  0.00     0.315 C 
HETATM   24  C9  UNL     1       9.956   0.006   2.175  1.00  0.00     0.048 C 
HETATM   25  C10 UNL     1      11.376   0.576   2.243  1.00  0.00     0.040 C 
HETATM   26  C11 UNL     1      11.274   1.760   1.330  1.00  0.00     0.242 C 
HETATM   27  C12 UNL     1      12.592   2.178   0.718  1.00  0.00     0.158 C 
HETATM   28  N3  UNL     1      10.324   1.285   0.314  1.00  0.00     0.117 N 
HETATM   29  N2  UNL     1      13.083   1.148  -0.188  1.00  0.00    -0.357 N 
HETATM   30  C13 UNL     1      12.250   0.129  -0.679  1.00  0.00     0.246 C 
ATOM     31  H2  UNL     1      14.062   1.167  -0.475  1.00  0.00     0.162 HD
HETATM   32  O2  UNL     1      12.772  -0.804  -1.355  1.00  0.00    -0.272 OA
HETATM   33  C14 UNL     1      10.795   0.155  -0.407  1.00  0.00     0.376 C 
ENDBRANCH  20  23
ENDBRANCH  18  19
ENDBRANCH  17  18
ENDBRANCH  16  17
ENDBRANCH  15  16
ENDBRANCH  13  15
ENDBRANCH  11  13
ENDBRANCH  10  11
ENDBRANCH   9  10
ENDBRANCH   1   9
BRANCH   8  34
HETATM   34  C28 UNL     1      -3.610   0.536  -0.234  1.00  0.00     0.102 C 
BRANCH  34  35
HETATM   35  C29 UNL     1      -4.885   0.039   0.424  1.00  0.00     0.029 C 
HETATM   36  C30 UNL     1      -4.623  -1.227   1.203  1.00  0.00     0.038 C 
HETATM   37  C31 UNL     1      -5.627  -1.106   2.364  1.00  0.00     0.273 C 
HETATM   38  N7  UNL     1      -5.778   0.270   2.605  1.00  0.00     0.089 N 
HETATM   39  C37 UNL     1      -5.406   0.999   1.441  1.00  0.00     0.278 C 
BRANCH  38  40
HETATM   40  C32 UNL     1      -6.989   0.628   3.237  1.00  0.00     0.280 C 
BRANCH  40  41
HETATM   41  C33 UNL     1      -7.100   0.231   4.676  1.00  0.00    -0.025 C 
HETATM   42  C34 UNL     1      -5.937   0.907   5.415  1.00  0.00     0.016 C 
HETATM   43  C35 UNL     1      -8.367   0.879   5.258  1.00  0.00     0.016 C 
HETATM   44  C36 UNL     1      -7.081  -1.221   4.978  1.00  0.00     0.016 C 
ENDBRANCH  40  41
ENDBRANCH  38  40
ENDBRANCH  34  35
ENDBRANCH   8  34
BRANCH   7  45
HETATM   45  C21 UNL     1      -4.904   0.137  -2.763  1.00  0.00     0.061 C 
BRANCH  45  46
HETATM   46  C22 UNL     1      -5.254   0.524  -4.173  1.00  0.00    -0.009 C 
HETATM   47  C23 UNL     1      -6.703   1.057  -4.121  1.00  0.00     0.005 C 
HETATM   48  C24 UNL     1      -7.077   1.822  -5.345  1.00  0.00     0.000 C 
HETATM   49  C25 UNL     1      -6.913   0.870  -6.520  1.00  0.00     0.000 C 
HETATM   50  C26 UNL     1      -5.526   0.321  -6.567  1.00  0.00     0.000 C 
HETATM   51  C27 UNL     1      -5.150  -0.438  -5.266  1.00  0.00     0.005 C 
ENDBRANCH  45  46
ENDBRANCH   7  45
TORSDOF 16
