REMARK  2 active torsions:
REMARK  status: ('A' for Active; 'I' for Inactive)
REMARK    1  A    between atoms: N3_4  and  N4_6 
REMARK    2  A    between atoms: N4_6  and  C2_8 
ROOT
HETATM    1  C2  UNL     1       0.843   0.867   0.395  1.00  0.00     0.143 C 
HETATM    2  C3  UNL     1       2.022   0.306   0.464  1.00  0.00     0.134 A 
HETATM    3  N5  UNL     1       2.575  -0.958   0.123  1.00  0.00    -0.291 N 
ATOM      4  H5  UNL     1       2.197  -1.813  -0.285  1.00  0.00     0.187 HD
HETATM    5  N6  UNL     1       3.849  -0.565   0.570  1.00  0.00    -0.264 N 
ATOM      6  H6  UNL     1       4.763  -1.015   0.618  1.00  0.00     0.190 HD
HETATM    7  C4  UNL     1       3.344   0.716   0.929  1.00  0.00     0.289 A 
HETATM    8  O1  UNL     1       3.783   1.797   1.435  1.00  0.00    -0.264 OA
ENDROOT
BRANCH   1   9
HETATM    9  N4  UNL     1      -0.255   0.137  -0.136  1.00  0.00    -0.307 N 
ATOM     10  H4  UNL     1      -0.133  -0.480  -0.939  1.00  0.00     0.186 HD
BRANCH   9  11
HETATM   11  N3  UNL     1      -1.497   0.286   0.466  1.00  0.00    -0.276 N 
HETATM   12  C1  UNL     1      -2.554   0.017  -0.213  1.00  0.00     0.215 C 
HETATM   13  N1  UNL     1      -2.385  -0.421  -1.555  1.00  0.00    -0.065 NA
HETATM   14  N2  UNL     1      -3.856   0.156   0.366  1.00  0.00    -0.065 NA
ATOM     15  H3  UNL     1      -1.569   0.604   1.432  1.00  0.00     0.189 HD
ENDBRANCH   9  11
ENDBRANCH   1   9
TORSDOF 2
