REMARK  9 active torsions:
REMARK  status: ('A' for Active; 'I' for Inactive)
REMARK    1  A    between atoms: C3_6  and  C4_7 
REMARK    2  A    between atoms: C6_11  and  N4_12 
REMARK    3  A    between atoms: C7_15  and  C8_16 
REMARK    4  A    between atoms: C8_16  and  C9_17 
REMARK    5  A    between atoms: C8_16  and  C14_28 
REMARK       I    between atoms: C9_17  and  N5_19 
REMARK    6  A    between atoms: N5_19  and  N6_21 
REMARK    7  A    between atoms: C14_28  and  O3_33 
REMARK    8  A    between atoms: N8_29  and  O2_31 
REMARK    9  A    between atoms: O3_33  and  N9_34 
ROOT
HETATM    1  C1  UNL     1      -2.139   1.179  -3.381  1.00  0.00     0.231 C 
HETATM    2  N1  UNL     1      -1.631   1.760  -2.514  1.00  0.00    -0.410 NA
HETATM    3  C2  UNL     1      -1.029   2.485  -1.478  1.00  0.00     0.189 A 
HETATM    4  N2  UNL     1      -1.110   3.815  -1.426  1.00  0.00    -0.320 N 
ATOM      5  H2  UNL     1      -1.621   4.310  -2.157  1.00  0.00     0.169 HD
HETATM    6  C3  UNL     1      -0.534   4.525  -0.433  1.00  0.00     0.084 A 
HETATM    7  N3  UNL     1       0.143   3.896   0.540  1.00  0.00    -0.332 N 
ATOM      8  H3  UNL     1       0.572   4.447   1.284  1.00  0.00     0.168 HD
HETATM    9  C6  UNL     1       0.273   2.531   0.560  1.00  0.00     0.112 A 
HETATM   10  C7  UNL     1      -0.318   1.838  -0.457  1.00  0.00     0.065 A 
ENDROOT
BRANCH  10  11
HETATM   11  C8  UNL     1      -0.273   0.356  -0.509  1.00  0.00     0.199 C 
BRANCH  11  12
HETATM   12  C9  UNL     1       1.063  -0.228  -0.464  1.00  0.00     0.253 C 
HETATM   13  O1  UNL     1       2.080   0.506  -0.499  1.00  0.00    -0.271 OA
HETATM   14  N5  UNL     1       1.292  -1.615  -0.383  1.00  0.00    -0.262 N 
ATOM     15  H5  UNL     1       0.484  -2.237  -0.356  1.00  0.00     0.190 HD
BRANCH  14  16
HETATM   16  N6  UNL     1       2.553  -2.179  -0.338  1.00  0.00    -0.265 N 
HETATM   17  C10 UNL     1       3.372  -2.000  -1.454  1.00  0.00     0.092 C 
HETATM   18  C11 UNL     1       4.745  -1.464  -1.230  1.00  0.00     0.066 C 
HETATM   19  C12 UNL     1       5.147  -1.323   0.205  1.00  0.00     0.125 C 
HETATM   20  N7  UNL     1       4.509  -2.239   1.084  1.00  0.00    -0.384 N 
HETATM   21  C13 UNL     1       3.110  -2.416   0.913  1.00  0.00     0.201 C 
ATOM     22  H7  UNL     1       5.029  -2.744   1.801  1.00  0.00     0.160 HD
ENDBRANCH  14  16
ENDBRANCH  11  12
BRANCH  11  23
HETATM   23  C14 UNL     1      -1.227  -0.203   0.520  1.00  0.00     0.177 C 
HETATM   24  N8  UNL     1      -1.883   0.609   1.296  1.00  0.00    -0.248 N 
ATOM     25  H8  UNL     1      -1.754   1.617   1.210  1.00  0.00     0.196 HD
BRANCH  24  26
HETATM   26  O2  UNL     1      -2.745   0.103   2.226  1.00  0.00    -0.288 OA
ATOM     27  H2  UNL     1      -3.224   0.696   2.793  1.00  0.00     0.244 HD
ENDBRANCH  24  26
BRANCH  23  28
HETATM   28  O3  UNL     1      -1.456  -1.551   0.696  1.00  0.00    -0.245 OA
BRANCH  28  29
HETATM   29  N9  UNL     1      -2.696  -2.047   1.028  1.00  0.00    -0.185 NA
HETATM   30  C15 UNL     1      -3.664  -1.812  -0.022  1.00  0.00     0.147 C 
HETATM   31  C16 UNL     1      -3.726  -2.887  -1.056  1.00  0.00     0.184 C 
HETATM   32  O4  UNL     1      -3.733  -4.165  -0.555  1.00  0.00    -0.389 OA
HETATM   33  C17 UNL     1      -3.803  -4.204   0.842  1.00  0.00     0.184 C 
HETATM   34  C18 UNL     1      -2.651  -3.417   1.451  1.00  0.00     0.147 C 
ENDBRANCH  28  29
ENDBRANCH  23  28
ENDBRANCH  11  23
ENDBRANCH  10  11
BRANCH   6  35
HETATM   35  C4  UNL     1      -0.645   6.006  -0.412  1.00  0.00     0.072 C 
HETATM   36  C5  UNL     1       0.074   6.558   0.792  1.00  0.00     0.013 C 
ENDBRANCH   6  35
BRANCH   9  37
HETATM   37  N4  UNL     1       0.901   1.969   1.538  1.00  0.00    -0.385 N 
ATOM     38  H42 UNL     1       1.343   2.487   2.298  1.00  0.00     0.157 HD
ATOM     39  H41 UNL     1       0.998   0.954   1.553  1.00  0.00     0.157 HD
ENDBRANCH   9  37
TORSDOF 9
