REMARK  3 active torsions:
REMARK  status: ('A' for Active; 'I' for Inactive)
REMARK    1  A    between atoms: C2_2  and  O1_3 
REMARK    2  A    between atoms: C2_2  and  C3_5 
REMARK    3  A    between atoms: C3_5  and  S1_6 
ROOT
HETATM    1  S1  UNL     1      -0.422   2.114   0.477  1.00  0.00    -0.038 SA
HETATM    2  C4  UNL     1      -0.277   3.118  -0.968  1.00  0.00     0.134 C 
HETATM    3  N1  UNL     1      -0.164   3.782  -1.914  1.00  0.00    -0.184 NA
ENDROOT
BRANCH   1   4
HETATM    4  C3  UNL     1      -0.163   0.388   0.035  1.00  0.00     0.048 C 
HETATM    5  C5  UNL     1      -0.476  -0.468   1.221  1.00  0.00     0.024 C 
HETATM    6  C6  UNL     1      -1.723  -1.272   0.815  1.00  0.00     0.002 C 
HETATM    7  C7  UNL     1      -1.385  -1.488  -0.658  1.00  0.00     0.002 C 
HETATM    8  C8  UNL     1      -1.071  -0.073  -1.077  1.00  0.00     0.024 C 
BRANCH   4   9
HETATM    9  C2  UNL     1       1.289   0.261  -0.410  1.00  0.00     0.133 C 
HETATM   10  C1  UNL     1       2.223   0.667   0.723  1.00  0.00     0.041 C 
BRANCH   9  11
HETATM   11  O1  UNL     1       1.619  -1.017  -0.805  1.00  0.00    -0.394 OA
ATOM     12  H1  UNL     1       1.037  -1.270  -1.512  1.00  0.00     0.210 HD
ENDBRANCH   9  11
ENDBRANCH   4   9
ENDBRANCH   1   4
TORSDOF 3
