REMARK  7 active torsions:
REMARK  status: ('A' for Active; 'I' for Inactive)
REMARK       I    between atoms: C1_4  and  N3_6 
REMARK    1  A    between atoms: N3_6  and  C2_8 
REMARK    2  A    between atoms: C4_12  and  O1_13 
REMARK    3  A    between atoms: O1_13  and  C5_14 
REMARK    4  A    between atoms: C5_14  and  C6_15 
REMARK    5  A    between atoms: C6_15  and  C7_17 
REMARK    6  A    between atoms: C7_17  and  S1_18 
REMARK    7  A    between atoms: S1_18  and  C8_19 
ROOT
HETATM    1  C2  UNL     1      -4.267  -0.866  -0.337  1.00  0.00     0.687 A 
HETATM    2  N4  UNL     1      -3.493  -0.025   0.350  1.00  0.00    -0.199 N 
ATOM      3  H4  UNL     1      -3.931   0.698   0.920  1.00  0.00     0.183 HD
HETATM    4  C3  UNL     1      -2.130  -0.105   0.312  1.00  0.00     0.148 A 
HETATM    5  C4  UNL     1      -1.490  -1.058  -0.439  1.00  0.00     0.153 A 
HETATM    6  C14 UNL     1      -2.323  -1.933  -1.153  1.00  0.00     0.294 A 
HETATM    7  O3  UNL     1      -1.775  -2.826  -1.856  1.00  0.00    -0.265 OA
HETATM    8  N5  UNL     1      -3.654  -1.824  -1.091  1.00  0.00    -0.153 N 
ATOM      9  H5  UNL     1      -4.229  -2.477  -1.624  1.00  0.00     0.187 HD
ENDROOT
BRANCH   5  10
HETATM   10  O1  UNL     1      -0.132  -1.159  -0.493  1.00  0.00    -0.337 OA
BRANCH  10  11
HETATM   11  C5  UNL     1       0.848  -0.394   0.117  1.00  0.00     0.255 C 
BRANCH  11  12
HETATM   12  C6  UNL     1       0.888   1.012  -0.274  1.00  0.00     0.160 C 
HETATM   13  O2  UNL     1       0.120   1.339  -1.207  1.00  0.00    -0.295 OA
BRANCH  12  14
HETATM   14  C7  UNL     1       1.694   2.103   0.269  1.00  0.00     0.160 C 
BRANCH  14  15
HETATM   15  S1  UNL     1       2.901   1.687   1.502  1.00  0.00    -0.122 SA
BRANCH  15  16
HETATM   16  C8  UNL     1       4.294   0.804   0.833  1.00  0.00     0.001 A 
HETATM   17  C9  UNL     1       4.490   0.536  -0.502  1.00  0.00     0.018 A 
HETATM   18  C10 UNL     1       5.595  -0.160  -0.966  1.00  0.00     0.001 A 
HETATM   19  C11 UNL     1       6.555  -0.614  -0.081  1.00  0.00     0.000 A 
HETATM   20  C12 UNL     1       6.383  -0.359   1.261  1.00  0.00     0.001 A 
HETATM   21  C13 UNL     1       5.280   0.332   1.699  1.00  0.00     0.018 A 
ENDBRANCH  15  16
ENDBRANCH  14  15
ENDBRANCH  12  14
ENDBRANCH  11  12
ENDBRANCH  10  11
ENDBRANCH   5  10
BRANCH   1  22
HETATM   22  N3  UNL     1      -5.532  -0.794  -0.310  1.00  0.00    -0.164 N 
HETATM   23  C1  UNL     1      -6.203   0.186   0.452  1.00  0.00     0.200 C 
HETATM   24  N1  UNL     1      -6.216   1.436   0.161  1.00  0.00    -0.373 N 
HETATM   25  N2  UNL     1      -6.911  -0.292   1.612  1.00  0.00    -0.063 NA
ATOM     26  H12 UNL     1      -6.701   2.144   0.712  1.00  0.00     0.158 HD
ATOM     27  H11 UNL     1      -5.715   1.774  -0.660  1.00  0.00     0.158 HD
ATOM     28  H3  UNL     1      -6.079  -1.462  -0.853  1.00  0.00     0.187 HD
ENDBRANCH   1  22
TORSDOF 7
