REMARK  9 active torsions:
REMARK  status: ('A' for Active; 'I' for Inactive)
REMARK    1  A    between atoms: C4_5  and  N2_6 
REMARK    2  A    between atoms: N2_6  and  C5_8 
REMARK    3  A    between atoms: C7_12  and  N4_13 
REMARK    4  A    between atoms: N4_13  and  C8_15 
REMARK    5  A    between atoms: C8_15  and  O1_16 
REMARK    6  A    between atoms: C9_18  and  N5_19 
REMARK    7  A    between atoms: C15_26  and  C16_27 
REMARK    8  A    between atoms: C16_27  and  C17_28 
REMARK    9  A    between atoms: C17_28  and  C18_29 
ROOT
HETATM    1  C5  UNL     1       4.009   1.367   1.155  1.00  0.00     0.678 A 
HETATM    2  N3  UNL     1       2.824   0.879   0.750  1.00  0.00    -0.186 N 
ATOM      3  H3  UNL     1       2.765   0.276  -0.070  1.00  0.00     0.184 HD
HETATM    4  C6  UNL     1       1.693   1.205   1.458  1.00  0.00     0.124 A 
HETATM    5  C7  UNL     1       0.393   0.846   1.229  1.00  0.00     0.152 A 
HETATM    6  N6  UNL     1      -0.344   1.454   2.219  1.00  0.00    -0.283 N 
ATOM      7  H6  UNL     1      -1.355   1.392   2.337  1.00  0.00     0.188 HD
HETATM    8  N7  UNL     1       0.483   2.130   2.988  1.00  0.00    -0.295 N 
ATOM      9  H7  UNL     1       0.197   2.674   3.802  1.00  0.00     0.187 HD
HETATM   10  C19 UNL     1       1.751   2.012   2.565  1.00  0.00     0.095 A 
HETATM   11  C20 UNL     1       2.971   2.508   2.975  1.00  0.00     0.139 A 
HETATM   12  N8  UNL     1       4.029   2.157   2.248  1.00  0.00    -0.200 N 
ATOM     13  H8  UNL     1       4.936   2.518   2.544  1.00  0.00     0.183 HD
ENDROOT
BRANCH   5  14
HETATM   14  N4  UNL     1      -0.061   0.080   0.283  1.00  0.00    -0.320 N 
ATOM     15  H4  UNL     1       0.604  -0.320  -0.380  1.00  0.00     0.169 HD
BRANCH  14  16
HETATM   16  C8  UNL     1      -1.331  -0.203   0.140  1.00  0.00     0.152 C 
HETATM   17  C9  UNL     1      -2.681  -0.503  -0.014  1.00  0.00     0.116 C 
BRANCH  16  18
HETATM   18  O1  UNL     1      -1.221   0.396  -1.334  1.00  0.00    -0.345 OA
ATOM     19  H1  UNL     1      -2.143   0.191  -1.438  1.00  0.00     0.219 HD
ENDBRANCH  16  18
BRANCH  17  20
HETATM   20  N5  UNL     1      -3.496  -0.265  -1.140  1.00  0.00    -0.284 NA
HETATM   21  C10 UNL     1      -3.729   1.137  -1.470  1.00  0.00     0.097 C 
HETATM   22  C11 UNL     1      -4.277   1.888  -0.296  1.00  0.00     0.040 C 
HETATM   23  C12 UNL     1      -5.646   1.331  -0.013  1.00  0.00     0.036 C 
HETATM   24  C13 UNL     1      -6.226   1.971   1.246  1.00  0.00     0.033 C 
HETATM   25 CL1  UNL     1      -6.758   1.714  -1.354  1.00  0.00    -0.119 Cl
HETATM   26  C14 UNL     1      -5.589  -0.151   0.147  1.00  0.00     0.045 C 
HETATM   27  C15 UNL     1      -4.842  -0.831  -0.925  1.00  0.00     0.064 C 
BRANCH  27  28
HETATM   28  C16 UNL     1      -4.861  -2.299  -0.790  1.00  0.00     0.022 C 
BRANCH  28  29
HETATM   29  C17 UNL     1      -6.318  -2.760  -0.608  1.00  0.00     0.033 C 
BRANCH  29  30
HETATM   30  C18 UNL     1      -6.319  -4.288  -0.495  1.00  0.00     0.222 C 
HETATM   31  F1  UNL     1      -7.621  -4.684  -0.333  1.00  0.00    -0.255 F 
ENDBRANCH  29  30
ENDBRANCH  28  29
ENDBRANCH  27  28
ENDBRANCH  17  20
ENDBRANCH  14  16
ENDBRANCH   5  14
BRANCH   1  32
HETATM   32  N2  UNL     1       5.107   1.139   0.511  1.00  0.00    -0.221 N 
ATOM     33  H2  UNL     1       5.955   1.552   0.900  1.00  0.00     0.178 HD
BRANCH  32  34
HETATM   34  C4  UNL     1       5.264   0.370  -0.689  1.00  0.00     0.102 C 
HETATM   35  C3  UNL     1       5.484  -1.070  -0.390  1.00  0.00     0.056 C 
HETATM   36  C2  UNL     1       6.847  -1.601  -0.659  1.00  0.00     0.274 C 
HETATM   37  N1  UNL     1       7.946  -0.715  -0.511  1.00  0.00     0.084 N 
HETATM   38  C1  UNL     1       8.993  -1.106  -1.443  1.00  0.00     0.309 C 
HETATM   39  C22 UNL     1       7.687   0.685  -0.542  1.00  0.00     0.274 C 
HETATM   40  C21 UNL     1       6.479   0.966  -1.408  1.00  0.00     0.056 C 
ENDBRANCH  32  34
ENDBRANCH   1  32
TORSDOF 9
