REMARK  8 active torsions:
REMARK  status: ('A' for Active; 'I' for Inactive)
REMARK    1  A    between atoms: C14_17  and  C15_18 
REMARK    2  A    between atoms: C15_18  and  C16_19 
REMARK    3  A    between atoms: C16_19  and  N1_20 
REMARK       I    between atoms: N1_20  and  C17_22 
REMARK    4  A    between atoms: C17_22  and  O5_24 
REMARK    5  A    between atoms: O5_24  and  C18_25 
REMARK    6  A    between atoms: C18_25  and  C19_26 
REMARK    7  A    between atoms: C21_31  and  O7_33 
REMARK    8  A    between atoms: O7_33  and  O8_34 
ROOT
HETATM    1  C1  UNL     1      -5.769  -1.413  -0.081  1.00  0.00     0.011 C 
HETATM    2  C2  UNL     1      -4.979  -0.555   0.862  1.00  0.00    -0.007 C 
HETATM    3  C3  UNL     1      -4.570   0.775   0.259  1.00  0.00     0.006 C 
HETATM    4  C4  UNL     1      -3.556   0.686  -0.814  1.00  0.00     0.017 C 
HETATM    5  C5  UNL     1      -2.159   0.411  -0.356  1.00  0.00     0.034 C 
HETATM    6  C6  UNL     1      -2.027   0.626   1.107  1.00  0.00     0.094 C 
HETATM    7  C7  UNL     1      -2.885  -0.183   1.973  1.00  0.00     0.132 C 
HETATM    8  O1  UNL     1      -2.751   0.066   3.158  1.00  0.00    -0.298 OA
HETATM    9  C8  UNL     1      -3.857  -1.228   1.550  1.00  0.00     0.059 C 
HETATM   10  C9  UNL     1      -3.128  -2.272   0.832  1.00  0.00     0.015 C 
HETATM   11  C10 UNL     1      -2.664  -2.056  -0.526  1.00  0.00     0.039 C 
HETATM   12  C11 UNL     1      -1.700  -0.952  -0.795  1.00  0.00     0.071 C 
HETATM   13  C12 UNL     1      -1.508  -1.012  -2.316  1.00  0.00     0.047 C 
HETATM   14  O2  UNL     1      -0.468  -1.176  -0.200  1.00  0.00    -0.347 OA
HETATM   15  C13 UNL     1       0.543  -0.370  -0.621  1.00  0.00     0.296 C 
HETATM   16  O3  UNL     1       1.541  -0.353   0.385  1.00  0.00    -0.329 OA
HETATM   17  C14 UNL     1       1.995   0.940   0.465  1.00  0.00     0.265 C 
HETATM   18  O6  UNL     1       0.827   1.721   0.311  1.00  0.00    -0.348 OA
HETATM   19  C20 UNL     1       0.235   1.072  -0.773  1.00  0.00     0.218 C 
HETATM   20  C21 UNL     1      -1.187   1.422  -0.990  1.00  0.00     0.134 C 
HETATM   21  C22 UNL     1      -1.402   2.804  -0.348  1.00  0.00     0.053 C 
ENDROOT
BRANCH  17  22
HETATM   22  C15 UNL     1       2.470   1.214   1.897  1.00  0.00     0.080 C 
BRANCH  22  23
HETATM   23  C16 UNL     1       3.578   0.245   2.206  1.00  0.00     0.129 C 
BRANCH  23  24
HETATM   24  N1  UNL     1       4.681   0.405   1.296  1.00  0.00    -0.337 N 
HETATM   25  C17 UNL     1       5.821  -0.426   1.435  1.00  0.00     0.360 C 
HETATM   26  O4  UNL     1       5.878  -1.295   2.337  1.00  0.00    -0.239 OA
ATOM     27  H1  UNL     1       4.643   1.109   0.559  1.00  0.00     0.164 HD
BRANCH  25  28
HETATM   28  O5  UNL     1       6.907  -0.307   0.582  1.00  0.00    -0.299 OA
BRANCH  28  29
HETATM   29  C18 UNL     1       8.059  -1.124   0.695  1.00  0.00     0.251 C 
BRANCH  29  30
HETATM   30  C19 UNL     1       9.062  -0.752  -0.376  1.00  0.00     0.377 C 
HETATM   31  F1  UNL     1      10.194  -1.534  -0.285  1.00  0.00    -0.212 F 
HETATM   32  F2  UNL     1       9.342   0.595  -0.262  1.00  0.00    -0.212 F 
ENDBRANCH  29  30
ENDBRANCH  28  29
ENDBRANCH  25  28
ENDBRANCH  23  24
ENDBRANCH  22  23
ENDBRANCH  17  22
BRANCH  20  33
HETATM   33  O7  UNL     1      -1.540   1.617  -2.335  1.00  0.00    -0.229 OA
BRANCH  33  34
HETATM   34  O8  UNL     1      -0.753   2.459  -2.915  1.00  0.00    -0.250 OA
ATOM     35  H8  UNL     1      -0.992   2.591  -3.825  1.00  0.00     0.253 HD
ENDBRANCH  33  34
ENDBRANCH  20  33
TORSDOF 8
