REMARK  3 active torsions:
REMARK  status: ('A' for Active; 'I' for Inactive)
REMARK    1  A    between atoms: N1_1  and  C1_4 
REMARK    2  A    between atoms: C2_7  and  C3_8 
REMARK    3  A    between atoms: C7_15  and  C8_16 
ROOT
HETATM    1  C3  UNL     1      -2.164   2.291  -0.187  1.00  0.00     0.048 C 
HETATM    2  C4  UNL     1      -2.516   1.023  -0.154  1.00  0.00     0.049 A 
HETATM    3  C5  UNL     1      -3.849   0.446  -0.128  1.00  0.00     0.257 A 
HETATM    4  O1  UNL     1      -4.940   1.068  -0.142  1.00  0.00    -0.267 OA
HETATM    5  N3  UNL     1      -3.693  -0.976  -0.086  1.00  0.00    -0.321 N 
ATOM      6  H3  UNL     1      -4.450  -1.659  -0.059  1.00  0.00     0.169 HD
HETATM    7  C6  UNL     1      -2.306  -1.274  -0.088  1.00  0.00     0.059 A 
HETATM    8  C7  UNL     1      -1.717  -2.553  -0.050  1.00  0.00     0.004 A 
HETATM    9  C13 UNL     1      -0.349  -2.619  -0.052  1.00  0.00     0.031 A 
HETATM   10  C14 UNL     1       0.422  -1.480  -0.090  1.00  0.00     0.029 A 
HETATM   11  C15 UNL     1      -0.187  -0.221  -0.127  1.00  0.00     0.059 A 
HETATM   12  N5  UNL     1       0.813   0.642  -0.149  1.00  0.00    -0.352 N 
ATOM     13  H5  UNL     1       0.687   1.654  -0.178  1.00  0.00     0.166 HD
HETATM   14  C16 UNL     1       2.037   0.030  -0.128  1.00  0.00     0.069 A 
HETATM   15  C17 UNL     1       3.324   0.529  -0.137  1.00  0.00     0.051 A 
HETATM   16  C18 UNL     1       4.380  -0.349  -0.108  1.00  0.00     0.052 A 
HETATM   17  C19 UNL     1       5.747   0.120  -0.107  1.00  0.00    -0.020 A 
HETATM   18  C20 UNL     1       6.722  -0.401   0.728  1.00  0.00     0.012 A 
HETATM   19  C21 UNL     1       8.030   0.037   0.746  1.00  0.00     0.001 A 
HETATM   20  C22 UNL     1       8.385   1.055  -0.119  1.00  0.00     0.000 A 
HETATM   21  C23 UNL     1       7.453   1.613  -0.975  1.00  0.00     0.001 A 
HETATM   22  C24 UNL     1       6.167   1.146  -0.957  1.00  0.00     0.012 A 
HETATM   23  C25 UNL     1       4.082  -1.688  -0.072  1.00  0.00     0.299 A 
HETATM   24  O2  UNL     1       5.013  -2.533  -0.047  1.00  0.00    -0.259 OA
HETATM   25  O3  UNL     1       2.834  -2.127  -0.065  1.00  0.00    -0.272 OA
HETATM   26  C26 UNL     1       1.791  -1.318  -0.091  1.00  0.00     0.118 A 
HETATM   27  C27 UNL     1      -1.585  -0.114  -0.126  1.00  0.00     0.035 A 
ENDROOT
BRANCH   1  28
HETATM   28  C2  UNL     1      -3.092   3.432  -0.198  1.00  0.00     0.051 A 
HETATM   29  N2  UNL     1      -4.024   3.562   0.748  1.00  0.00    -0.192 N 
HETATM   30  C1  UNL     1      -4.871   4.605   0.712  1.00  0.00     0.676 A 
ATOM     31  H2  UNL     1      -4.093   2.872   1.496  1.00  0.00     0.184 HD
HETATM   32  N6  UNL     1      -4.810   5.528  -0.254  1.00  0.00    -0.202 N 
HETATM   33  C29 UNL     1      -3.888   5.424  -1.214  1.00  0.00     0.108 A 
ATOM     34  H6  UNL     1      -5.466   6.309  -0.257  1.00  0.00     0.183 HD
HETATM   35  C28 UNL     1      -3.013   4.379  -1.208  1.00  0.00     0.047 A 
BRANCH  30  36
HETATM   36  N1  UNL     1      -5.770   4.732   1.625  1.00  0.00    -0.234 N 
ATOM     37  H12 UNL     1      -5.817   4.028   2.362  1.00  0.00     0.174 HD
ATOM     38  H11 UNL     1      -6.413   5.524   1.598  1.00  0.00     0.174 HD
ENDBRANCH  30  36
ENDBRANCH   1  28
BRANCH   8  39
HETATM   39  C8  UNL     1      -2.517  -3.761  -0.030  1.00  0.00    -0.008 A 
HETATM   40  C9  UNL     1      -2.308  -4.776   0.883  1.00  0.00     0.015 A 
HETATM   41  C10 UNL     1      -3.095  -5.908   0.852  1.00  0.00     0.018 A 
HETATM   42  C11 UNL     1      -4.086  -5.994  -0.109  1.00  0.00     0.087 A 
HETATM   43  N4  UNL     1      -4.289  -5.007  -0.998  1.00  0.00    -0.374 N 
HETATM   44  C12 UNL     1      -3.522  -3.908  -0.964  1.00  0.00     0.100 A 
ATOM     45  H4  UNL     1      -5.026  -5.094  -1.698  1.00  0.00     0.164 HD
ENDBRANCH   8  39
TORSDOF 3
