REMARK  9 active torsions:
REMARK  status: ('A' for Active; 'I' for Inactive)
REMARK    1  A    between atoms: S1_2  and  N1_5 
REMARK    2  A    between atoms: C4_8  and  C5_9 
REMARK    3  A    between atoms: C5_9  and  O3_10 
REMARK    4  A    between atoms: C5_9  and  N2_12 
REMARK    5  A    between atoms: C5_9  and  C8_18 
REMARK    6  A    between atoms: N2_12  and  C6_14 
REMARK    7  A    between atoms: C6_14  and  C7_15 
REMARK    8  A    between atoms: C8_18  and  O6_19 
REMARK    9  A    between atoms: C8_18  and  N3_21 
ROOT
HETATM    1  C5  UNL     1       1.010   1.254   0.322  1.00  0.00     0.198 C 
ENDROOT
BRANCH   1   2
HETATM    2  C4  UNL     1       2.126   0.260   0.440  1.00  0.00     0.056 C 
HETATM    3  C3  UNL     1       2.325  -0.726  -0.634  1.00  0.00     0.031 C 
HETATM    4  C2  UNL     1       3.601  -1.534  -0.472  1.00  0.00     0.141 C 
HETATM    5  N1  UNL     1       4.757  -0.731  -0.357  1.00  0.00    -0.291 N 
HETATM    6  C21 UNL     1       4.647   0.540   0.233  1.00  0.00     0.076 C 
HETATM    7  C20 UNL     1       3.404   0.800   1.009  1.00  0.00     0.055 C 
BRANCH   5   8
HETATM    8  S1  UNL     1       6.098  -1.688   0.095  1.00  0.00     0.228 S 
HETATM    9  C1  UNL     1       5.939  -2.492   1.646  1.00  0.00     0.186 C 
HETATM   10  O1  UNL     1       7.363  -0.872   0.138  1.00  0.00    -0.206 OA
HETATM   11  O2  UNL     1       6.318  -2.772  -0.953  1.00  0.00    -0.206 OA
ENDBRANCH   5   8
ENDBRANCH   1   2
BRANCH   1  12
HETATM   12  O3  UNL     1       1.257   2.007   1.571  1.00  0.00    -0.364 OA
ATOM     13  H3  UNL     1       0.550   2.637   1.496  1.00  0.00     0.213 HD
ENDBRANCH   1  12
BRANCH   1  14
HETATM   14  N2  UNL     1       1.004   2.255  -0.634  1.00  0.00    -0.375 N 
ATOM     15  H2  UNL     1       0.292   2.268  -1.364  1.00  0.00     0.157 HD
BRANCH  14  16
HETATM   16  C6  UNL     1       2.020   3.281  -0.584  1.00  0.00     0.230 C 
BRANCH  16  17
HETATM   17  C7  UNL     1       1.728   4.285  -1.650  1.00  0.00     0.191 C 
HETATM   18  O4  UNL     1       0.726   4.111  -2.376  1.00  0.00    -0.647 OA
HETATM   19  O5  UNL     1       2.515   5.400  -1.873  1.00  0.00    -0.647 OA
ENDBRANCH  16  17
ENDBRANCH  14  16
ENDBRANCH   1  14
BRANCH   1  20
HETATM   20  C8  UNL     1      -0.284   0.619   0.643  1.00  0.00     0.171 C 
BRANCH  20  21
HETATM   21  O6  UNL     1      -0.547   0.595   1.917  1.00  0.00    -0.346 OA
ATOM     22  H6  UNL     1      -1.379   0.186   2.124  1.00  0.00     0.219 HD
ENDBRANCH  20  21
BRANCH  20  23
HETATM   23  N3  UNL     1      -1.275   0.046  -0.158  1.00  0.00    -0.351 N 
HETATM   24  C9  UNL     1      -1.195  -0.018  -1.571  1.00  0.00     0.204 C 
HETATM   25  C10 UNL     1      -1.678  -1.328  -2.154  1.00  0.00     0.259 C 
HETATM   26  F1  UNL     1      -0.593  -2.010  -2.727  1.00  0.00    -0.205 F 
HETATM   27  F2  UNL     1      -2.532  -1.076  -3.175  1.00  0.00    -0.205 F 
HETATM   28  C11 UNL     1      -2.183  -2.237  -1.086  1.00  0.00     0.087 C 
HETATM   29  C12 UNL     1      -3.162  -1.554  -0.145  1.00  0.00     0.014 C 
HETATM   30  C13 UNL     1      -4.385  -1.163  -0.904  1.00  0.00     0.007 C 
HETATM   31  C19 UNL     1      -2.445  -0.483   0.569  1.00  0.00     0.090 C 
HETATM   32  C14 UNL     1      -5.663  -1.097  -0.183  1.00  0.00     0.000 C 
HETATM   33  C15 UNL     1      -5.653  -1.106   1.294  1.00  0.00     0.000 C 
HETATM   34  C16 UNL     1      -5.453   0.281   1.918  1.00  0.00     0.000 C 
HETATM   35  C17 UNL     1      -3.991   0.490   2.248  1.00  0.00     0.002 C 
HETATM   36  C18 UNL     1      -3.287   0.712   0.923  1.00  0.00     0.026 C 
ENDBRANCH  20  23
ENDBRANCH   1  20
TORSDOF 9
