REMARK  8 active torsions:
REMARK  status: ('A' for Active; 'I' for Inactive)
REMARK    1  A    between atoms: C4_4  and  N1_5 
REMARK    2  A    between atoms: N1_5  and  C5_7 
REMARK    3  A    between atoms: C8_10  and  S1_11 
REMARK    4  A    between atoms: S1_11  and  N2_12 
REMARK    5  A    between atoms: C12_20  and  C13_21 
REMARK    6  A    between atoms: C16_27  and  N3_28 
REMARK    7  A    between atoms: N3_28  and  S2_30 
REMARK    8  A    between atoms: S2_30  and  C17_33 
ROOT
HETATM    1  C5  UNL     1      -1.841  -0.137  -0.576  1.00  0.00     0.086 C 
HETATM    2  C6  UNL     1      -1.784   0.794   0.597  1.00  0.00     0.027 C 
HETATM    3  C7  UNL     1      -2.700   1.986   0.250  1.00  0.00     0.024 C 
HETATM    4  C8  UNL     1      -4.104   1.502   0.345  1.00  0.00     0.130 C 
HETATM    5  C9  UNL     1      -4.188  -0.020   0.298  1.00  0.00     0.034 C 
HETATM    6  C10 UNL     1      -3.308  -0.593  -0.749  1.00  0.00    -0.006 A 
HETATM    7  C11 UNL     1      -3.762  -0.700  -2.189  1.00  0.00     0.026 A 
HETATM    8  C12 UNL     1      -3.499  -1.927  -1.329  1.00  0.00     0.104 A 
ENDROOT
BRANCH   1   9
HETATM    9  N1  UNL     1      -1.074  -1.278  -0.466  1.00  0.00    -0.412 N 
ATOM     10  H1  UNL     1      -1.589  -2.158  -0.451  1.00  0.00     0.154 HD
BRANCH   9  11
HETATM   11  C4  UNL     1       0.295  -1.385  -0.374  1.00  0.00     0.077 C 
HETATM   12  C3  UNL     1       1.032  -0.837   0.805  1.00  0.00     0.031 C 
HETATM   13  C2  UNL     1       2.057   0.241   0.429  1.00  0.00     0.007 C 
HETATM   14  C1  UNL     1       2.573   0.834   1.698  1.00  0.00     0.012 C 
HETATM   15  C16 UNL     1       3.107  -0.411  -0.418  1.00  0.00     0.096 C 
HETATM   16  C15 UNL     1       2.494  -1.404  -1.404  1.00  0.00     0.028 C 
HETATM   17  C14 UNL     1       1.062  -0.965  -1.625  1.00  0.00     0.027 C 
BRANCH  15  18
HETATM   18  N3  UNL     1       4.091  -1.131   0.314  1.00  0.00    -0.314 N 
ATOM     19  H3  UNL     1       3.873  -1.895   0.954  1.00  0.00     0.172 HD
BRANCH  18  20
HETATM   20  S2  UNL     1       5.668  -0.583   0.008  1.00  0.00     0.231 S 
HETATM   21  O3  UNL     1       5.954  -0.807  -1.466  1.00  0.00    -0.206 OA
HETATM   22  O4  UNL     1       6.634  -1.452   0.791  1.00  0.00    -0.206 OA
BRANCH  20  23
HETATM   23  C17 UNL     1       5.942   1.097   0.455  1.00  0.00     0.129 A 
HETATM   24  C18 UNL     1       7.364   1.548   0.673  1.00  0.00     0.023 A 
HETATM   25  C19 UNL     1       6.427   1.393   1.821  1.00  0.00     0.023 A 
ENDBRANCH  20  23
ENDBRANCH  18  20
ENDBRANCH  15  18
ENDBRANCH   9  11
ENDBRANCH   1   9
BRANCH   8  26
HETATM   26  C13 UNL     1      -4.711  -2.772  -1.065  1.00  0.00     0.392 C 
HETATM   27  F1  UNL     1      -4.558  -3.954  -1.766  1.00  0.00    -0.171 F 
HETATM   28  F2  UNL     1      -5.881  -2.198  -1.518  1.00  0.00    -0.171 F 
HETATM   29  F3  UNL     1      -4.794  -3.135   0.279  1.00  0.00    -0.171 F 
ENDBRANCH   8  26
BRANCH   4  30
HETATM   30  S1  UNL     1      -4.781   2.049   1.899  1.00  0.00     0.228 S 
HETATM   31  O1  UNL     1      -4.809   3.548   1.981  1.00  0.00    -0.206 OA
HETATM   32  O2  UNL     1      -3.911   1.554   3.017  1.00  0.00    -0.206 OA
BRANCH  30  33
HETATM   33  N2  UNL     1      -6.403   1.472   2.095  1.00  0.00    -0.328 N 
ATOM     34  H22 UNL     1      -6.890   0.899   1.406  1.00  0.00     0.168 HD
ATOM     35  H21 UNL     1      -6.791   1.785   2.985  1.00  0.00     0.168 HD
ENDBRANCH  30  33
ENDBRANCH   4  30
TORSDOF 8
