REMARK  2 active torsions:
REMARK  status: ('A' for Active; 'I' for Inactive)
REMARK    1  A    between atoms: N1_1  and  C1_4 
REMARK    2  A    between atoms: C2_7  and  C3_8 
ROOT
HETATM    1  C3  UNL     1       1.503  -0.901   0.608  1.00  0.00     0.099 C 
HETATM    2  C4  UNL     1       0.830  -1.008  -0.755  1.00  0.00     0.023 C 
HETATM    3  C5  UNL     1      -0.616  -1.196  -0.428  1.00  0.00     0.027 C 
HETATM    4  C6  UNL     1      -1.064   0.007   0.371  1.00  0.00     0.040 C 
HETATM    5  C7  UNL     1      -1.496   1.147  -0.503  1.00  0.00     0.027 C 
HETATM    6  C8  UNL     1      -2.856   0.799  -1.070  1.00  0.00     0.021 C 
HETATM    7  C9  UNL     1      -3.799   0.688   0.089  1.00  0.00     0.119 C 
HETATM    8  N3  UNL     1      -3.428  -0.357   0.964  1.00  0.00    -0.401 N 
ATOM      9  H3  UNL     1      -4.111  -1.039   1.294  1.00  0.00     0.158 HD
HETATM   10  C10 UNL     1      -2.078  -0.421   1.363  1.00  0.00     0.076 C 
HETATM   11  S1  UNL     1       0.460   0.422   1.296  1.00  0.00    -0.142 SA
ENDROOT
BRANCH   1  12
HETATM   12  C2  UNL     1       2.926  -0.444   0.456  1.00  0.00     0.031 A 
HETATM   13  N2  UNL     1       3.249   0.675  -0.159  1.00  0.00    -0.339 N 
HETATM   14  C1  UNL     1       4.540   0.992  -0.242  1.00  0.00     0.142 A 
ATOM     15  H2  UNL     1       2.532   1.280  -0.559  1.00  0.00     0.168 HD
HETATM   16  S2  UNL     1       5.326  -0.290   0.551  1.00  0.00    -0.064 SA
HETATM   17  C11 UNL     1       3.944  -1.200   0.966  1.00  0.00     0.079 A 
BRANCH  14  18
HETATM   18  N1  UNL     1       5.067   2.057  -0.810  1.00  0.00    -0.380 N 
ATOM     19  H12 UNL     1       4.595   2.826  -1.286  1.00  0.00     0.158 HD
ATOM     20  H11 UNL     1       6.056   2.300  -0.874  1.00  0.00     0.158 HD
ENDBRANCH  14  18
ENDBRANCH   1  12
TORSDOF 2
