REMARK  4 active torsions:
REMARK  status: ('A' for Active; 'I' for Inactive)
REMARK    1  A    between atoms: C4_5  and  C6_8 
REMARK    2  A    between atoms: N2_14  and  C12_15 
REMARK    3  A    between atoms: C12_15  and  O1_16 
REMARK    4  A    between atoms: C12_15  and  O2_18 
ROOT
HETATM    1  C1  UNL     1      -3.973   0.677  -0.992  1.00  0.00     0.068 C 
HETATM    2  C2  UNL     1      -2.547   0.920  -0.578  1.00  0.00     0.016 C 
HETATM    3  C3  UNL     1      -2.054   2.134  -0.676  1.00  0.00     0.073 C 
HETATM    4  S1  UNL     1      -0.362   2.108  -0.115  1.00  0.00    -0.092 SA
HETATM    5  C4  UNL     1      -0.508   0.413   0.596  1.00  0.00     0.182 C 
HETATM    6  C5  UNL     1      -0.811   0.495   2.020  1.00  0.00     0.103 C 
HETATM    7  N1  UNL     1      -1.056   0.568   3.147  1.00  0.00    -0.194 NA
HETATM    8  N2  UNL     1      -1.651  -0.064  -0.082  1.00  0.00    -0.304 N 
ENDROOT
BRANCH   5   9
HETATM    9  C6  UNL     1       0.812  -0.191   0.420  1.00  0.00     0.040 C 
HETATM   10  C7  UNL     1       1.291  -0.296  -1.004  1.00  0.00     0.009 C 
HETATM   11  C8  UNL     1       2.715  -0.757  -1.101  1.00  0.00     0.001 C 
HETATM   12  C9  UNL     1       3.661   0.036  -0.243  1.00  0.00     0.000 C 
HETATM   13  C10 UNL     1       3.109   0.188   1.163  1.00  0.00     0.001 C 
HETATM   14  C11 UNL     1       1.782   0.854   1.039  1.00  0.00     0.009 C 
ENDBRANCH   5   9
BRANCH   8  15
HETATM   15  C12 UNL     1      -1.929  -1.476  -0.269  1.00  0.00     0.370 C 
BRANCH  15  16
HETATM   16  O1  UNL     1      -3.117  -1.906   0.263  1.00  0.00    -0.354 OA
ATOM     17  H1  UNL     1      -3.299  -2.830   0.141  1.00  0.00     0.214 HD
ENDBRANCH  15  16
BRANCH  15  18
HETATM   18  O2  UNL     1      -0.942  -2.258   0.303  1.00  0.00    -0.354 OA
ATOM     19  H2  UNL     1      -1.124  -3.182   0.181  1.00  0.00     0.214 HD
ENDBRANCH  15  18
ENDBRANCH   8  15
TORSDOF 4
