REMARK  5 active torsions:
REMARK  status: ('A' for Active; 'I' for Inactive)
REMARK    1  A    between atoms: N1_1  and  C1_4 
REMARK    2  A    between atoms: C5_15  and  N5_16 
REMARK    3  A    between atoms: N5_16  and  C6_18 
REMARK    4  A    between atoms: C6_18  and  C7_19 
REMARK    5  A    between atoms: C7_19  and  N6_20 
ROOT
HETATM    1  C1  UNL     1      -3.361   1.445   0.742  1.00  0.00     0.680 A 
HETATM    2  N2  UNL     1      -3.987   0.557  -0.058  1.00  0.00    -0.154 N 
ATOM      3  H2  UNL     1      -4.997   0.619  -0.183  1.00  0.00     0.187 HD
HETATM    4  C2  UNL     1      -3.299  -0.408  -0.693  1.00  0.00     0.292 A 
HETATM    5  O1  UNL     1      -3.949  -1.201  -1.423  1.00  0.00    -0.265 OA
HETATM    6  C3  UNL     1      -1.935  -0.538  -0.561  1.00  0.00     0.172 A 
HETATM    7  C4  UNL     1      -1.297   0.376   0.263  1.00  0.00     0.157 A 
HETATM    8  N3  UNL     1      -2.030   1.315   0.870  1.00  0.00    -0.174 N 
ATOM      9  H3  UNL     1      -1.545   1.979   1.473  1.00  0.00     0.186 HD
HETATM   10  N4  UNL     1       0.038   0.268   0.407  1.00  0.00    -0.323 N 
ATOM     11  H4  UNL     1       0.525   0.933   1.009  1.00  0.00     0.169 HD
HETATM   12  C5  UNL     1       0.751  -0.688  -0.217  1.00  0.00     0.151 A 
HETATM   13  C8  UNL     1       0.065  -1.569  -1.022  1.00  0.00     0.189 A 
HETATM   14  N7  UNL     1       0.533  -2.617  -1.759  1.00  0.00    -0.265 N 
ATOM     15  H7  UNL     1       1.499  -2.934  -1.840  1.00  0.00     0.190 HD
HETATM   16  N8  UNL     1      -0.533  -3.134  -2.346  1.00  0.00    -0.226 N 
ATOM     17  H8  UNL     1      -0.512  -3.939  -2.972  1.00  0.00     0.210 HD
HETATM   18  N9  UNL     1      -1.627  -2.475  -2.019  1.00  0.00    -0.219 N 
ATOM     19  H9  UNL     1      -2.575  -2.676  -2.338  1.00  0.00     0.210 HD
HETATM   20  N10 UNL     1      -1.266  -1.512  -1.205  1.00  0.00    -0.210 N 
ENDROOT
BRANCH  12  21
HETATM   21  N5  UNL     1       2.037  -0.768  -0.059  1.00  0.00    -0.371 N 
ATOM     22  H5  UNL     1       2.568  -1.496  -0.537  1.00  0.00     0.161 HD
BRANCH  21  23
HETATM   23  C6  UNL     1       2.707   0.170   0.789  1.00  0.00     0.148 C 
BRANCH  23  24
HETATM   24  C7  UNL     1       4.212  -0.060   0.604  1.00  0.00     0.249 C 
BRANCH  24  25
HETATM   25  N6  UNL     1       4.462   0.184  -0.826  1.00  0.00    -0.078 N 
ATOM     26  H63 UNL     1       3.879  -0.375  -1.449  1.00  0.00     0.274 HD
ATOM     27  H62 UNL     1       4.140   1.095  -1.152  1.00  0.00     0.274 HD
ATOM     28  H61 UNL     1       5.463   0.031  -0.949  1.00  0.00     0.274 HD
ENDBRANCH  24  25
ENDBRANCH  23  24
ENDBRANCH  21  23
ENDBRANCH  12  21
BRANCH   1  29
HETATM   29  N1  UNL     1      -4.033   2.372   1.351  1.00  0.00    -0.234 N 
ATOM     30  H12 UNL     1      -5.044   2.471   1.254  1.00  0.00     0.174 HD
ATOM     31  H11 UNL     1      -3.560   3.043   1.956  1.00  0.00     0.174 HD
ENDBRANCH   1  29
TORSDOF 5
