REMARK  4 active torsions:
REMARK  status: ('A' for Active; 'I' for Inactive)
REMARK    1  A    between atoms: N3_4  and  C2_6 
REMARK    2  A    between atoms: C2_6  and  N4_7 
REMARK    3  A    between atoms: C2_6  and  C3_11 
REMARK    4  A    between atoms: N6_14  and  O1_15 
ROOT
HETATM    1  C3  UNL     1      -0.233  -0.102  -0.334  1.00  0.00     0.097 A 
HETATM    2  N5  UNL     1      -0.399  -0.790  -1.470  1.00  0.00    -0.272 N 
ATOM      3  H5  UNL     1       0.365  -1.095  -2.073  1.00  0.00     0.189 HD
HETATM    4  N6  UNL     1      -1.677  -1.024  -1.712  1.00  0.00    -0.145 N 
HETATM    5  C4  UNL     1      -2.423  -0.480  -0.707  1.00  0.00     0.173 A 
HETATM    6  N7  UNL     1      -3.737  -0.408  -0.430  1.00  0.00    -0.290 N 
ATOM      7  H7  UNL     1      -4.402  -0.837  -1.073  1.00  0.00     0.172 HD
HETATM    8  C5  UNL     1      -4.204   0.217   0.677  1.00  0.00     0.328 A 
HETATM    9  O2  UNL     1      -5.425   0.284   0.936  1.00  0.00    -0.247 OA
HETATM   10  N8  UNL     1      -3.337   0.784   1.527  1.00  0.00    -0.275 N 
ATOM     11  H8  UNL     1      -3.675   1.258   2.365  1.00  0.00     0.173 HD
HETATM   12  C6  UNL     1      -2.007   0.723   1.266  1.00  0.00     0.265 A 
HETATM   13  O3  UNL     1      -1.241   1.259   2.075  1.00  0.00    -0.267 OA
HETATM   14  C7  UNL     1      -1.512   0.096   0.153  1.00  0.00     0.108 A 
ENDROOT
BRANCH   1  15
HETATM   15  C2  UNL     1       1.055   0.334   0.250  1.00  0.00     0.337 C 
BRANCH  15  16
HETATM   16  N3  UNL     1       2.030  -0.741   0.201  1.00  0.00    -0.335 N 
HETATM   17  C1  UNL     1       3.279  -0.605   0.219  1.00  0.00     0.198 C 
HETATM   18  N1  UNL     1       3.871   0.667   0.292  1.00  0.00    -0.067 NA
HETATM   19  N2  UNL     1       4.098  -1.747   0.164  1.00  0.00    -0.067 NA
ATOM     20  H3  UNL     1       1.668  -1.693   0.147  1.00  0.00     0.164 HD
ENDBRANCH  15  16
BRANCH  15  21
HETATM   21  N4  UNL     1       1.540   1.529  -0.437  1.00  0.00    -0.053 N 
ATOM     22  H43 UNL     1       2.444   1.828  -0.072  1.00  0.00     0.277 HD
ATOM     23  H42 UNL     1       1.818   1.321  -1.396  1.00  0.00     0.277 HD
ATOM     24  H41 UNL     1       0.855   2.284  -0.403  1.00  0.00     0.277 HD
ENDBRANCH  15  21
ENDBRANCH   1  15
BRANCH   4  25
HETATM   25  O1  UNL     1      -2.203  -1.700  -2.785  1.00  0.00    -0.266 OA
ATOM     26  H1  UNL     1      -3.122  -1.868  -2.959  1.00  0.00     0.247 HD
ENDBRANCH   4  25
TORSDOF 4
