REMARK  0 active torsions:
REMARK  status: ('A' for Active; 'I' for Inactive)
ROOT
HETATM    1  N1  UNL     1      -2.621  -0.064   1.627  1.00  0.00    -0.371 N 
ATOM      2  H11 UNL     1      -2.395   0.279   2.561  1.00  0.00     0.159 HD
ATOM      3  H12 UNL     1      -3.503  -0.576   1.598  1.00  0.00     0.159 HD
HETATM    4  C1  UNL     1      -1.894   0.104   0.547  1.00  0.00     0.183 C 
HETATM    5  N2  UNL     1      -2.206  -0.369  -0.742  1.00  0.00    -0.274 N 
ATOM      6  H2  UNL     1      -3.119  -0.665  -1.087  1.00  0.00     0.179 HD
HETATM    7  S1  UNL     1      -0.721  -0.342  -1.611  1.00  0.00     0.178 S 
HETATM    8  O1  UNL     1      -0.696   0.961  -2.703  1.00  0.00    -0.230 OA
HETATM    9  C2  UNL     1       0.317   0.194  -0.235  1.00  0.00     0.293 C 
HETATM   10  N3  UNL     1      -0.669   0.815   0.587  1.00  0.00    -0.315 N 
ATOM     11  H3  UNL     1      -0.513   1.662   1.133  1.00  0.00     0.166 HD
HETATM   12  N4  UNL     1       1.360   1.067  -0.683  1.00  0.00    -0.296 N 
ATOM     13  H4  UNL     1       1.320   2.081  -0.788  1.00  0.00     0.168 HD
HETATM   14  C3  UNL     1       2.480   0.198  -0.953  1.00  0.00     0.326 C 
HETATM   15  O2  UNL     1       3.497   0.454  -1.653  1.00  0.00    -0.247 OA
HETATM   16  N5  UNL     1       2.267  -1.046  -0.289  1.00  0.00    -0.275 N 
ATOM     17  H5  UNL     1       2.886  -1.857  -0.295  1.00  0.00     0.173 HD
HETATM   18  C4  UNL     1       1.018  -0.930   0.383  1.00  0.00     0.290 C 
HETATM   19  O3  UNL     1       0.639  -1.692   1.336  1.00  0.00    -0.267 OA
ENDROOT
TORSDOF 0
