REMARK  3 active torsions:
REMARK  status: ('A' for Active; 'I' for Inactive)
REMARK    1  A    between atoms: N1_1  and  C1_4 
REMARK    2  A    between atoms: C3_11  and  N4_12 
REMARK    3  A    between atoms: N4_12  and  C4_14 
ROOT
HETATM    1  C1  UNL     1      -2.234  -0.446   0.277  1.00  0.00     0.694 A 
HETATM    2  N2  UNL     1      -2.910   0.694   0.492  1.00  0.00    -0.141 N 
ATOM      3  H2  UNL     1      -3.910   0.688   0.690  1.00  0.00     0.189 HD
HETATM    4  C2  UNL     1      -2.213   1.847   0.435  1.00  0.00     0.352 A 
HETATM    5  O1  UNL     1      -2.846   2.927   0.638  1.00  0.00    -0.246 OA
HETATM    6  N3  UNL     1      -0.904   1.871   0.176  1.00  0.00    -0.140 N 
ATOM      7  H3  UNL     1      -0.407   2.761   0.140  1.00  0.00     0.189 HD
HETATM    8  C3  UNL     1      -0.237   0.713  -0.039  1.00  0.00     0.697 A 
HETATM    9  N6  UNL     1      -0.915  -0.444   0.014  1.00  0.00    -0.022 N 
ATOM     10  H6  UNL     1      -0.428  -1.326  -0.146  1.00  0.00     0.203 HD
ENDROOT
BRANCH   8  11
HETATM   11  N4  UNL     1       1.018   0.691  -0.291  1.00  0.00    -0.203 N 
ATOM     12  H4  UNL     1       1.538   1.568  -0.333  1.00  0.00     0.179 HD
BRANCH  11  13
HETATM   13  C4  UNL     1       1.701  -0.545  -0.515  1.00  0.00     0.284 C 
HETATM   14  C5  UNL     1       3.163  -0.402  -0.752  1.00  0.00     0.257 C 
HETATM   15  O2  UNL     1       3.912  -0.355  -1.739  1.00  0.00    -0.270 OA
HETATM   16  N5  UNL     1       3.343  -0.340   0.647  1.00  0.00    -0.293 N 
HETATM   17  C6  UNL     1       2.167  -1.118   0.763  1.00  0.00     0.257 C 
ATOM     18  H5  UNL     1       4.018   0.078   1.287  1.00  0.00     0.171 HD
HETATM   19  O3  UNL     1       1.749  -1.926   1.604  1.00  0.00    -0.270 OA
ENDBRANCH  11  13
ENDBRANCH   8  11
BRANCH   1  20
HETATM   20  N1  UNL     1      -2.895  -1.562   0.329  1.00  0.00    -0.234 N 
ATOM     21  H12 UNL     1      -3.895  -1.564   0.528  1.00  0.00     0.174 HD
ATOM     22  H11 UNL     1      -2.381  -2.428   0.166  1.00  0.00     0.174 HD
ENDBRANCH   1  20
TORSDOF 3
