REMARK  10 active torsions:
REMARK  status: ('A' for Active; 'I' for Inactive)
REMARK    1  A    between atoms: C2_2  and  C3_3 
REMARK    2  A    between atoms: C3_3  and  S1_4 
REMARK    3  A    between atoms: S1_4  and  C4_5 
REMARK    4  A    between atoms: C4_5  and  C5_6 
REMARK    5  A    between atoms: C6_10  and  C7_11 
REMARK    6  A    between atoms: C7_11  and  O1_12 
REMARK    7  A    between atoms: C8_15  and  O3_16 
REMARK    8  A    between atoms: O3_16  and  C9_17 
REMARK    9  A    between atoms: C11_20  and  C13_22 
REMARK   10  A    between atoms: C13_22  and  O5_23 
ROOT
HETATM    1  C5  UNL     1       1.251   0.508   1.111  1.00  0.00     0.161 C 
HETATM    2  N1  UNL     1       1.231   1.477   2.218  1.00  0.00    -0.119 NA
HETATM    3  N2  UNL     1       1.190   2.782   1.677  1.00  0.00    -0.037 NA
HETATM    4  N3  UNL     1      -0.034   3.052   1.060  1.00  0.00    -0.096 NA
HETATM    5  C6  UNL     1      -0.022   2.745  -0.359  1.00  0.00     0.258 C 
HETATM    6  O2  UNL     1      -0.013   1.403  -0.636  1.00  0.00    -0.335 OA
HETATM    7  C8  UNL     1      -0.115   0.579   0.486  1.00  0.00     0.284 C 
ENDROOT
BRANCH   7   8
HETATM    8  O3  UNL     1      -0.669  -0.631   0.153  1.00  0.00    -0.349 OA
BRANCH   8   9
HETATM    9  C9  UNL     1      -1.928  -0.834   0.708  1.00  0.00     0.184 C 
HETATM   10  C10 UNL     1      -2.161  -2.251   1.188  1.00  0.00     0.204 C 
HETATM   11  O4  UNL     1      -2.281  -2.603  -0.177  1.00  0.00    -0.373 OA
HETATM   12  C11 UNL     1      -2.909  -1.366  -0.336  1.00  0.00     0.106 C 
HETATM   13  C12 UNL     1      -4.327  -1.465   0.167  1.00  0.00     0.051 C 
BRANCH  12  14
HETATM   14  C13 UNL     1      -2.814  -0.747  -1.688  1.00  0.00     0.204 C 
BRANCH  14  15
HETATM   15  O5  UNL     1      -3.408  -1.627  -2.611  1.00  0.00    -0.398 OA
ATOM     16  H5  UNL     1      -3.347  -1.232  -3.473  1.00  0.00     0.209 HD
ENDBRANCH  14  15
ENDBRANCH  12  14
ENDBRANCH   8   9
ENDBRANCH   7   8
BRANCH   1  17
HETATM   17  C4  UNL     1       1.620  -0.850   1.610  1.00  0.00     0.101 C 
BRANCH  17  18
HETATM   18  S1  UNL     1       1.659  -2.053   0.271  1.00  0.00    -0.167 SA
BRANCH  18  19
HETATM   19  C3  UNL     1       3.008  -1.666  -0.884  1.00  0.00     0.073 C 
BRANCH  19  20
HETATM   20  C2  UNL     1       4.350  -1.866  -0.169  1.00  0.00     0.006 C 
HETATM   21  C1  UNL     1       5.447  -1.542  -1.136  1.00  0.00     0.006 C 
ENDBRANCH  19  20
ENDBRANCH  18  19
ENDBRANCH  17  18
ENDBRANCH   1  17
BRANCH   5  22
HETATM   22  C7  UNL     1      -1.221   3.454  -0.978  1.00  0.00     0.214 C 
BRANCH  22  23
HETATM   23  O1  UNL     1      -1.260   3.197  -2.337  1.00  0.00    -0.397 OA
ATOM     24  H1  UNL     1      -2.007   3.639  -2.723  1.00  0.00     0.209 HD
ENDBRANCH  22  23
ENDBRANCH   5  22
TORSDOF 10
