REMARK  3 active torsions:
REMARK  status: ('A' for Active; 'I' for Inactive)
REMARK    1  A    between atoms: C4_4  and  N1_5 
REMARK    2  A    between atoms: C12_14  and  N3_15 
REMARK    3  A    between atoms: N3_15  and  C13_17 
ROOT
HETATM    1  N1  UNL     1      -2.539  -0.368  -0.603  1.00  0.00    -0.306 N 
HETATM    2  C5  UNL     1      -2.632  -1.542  -1.346  1.00  0.00     0.112 A 
HETATM    3  C6  UNL     1      -1.547  -2.273  -1.655  1.00  0.00     0.008 A 
HETATM    4  C7  UNL     1      -1.679  -3.443  -2.400  1.00  0.00     0.015 A 
HETATM    5  C8  UNL     1      -0.580  -4.194  -2.720  1.00  0.00     0.001 A 
HETATM    6  C9  UNL     1       0.661  -3.786  -2.301  1.00  0.00     0.002 A 
HETATM    7  C10 UNL     1       0.813  -2.607  -1.547  1.00  0.00     0.031 A 
HETATM    8  C11 UNL     1      -0.293  -1.875  -1.240  1.00  0.00     0.070 A 
HETATM    9  N2  UNL     1      -0.193  -0.731  -0.515  1.00  0.00    -0.130 N 
HETATM   10  C12 UNL     1       0.994  -0.336  -0.110  1.00  0.00     0.692 A 
HETATM   11  N5  UNL     1       1.098   0.814   0.619  1.00  0.00    -0.190 N 
ATOM     12  H5  UNL     1       2.020   1.118   0.931  1.00  0.00     0.184 HD
HETATM   13  C21 UNL     1       0.049   1.541   0.931  1.00  0.00     0.063 A 
HETATM   14  C22 UNL     1       0.221   2.708   1.679  1.00  0.00     0.031 A 
HETATM   15  C23 UNL     1      -0.851   3.484   2.018  1.00  0.00     0.002 A 
HETATM   16  C24 UNL     1      -2.101   3.104   1.614  1.00  0.00     0.001 A 
HETATM   17  C25 UNL     1      -2.291   1.941   0.865  1.00  0.00     0.017 A 
HETATM   18  C26 UNL     1      -1.212   1.173   0.533  1.00  0.00     0.037 A 
HETATM   19  C27 UNL     1      -1.365   0.004  -0.214  1.00  0.00     0.148 A 
ENDROOT
BRANCH  10  20
HETATM   20  N3  UNL     1       2.109  -0.915  -0.321  1.00  0.00    -0.191 N 
ATOM     21  H3  UNL     1       2.110  -1.781  -0.860  1.00  0.00     0.184 HD
BRANCH  20  22
HETATM   22  C13 UNL     1       3.356  -0.415   0.158  1.00  0.00     0.050 A 
HETATM   23  C14 UNL     1       4.340  -0.155  -0.762  1.00  0.00     0.031 A 
HETATM   24  C15 UNL     1       5.592   0.338  -0.365  1.00  0.00     0.016 A 
HETATM   25  C16 UNL     1       5.851   0.568   0.962  1.00  0.00    -0.009 A 
HETATM   26  C17 UNL     1       6.957   1.038   1.645  1.00  0.00     0.100 A 
HETATM   27  C19 UNL     1       4.872   0.310   1.887  1.00  0.00    -0.007 A 
HETATM   28  N4  UNL     1       6.648   1.058   2.931  1.00  0.00    -0.374 N 
HETATM   29  C18 UNL     1       5.393   0.625   3.120  1.00  0.00     0.100 A 
ATOM     30  H4  UNL     1       7.277   1.361   3.675  1.00  0.00     0.164 HD
HETATM   31  C20 UNL     1       3.621  -0.183   1.481  1.00  0.00     0.043 A 
ENDBRANCH  20  22
ENDBRANCH  10  20
BRANCH   1  32
HETATM   32  C4  UNL     1      -3.815   0.151  -0.448  1.00  0.00     0.040 A 
HETATM   33  C3  UNL     1      -4.597  -0.333   0.596  1.00  0.00     0.030 A 
HETATM   34  C2  UNL     1      -5.926  -0.028   0.736  1.00  0.00     0.002 A 
HETATM   35  C1  UNL     1      -6.549   0.783  -0.166  1.00  0.00     0.000 A 
HETATM   36  C29 UNL     1      -5.772   1.265  -1.205  1.00  0.00     0.002 A 
HETATM   37  C28 UNL     1      -4.446   0.972  -1.362  1.00  0.00     0.030 A 
ENDBRANCH   1  32
TORSDOF 3
