REMARK  7 active torsions:
REMARK  status: ('A' for Active; 'I' for Inactive)
REMARK    1  A    between atoms: C2_2  and  C4_4 
REMARK    2  A    between atoms: C2_2  and  S1_25 
REMARK    3  A    between atoms: C4_4  and  N1_5 
REMARK    4  A    between atoms: N1_5  and  C5_7 
REMARK    5  A    between atoms: C6_10  and  C7_11 
REMARK    6  A    between atoms: C7_11  and  N3_12 
REMARK    7  A    between atoms: N3_12  and  C8_14 
ROOT
HETATM    1  C5  UNL     1       1.473  -0.768   0.047  1.00  0.00     0.271 C 
HETATM    2  N2  UNL     1       0.133  -0.481   0.439  1.00  0.00    -0.387 N 
ATOM      3  H2  UNL     1      -0.074   0.148   1.214  1.00  0.00     0.156 HD
HETATM    4  C6  UNL     1      -0.896  -1.111  -0.299  1.00  0.00     0.114 C 
HETATM    5  C14 UNL     1      -0.812  -1.024  -1.789  1.00  0.00     0.149 C 
HETATM    6  N4  UNL     1       0.554  -1.275  -2.204  1.00  0.00    -0.356 N 
ATOM      7  H4  UNL     1       0.835  -1.202  -3.182  1.00  0.00     0.162 HD
HETATM    8  C15 UNL     1       1.505  -1.634  -1.168  1.00  0.00     0.260 C 
HETATM    9  O1  UNL     1       2.261  -2.615  -1.347  1.00  0.00    -0.269 OA
ENDROOT
BRANCH   1  10
HETATM   10  N1  UNL     1       2.173   0.427  -0.189  1.00  0.00    -0.373 N 
ATOM     11  H1  UNL     1       1.740   1.098  -0.823  1.00  0.00     0.161 HD
BRANCH  10  12
HETATM   12  C4  UNL     1       3.389   0.777   0.356  1.00  0.00     0.082 C 
BRANCH  12  13
HETATM   13  C2  UNL     1       4.653   0.051   0.063  1.00  0.00     0.087 C 
HETATM   14  C1  UNL     1       4.985  -0.005  -1.404  1.00  0.00     0.037 C 
HETATM   15  C3  UNL     1       4.783  -1.241   0.775  1.00  0.00     0.037 C 
BRANCH  13  16
HETATM   16  S1  UNL     1       6.032   1.096   0.730  1.00  0.00     0.153 S 
HETATM   17  C16 UNL     1       5.933   2.642  -0.103  1.00  0.00     0.162 C 
HETATM   18  O2  UNL     1       7.278   0.360   0.355  1.00  0.00    -0.227 OA
HETATM   19  O3  UNL     1       5.934   1.175   2.200  1.00  0.00    -0.227 OA
ENDBRANCH  13  16
ENDBRANCH  12  13
ENDBRANCH  10  12
ENDBRANCH   1  10
BRANCH   4  20
HETATM   20  C7  UNL     1      -2.239  -0.470   0.099  1.00  0.00     0.140 C 
BRANCH  20  21
HETATM   21  N3  UNL     1      -3.253  -1.113  -0.654  1.00  0.00    -0.415 N 
ATOM     22  H3  UNL     1      -3.039  -1.857  -1.318  1.00  0.00     0.153 HD
BRANCH  21  23
HETATM   23  C8  UNL     1      -4.591  -0.663  -0.434  1.00  0.00     0.076 C 
HETATM   24  C9  UNL     1      -4.959  -0.915   1.005  1.00  0.00     0.024 C 
HETATM   25  C10 UNL     1      -4.986   0.404   1.736  1.00  0.00     0.002 C 
HETATM   26  C11 UNL     1      -6.222   1.168   1.275  1.00  0.00     0.000 C 
HETATM   27  C12 UNL     1      -6.125   1.311  -0.210  1.00  0.00     0.002 C 
HETATM   28  C13 UNL     1      -4.824   0.770  -0.764  1.00  0.00     0.024 C 
ENDBRANCH  21  23
ENDBRANCH  20  21
ENDBRANCH   4  20
TORSDOF 7
