REMARK  11 active torsions:
REMARK  status: ('A' for Active; 'I' for Inactive)
REMARK       I    between atoms: C1_2  and  N1_4 
REMARK    1  A    between atoms: N1_4  and  N2_6 
REMARK    2  A    between atoms: N2_6  and  C2_7 
REMARK    3  A    between atoms: C2_7  and  O3_8 
REMARK    4  A    between atoms: C2_7  and  C3_10 
REMARK    5  A    between atoms: C3_10  and  C4_11 
REMARK    6  A    between atoms: C4_11  and  N3_12 
REMARK    7  A    between atoms: N3_12  and  C5_14 
REMARK    8  A    between atoms: C5_14  and  O4_15 
REMARK    9  A    between atoms: C5_14  and  C6_17 
REMARK   10  A    between atoms: C7_18  and  C8_19 
REMARK   11  A    between atoms: C12_23  and  N4_24 
ROOT
HETATM    1  C5  UNL     1      -0.708  -1.069   0.547  1.00  0.00     0.135 C 
ENDROOT
BRANCH   1   2
HETATM    2  N3  UNL     1       0.666  -1.224   0.802  1.00  0.00    -0.371 N 
ATOM      3  H3  UNL     1       0.976  -1.403   1.757  1.00  0.00     0.161 HD
BRANCH   2   4
HETATM    4  C4  UNL     1       1.614  -1.140  -0.210  1.00  0.00     0.131 C 
BRANCH   4   5
HETATM    5  C3  UNL     1       3.007  -1.110   0.509  1.00  0.00     0.122 C 
BRANCH   5   6
HETATM    6  C2  UNL     1       4.059  -1.076  -0.465  1.00  0.00     0.216 C 
BRANCH   6   7
HETATM    7  N2  UNL     1       5.179  -0.336  -0.255  1.00  0.00    -0.300 NA
BRANCH   7   8
HETATM    8  N1  UNL     1       6.265   0.377  -0.059  1.00  0.00    -0.174 N 
HETATM    9  C1  UNL     1       6.239   1.805  -0.135  1.00  0.00     0.314 C 
HETATM   10  O1  UNL     1       5.214   2.461  -0.341  1.00  0.00    -0.628 OA
HETATM   11  O2  UNL     1       7.441   2.516   0.042  1.00  0.00    -0.628 OA
ATOM     12  H1  UNL     1       7.143  -0.097   0.151  1.00  0.00     0.208 HD
ENDBRANCH   7   8
ENDBRANCH   6   7
BRANCH   6  13
HETATM   13  O3  UNL     1       3.905  -1.756  -1.588  1.00  0.00    -0.337 OA
ATOM     14  H3  UNL     1       3.122  -2.273  -1.735  1.00  0.00     0.220 HD
ENDBRANCH   6  13
ENDBRANCH   5   6
ENDBRANCH   4   5
ENDBRANCH   2   4
ENDBRANCH   1   2
BRANCH   1  15
HETATM   15  O4  UNL     1      -1.016  -0.803  -0.699  1.00  0.00    -0.346 OA
ATOM     16  H4  UNL     1      -1.944  -0.698  -0.871  1.00  0.00     0.219 HD
ENDBRANCH   1  15
BRANCH   1  17
HETATM   17  C6  UNL     1      -1.711  -1.190   1.591  1.00  0.00     0.056 C 
HETATM   18  C7  UNL     1      -2.933  -0.993   1.598  1.00  0.00     0.015 C 
BRANCH  18  19
HETATM   19  C8  UNL     1      -3.817  -0.534   0.482  1.00  0.00    -0.034 A 
HETATM   20  C9  UNL     1      -3.877  -0.951  -0.778  1.00  0.00     0.011 A 
HETATM   21  C10 UNL     1      -4.562  -0.246  -1.756  1.00  0.00     0.003 A 
HETATM   22  C11 UNL     1      -5.241   0.936  -1.468  1.00  0.00     0.036 A 
HETATM   23  C12 UNL     1      -5.182   1.336  -0.182  1.00  0.00     0.103 A 
HETATM   24  C13 UNL     1      -4.508   0.656   0.804  1.00  0.00     0.047 A 
BRANCH  23  25
HETATM   25  N4  UNL     1      -5.825   2.543   0.241  1.00  0.00    -0.116 N 
HETATM   26  O5  UNL     1      -5.985   2.818   1.403  1.00  0.00    -0.532 OA
HETATM   27  O6  UNL     1      -6.333   3.385  -0.743  1.00  0.00    -0.532 OA
ENDBRANCH  23  25
ENDBRANCH  18  19
ENDBRANCH   1  17
TORSDOF 11
