REMARK  15 active torsions:
REMARK  status: ('A' for Active; 'I' for Inactive)
REMARK    1  A    between atoms: C1_2  and  C2_3 
REMARK       I    between atoms: C1_2  and  N1_10 
REMARK    2  A    between atoms: C2_3  and  C3_4 
REMARK    3  A    between atoms: N1_10  and  C9_12 
REMARK    4  A    between atoms: C9_12  and  C10_13 
REMARK    5  A    between atoms: C9_12  and  C17_20 
REMARK    6  A    between atoms: C10_13  and  C11_14 
REMARK    7  A    between atoms: C17_20  and  C18_22 
REMARK    8  A    between atoms: C18_22  and  C19_23 
REMARK    9  A    between atoms: C19_23  and  O3_24 
REMARK   10  A    between atoms: C19_23  and  C20_26 
REMARK   11  A    between atoms: C20_26  and  C21_28 
REMARK   12  A    between atoms: C21_28  and  N2_29 
REMARK   13  A    between atoms: C26_35  and  C27_36 
REMARK   14  A    between atoms: C27_36  and  O5_37 
REMARK   15  A    between atoms: N3_39  and  O6_41 
ROOT
HETATM    1  C17 UNL     1       0.349  -0.321   1.025  1.00  0.00     0.152 C 
HETATM    2  O2  UNL     1       0.380   0.714   1.647  1.00  0.00    -0.296 OA
ENDROOT
BRANCH   1   3
HETATM    3  C9  UNL     1      -0.968  -0.899   0.585  1.00  0.00     0.154 C 
BRANCH   3   4
HETATM    4  N1  UNL     1      -2.012   0.006   1.058  1.00  0.00    -0.350 N 
HETATM    5  C1  UNL     1      -2.826   0.737   0.150  1.00  0.00     0.218 C 
HETATM    6  O1  UNL     1      -2.607   0.569  -1.081  1.00  0.00    -0.274 OA
ATOM      7  H1  UNL     1      -2.160   0.116   2.061  1.00  0.00     0.163 HD
BRANCH   5   8
HETATM    8  C2  UNL     1      -3.864   1.636   0.670  1.00  0.00     0.107 C 
BRANCH   8   9
HETATM    9  C3  UNL     1      -4.612   2.413  -0.360  1.00  0.00    -0.006 C 
HETATM   10  C4  UNL     1      -3.783   3.327  -1.205  1.00  0.00     0.005 C 
HETATM   11  C5  UNL     1      -4.681   3.791  -2.360  1.00  0.00     0.000 C 
HETATM   12  C6  UNL     1      -5.860   4.563  -1.860  1.00  0.00     0.000 C 
HETATM   13  C7  UNL     1      -6.597   3.877  -0.747  1.00  0.00     0.000 C 
HETATM   14  C8  UNL     1      -5.720   3.224   0.260  1.00  0.00     0.005 C 
ENDBRANCH   8   9
ENDBRANCH   5   8
ENDBRANCH   3   4
BRANCH   3  15
HETATM   15  C10 UNL     1      -1.073  -2.253   1.206  1.00  0.00     0.037 C 
BRANCH  15  16
HETATM   16  C11 UNL     1      -2.376  -2.963   0.936  1.00  0.00    -0.012 C 
HETATM   17  C12 UNL     1      -2.308  -4.310   1.631  1.00  0.00     0.005 C 
HETATM   18  C13 UNL     1      -3.102  -5.315   0.865  1.00  0.00     0.000 C 
HETATM   19  C14 UNL     1      -2.609  -5.617  -0.508  1.00  0.00     0.000 C 
HETATM   20  C15 UNL     1      -1.914  -4.398  -1.067  1.00  0.00     0.000 C 
HETATM   21  C16 UNL     1      -2.640  -3.191  -0.514  1.00  0.00     0.005 C 
ENDBRANCH  15  16
ENDBRANCH   3  15
ENDBRANCH   1   3
BRANCH   1  22
HETATM   22  C18 UNL     1       1.632  -0.982   0.722  1.00  0.00     0.120 C 
BRANCH  22  23
HETATM   23  C19 UNL     1       2.393  -0.283  -0.412  1.00  0.00     0.196 C 
BRANCH  23  24
HETATM   24  O3  UNL     1       1.513  -0.357  -1.514  1.00  0.00    -0.388 OA
ATOM     25  H3  UNL     1       1.984   0.076  -2.216  1.00  0.00     0.210 HD
ENDBRANCH  23  24
BRANCH  23  26
HETATM   26  C20 UNL     1       3.593  -1.111  -0.649  1.00  0.00     0.183 C 
HETATM   27  O4  UNL     1       3.651  -1.779  -1.659  1.00  0.00    -0.293 OA
BRANCH  26  28
HETATM   28  C21 UNL     1       4.698  -1.135   0.321  1.00  0.00     0.354 C 
BRANCH  28  29
HETATM   29  N2  UNL     1       4.774   0.156   0.984  1.00  0.00     0.112 N 
HETATM   30  C22 UNL     1       5.696   0.079   2.129  1.00  0.00     0.320 C 
HETATM   31  C23 UNL     1       6.975  -0.485   1.645  1.00  0.00     0.015 C 
HETATM   32  S1  UNL     1       7.499  -1.654   2.248  1.00  0.00    -0.088 SA
HETATM   33  C24 UNL     1       7.642   0.241   0.526  1.00  0.00     0.050 C 
HETATM   34  C25 UNL     1       6.678   0.730  -0.497  1.00  0.00     0.050 C 
HETATM   35  C26 UNL     1       5.327   1.131   0.028  1.00  0.00     0.299 C 
BRANCH  35  36
HETATM   36  C27 UNL     1       5.331   2.501   0.597  1.00  0.00     0.169 C 
HETATM   37  N3  UNL     1       6.404   3.183   0.772  1.00  0.00    -0.249 N 
ATOM     38  H3  UNL     1       7.307   2.784   0.515  1.00  0.00     0.196 HD
BRANCH  36  39
HETATM   39  O5  UNL     1       4.120   3.067   0.954  1.00  0.00    -0.346 OA
ATOM     40  H5  UNL     1       4.123   3.944   1.318  1.00  0.00     0.219 HD
ENDBRANCH  36  39
BRANCH  37  41
HETATM   41  O6  UNL     1       6.344   4.428   1.295  1.00  0.00    -0.288 OA
ATOM     42  H6  UNL     1       7.138   4.933   1.425  1.00  0.00     0.244 HD
ENDBRANCH  37  41
ENDBRANCH  35  36
ENDBRANCH  28  29
ENDBRANCH  26  28
ENDBRANCH  23  26
ENDBRANCH  22  23
ENDBRANCH   1  22
TORSDOF 15
