REMARK  10 active torsions:
REMARK  status: ('A' for Active; 'I' for Inactive)
REMARK    1  A    between atoms: C2_2  and  C3_3 
REMARK    2  A    between atoms: N1_4  and  C4_5 
REMARK    3  A    between atoms: N1_4  and  C6_7 
REMARK    4  A    between atoms: C9_11  and  C10_12 
REMARK    5  A    between atoms: C10_12  and  C12_14 
REMARK    6  A    between atoms: C15_18  and  O3_19 
REMARK    7  A    between atoms: C16_21  and  O4_22 
REMARK    8  A    between atoms: C17_24  and  O5_25 
REMARK    9  A    between atoms: C21_30  and  O6_31 
REMARK   10  A    between atoms: C25_36  and  C26_37 
ROOT
HETATM    1  C6  UNL     1      -0.933   1.265  -0.259  1.00  0.00     0.029 C 
HETATM    2  C7  UNL     1       0.395   0.520  -0.228  1.00  0.00     0.018 C 
HETATM    3  C8  UNL     1       1.390   0.925  -1.240  1.00  0.00     0.149 C 
HETATM    4  O1  UNL     1       2.698   1.016  -0.984  1.00  0.00    -0.356 OA
HETATM    5  C9  UNL     1       3.455   0.009  -0.577  1.00  0.00     0.146 C 
HETATM    6  C14 UNL     1       3.254  -0.181   0.889  1.00  0.00     0.062 C 
HETATM    7  C15 UNL     1       4.521  -0.134   1.709  1.00  0.00     0.157 C 
HETATM    8  C16 UNL     1       3.871  -0.280   3.093  1.00  0.00     0.177 C 
HETATM    9  C17 UNL     1       2.669   0.607   2.976  1.00  0.00     0.162 C 
HETATM   10  C18 UNL     1       2.245   0.692   1.535  1.00  0.00     0.024 C 
HETATM   11  C19 UNL     1       2.390   2.189   1.227  1.00  0.00     0.024 C 
HETATM   12  C20 UNL     1       0.863   0.309   1.195  1.00  0.00    -0.004 C 
HETATM   13  C21 UNL     1       0.279  -0.944   1.708  1.00  0.00     0.051 C 
HETATM   14  C22 UNL     1      -1.039  -0.767   2.390  1.00  0.00     0.071 C 
HETATM   15  C23 UNL     1      -2.258  -0.759   1.615  1.00  0.00     0.010 C 
HETATM   16  C24 UNL     1      -2.204  -0.970   0.137  1.00  0.00     0.030 C 
HETATM   17  C25 UNL     1      -3.589  -1.497  -0.238  1.00  0.00    -0.075 C 
HETATM   18  C29 UNL     1      -4.619  -0.825   0.253  1.00  0.00    -0.022 C 
HETATM   19  C30 UNL     1      -4.389   0.353   1.105  1.00  0.00     0.037 C 
HETATM   20  C31 UNL     1      -2.861   0.570   1.270  1.00  0.00    -0.026 C 
HETATM   21  C32 UNL     1      -2.706   1.752   2.085  1.00  0.00     0.016 C 
HETATM   22  C33 UNL     1      -2.154   0.459  -0.056  1.00  0.00     0.054 C 
ENDROOT
BRANCH   1  23
HETATM   23  N1  UNL     1      -1.133   2.201  -1.283  1.00  0.00    -0.359 N 
HETATM   24  C3  UNL     1      -1.284   1.997  -2.625  1.00  0.00     0.090 C 
BRANCH  24  25
HETATM   25  C2  UNL     1      -1.525   0.669  -3.188  1.00  0.00     0.007 C 
HETATM   26  C1  UNL     1      -2.631   0.453  -3.890  1.00  0.00     0.012 C 
ENDBRANCH  24  25
BRANCH  23  27
HETATM   27  C4  UNL     1      -0.967   3.582  -0.910  1.00  0.00     0.124 C 
HETATM   28  C5  UNL     1      -2.229   4.391  -1.121  1.00  0.00     0.027 C 
ENDBRANCH  23  27
ENDBRANCH   1  23
BRANCH  13  29
HETATM   29  O6  UNL     1       1.081  -1.841   2.400  1.00  0.00    -0.364 OA
ATOM     30  H6  UNL     1       0.705  -2.648   2.731  1.00  0.00     0.217 HD
ENDBRANCH  13  29
BRANCH  17  31
HETATM   31  C26 UNL     1      -3.809  -2.682  -1.085  1.00  0.00     0.006 C 
HETATM   32  C27 UNL     1      -5.303  -2.984  -1.145  1.00  0.00     0.014 C 
HETATM   33  C28 UNL     1      -3.139  -3.851  -0.375  1.00  0.00     0.014 C 
ENDBRANCH  17  31
BRANCH   5  34
HETATM   34  C10 UNL     1       3.300  -1.248  -1.387  1.00  0.00     0.081 C 
HETATM   35  C11 UNL     1       4.207  -2.362  -0.846  1.00  0.00     0.020 C 
BRANCH  34  36
HETATM   36  C12 UNL     1       3.783  -0.981  -2.762  1.00  0.00     0.129 C 
HETATM   37  C13 UNL     1       3.764  -2.058  -3.814  1.00  0.00     0.091 C 
HETATM   38  O2  UNL     1       4.222   0.111  -3.130  1.00  0.00    -0.298 OA
ENDBRANCH  34  36
ENDBRANCH   5  34
BRANCH   9  39
HETATM   39  O5  UNL     1       1.699   0.452   3.920  1.00  0.00    -0.392 OA
ATOM     40  H5  UNL     1       0.937   1.014   3.846  1.00  0.00     0.210 HD
ENDBRANCH   9  39
BRANCH   7  41
HETATM   41  O3  UNL     1       5.251   1.012   1.570  1.00  0.00    -0.392 OA
ATOM     42  H3  UNL     1       6.048   1.042   2.086  1.00  0.00     0.210 HD
ENDBRANCH   7  41
BRANCH   8  43
HETATM   43  O4  UNL     1       4.855   0.218   3.983  1.00  0.00    -0.390 OA
ATOM     44  H4  UNL     1       4.453   0.128   4.839  1.00  0.00     0.210 HD
ENDBRANCH   8  43
TORSDOF 10
