REMARK  5 active torsions:
REMARK  status: ('A' for Active; 'I' for Inactive)
REMARK    1  A    between atoms: N1_2  and  C4_5 
REMARK    2  A    between atoms: C4_5  and  C5_6 
REMARK    3  A    between atoms: C7_8  and  N2_9 
REMARK    4  A    between atoms: C11_13  and  O1_14 
REMARK    5  A    between atoms: C12_16  and  O2_17 
ROOT
HETATM    1  C5  UNL     1      -0.745  -0.481   1.086  1.00  0.00     0.045 C 
HETATM    2  C6  UNL     1       0.199  -0.833  -0.031  1.00  0.00     0.045 C 
HETATM    3  C7  UNL     1       1.185   0.331  -0.130  1.00  0.00     0.220 C 
HETATM    4  C11 UNL     1       1.078   1.024   1.155  1.00  0.00     0.178 C 
HETATM    5  C12 UNL     1       0.191   0.200   2.068  1.00  0.00     0.154 C 
ENDROOT
BRANCH   1   6
HETATM    6  C4  UNL     1      -1.809   0.498   0.744  1.00  0.00     0.243 C 
BRANCH   6   7
HETATM    7  N1  UNL     1      -2.724   0.159  -0.286  1.00  0.00    -0.078 N 
HETATM    8  C1  UNL     1      -2.332   0.800  -1.538  1.00  0.00     0.271 C 
HETATM    9  C2  UNL     1      -4.017   0.784   0.082  1.00  0.00     0.271 C 
HETATM   10  C3  UNL     1      -3.011  -1.233  -0.464  1.00  0.00     0.271 C 
ENDBRANCH   6   7
ENDBRANCH   1   6
BRANCH   5  11
HETATM   11  O2  UNL     1       0.905  -0.797   2.721  1.00  0.00    -0.393 OA
ATOM     12  H2  UNL     1       1.491  -0.371   3.336  1.00  0.00     0.210 HD
ENDBRANCH   5  11
BRANCH   3  13
HETATM   13  N2  UNL     1       2.452  -0.089  -0.598  1.00  0.00    -0.072 N 
HETATM   14  C8  UNL     1       3.262   1.033  -1.045  1.00  0.00     0.272 C 
HETATM   15  C9  UNL     1       3.254  -0.897   0.242  1.00  0.00     0.272 C 
HETATM   16  C10 UNL     1       2.222  -0.890  -1.814  1.00  0.00     0.272 C 
ENDBRANCH   3  13
BRANCH   4  17
HETATM   17  O1  UNL     1       2.236   1.266   1.851  1.00  0.00    -0.391 OA
ATOM     18  H1  UNL     1       2.167   1.716   2.685  1.00  0.00     0.210 HD
ENDBRANCH   4  17
TORSDOF 5
