REMARK  7 active torsions:
REMARK  status: ('A' for Active; 'I' for Inactive)
REMARK    1  A    between atoms: C4_7  and  N3_8 
REMARK    2  A    between atoms: N3_8  and  C5_10 
REMARK    3  A    between atoms: C5_10  and  C6_11 
REMARK    4  A    between atoms: C5_10  and  C12_21 
REMARK    5  A    between atoms: C6_11  and  N4_12 
REMARK    6  A    between atoms: C13_24  and  N8_25 
REMARK    7  A    between atoms: C15_32  and  N10_33 
ROOT
HETATM    1  C5  UNL     1       0.224   0.870   0.245  1.00  0.00     0.059 C 
ENDROOT
BRANCH   1   2
HETATM    2  N3  UNL     1       0.735   0.059  -0.773  1.00  0.00    -0.341 N 
ATOM      3  H3  UNL     1       0.084  -0.011  -1.556  1.00  0.00     0.167 HD
BRANCH   2   4
HETATM    4  C4  UNL     1       1.765  -0.598  -0.981  1.00  0.00     0.137 A 
HETATM    5  C3  UNL     1       2.826  -0.707  -0.134  1.00  0.00     0.122 A 
HETATM    6  N2  UNL     1       3.175  -0.222   1.066  1.00  0.00    -0.346 N 
HETATM    7  C17 UNL     1       3.925  -1.508  -0.486  1.00  0.00     0.140 A 
HETATM    8  C2  UNL     1       4.368  -0.666   1.439  1.00  0.00     0.184 A 
ATOM      9  H2  UNL     1       2.597   0.408   1.622  1.00  0.00     0.167 HD
HETATM   10  N1  UNL     1       4.856  -1.473   0.480  1.00  0.00    -0.332 N 
HETATM   11  C1  UNL     1       6.138  -2.155   0.517  1.00  0.00     0.158 C 
HETATM   12  N12 UNL     1       3.953  -2.182  -1.665  1.00  0.00    -0.336 N 
HETATM   13  C16 UNL     1       2.903  -2.054  -2.469  1.00  0.00     0.183 A 
ATOM     14  H12 UNL     1       4.750  -2.764  -1.923  1.00  0.00     0.168 HD
HETATM   15  N11 UNL     1       1.848  -1.297  -2.152  1.00  0.00    -0.337 N 
ATOM     16  H11 UNL     1       1.072  -1.239  -2.812  1.00  0.00     0.168 HD
ENDBRANCH   2   4
ENDBRANCH   1   2
BRANCH   1  17
HETATM   17  C6  UNL     1      -0.448   0.101   1.352  1.00  0.00     0.185 C 
BRANCH  17  18
HETATM   18  N4  UNL     1      -1.559  -0.690   0.989  1.00  0.00    -0.350 N 
HETATM   19  C7  UNL     1      -1.457  -1.846   0.114  1.00  0.00     0.126 C 
HETATM   20  C8  UNL     1      -2.558  -2.834   0.233  1.00  0.00     0.021 C 
HETATM   21  C9  UNL     1      -3.900  -2.462  -0.224  1.00  0.00     0.021 C 
HETATM   22  C10 UNL     1      -4.273  -1.026  -0.279  1.00  0.00     0.122 C 
HETATM   23  N5  UNL     1      -4.021  -0.443   1.049  1.00  0.00    -0.365 N 
HETATM   24  C11 UNL     1      -2.811  -0.322   1.552  1.00  0.00     0.186 C 
ATOM     25  H5  UNL     1      -4.816  -0.120   1.601  1.00  0.00     0.162 HD
HETATM   26  N6  UNL     1      -2.822   0.260   2.869  1.00  0.00    -0.064 NA
ENDBRANCH  17  18
ENDBRANCH   1  17
BRANCH   1  27
HETATM   27  C12 UNL     1      -0.382   2.121  -0.157  1.00  0.00     0.112 A 
HETATM   28  N7  UNL     1      -1.165   2.825   0.691  1.00  0.00    -0.187 N 
HETATM   29  C13 UNL     1      -1.694   4.037   0.412  1.00  0.00     0.679 A 
ATOM     30  H7  UNL     1      -1.370   2.414   1.602  1.00  0.00     0.184 HD
HETATM   31  N9  UNL     1      -1.460   4.616  -0.751  1.00  0.00    -0.154 N 
HETATM   32  C14 UNL     1      -0.701   3.999  -1.651  1.00  0.00     0.295 A 
ATOM     33  H9  UNL     1      -1.859   5.532  -0.958  1.00  0.00     0.187 HD
HETATM   34  O1  UNL     1      -0.496   4.571  -2.747  1.00  0.00    -0.265 OA
HETATM   35  C15 UNL     1      -0.148   2.727  -1.359  1.00  0.00     0.200 A 
BRANCH  29  36
HETATM   36  N8  UNL     1      -2.443   4.655   1.289  1.00  0.00    -0.234 N 
ATOM     37  H82 UNL     1      -2.624   4.208   2.188  1.00  0.00     0.174 HD
ATOM     38  H81 UNL     1      -2.842   5.570   1.078  1.00  0.00     0.174 HD
ENDBRANCH  29  36
BRANCH  35  39
HETATM   39  N10 UNL     1       0.618   2.220  -2.435  1.00  0.00    -0.107 N 
HETATM   40  O2  UNL     1       0.078   1.481  -3.266  1.00  0.00    -0.531 OA
HETATM   41  O3  UNL     1       1.910   2.601  -2.590  1.00  0.00    -0.531 OA
ENDBRANCH  35  39
ENDBRANCH   1  27
TORSDOF 7
