REMARK  6 active torsions:
REMARK  status: ('A' for Active; 'I' for Inactive)
REMARK    1  A    between atoms: N1_1  and  C1_4 
REMARK    2  A    between atoms: N5_16  and  C6_17 
REMARK    3  A    between atoms: C7_22  and  C8_23 
REMARK    4  A    between atoms: C8_23  and  N8_24 
REMARK    5  A    between atoms: C13_32  and  N10_33 
REMARK    6  A    between atoms: C15_35  and  C16_36 
ROOT
HETATM    1  C6  UNL     1       1.988  -0.793  -0.581  1.00  0.00     0.198 A 
HETATM    2  N6  UNL     1       1.007  -1.574  -1.050  1.00  0.00    -0.281 N 
ATOM      3  H6  UNL     1       1.267  -2.466  -1.472  1.00  0.00     0.188 HD
HETATM    4  N7  UNL     1      -0.277  -1.263  -1.001  1.00  0.00    -0.299 N 
ATOM      5  H7  UNL     1      -0.984  -1.896  -1.375  1.00  0.00     0.186 HD
HETATM    6  C7  UNL     1      -0.624  -0.097  -0.448  1.00  0.00     0.087 A 
HETATM    7  C13 UNL     1       0.336   0.783   0.068  1.00  0.00     0.135 A 
HETATM    8  C18 UNL     1       1.656   0.415  -0.007  1.00  0.00     0.248 A 
HETATM    9  O3  UNL     1       2.557   1.186   0.450  1.00  0.00    -0.282 OA
ENDROOT
BRANCH   1  10
HETATM   10  N5  UNL     1       3.370  -1.160  -0.650  1.00  0.00    -0.110 N 
HETATM   11  C1  UNL     1       4.085  -1.059  -1.779  1.00  0.00     0.688 A 
HETATM   12  N2  UNL     1       5.374  -1.401  -1.848  1.00  0.00    -0.154 N 
HETATM   13  C2  UNL     1       6.037  -1.873  -0.775  1.00  0.00     0.290 A 
ATOM     14  H2  UNL     1       5.868  -1.302  -2.735  1.00  0.00     0.187 HD
HETATM   15  O1  UNL     1       7.255  -2.201  -0.825  1.00  0.00    -0.265 OA
HETATM   16  C3  UNL     1       5.317  -1.987   0.407  1.00  0.00     0.148 A 
HETATM   17  N3  UNL     1       5.723  -2.424   1.618  1.00  0.00    -0.345 N 
HETATM   18  C5  UNL     1       3.986  -1.626   0.448  1.00  0.00     0.164 A 
HETATM   19  C4  UNL     1       4.643  -2.332   2.406  1.00  0.00     0.182 A 
ATOM     20  H3  UNL     1       6.653  -2.754   1.878  1.00  0.00     0.167 HD
HETATM   21  N4  UNL     1       3.592  -1.853   1.712  1.00  0.00    -0.336 N 
ATOM     22  H4  UNL     1       2.656  -1.690   2.083  1.00  0.00     0.168 HD
BRANCH  11  23
HETATM   23  N1  UNL     1       3.513  -0.614  -2.847  1.00  0.00    -0.234 N 
ATOM     24  H12 UNL     1       4.057  -0.537  -3.706  1.00  0.00     0.174 HD
ATOM     25  H11 UNL     1       2.528  -0.353  -2.794  1.00  0.00     0.174 HD
ENDBRANCH  11  23
ENDBRANCH   1  10
BRANCH   7  26
HETATM   26  N10 UNL     1      -0.026   2.027   0.657  1.00  0.00    -0.261 N 
HETATM   27  C14 UNL     1      -0.207   3.142  -0.104  1.00  0.00     0.132 A 
HETATM   28  C15 UNL     1      -0.551   4.193   0.732  1.00  0.00     0.036 A 
HETATM   29  C17 UNL     1      -0.566   3.665   1.993  1.00  0.00     0.123 A 
HETATM   30  N11 UNL     1      -0.246   2.369   1.891  1.00  0.00    -0.304 N 
ATOM     31  H11 UNL     1      -0.183   1.730   2.683  1.00  0.00     0.186 HD
BRANCH  28  32
HETATM   32  C16 UNL     1      -0.824   5.550   0.286  1.00  0.00     0.272 C 
HETATM   33  O2  UNL     1      -1.131   6.460   1.094  1.00  0.00    -0.301 OA
ENDBRANCH  28  32
ENDBRANCH   7  26
BRANCH   6  34
HETATM   34  C8  UNL     1      -2.010   0.370  -0.347  1.00  0.00     0.333 C 
BRANCH  34  35
HETATM   35  N8  UNL     1      -3.027  -0.498  -0.829  1.00  0.00     0.097 N 
HETATM   36  C9  UNL     1      -4.285   0.261  -0.713  1.00  0.00     0.300 C 
HETATM   37  C10 UNL     1      -5.489  -0.621  -0.751  1.00  0.00     0.262 C 
HETATM   38  N9  UNL     1      -5.605  -1.301   0.507  1.00  0.00    -0.072 N 
HETATM   39  C11 UNL     1      -4.273  -1.397   1.070  1.00  0.00     0.262 C 
ATOM     40  H92 UNL     1      -6.274  -0.860   1.138  1.00  0.00     0.277 HD
ATOM     41  H91 UNL     1      -6.072  -2.205   0.430  1.00  0.00     0.277 HD
HETATM   42  C12 UNL     1      -3.229  -1.669   0.008  1.00  0.00     0.300 C 
ENDBRANCH  34  35
ENDBRANCH   6  34
TORSDOF 6
