REMARK  9 active torsions:
REMARK  status: ('A' for Active; 'I' for Inactive)
REMARK    1  A    between atoms: C2_2  and  O1_3 
REMARK    2  A    between atoms: C2_2  and  C3_5 
REMARK    3  A    between atoms: C3_5  and  N1_6 
REMARK    4  A    between atoms: C3_5  and  C4_10 
REMARK    5  A    between atoms: N3_13  and  C5_14 
REMARK    6  A    between atoms: C6_17  and  N5_18 
REMARK    7  A    between atoms: N5_18  and  C7_20 
REMARK    8  A    between atoms: C10_23  and  S1_24 
REMARK    9  A    between atoms: S1_24  and  N6_25 
ROOT
HETATM    1  C5  UNL     1      -0.603   1.618  -0.403  1.00  0.00     0.737 A 
HETATM    2  N4  UNL     1       0.713   1.397  -0.213  1.00  0.00    -0.019 N 
ATOM      3  H4  UNL     1       1.024   0.451   0.006  1.00  0.00     0.203 HD
HETATM    4  C6  UNL     1       1.631   2.374  -0.301  1.00  0.00     0.703 A 
HETATM    5  N7  UNL     1       1.172   3.605  -0.593  1.00  0.00    -0.136 N 
HETATM    6  C13 UNL     1       2.088   4.722  -0.709  1.00  0.00     0.180 C 
HETATM    7  C14 UNL     1      -0.136   3.856  -0.788  1.00  0.00     0.354 A 
HETATM    8  O4  UNL     1      -0.499   5.027  -1.057  1.00  0.00    -0.245 OA
HETATM    9  N8  UNL     1      -1.028   2.855  -0.692  1.00  0.00    -0.138 N 
ATOM     10  H8  UNL     1      -2.021   3.036  -0.838  1.00  0.00     0.189 HD
ENDROOT
BRANCH   1  11
HETATM   11  N3  UNL     1      -1.553   0.555  -0.301  1.00  0.00     0.092 N 
HETATM   12  N2  UNL     1      -2.790   0.582  -0.756  1.00  0.00    -0.250 N 
HETATM   13  C4  UNL     1      -3.383  -0.588  -0.481  1.00  0.00     0.146 A 
ATOM     14  H2  UNL     1      -3.226   1.367  -1.240  1.00  0.00     0.190 HD
HETATM   15  N10 UNL     1      -2.485  -1.351   0.160  1.00  0.00    -0.175 N 
HETATM   16  C15 UNL     1      -1.347  -0.631   0.268  1.00  0.00     0.713 A 
ATOM     17  H10 UNL     1      -2.634  -2.300   0.503  1.00  0.00     0.185 HD
HETATM   18  N9  UNL     1      -0.238  -1.010   0.825  1.00  0.00    -0.232 N 
ATOM     19  H92 UNL     1       0.621  -0.466   0.907  1.00  0.00     0.174 HD
ATOM     20  H91 UNL     1      -0.080  -1.919   1.261  1.00  0.00     0.174 HD
BRANCH  13  21
HETATM   21  C3  UNL     1      -4.783  -1.008  -0.809  1.00  0.00     0.280 C 
BRANCH  21  22
HETATM   22  C2  UNL     1      -5.595  -1.012   0.469  1.00  0.00     0.152 C 
HETATM   23  C1  UNL     1      -7.029  -1.394   0.089  1.00  0.00     0.042 C 
BRANCH  22  24
HETATM   24  O1  UNL     1      -5.654   0.231   1.064  1.00  0.00    -0.393 OA
ATOM     25  H1  UNL     1      -4.765   0.468   1.300  1.00  0.00     0.210 HD
ENDBRANCH  22  24
ENDBRANCH  21  22
BRANCH  21  26
HETATM   26  N1  UNL     1      -4.786  -2.353  -1.347  1.00  0.00    -0.066 N 
ATOM     27  H13 UNL     1      -4.460  -3.047  -0.675  1.00  0.00     0.275 HD
ATOM     28  H12 UNL     1      -5.727  -2.723  -1.479  1.00  0.00     0.275 HD
ATOM     29  H11 UNL     1      -4.239  -2.350  -2.208  1.00  0.00     0.275 HD
ENDBRANCH  21  26
ENDBRANCH  13  21
ENDBRANCH   1  11
BRANCH   4  30
HETATM   30  N5  UNL     1       2.873   2.208  -0.131  1.00  0.00    -0.191 N 
ATOM     31  H5  UNL     1       3.472   3.028  -0.226  1.00  0.00     0.184 HD
BRANCH  30  32
HETATM   32  C7  UNL     1       3.504   0.973   0.181  1.00  0.00     0.049 A 
HETATM   33  C8  UNL     1       4.399   0.826   1.221  1.00  0.00     0.031 A 
HETATM   34  C9  UNL     1       4.992  -0.393   1.493  1.00  0.00     0.027 A 
HETATM   35  C10 UNL     1       4.718  -1.517   0.738  1.00  0.00     0.079 A 
HETATM   36  C11 UNL     1       3.824  -1.374  -0.304  1.00  0.00     0.027 A 
HETATM   37  C12 UNL     1       3.234  -0.152  -0.570  1.00  0.00     0.031 A 
BRANCH  35  38
HETATM   38  S1  UNL     1       5.471  -3.061   1.083  1.00  0.00     0.256 S 
HETATM   39  O2  UNL     1       5.747  -3.214   2.549  1.00  0.00    -0.201 OA
HETATM   40  O3  UNL     1       4.570  -4.202   0.688  1.00  0.00    -0.201 OA
BRANCH  38  41
HETATM   41  N6  UNL     1       6.946  -3.253   0.226  1.00  0.00    -0.324 N 
ATOM     42  H62 UNL     1       7.324  -2.545  -0.404  1.00  0.00     0.169 HD
ATOM     43  H61 UNL     1       7.384  -4.152   0.427  1.00  0.00     0.169 HD
ENDBRANCH  38  41
ENDBRANCH  35  38
ENDBRANCH  30  32
ENDBRANCH   4  30
TORSDOF 9
