REMARK  7 active torsions:
REMARK  status: ('A' for Active; 'I' for Inactive)
REMARK    1  A    between atoms: C2_2  and  O1_3 
REMARK    2  A    between atoms: O1_3  and  C3_4 
REMARK    3  A    between atoms: C3_4  and  C4_6 
REMARK    4  A    between atoms: C9_13  and  C10_14 
REMARK    5  A    between atoms: C10_14  and  O4_16 
REMARK    6  A    between atoms: O4_16  and  C11_17 
REMARK    7  A    between atoms: C13_19  and  C14_20 
ROOT
HETATM    1  C4  UNL     1      -1.079   0.259  -0.677  1.00  0.00     0.066 C 
HETATM    2  C5  UNL     1      -0.653   1.022  -1.696  1.00  0.00     0.021 C 
HETATM    3  C6  UNL     1      -1.298   2.283  -2.125  1.00  0.00     0.069 C 
HETATM    4  N1  UNL     1       0.625   0.778  -2.335  1.00  0.00    -0.365 N 
ATOM      5  H1  UNL     1       0.893   1.374  -3.118  1.00  0.00     0.165 HD
HETATM    6  C7  UNL     1       1.431  -0.137  -1.974  1.00  0.00     0.001 C 
HETATM    7  C8  UNL     1       2.731  -0.381  -2.661  1.00  0.00     0.064 C 
HETATM    8  C9  UNL     1       1.082  -0.834  -0.705  1.00  0.00     0.161 C 
HETATM    9  C13 UNL     1      -0.394  -1.016  -0.589  1.00  0.00    -0.035 C 
ENDROOT
BRANCH   1  10
HETATM   10  C3  UNL     1      -2.226   0.745   0.032  1.00  0.00     0.295 C 
HETATM   11  O2  UNL     1      -2.759   0.157   1.008  1.00  0.00    -0.259 OA
BRANCH  10  12
HETATM   12  O1  UNL     1      -2.870   1.931  -0.294  1.00  0.00    -0.318 OA
BRANCH  12  13
HETATM   13  C2  UNL     1      -3.988   2.431   0.376  1.00  0.00     0.174 C 
HETATM   14  C1  UNL     1      -3.636   2.662   1.832  1.00  0.00     0.034 C 
ENDBRANCH  12  13
ENDBRANCH  10  12
ENDBRANCH   1  10
BRANCH   9  15
HETATM   15  C14 UNL     1      -0.776  -2.094   0.331  1.00  0.00    -0.026 C 
HETATM   16  C15 UNL     1      -2.136  -2.672   0.266  1.00  0.00     0.019 C 
HETATM   17  C16 UNL     1       0.134  -3.308  -0.137  1.00  0.00     0.019 C 
HETATM   18  C17 UNL     1      -0.388  -1.998   1.776  1.00  0.00     0.019 C 
ENDBRANCH   9  15
BRANCH   8  19
HETATM   19  C10 UNL     1       1.654   0.060   0.349  1.00  0.00     0.272 C 
HETATM   20  O3  UNL     1       0.982   0.691   1.195  1.00  0.00    -0.264 OA
BRANCH  19  21
HETATM   21  O4  UNL     1       3.033   0.211   0.402  1.00  0.00    -0.321 OA
BRANCH  21  22
HETATM   22  C11 UNL     1       3.632   1.060   1.395  1.00  0.00     0.174 C 
HETATM   23  C12 UNL     1       5.128   1.067   1.260  1.00  0.00     0.034 C 
ENDBRANCH  21  22
ENDBRANCH  19  21
ENDBRANCH   8  19
TORSDOF 7
