REMARK  3 active torsions:
REMARK  status: ('A' for Active; 'I' for Inactive)
REMARK       I    between atoms: N3_4  and  C2_6 
REMARK       I    between atoms: C2_6  and  N4_8 
REMARK    1  A    between atoms: N4_8  and  C3_10 
REMARK    2  A    between atoms: C3_10  and  N5_11 
REMARK    3  A    between atoms: N7_16  and  N8_17 
ROOT
HETATM    1  C3  UNL     1      -1.274  -0.542  -0.831  1.00  0.00     0.376 A 
HETATM    2  N6  UNL     1      -1.756   0.775  -0.570  1.00  0.00    -0.044 NA
HETATM    3  N7  UNL     1      -2.605   0.376   0.447  1.00  0.00    -0.163 N 
HETATM    4  C4  UNL     1      -2.136  -0.951   0.333  1.00  0.00     0.331 A 
HETATM    5  O2  UNL     1      -2.277  -2.073   0.875  1.00  0.00    -0.263 OA
ENDROOT
BRANCH   1   6
HETATM    6  N4  UNL     1       0.090  -0.850  -0.576  1.00  0.00    -0.287 N 
HETATM    7  C2  UNL     1       0.798  -0.308   0.518  1.00  0.00     0.325 C 
HETATM    8  N3  UNL     1       2.145  -0.657   0.707  1.00  0.00    -0.285 N 
HETATM    9  O1  UNL     1       0.266   0.487   1.345  1.00  0.00    -0.247 OA
HETATM   10  C1  UNL     1       3.071   0.209   0.457  1.00  0.00     0.204 C 
ATOM     11  H3  UNL     1       2.391  -1.589   1.040  1.00  0.00     0.172 HD
HETATM   12  N1  UNL     1       4.399  -0.237   0.679  1.00  0.00    -0.066 NA
HETATM   13  N2  UNL     1       2.735   1.488  -0.000  1.00  0.00    -0.066 NA
ATOM     14  H4  UNL     1       0.576  -1.487  -1.208  1.00  0.00     0.168 HD
ENDBRANCH   1   6
BRANCH   1  15
HETATM   15  N5  UNL     1      -1.810  -1.029  -2.094  1.00  0.00    -0.026 N 
ATOM     16  H53 UNL     1      -1.230  -0.701  -2.866  1.00  0.00     0.279 HD
ATOM     17  H52 UNL     1      -1.662  -2.035  -2.169  1.00  0.00     0.279 HD
ATOM     18  H51 UNL     1      -2.789  -0.808  -2.277  1.00  0.00     0.279 HD
ENDBRANCH   1  15
BRANCH   3  19
HETATM   19  N8  UNL     1      -3.536   1.003   1.256  1.00  0.00    -0.324 N 
ATOM     20  H82 UNL     1      -3.875   1.962   1.338  1.00  0.00     0.178 HD
ATOM     21  H81 UNL     1      -4.162   0.709   2.006  1.00  0.00     0.178 HD
ENDBRANCH   3  19
TORSDOF 3
