REMARK  2 active torsions:
REMARK  status: ('A' for Active; 'I' for Inactive)
REMARK    1  A    between atoms: C2_2  and  C4_4 
REMARK    2  A    between atoms: C12_12  and  O1_13 
ROOT
HETATM    1  C4  UNL     1       1.641   0.615  -0.606  1.00  0.00    -0.006 C 
HETATM    2  C5  UNL     1       1.702  -0.333  -1.796  1.00  0.00     0.006 C 
HETATM    3  C6  UNL     1       0.370  -1.044  -1.858  1.00  0.00     0.006 C 
HETATM    4  C7  UNL     1      -0.523  -0.109  -1.105  1.00  0.00    -0.005 C 
HETATM    5  C8  UNL     1      -1.832  -0.607  -0.712  1.00  0.00    -0.004 C 
HETATM    6  C9  UNL     1      -2.164  -2.057  -0.819  1.00  0.00     0.006 C 
HETATM    7  C10 UNL     1      -3.115  -1.771   0.365  1.00  0.00     0.008 C 
HETATM    8  C11 UNL     1      -2.021  -0.805   0.777  1.00  0.00     0.019 C 
HETATM    9  C12 UNL     1      -2.401   0.406   1.516  1.00  0.00     0.123 C 
HETATM   10  C13 UNL     1      -1.168   1.149   1.920  1.00  0.00     0.037 C 
HETATM   11  C14 UNL     1      -0.248   1.502   0.798  1.00  0.00    -0.012 C 
HETATM   12  C15 UNL     1      -0.819   2.545  -0.138  1.00  0.00     0.010 C 
HETATM   13  C16 UNL     1       0.321   0.316   0.080  1.00  0.00    -0.002 C 
ENDROOT
BRANCH   1  14
HETATM   14  C2  UNL     1       2.770   0.271   0.363  1.00  0.00    -0.018 C 
HETATM   15  C1  UNL     1       4.115   0.401  -0.280  1.00  0.00     0.010 C 
HETATM   16  C3  UNL     1       2.614  -1.125   0.925  1.00  0.00     0.010 C 
ENDBRANCH   1  14
BRANCH   9  17
HETATM   17  O1  UNL     1      -3.289   1.248   0.889  1.00  0.00    -0.395 OA
ATOM     18  H1  UNL     1      -3.535   2.031   1.367  1.00  0.00     0.210 HD
ENDBRANCH   9  17
TORSDOF 2
