REMARK  4 active torsions:
REMARK  status: ('A' for Active; 'I' for Inactive)
REMARK    1  A    between atoms: C4_4  and  C5_5 
REMARK    2  A    between atoms: C5_5  and  N1_6 
REMARK    3  A    between atoms: C14_15  and  C15_16 
REMARK    4  A    between atoms: C21_22  and  C22_23 
ROOT
HETATM    1  N1  UNL     1      -0.331   0.521  -0.593  1.00  0.00    -0.340 N 
HETATM    2  C6  UNL     1      -0.077   1.696   0.024  1.00  0.00     0.046 A 
HETATM    3  C7  UNL     1      -0.896   2.866   0.225  1.00  0.00    -0.009 A 
HETATM    4  C8  UNL     1      -0.470   3.798   1.192  1.00  0.00     0.014 A 
HETATM    5  C9  UNL     1      -1.134   4.971   1.441  1.00  0.00     0.001 A 
HETATM    6  C10 UNL     1      -2.256   5.294   0.750  1.00  0.00     0.000 A 
HETATM    7  C11 UNL     1      -2.706   4.428  -0.192  1.00  0.00     0.001 A 
HETATM    8  C12 UNL     1      -2.021   3.227  -0.443  1.00  0.00     0.014 A 
HETATM    9  C13 UNL     1       1.231   1.561   0.546  1.00  0.00     0.045 A 
HETATM   10  C14 UNL     1       1.731   0.342   0.241  1.00  0.00     0.004 A 
HETATM   11  C21 UNL     1       0.753  -0.313  -0.476  1.00  0.00     0.056 A 
ENDROOT
BRANCH   1  12
HETATM   12  C5  UNL     1      -1.527   0.137  -1.299  1.00  0.00     0.168 C 
BRANCH  12  13
HETATM   13  C4  UNL     1      -2.635  -0.345  -0.418  1.00  0.00    -0.040 A 
HETATM   14  C3  UNL     1      -2.451  -1.151   0.670  1.00  0.00     0.009 A 
HETATM   15  C2  UNL     1      -3.484  -1.638   1.467  1.00  0.00     0.001 A 
HETATM   16  C1  UNL     1      -4.770  -1.281   1.134  1.00  0.00     0.000 A 
HETATM   17  C29 UNL     1      -5.031  -0.464   0.043  1.00  0.00     0.001 A 
HETATM   18  C28 UNL     1      -3.976  -0.024  -0.693  1.00  0.00     0.009 A 
ENDBRANCH  12  13
ENDBRANCH   1  12
BRANCH  11  19
HETATM   19  C22 UNL     1       0.902  -1.655  -1.037  1.00  0.00    -0.008 A 
HETATM   20  C23 UNL     1       0.973  -1.878  -2.396  1.00  0.00     0.014 A 
HETATM   21  C24 UNL     1       1.135  -3.112  -2.975  1.00  0.00     0.001 A 
HETATM   22  C25 UNL     1       1.235  -4.213  -2.132  1.00  0.00     0.000 A 
HETATM   23  C26 UNL     1       1.167  -4.014  -0.773  1.00  0.00     0.001 A 
HETATM   24  C27 UNL     1       1.004  -2.771  -0.213  1.00  0.00     0.014 A 
ENDBRANCH  11  19
BRANCH  10  25
HETATM   25  C15 UNL     1       3.039  -0.228   0.575  1.00  0.00    -0.024 A 
HETATM   26  C16 UNL     1       3.942  -0.628  -0.367  1.00  0.00     0.012 A 
HETATM   27  C17 UNL     1       5.159  -1.147   0.035  1.00  0.00     0.001 A 
HETATM   28  C18 UNL     1       5.513  -1.283   1.356  1.00  0.00     0.000 A 
HETATM   29  C19 UNL     1       4.600  -0.878   2.308  1.00  0.00     0.001 A 
HETATM   30  C20 UNL     1       3.386  -0.360   1.907  1.00  0.00     0.012 A 
ENDBRANCH  10  25
TORSDOF 4
