REMARK  5 active torsions:
REMARK  status: ('A' for Active; 'I' for Inactive)
REMARK    1  A    between atoms: C3_3  and  N1_4 
REMARK    2  A    between atoms: N1_4  and  C4_6 
REMARK    3  A    between atoms: C4_6  and  C5_7 
REMARK    4  A    between atoms: C5_7  and  N2_8 
REMARK    5  A    between atoms: N2_8  and  C6_10 
ROOT
HETATM    1  C4  UNL     1      -0.154  -0.244   0.957  1.00  0.00     0.139 C 
ENDROOT
BRANCH   1   2
HETATM    2  N1  UNL     1      -0.972  -0.040  -0.218  1.00  0.00    -0.388 N 
ATOM      3  H1  UNL     1      -0.560  -0.058  -1.151  1.00  0.00     0.159 HD
BRANCH   2   4
HETATM    4  C3  UNL     1      -2.225   0.164  -0.058  1.00  0.00     0.030 A 
HETATM    5  C2  UNL     1      -2.805   0.192   1.208  1.00  0.00     0.046 A 
HETATM    6  C1  UNL     1      -4.148   0.410   1.379  1.00  0.00     0.089 A 
HETATM    7  N4  UNL     1      -4.938   0.604   0.317  1.00  0.00    -0.375 N 
HETATM    8  C10 UNL     1      -4.415   0.586  -0.944  1.00  0.00     0.089 A 
ATOM      9  H4  UNL     1      -5.936   0.766   0.450  1.00  0.00     0.164 HD
HETATM   10  C9  UNL     1      -3.060   0.366  -1.131  1.00  0.00     0.046 A 
ENDBRANCH   2   4
ENDBRANCH   1   2
BRANCH   1  11
HETATM   11  C5  UNL     1       1.302  -0.437   0.608  1.00  0.00     0.141 C 
BRANCH  11  12
HETATM   12  N2  UNL     1       1.856   0.693  -0.082  1.00  0.00    -0.369 N 
ATOM     13  H2  UNL     1       1.311   1.542  -0.228  1.00  0.00     0.161 HD
BRANCH  12  14
HETATM   14  C6  UNL     1       3.091   0.593  -0.518  1.00  0.00     0.144 A 
HETATM   15  N3  UNL     1       3.927  -0.439  -0.407  1.00  0.00    -0.346 N 
HETATM   16  C7  UNL     1       5.122  -0.336  -0.912  1.00  0.00     0.097 A 
ATOM     17  H3  UNL     1       3.635  -1.295   0.066  1.00  0.00     0.167 HD
HETATM   18  C8  UNL     1       5.455   0.838  -1.536  1.00  0.00     0.070 A 
HETATM   19  S1  UNL     1       4.021   1.748  -1.364  1.00  0.00    -0.065 SA
ENDBRANCH  12  14
ENDBRANCH  11  12
ENDBRANCH   1  11
TORSDOF 5
