REMARK  3 active torsions:
REMARK  status: ('A' for Active; 'I' for Inactive)
REMARK    1  A    between atoms: O1_2  and  C2_3 
REMARK    2  A    between atoms: C5_8  and  C6_9 
REMARK    3  A    between atoms: C7_12  and  C8_13 
ROOT
HETATM    1  C2  UNL     1       5.296  -0.159  -1.110  1.00  0.00     0.113 A 
HETATM    2  C3  UNL     1       4.545  -0.325   0.025  1.00  0.00     0.077 A 
HETATM    3  C4  UNL     1       3.211  -0.229  -0.094  1.00  0.00     0.071 A 
HETATM    4  N1  UNL     1       2.092  -0.310   0.707  1.00  0.00    -0.338 N 
ATOM      5  H1  UNL     1       2.120  -0.491   1.710  1.00  0.00     0.167 HD
HETATM    6  C5  UNL     1       0.976  -0.125   0.017  1.00  0.00     0.136 A 
HETATM    7  N4  UNL     1       1.356   0.087  -1.278  1.00  0.00    -0.333 N 
ATOM      8  H4  UNL     1       0.731   0.262  -2.065  1.00  0.00     0.168 HD
HETATM    9  C14 UNL     1       2.702   0.024  -1.334  1.00  0.00     0.105 A 
HETATM   10  S1  UNL     1       4.130   0.122  -2.307  1.00  0.00    -0.045 SA
ENDROOT
BRANCH   6  11
HETATM   11  C6  UNL     1      -0.431  -0.169   0.462  1.00  0.00     0.100 A 
HETATM   12  N2  UNL     1      -1.507  -0.028  -0.355  1.00  0.00    -0.341 N 
HETATM   13  C7  UNL     1      -2.622  -0.096   0.350  1.00  0.00     0.089 A 
ATOM     14  H2  UNL     1      -1.461   0.110  -1.365  1.00  0.00     0.167 HD
HETATM   15  N3  UNL     1      -2.303  -0.283   1.648  1.00  0.00    -0.347 N 
HETATM   16  C12 UNL     1      -0.955  -0.326   1.711  1.00  0.00     0.037 A 
ATOM     17  H3  UNL     1      -2.953  -0.374   2.429  1.00  0.00     0.167 HD
HETATM   18  C13 UNL     1      -0.196  -0.487   2.977  1.00  0.00     0.070 C 
BRANCH  13  19
HETATM   19  C8  UNL     1      -4.049  -0.012  -0.077  1.00  0.00     0.007 C 
HETATM   20  C9  UNL     1      -4.845  -0.980   0.778  1.00  0.00     0.022 C 
HETATM   21  C10 UNL     1      -4.497   1.421   0.106  1.00  0.00     0.022 C 
HETATM   22  C11 UNL     1      -4.203  -0.403  -1.542  1.00  0.00     0.022 C 
ENDBRANCH  13  19
ENDBRANCH   6  11
BRANCH   1  23
HETATM   23  O1  UNL     1       6.717  -0.222  -1.168  1.00  0.00    -0.349 OA
HETATM   24  C1  UNL     1       7.453   0.931  -0.814  1.00  0.00     0.211 C 
ENDBRANCH   1  23
TORSDOF 3
