REMARK  10 active torsions:
REMARK  status: ('A' for Active; 'I' for Inactive)
REMARK    1  A    between atoms: C5_5  and  N1_6 
REMARK       I    between atoms: N1_6  and  C6_7 
REMARK    2  A    between atoms: N1_6  and  S1_13 
REMARK    3  A    between atoms: C6_7  and  C7_9 
REMARK    4  A    between atoms: S1_13  and  N2_16 
REMARK    5  A    between atoms: C18_24  and  C19_25 
REMARK       I    between atoms: C19_25  and  N3_27 
REMARK    6  A    between atoms: C20_29  and  C21_30 
REMARK    7  A    between atoms: C20_29  and  C25_44 
REMARK    8  A    between atoms: C21_30  and  C22_31 
REMARK    9  A    between atoms: C22_31  and  C23_32 
REMARK   10  A    between atoms: C23_32  and  N4_33 
REMARK       I    between atoms: N4_33  and  C24_35 
REMARK       I    between atoms: C24_35  and  N5_36 
REMARK       I    between atoms: C24_35  and  N6_40 
ROOT
HETATM    1  N2  UNL     1      -0.078   0.596   1.670  1.00  0.00    -0.255 N 
HETATM    2  C11 UNL     1      -0.460   1.804   2.320  1.00  0.00     0.175 C 
HETATM    3  C12 UNL     1       0.343   1.969   3.593  1.00  0.00     0.141 C 
HETATM    4  C13 UNL     1       0.212   0.950   4.635  1.00  0.00     0.034 C 
HETATM    5  C14 UNL     1       1.047  -0.291   4.414  1.00  0.00     0.005 C 
HETATM    6  C15 UNL     1       2.437   0.148   4.023  1.00  0.00     0.032 C 
HETATM    7  C16 UNL     1       2.457   1.207   2.943  1.00  0.00     0.128 C 
HETATM    8  C17 UNL     1       2.394   0.683   1.566  1.00  0.00     0.096 C 
HETATM    9  C18 UNL     1       1.063   0.654   0.877  1.00  0.00     0.094 C 
HETATM   10  O7  UNL     1       1.636   2.269   3.214  1.00  0.00    -0.379 OA
ENDROOT
BRANCH   9  11
HETATM   11  C19 UNL     1       1.093  -0.195  -0.307  1.00  0.00     0.269 C 
HETATM   12  O4  UNL     1       0.198  -0.929  -0.788  1.00  0.00    -0.266 OA
HETATM   13  N3  UNL     1       2.292  -0.265  -1.120  1.00  0.00    -0.320 N 
HETATM   14  C20 UNL     1       3.056  -1.262  -1.242  1.00  0.00     0.089 C 
ATOM     15  H3  UNL     1       2.542   0.573  -1.644  1.00  0.00     0.169 HD
BRANCH  14  16
HETATM   16  C21 UNL     1       4.236  -1.045  -2.168  1.00  0.00     0.066 C 
BRANCH  16  17
HETATM   17  C22 UNL     1       5.538  -1.062  -1.445  1.00  0.00     0.025 C 
BRANCH  17  18
HETATM   18  C23 UNL     1       6.678  -0.898  -2.432  1.00  0.00     0.117 C 
BRANCH  18  19
HETATM   19  N4  UNL     1       6.559   0.335  -3.141  1.00  0.00    -0.374 N 
HETATM   20  C24 UNL     1       6.761   1.530  -2.394  1.00  0.00     0.476 C 
HETATM   21  N5  UNL     1       6.488   2.655  -3.277  1.00  0.00    -0.033 N 
HETATM   22  N6  UNL     1       8.154   1.684  -1.979  1.00  0.00    -0.033 N 
ATOM     23  H53 UNL     1       7.037   2.627  -4.136  1.00  0.00     0.278 HD
ATOM     24  H52 UNL     1       5.564   2.607  -3.706  1.00  0.00     0.278 HD
ATOM     25  H51 UNL     1       6.633   3.511  -2.742  1.00  0.00     0.278 HD
ATOM     26  H63 UNL     1       8.480   0.866  -1.465  1.00  0.00     0.278 HD
ATOM     27  H62 UNL     1       8.787   1.634  -2.778  1.00  0.00     0.278 HD
ATOM     28  H61 UNL     1       8.299   2.540  -1.444  1.00  0.00     0.278 HD
ATOM     29  H4  UNL     1       6.339   0.359  -4.137  1.00  0.00     0.156 HD
ENDBRANCH  18  19
ENDBRANCH  17  18
ENDBRANCH  16  17
ENDBRANCH  14  16
BRANCH  14  30
HETATM   30  C25 UNL     1       2.983  -2.545  -0.612  1.00  0.00     0.222 C 
HETATM   31  O5  UNL     1       3.819  -3.442  -0.863  1.00  0.00    -0.643 OA
HETATM   32  O6  UNL     1       1.996  -2.853   0.295  1.00  0.00    -0.643 OA
ENDBRANCH  14  30
ENDBRANCH   9  11
BRANCH   1  33
HETATM   33  S1  UNL     1      -1.354  -0.389   1.340  1.00  0.00     0.330 S 
HETATM   34  O2  UNL     1      -1.036  -1.878   1.340  1.00  0.00    -0.182 OA
HETATM   35  O3  UNL     1      -2.168  -0.352   2.740  1.00  0.00    -0.182 OA
BRANCH  33  36
HETATM   36  N1  UNL     1      -2.616   0.029   0.270  1.00  0.00    -0.223 N 
HETATM   37  C6  UNL     1      -2.661   1.213  -0.464  1.00  0.00     0.242 C 
HETATM   38  O1  UNL     1      -1.714   2.033  -0.363  1.00  0.00    -0.271 OA
BRANCH  36  39
HETATM   39  C5  UNL     1      -3.699  -0.926   0.118  1.00  0.00     0.106 C 
HETATM   40  C4  UNL     1      -3.257  -2.270  -0.442  1.00  0.00     0.027 C 
HETATM   41  C3  UNL     1      -4.525  -2.855  -1.069  1.00  0.00     0.006 C 
HETATM   42  C2  UNL     1      -5.768  -2.597  -0.299  1.00  0.00    -0.019 C 
HETATM   43  C1  UNL     1      -6.780  -1.770  -1.111  1.00  0.00     0.010 C 
HETATM   44  C27 UNL     1      -5.651  -2.079   1.078  1.00  0.00     0.006 C 
HETATM   45  C26 UNL     1      -4.416  -1.262   1.392  1.00  0.00     0.027 C 
ENDBRANCH  36  39
BRANCH  37  46
HETATM   46  C7  UNL     1      -3.724   1.677  -1.405  1.00  0.00     0.031 C 
HETATM   47  C8  UNL     1      -3.795   0.765  -2.630  1.00  0.00     0.025 C 
HETATM   48  C9  UNL     1      -3.329   3.082  -1.930  1.00  0.00     0.025 C 
HETATM   49  C10 UNL     1      -5.065   1.852  -0.790  1.00  0.00     0.025 C 
ENDBRANCH  37  46
ENDBRANCH  33  36
ENDBRANCH   1  33
TORSDOF 10
