REMARK  5 active torsions:
REMARK  status: ('A' for Active; 'I' for Inactive)
REMARK    1  A    between atoms: S1_2  and  C2_3 
REMARK    2  A    between atoms: C2_3  and  C3_4 
REMARK    3  A    between atoms: N3_17  and  C10_18 
REMARK    4  A    between atoms: C10_18  and  C11_19 
REMARK    5  A    between atoms: C11_19  and  N4_20 
ROOT
HETATM    1  C3  UNL     1       2.665  -0.248   0.180  1.00  0.00     0.046 C 
HETATM    2  C4  UNL     1       2.854   1.163  -0.368  1.00  0.00     0.239 C 
HETATM    3  N1  UNL     1       2.134   2.147   0.416  1.00  0.00    -0.075 N 
ATOM      4  H11 UNL     1       2.760   2.884   0.741  1.00  0.00     0.277 HD
ATOM      5  H12 UNL     1       1.852   1.760   1.317  1.00  0.00     0.277 HD
HETATM    6  C5  UNL     1       0.997   2.706  -0.287  1.00  0.00     0.233 C 
HETATM    7  C6  UNL     1      -0.068   2.977   0.773  1.00  0.00     0.055 C 
HETATM    8  C7  UNL     1      -1.406   3.311   0.164  1.00  0.00     0.234 C 
HETATM    9  N2  UNL     1      -1.689   2.378  -0.901  1.00  0.00    -0.074 N 
ATOM     10  H21 UNL     1      -0.941   1.693  -1.008  1.00  0.00     0.277 HD
ATOM     11  H22 UNL     1      -1.625   2.823  -1.817  1.00  0.00     0.277 HD
HETATM   12  C8  UNL     1      -2.991   1.730  -0.705  1.00  0.00     0.252 C 
HETATM   13  C9  UNL     1      -2.960   0.357  -1.322  1.00  0.00     0.149 C 
HETATM   14  N3  UNL     1      -2.381  -0.616  -0.464  1.00  0.00    -0.389 N 
HETATM   15  C12 UNL     1      -1.477  -1.516  -1.068  1.00  0.00     0.149 C 
HETATM   16  C13 UNL     1      -0.483  -2.143  -0.120  1.00  0.00     0.252 C 
HETATM   17  N5  UNL     1       0.399  -1.141   0.486  1.00  0.00    -0.073 N 
ATOM     18  H51 UNL     1       0.737  -1.405   1.412  1.00  0.00     0.277 HD
ATOM     19  H52 UNL     1      -0.088  -0.290   0.768  1.00  0.00     0.277 HD
HETATM   20  C14 UNL     1       1.466  -0.905  -0.472  1.00  0.00     0.239 C 
ENDROOT
BRANCH  14  21
HETATM   21  C10 UNL     1      -3.132  -1.054   0.636  1.00  0.00     0.085 C 
BRANCH  21  22
HETATM   22  C11 UNL     1      -4.361  -1.865   0.344  1.00  0.00     0.274 C 
BRANCH  22  23
HETATM   23  N4  UNL     1      -4.122  -3.094  -0.347  1.00  0.00    -0.075 N 
ATOM     24  H43 UNL     1      -3.602  -2.920  -1.207  1.00  0.00     0.274 HD
ATOM     25  H42 UNL     1      -3.440  -3.657   0.161  1.00  0.00     0.274 HD
ATOM     26  H41 UNL     1      -4.957  -3.645  -0.545  1.00  0.00     0.274 HD
ENDBRANCH  22  23
ENDBRANCH  21  22
ENDBRANCH  14  21
BRANCH   1  27
HETATM   27  C2  UNL     1       3.866  -1.096  -0.105  1.00  0.00     0.081 C 
BRANCH  27  28
HETATM   28  S1  UNL     1       5.380  -0.468   0.616  1.00  0.00    -0.173 SA
HETATM   29  C1  UNL     1       6.730  -1.603   0.180  1.00  0.00     0.089 C 
ENDBRANCH  27  28
ENDBRANCH   1  27
TORSDOF 5
