REMARK  11 active torsions:
REMARK  status: ('A' for Active; 'I' for Inactive)
REMARK    1  A    between atoms: C2_2  and  C3_3 
REMARK    2  A    between atoms: C3_3  and  N1_4 
REMARK    3  A    between atoms: C3_3  and  C12_20 
REMARK       I    between atoms: N1_4  and  C4_6 
REMARK    4  A    between atoms: C4_6  and  C5_8 
REMARK    5  A    between atoms: C5_8  and  N2_9 
REMARK    6  A    between atoms: C5_8  and  C9_15 
REMARK    7  A    between atoms: C9_15  and  O2_18 
REMARK    8  A    between atoms: C12_20  and  C13_22 
REMARK    9  A    between atoms: C13_22  and  O4_23 
REMARK   10  A    between atoms: C13_22  and  N3_25 
REMARK   11  A    between atoms: C19_31  and  O5_32 
ROOT
HETATM    1  C12 UNL     1       0.303  -0.418  -0.114  1.00  0.00     0.222 C 
HETATM    2  O3  UNL     1       0.056  -1.146   0.859  1.00  0.00    -0.286 OA
ENDROOT
BRANCH   1   3
HETATM    3  C3  UNL     1      -0.689  -0.524  -1.239  1.00  0.00     0.162 C 
BRANCH   3   4
HETATM    4  C2  UNL     1      -0.385  -1.723  -2.112  1.00  0.00     0.029 C 
HETATM    5  C1  UNL     1       0.917  -1.661  -2.832  1.00  0.00     0.007 C 
ENDBRANCH   3   4
BRANCH   3   6
HETATM    6  N1  UNL     1      -2.007  -0.793  -0.634  1.00  0.00    -0.347 N 
HETATM    7  C4  UNL     1      -3.094   0.081  -0.859  1.00  0.00     0.255 C 
HETATM    8  O1  UNL     1      -2.871   1.082  -1.595  1.00  0.00    -0.271 OA
ATOM      9  H1  UNL     1      -2.135  -1.618  -0.048  1.00  0.00     0.163 HD
BRANCH   7  10
HETATM   10  C5  UNL     1      -4.456  -0.093  -0.303  1.00  0.00     0.347 C 
BRANCH  10  11
HETATM   11  N2  UNL     1      -5.330   0.853  -0.980  1.00  0.00     0.117 N 
HETATM   12  C6  UNL     1      -6.732   0.574  -0.945  1.00  0.00     0.354 C 
HETATM   13  C7  UNL     1      -6.770   0.787  -2.457  1.00  0.00     0.295 C 
HETATM   14  F1  UNL     1      -7.219  -0.296  -3.187  1.00  0.00    -0.203 F 
HETATM   15  F2  UNL     1      -7.277   1.996  -2.825  1.00  0.00    -0.203 F 
HETATM   16  C8  UNL     1      -5.259   0.783  -2.407  1.00  0.00     0.354 C 
ENDBRANCH  10  11
BRANCH  10  17
HETATM   17  C9  UNL     1      -4.364   0.236   1.175  1.00  0.00     0.090 C 
HETATM   18  C10 UNL     1      -5.762   0.263   1.817  1.00  0.00     0.048 C 
HETATM   19  C11 UNL     1      -3.571  -0.771   1.959  1.00  0.00     0.048 C 
BRANCH  17  20
HETATM   20  O2  UNL     1      -3.841   1.507   1.378  1.00  0.00    -0.388 OA
ATOM     21  H2  UNL     1      -3.783   1.713   2.304  1.00  0.00     0.210 HD
ENDBRANCH  17  20
ENDBRANCH  10  17
ENDBRANCH   7  10
ENDBRANCH   3   6
ENDBRANCH   1   3
BRANCH   1  22
HETATM   22  C13 UNL     1       1.435   0.468  -0.190  1.00  0.00     0.188 C 
BRANCH  22  23
HETATM   23  O4  UNL     1       1.544   1.059  -1.376  1.00  0.00    -0.343 OA
ATOM     24  H4  UNL     1       2.291   1.644  -1.426  1.00  0.00     0.219 HD
ENDBRANCH  22  23
BRANCH  22  25
HETATM   25  N3  UNL     1       2.429   0.836   0.687  1.00  0.00    -0.349 N 
HETATM   26  C14 UNL     1       3.467   1.660   0.079  1.00  0.00     0.134 C 
HETATM   27  C15 UNL     1       4.793   1.045  -0.002  1.00  0.00     0.044 C 
HETATM   28  C16 UNL     1       5.121   0.806  -1.466  1.00  0.00     0.009 C 
HETATM   29  C19 UNL     1       5.147  -0.170   0.703  1.00  0.00     0.129 C 
HETATM   30  C17 UNL     1       5.353  -0.680  -1.597  1.00  0.00     0.004 C 
HETATM   31  C18 UNL     1       5.987  -1.024  -0.284  1.00  0.00     0.044 C 
HETATM   32  C20 UNL     1       4.180  -1.095   1.302  1.00  0.00     0.280 C 
HETATM   33  F3  UNL     1       3.487  -1.844   0.388  1.00  0.00    -0.202 F 
HETATM   34  F4  UNL     1       5.009  -2.093   1.926  1.00  0.00    -0.202 F 
HETATM   35  C21 UNL     1       3.347  -0.575   2.453  1.00  0.00     0.091 A 
HETATM   36  C22 UNL     1       3.591   0.796   2.939  1.00  0.00     0.044 A 
HETATM   37  C23 UNL     1       2.378   0.435   2.085  1.00  0.00     0.041 A 
HETATM   38  C24 UNL     1       1.124   0.691   2.887  1.00  0.00     0.039 C 
BRANCH  29  39
HETATM   39  O5  UNL     1       6.111   0.123   1.719  1.00  0.00    -0.383 OA
ATOM     40  H5  UNL     1       6.343  -0.674   2.181  1.00  0.00     0.210 HD
ENDBRANCH  29  39
ENDBRANCH  22  25
ENDBRANCH   1  22
TORSDOF 11
