REMARK  8 active torsions:
REMARK  status: ('A' for Active; 'I' for Inactive)
REMARK    1  A    between atoms: C2_2  and  N1_3 
REMARK    2  A    between atoms: N1_3  and  C3_5 
REMARK    3  A    between atoms: C4_8  and  N3_9 
REMARK    4  A    between atoms: N3_9  and  C5_11 
REMARK    5  A    between atoms: N4_14  and  C8_15 
REMARK    6  A    between atoms: C9_18  and  N6_19 
REMARK    7  A    between atoms: N6_19  and  C10_20 
REMARK    8  A    between atoms: C13_23  and  N7_24 
ROOT
HETATM    1  C5  UNL     1       3.514  -0.177  -0.031  1.00  0.00     0.118 C 
HETATM    2  C6  UNL     1       3.683  -1.652   0.135  1.00  0.00     0.047 C 
HETATM    3  C7  UNL     1       2.345  -2.255  -0.143  1.00  0.00     0.126 C 
HETATM    4  N4  UNL     1       1.406  -1.191   0.094  1.00  0.00    -0.364 N 
HETATM    5  C20 UNL     1       2.047   0.076  -0.183  1.00  0.00     0.150 C 
ENDROOT
BRANCH   4   6
HETATM    6  C8  UNL     1       0.050  -1.277   0.540  1.00  0.00     0.126 A 
HETATM    7  N5  UNL     1      -0.954  -0.965  -0.289  1.00  0.00    -0.301 N 
HETATM    8  C9  UNL     1      -2.269  -1.047   0.104  1.00  0.00     0.255 A 
ATOM      9  H5  UNL     1      -0.738  -0.658  -1.237  1.00  0.00     0.171 HD
HETATM   10  N8  UNL     1      -2.514  -1.453   1.359  1.00  0.00    -0.325 N 
HETATM   11  C18 UNL     1      -1.526  -1.776   2.223  1.00  0.00     0.115 A 
ATOM     12  H8  UNL     1      -3.482  -1.520   1.673  1.00  0.00     0.169 HD
HETATM   13  C19 UNL     1      -0.231  -1.692   1.823  1.00  0.00     0.070 A 
HETATM   14 BR1  UNL     1       1.208  -2.139   3.016  1.00  0.00    -0.046 Br
BRANCH   8  15
HETATM   15  N6  UNL     1      -3.129  -0.765  -0.683  1.00  0.00    -0.410 NA
BRANCH  15  16
HETATM   16  C10 UNL     1      -4.347  -0.552  -1.214  1.00  0.00     0.167 C 
HETATM   17  C11 UNL     1      -5.475  -1.194  -0.417  1.00  0.00     0.041 C 
HETATM   18  C12 UNL     1      -5.995  -0.138   0.523  1.00  0.00     0.038 C 
HETATM   19  C13 UNL     1      -6.840   0.866  -0.218  1.00  0.00     0.222 C 
HETATM   20  C16 UNL     1      -6.137   1.148  -1.544  1.00  0.00     0.038 C 
HETATM   21  C17 UNL     1      -4.667   0.921  -1.468  1.00  0.00     0.041 C 
BRANCH  19  22
HETATM   22  N7  UNL     1      -8.159   0.430  -0.502  1.00  0.00     0.084 N 
HETATM   23  C14 UNL     1      -8.824   1.445  -1.296  1.00  0.00     0.309 C 
HETATM   24  C15 UNL     1      -8.988   0.165   0.632  1.00  0.00     0.309 C 
ENDBRANCH  19  22
ENDBRANCH  15  16
ENDBRANCH   8  15
ENDBRANCH   4   6
BRANCH   1  25
HETATM   25  N3  UNL     1       4.100   0.571   1.053  1.00  0.00    -0.220 N 
ATOM     26  H3  UNL     1       3.480   0.870   1.805  1.00  0.00     0.178 HD
BRANCH  25  27
HETATM   27  C4  UNL     1       5.339   0.891   1.148  1.00  0.00     0.679 A 
HETATM   28  N2  UNL     1       6.264   0.562   0.229  1.00  0.00    -0.175 N 
HETATM   29  C3  UNL     1       7.568   0.907   0.344  1.00  0.00     0.140 A 
ATOM     30  H2  UNL     1       5.970   0.030  -0.590  1.00  0.00     0.186 HD
HETATM   31  C22 UNL     1       7.932   1.618   1.452  1.00  0.00     0.094 A 
HETATM   32  C21 UNL     1       6.997   1.973   2.422  1.00  0.00     0.133 A 
HETATM   33 CL1  UNL     1       9.571   2.146   1.756  1.00  0.00    -0.079 Cl
HETATM   34  N9  UNL     1       5.711   1.600   2.249  1.00  0.00    -0.200 N 
ATOM     35  H9  UNL     1       5.013   1.851   2.949  1.00  0.00     0.183 HD
BRANCH  29  36
HETATM   36  N1  UNL     1       8.371   0.564  -0.555  1.00  0.00    -0.375 N 
ATOM     37  H1  UNL     1       7.929   0.037  -1.309  1.00  0.00     0.161 HD
BRANCH  36  38
HETATM   38  C2  UNL     1       9.753   0.751  -0.746  1.00  0.00     0.116 C 
HETATM   39  C1  UNL     1      10.126  -0.010  -2.039  1.00  0.00     0.026 C 
ENDBRANCH  36  38
ENDBRANCH  29  36
ENDBRANCH  25  27
ENDBRANCH   1  25
TORSDOF 8
