REMARK  9 active torsions:
REMARK  status: ('A' for Active; 'I' for Inactive)
REMARK    1  A    between atoms: C3_3  and  C4_4 
REMARK    2  A    between atoms: C4_4  and  C5_5 
REMARK    3  A    between atoms: C5_5  and  N1_6 
REMARK    4  A    between atoms: N1_6  and  C6_8 
REMARK    5  A    between atoms: C7_11  and  N3_12 
REMARK    6  A    between atoms: C8_14  and  C9_15 
REMARK    7  A    between atoms: C16_23  and  O2_24 
REMARK    8  A    between atoms: C18_26  and  O3_27 
REMARK    9  A    between atoms: N5_35  and  C24_36 
ROOT
HETATM    1  C1  UNL     1       3.991   2.597   3.999  1.00  0.00     0.112 C 
HETATM    2  C2  UNL     1       4.086   1.994   2.661  1.00  0.00    -0.110 C 
HETATM    3  C3  UNL     1       4.146   1.504   1.559  1.00  0.00    -0.087 C 
ENDROOT
BRANCH   3   4
HETATM    4  C4  UNL     1       4.210   0.894   0.229  1.00  0.00     0.127 C 
HETATM    5  C22 UNL     1       4.235   2.007  -0.787  1.00  0.00     0.052 C 
HETATM    6  C23 UNL     1       5.496   1.800  -1.616  1.00  0.00     0.133 C 
HETATM    7  N5  UNL     1       6.279   0.820  -0.920  1.00  0.00    -0.296 N 
HETATM    8  C25 UNL     1       5.488   0.102   0.045  1.00  0.00     0.345 C 
HETATM    9  F1  UNL     1       6.180   0.066   1.237  1.00  0.00    -0.180 F 
HETATM   10  F2  UNL     1       5.240  -1.188  -0.387  1.00  0.00    -0.180 F 
BRANCH   4  11
HETATM   11  C5  UNL     1       3.061  -0.045  -0.017  1.00  0.00     0.169 C 
BRANCH  11  12
HETATM   12  N1  UNL     1       1.778   0.607   0.071  1.00  0.00    -0.224 N 
ATOM     13  H1  UNL     1       1.702   1.619   0.170  1.00  0.00     0.177 HD
BRANCH  12  14
HETATM   14  C6  UNL     1       0.729  -0.144   0.019  1.00  0.00     0.680 A 
HETATM   15  N2  UNL     1      -0.459   0.411   0.095  1.00  0.00    -0.176 N 
HETATM   16  C7  UNL     1      -1.661  -0.241   0.056  1.00  0.00     0.133 A 
ATOM     17  H2  UNL     1      -0.488   1.426   0.192  1.00  0.00     0.186 HD
HETATM   18  C14 UNL     1      -1.552  -1.629  -0.080  1.00  0.00     0.039 A 
HETATM   19  C15 UNL     1      -2.675  -2.419  -0.134  1.00  0.00     0.057 A 
HETATM   20  C21 UNL     1      -0.324  -2.244  -0.162  1.00  0.00     0.066 A 
HETATM   21  C16 UNL     1      -2.576  -3.805  -0.268  1.00  0.00     0.102 A 
HETATM   22  C18 UNL     1      -1.340  -4.402  -0.349  1.00  0.00     0.103 A 
HETATM   23  C20 UNL     1      -0.210  -3.625  -0.297  1.00  0.00     0.070 A 
HETATM   24  N4  UNL     1       0.802  -1.475  -0.110  1.00  0.00    -0.191 N 
ATOM     25  H4  UNL     1       1.717  -1.922  -0.171  1.00  0.00     0.184 HD
BRANCH  16  26
HETATM   26  N3  UNL     1      -2.686   0.409   0.138  1.00  0.00    -0.354 N 
HETATM   27  C8  UNL     1      -4.027   0.543   0.176  1.00  0.00     0.069 C 
ATOM     28  H3  UNL     1      -2.351   1.368   0.225  1.00  0.00     0.166 HD
BRANCH  27  29
HETATM   29  C9  UNL     1      -4.546   1.973   0.387  1.00  0.00     0.048 C 
HETATM   30  C10 UNL     1      -6.059   1.868   0.395  1.00  0.00     0.014 C 
HETATM   31  C11 UNL     1      -6.629   3.262   0.362  1.00  0.00     0.027 C 
HETATM   32  C12 UNL     1      -5.596   4.316   0.103  1.00  0.00     0.167 C 
HETATM   33  O1  UNL     1      -4.716   4.010  -0.899  1.00  0.00    -0.390 OA
HETATM   34  C13 UNL     1      -4.151   2.765  -0.829  1.00  0.00     0.177 C 
ENDBRANCH  27  29
ENDBRANCH  16  26
BRANCH  21  35
HETATM   35  O2  UNL     1      -3.748  -4.534  -0.316  1.00  0.00    -0.353 OA
HETATM   36  C17 UNL     1      -4.999  -3.894  -0.230  1.00  0.00     0.210 C 
ENDBRANCH  21  35
BRANCH  22  37
HETATM   37  O3  UNL     1      -1.209  -5.768  -0.483  1.00  0.00    -0.353 OA
HETATM   38  C19 UNL     1       0.053  -6.383  -0.566  1.00  0.00     0.210 C 
ENDBRANCH  22  37
ENDBRANCH  12  14
ENDBRANCH  11  12
ENDBRANCH   4  11
BRANCH   7  39
HETATM   39  C24 UNL     1       7.662   0.585  -1.151  1.00  0.00     0.187 C 
HETATM   40  N6  UNL     1       8.399   1.319  -2.112  1.00  0.00    -0.070 NA
HETATM   41  S1  UNL     1       8.494  -0.558  -0.310  1.00  0.00    -0.044 SA
ENDBRANCH   7  39
ENDBRANCH   3   4
TORSDOF 9
