REMARK  7 active torsions:
REMARK  status: ('A' for Active; 'I' for Inactive)
REMARK    1  A    between atoms: C10_13  and  C11_14 
REMARK    2  A    between atoms: C14_19  and  O5_20 
REMARK    3  A    between atoms: O5_20  and  C15_21 
REMARK    4  A    between atoms: C15_21  and  C16_22 
REMARK    5  A    between atoms: C16_22  and  O6_23 
REMARK    6  A    between atoms: C17_25  and  N1_26 
REMARK       I    between atoms: N1_26  and  C18_28 
REMARK    7  A    between atoms: C18_28  and  C19_30 
ROOT
HETATM    1  C1  UNL     1       2.224  -2.368   1.506  1.00  0.00     0.026 C 
HETATM    2  C2  UNL     1       2.322  -2.575   0.225  1.00  0.00     0.023 C 
HETATM    3  C3  UNL     1       2.917  -3.828  -0.305  1.00  0.00     0.289 C 
HETATM    4  O1  UNL     1       3.193  -4.891   0.333  1.00  0.00    -0.260 OA
HETATM    5  O2  UNL     1       3.119  -3.596  -1.673  1.00  0.00    -0.316 OA
HETATM    6  C4  UNL     1       2.025  -2.798  -2.044  1.00  0.00     0.198 C 
HETATM    7  C5  UNL     1       1.900  -1.720  -0.939  1.00  0.00     0.041 C 
HETATM    8  C6  UNL     1       2.981  -0.779  -1.260  1.00  0.00     0.004 C 
HETATM    9  C7  UNL     1       3.021  -0.332  -2.707  1.00  0.00     0.011 C 
HETATM   10  C8  UNL     1       3.179   0.398  -0.359  1.00  0.00     0.040 C 
HETATM   11  C9  UNL     1       2.270   1.553  -0.675  1.00  0.00     0.154 C 
HETATM   12  O3  UNL     1       2.609   2.583   0.224  1.00  0.00    -0.352 OA
HETATM   13  C10 UNL     1       1.888   2.386   1.375  1.00  0.00     0.274 C 
HETATM   14  O4  UNL     1       1.185   1.179   1.221  1.00  0.00    -0.352 OA
HETATM   15  C12 UNL     1       0.912   1.182  -0.099  1.00  0.00     0.164 C 
HETATM   16  C13 UNL     1       0.186   0.152  -0.781  1.00  0.00     0.079 C 
HETATM   17  C14 UNL     1      -1.291   0.245  -0.274  1.00  0.00     0.159 C 
HETATM   18  C17 UNL     1      -1.498  -0.397   1.034  1.00  0.00     0.143 C 
HETATM   19  C20 UNL     1      -1.176  -1.840   0.917  1.00  0.00    -0.059 C 
HETATM   20  C21 UNL     1      -1.768  -2.929   1.749  1.00  0.00     0.046 C 
HETATM   21  C22 UNL     1      -0.257  -2.168   0.027  1.00  0.00     0.009 C 
HETATM   22  C23 UNL     1       0.497  -1.251  -0.871  1.00  0.00    -0.054 C 
ENDROOT
BRANCH  17  23
HETATM   23  O5  UNL     1      -1.597   1.583  -0.218  1.00  0.00    -0.381 OA
BRANCH  23  24
HETATM   24  C15 UNL     1      -2.485   1.966  -1.223  1.00  0.00     0.194 C 
BRANCH  24  25
HETATM   25  C16 UNL     1      -2.688   3.457  -1.077  1.00  0.00     0.190 C 
BRANCH  25  26
HETATM   26  O6  UNL     1      -3.554   3.938  -2.036  1.00  0.00    -0.399 OA
ATOM     27  H6  UNL     1      -3.682   4.875  -1.944  1.00  0.00     0.209 HD
ENDBRANCH  25  26
ENDBRANCH  24  25
ENDBRANCH  23  24
ENDBRANCH  17  23
BRANCH  18  28
HETATM   28  N1  UNL     1      -2.748  -0.005   1.561  1.00  0.00    -0.350 N 
HETATM   29  C18 UNL     1      -4.017  -0.528   1.568  1.00  0.00     0.228 C 
HETATM   30  O7  UNL     1      -4.310  -1.586   0.992  1.00  0.00    -0.273 OA
ATOM     31  H1  UNL     1      -2.695   0.884   2.058  1.00  0.00     0.163 HD
BRANCH  29  32
HETATM   32  C19 UNL     1      -5.125   0.156   2.286  1.00  0.00     0.187 C 
HETATM   33 BR1  UNL     1      -5.127   2.016   1.783  1.00  0.00    -0.087 Br
ENDBRANCH  29  32
ENDBRANCH  18  28
BRANCH  13  34
HETATM   34  C11 UNL     1       0.974   3.501   1.764  1.00  0.00     0.175 C 
HETATM   35 CL1  UNL     1       1.864   4.993   2.026  1.00  0.00    -0.125 Cl
ENDBRANCH  13  34
TORSDOF 7
