REMARK  9 active torsions:
REMARK  status: ('A' for Active; 'I' for Inactive)
REMARK    1  A    between atoms: C1_2  and  C2_3 
REMARK       I    between atoms: C1_2  and  N1_10 
REMARK    2  A    between atoms: C2_3  and  C3_4 
REMARK    3  A    between atoms: N1_10  and  C7_12 
REMARK    4  A    between atoms: C10_16  and  C11_17 
REMARK    5  A    between atoms: C11_17  and  C12_18 
REMARK    6  A    between atoms: C12_18  and  C13_19 
REMARK    7  A    between atoms: C13_19  and  C14_20 
REMARK    8  A    between atoms: C14_20  and  C15_21 
REMARK       I    between atoms: N4_27  and  C17_29 
REMARK    9  A    between atoms: C17_29  and  C18_31 
ROOT
HETATM    1  C7  UNL     1      -2.686   2.153   0.346  1.00  0.00     0.123 A 
HETATM    2  C8  UNL     1      -1.821   2.973   1.067  1.00  0.00     0.071 A 
HETATM    3  C9  UNL     1      -0.633   2.526   1.598  1.00  0.00     0.038 A 
HETATM    4 BR1  UNL     1       0.476   3.737   2.570  1.00  0.00    -0.049 Br
HETATM    5  C10 UNL     1      -0.303   1.203   1.397  1.00  0.00     0.043 A 
HETATM    6  N5  UNL     1      -1.160   0.443   0.697  1.00  0.00    -0.302 N 
ATOM      7  H5  UNL     1      -0.915  -0.536   0.547  1.00  0.00     0.186 HD
HETATM    8  N6  UNL     1      -2.296   0.877   0.191  1.00  0.00    -0.285 N 
ATOM      9  H6  UNL     1      -2.891   0.232  -0.329  1.00  0.00     0.188 HD
ENDROOT
BRANCH   5  10
HETATM   10  C11 UNL     1       0.956   0.697   1.953  1.00  0.00     0.060 C 
BRANCH  10  11
HETATM   11  C12 UNL     1       2.184   1.085   1.198  1.00  0.00     0.006 C 
BRANCH  11  12
HETATM   12  C13 UNL     1       2.179   0.585  -0.227  1.00  0.00     0.007 C 
BRANCH  12  13
HETATM   13  C14 UNL     1       2.109  -0.918  -0.323  1.00  0.00     0.066 C 
BRANCH  13  14
HETATM   14  C15 UNL     1       3.297  -1.556   0.354  1.00  0.00     0.069 A 
HETATM   15  N2  UNL     1       3.451  -1.948   1.609  1.00  0.00    -0.296 N 
HETATM   16  N3  UNL     1       4.539  -2.469   1.991  1.00  0.00    -0.279 N 
ATOM     17  H2  UNL     1       2.686  -1.829   2.274  1.00  0.00     0.187 HD
HETATM   18  C16 UNL     1       5.527  -2.614   1.104  1.00  0.00     0.168 A 
ATOM     19  H3  UNL     1       4.659  -2.772   2.957  1.00  0.00     0.189 HD
HETATM   20  N4  UNL     1       6.723  -3.124   1.289  1.00  0.00    -0.297 N 
HETATM   21  S1  UNL     1       4.818  -1.966  -0.311  1.00  0.00    -0.038 SA
HETATM   22  C17 UNL     1       7.638  -3.188   0.204  1.00  0.00     0.324 C 
ATOM     23  H4  UNL     1       6.994  -3.473   2.208  1.00  0.00     0.171 HD
HETATM   24  O3  UNL     1       8.031  -4.317  -0.186  1.00  0.00    -0.260 OA
BRANCH  22  25
HETATM   25  C18 UNL     1       8.118  -1.971  -0.455  1.00  0.00     0.270 C 
HETATM   26  O4  UNL     1       7.763  -0.836  -0.113  1.00  0.00    -0.640 OA
HETATM   27  O5  UNL     1       9.013  -2.078  -1.512  1.00  0.00    -0.640 OA
ENDBRANCH  22  25
ENDBRANCH  13  14
ENDBRANCH  12  13
ENDBRANCH  11  12
ENDBRANCH  10  11
ENDBRANCH   5  10
BRANCH   1  28
HETATM   28  N1  UNL     1      -3.795   2.610  -0.131  1.00  0.00    -0.312 N 
HETATM   29  C1  UNL     1      -4.709   1.822  -0.870  1.00  0.00     0.229 C 
HETATM   30  O1  UNL     1      -4.451   1.620  -2.087  1.00  0.00    -0.273 OA
ATOM     31  H1  UNL     1      -4.024   3.590   0.033  1.00  0.00     0.170 HD
BRANCH  29  32
HETATM   32  C2  UNL     1      -5.930   1.241  -0.276  1.00  0.00     0.168 C 
BRANCH  32  33
HETATM   33  C3  UNL     1      -6.687   0.478  -1.303  1.00  0.00     0.063 A 
HETATM   34  C4  UNL     1      -7.666   0.992  -2.127  1.00  0.00     0.059 A 
HETATM   35  C5  UNL     1      -8.116  -0.045  -2.934  1.00  0.00     0.058 A 
HETATM   36 CL1  UNL     1      -9.335  -0.026  -4.167  1.00  0.00    -0.082 Cl
HETATM   37  C6  UNL     1      -7.384  -1.142  -2.559  1.00  0.00     0.166 A 
HETATM   38  O2  UNL     1      -6.561  -0.788  -1.602  1.00  0.00    -0.325 OA
ENDBRANCH  32  33
ENDBRANCH  29  32
ENDBRANCH   1  28
TORSDOF 9
