REMARK  3 active torsions:
REMARK  status: ('A' for Active; 'I' for Inactive)
REMARK    1  A    between atoms: N1_1  and  C1_4 
REMARK    2  A    between atoms: C7_18  and  C8_19 
REMARK    3  A    between atoms: C8_19  and  C9_20 
ROOT
HETATM    1  C1  UNL     1       1.735   1.850  -0.447  1.00  0.00     0.130 A 
HETATM    2  N2  UNL     1       3.027   1.847  -0.057  1.00  0.00    -0.325 N 
ATOM      3  H2  UNL     1       3.559   2.717  -0.035  1.00  0.00     0.169 HD
HETATM    4  C2  UNL     1       3.609   0.689   0.302  1.00  0.00     0.137 A 
HETATM    5  N3  UNL     1       4.875   0.427   0.725  1.00  0.00    -0.337 N 
ATOM      6  H3  UNL     1       5.637   1.094   0.848  1.00  0.00     0.168 HD
HETATM    7  C3  UNL     1       4.908  -0.899   0.946  1.00  0.00     0.182 A 
HETATM    8  N4  UNL     1       3.711  -1.450   0.673  1.00  0.00    -0.347 N 
ATOM      9  H4  UNL     1       3.477  -2.439   0.760  1.00  0.00     0.167 HD
HETATM   10  C4  UNL     1       2.872  -0.473   0.265  1.00  0.00     0.107 A 
HETATM   11  C5  UNL     1       1.550  -0.506  -0.128  1.00  0.00     0.093 A 
HETATM   12  N5  UNL     1       0.826  -1.649  -0.164  1.00  0.00    -0.360 N 
ATOM     13  H5  UNL     1       1.265  -2.529   0.109  1.00  0.00     0.165 HD
HETATM   14  C6  UNL     1      -0.469  -1.646  -0.555  1.00  0.00     0.113 A 
HETATM   15  C7  UNL     1      -1.052  -0.452  -0.920  1.00  0.00     0.029 A 
HETATM   16  N8  UNL     1      -0.311   0.683  -0.878  1.00  0.00    -0.353 N 
ATOM     17  H8  UNL     1      -0.749   1.563  -1.150  1.00  0.00     0.166 HD
HETATM   18  C12 UNL     1       0.977   0.696  -0.492  1.00  0.00     0.106 A 
ENDROOT
BRANCH  15  19
HETATM   19  C8  UNL     1      -2.471  -0.376  -1.360  1.00  0.00     0.100 C 
BRANCH  19  20
HETATM   20  C9  UNL     1      -3.370  -0.140  -0.204  1.00  0.00    -0.019 A 
HETATM   21  C10 UNL     1      -3.767   1.071   0.296  1.00  0.00     0.116 A 
HETATM   22  N6  UNL     1      -4.575   0.830   1.340  1.00  0.00    -0.312 N 
HETATM   23  N7  UNL     1      -4.684  -0.476   1.493  1.00  0.00    -0.312 N 
ATOM     24  H6  UNL     1      -5.029   1.537   1.918  1.00  0.00     0.186 HD
HETATM   25  C11 UNL     1      -3.957  -1.115   0.563  1.00  0.00     0.116 A 
ATOM     26  H7  UNL     1      -5.241  -0.934   2.214  1.00  0.00     0.186 HD
ENDBRANCH  19  20
ENDBRANCH  15  19
BRANCH   1  27
HETATM   27  N1  UNL     1       1.168   2.946  -0.792  1.00  0.00    -0.384 N 
ATOM     28  H12 UNL     1       1.728   3.798  -0.759  1.00  0.00     0.157 HD
ATOM     29  H11 UNL     1       0.192   2.948  -1.087  1.00  0.00     0.157 HD
ENDBRANCH   1  27
TORSDOF 3
