REMARK  6 active torsions:
REMARK  status: ('A' for Active; 'I' for Inactive)
REMARK    1  A    between atoms: N1_2  and  C3_4 
REMARK    2  A    between atoms: C3_4  and  C4_5 
REMARK    3  A    between atoms: C9_10  and  N2_11 
REMARK    4  A    between atoms: C11_13  and  C12_14 
REMARK    5  A    between atoms: C14_18  and  N4_19 
REMARK    6  A    between atoms: C15_24  and  N6_25 
ROOT
HETATM    1  N2  UNL     1      -0.288  -1.760  -0.185  1.00  0.00    -0.267 N 
HETATM    2  C10 UNL     1       0.583  -0.874   0.322  1.00  0.00     0.130 A 
HETATM    3  C11 UNL     1       1.584  -0.615  -0.585  1.00  0.00     0.014 A 
HETATM    4  C16 UNL     1       1.295  -1.362  -1.647  1.00  0.00     0.121 A 
HETATM    5  N7  UNL     1       0.154  -2.067  -1.427  1.00  0.00    -0.304 N 
ATOM      6  H7  UNL     1      -0.290  -2.712  -2.081  1.00  0.00     0.186 HD
ENDROOT
BRANCH   3   7
HETATM    7  C12 UNL     1       2.652   0.341  -0.257  1.00  0.00     0.037 A 
HETATM    8  C13 UNL     1       2.324   1.511   0.391  1.00  0.00     0.122 A 
HETATM    9  N3  UNL     1       3.227   2.467   0.734  1.00  0.00    -0.201 N 
HETATM   10  C14 UNL     1       4.506   2.287   0.436  1.00  0.00     0.677 A 
ATOM     11  H3  UNL     1       2.924   3.314   1.215  1.00  0.00     0.183 HD
HETATM   12  N5  UNL     1       4.890   1.170  -0.197  1.00  0.00    -0.176 N 
HETATM   13  C15 UNL     1       3.978   0.189  -0.550  1.00  0.00     0.127 A 
ATOM     14  H5  UNL     1       5.876   1.039  -0.424  1.00  0.00     0.186 HD
BRANCH  10  15
HETATM   15  N4  UNL     1       5.424   3.171   0.724  1.00  0.00    -0.234 N 
ATOM     16  H42 UNL     1       5.132   4.021   1.206  1.00  0.00     0.174 HD
ATOM     17  H41 UNL     1       6.408   3.032   0.495  1.00  0.00     0.174 HD
ENDBRANCH  10  15
BRANCH  13  18
HETATM   18  N6  UNL     1       4.394  -0.819  -1.113  1.00  0.00    -0.384 N 
ATOM     19  H62 UNL     1       3.722  -1.541  -1.373  1.00  0.00     0.157 HD
ATOM     20  H61 UNL     1       5.384  -0.932  -1.332  1.00  0.00     0.157 HD
ENDBRANCH  13  18
ENDBRANCH   3   7
BRANCH   1  21
HETATM   21  C9  UNL     1      -1.473  -2.152   0.444  1.00  0.00     0.063 A 
HETATM   22  C4  UNL     1      -2.534  -1.274   0.216  1.00  0.00    -0.012 A 
HETATM   23  C5  UNL     1      -3.790  -1.441   0.802  1.00  0.00     0.011 A 
HETATM   24  C6  UNL     1      -4.006  -2.513   1.641  1.00  0.00     0.001 A 
HETATM   25  C7  UNL     1      -2.954  -3.376   1.866  1.00  0.00     0.002 A 
HETATM   26  C8  UNL     1      -1.684  -3.221   1.284  1.00  0.00     0.032 A 
BRANCH  22  27
HETATM   27  C3  UNL     1      -2.359  -0.216  -0.824  1.00  0.00     0.156 C 
BRANCH  27  28
HETATM   28  N1  UNL     1      -2.083   1.081  -0.336  1.00  0.00    -0.417 N 
HETATM   29  C1  UNL     1      -2.774   1.699   0.676  1.00  0.00     0.142 C 
HETATM   30  C2  UNL     1      -1.725   1.977  -1.404  1.00  0.00     0.142 C 
ENDBRANCH  27  28
ENDBRANCH  22  27
ENDBRANCH   1  21
TORSDOF 6
