REMARK  2 active torsions:
REMARK  status: ('A' for Active; 'I' for Inactive)
REMARK    1  A    between atoms: C1_2  and  C2_4 
REMARK    2  A    between atoms: C4_8  and  N2_9 
ROOT
HETATM    1  C2  UNL     1       2.955   0.621  -0.515  1.00  0.00     0.100 A 
HETATM    2  C3  UNL     1       2.298   1.515   0.295  1.00  0.00     0.116 A 
HETATM    3  N1  UNL     1       1.025   1.351   0.455  1.00  0.00    -0.345 N 
ATOM      4  H1  UNL     1       0.502   1.994   1.049  1.00  0.00     0.167 HD
HETATM    5  C4  UNL     1       0.399   0.356  -0.146  1.00  0.00     0.148 A 
HETATM    6  S1  UNL     1       1.667  -0.409  -0.996  1.00  0.00    -0.046 SA
ENDROOT
BRANCH   5   7
HETATM    7  N2  UNL     1      -0.994   0.003  -0.100  1.00  0.00    -0.344 N 
HETATM    8  C5  UNL     1      -1.973   0.723   0.652  1.00  0.00     0.127 C 
HETATM    9  C6  UNL     1      -3.289  -0.026   0.416  1.00  0.00     0.023 C 
HETATM   10  C7  UNL     1      -2.773  -1.427   0.147  1.00  0.00     0.043 C 
HETATM   11  C8  UNL     1      -1.599  -1.106  -0.791  1.00  0.00     0.183 C 
HETATM   12 CL1  UNL     1      -0.530  -2.480  -0.998  1.00  0.00    -0.102 Cl
ENDBRANCH   5   7
BRANCH   1  13
HETATM   13  C1  UNL     1       4.384   0.575  -0.866  1.00  0.00     0.218 C 
HETATM   14  O1  UNL     1       5.122   1.456  -0.374  1.00  0.00    -0.643 OA
HETATM   15  O2  UNL     1       4.894  -0.396  -1.702  1.00  0.00    -0.643 OA
ENDBRANCH   1  13
TORSDOF 2
