REMARK  2 active torsions:
REMARK  status: ('A' for Active; 'I' for Inactive)
REMARK    1  A    between atoms: C2_2  and  N1_3 
REMARK    2  A    between atoms: C2_2  and  C3_7 
ROOT
HETATM    1  C3  UNL     1      -2.080   0.110  -0.454  1.00  0.00     0.020 A 
HETATM    2  C4  UNL     1      -1.628  -1.335  -0.262  1.00  0.00     0.013 A 
HETATM    3  C5  UNL     1      -0.443  -0.902   0.574  1.00  0.00     0.005 A 
HETATM    4  C6  UNL     1      -0.847   0.546   0.267  1.00  0.00    -0.003 A 
HETATM    5  C7  UNL     1       0.275   1.070  -0.641  1.00  0.00     0.013 C 
HETATM    6  C8  UNL     1       1.438   0.306  -0.105  1.00  0.00     0.019 C 
HETATM    7  C9  UNL     1       2.694   0.424  -0.871  1.00  0.00     0.129 C 
HETATM    8  N2  UNL     1       3.778  -0.117  -0.038  1.00  0.00    -0.370 N 
HETATM    9  C10 UNL     1       5.032   0.597   0.125  1.00  0.00     0.151 C 
HETATM   10  C11 UNL     1       3.650  -1.360   0.645  1.00  0.00     0.136 C 
HETATM   11  S1  UNL     1       4.980  -2.112   1.223  1.00  0.00    -0.053 SA
HETATM   12  S2  UNL     1       2.022  -2.114   0.878  1.00  0.00    -0.095 SA
HETATM   13  C12 UNL     1       0.873  -1.122  -0.112  1.00  0.00     0.065 C 
ENDROOT
BRANCH   1  14
HETATM   14  C2  UNL     1      -3.307   0.388   0.425  1.00  0.00     0.183 C 
HETATM   15  C1  UNL     1      -4.456  -0.501   0.089  1.00  0.00     0.040 C 
BRANCH  14  16
HETATM   16  N1  UNL     1      -3.704   1.766   0.137  1.00  0.00    -0.075 N 
ATOM     17  H13 UNL     1      -4.033   1.890  -0.821  1.00  0.00     0.274 HD
ATOM     18  H12 UNL     1      -4.565   2.037   0.613  1.00  0.00     0.274 HD
ATOM     19  H11 UNL     1      -2.918   2.374   0.367  1.00  0.00     0.274 HD
ENDBRANCH  14  16
ENDBRANCH   1  14
TORSDOF 2
