REMARK  6 active torsions:
REMARK  status: ('A' for Active; 'I' for Inactive)
REMARK    1  A    between atoms: C4_5  and  N2_6 
REMARK    2  A    between atoms: N2_6  and  C5_8 
REMARK    3  A    between atoms: C6_11  and  N4_12 
REMARK    4  A    between atoms: N4_12  and  C7_14 
REMARK    5  A    between atoms: C10_19  and  N6_20 
REMARK    6  A    between atoms: N6_20  and  C11_22 
ROOT
HETATM    1  C5  UNL     1      -1.000   0.050   0.401  1.00  0.00     0.707 A 
HETATM    2  N3  UNL     1      -1.677   1.185   0.498  1.00  0.00    -0.021 N 
ATOM      3  H3  UNL     1      -2.697   1.168   0.507  1.00  0.00     0.203 HD
HETATM    4  C6  UNL     1      -1.019   2.371   0.585  1.00  0.00     0.707 A 
HETATM    5  N5  UNL     1       0.335   2.376   0.571  1.00  0.00    -0.021 N 
ATOM      6  H5  UNL     1       0.824   3.268   0.637  1.00  0.00     0.203 HD
HETATM    7  C10 UNL     1       1.055   1.249   0.473  1.00  0.00     0.709 A 
HETATM    8  N9  UNL     1       0.380   0.098   0.390  1.00  0.00    -0.021 N 
ATOM      9  H9  UNL     1       0.902  -0.775   0.316  1.00  0.00     0.203 HD
ENDROOT
BRANCH   7  10
HETATM   10  N6  UNL     1       2.317   1.292   0.463  1.00  0.00    -0.187 N 
ATOM     11  H6  UNL     1       2.731   2.222   0.532  1.00  0.00     0.180 HD
BRANCH  10  12
HETATM   12  C11 UNL     1       3.234   0.212   0.368  1.00  0.00     0.391 C 
HETATM   13  N7  UNL     1       3.141  -0.490  -0.901  1.00  0.00    -0.043 N 
HETATM   14  C12 UNL     1       4.009  -1.621  -0.898  1.00  0.00     0.265 C 
ATOM     15  H72 UNL     1       2.180  -0.747  -1.126  1.00  0.00     0.280 HD
ATOM     16  H71 UNL     1       3.320   0.127  -1.693  1.00  0.00     0.280 HD
HETATM   17  C13 UNL     1       5.406  -1.381  -0.447  1.00  0.00     0.049 C 
HETATM   18  C14 UNL     1       5.646  -2.033   0.908  1.00  0.00     0.039 C 
HETATM   19  C15 UNL     1       6.443  -1.868  -1.440  1.00  0.00     0.039 C 
HETATM   20  N8  UNL     1       5.622   0.042  -0.270  1.00  0.00    -0.348 N 
HETATM   21  C16 UNL     1       4.613   0.761   0.422  1.00  0.00     0.269 C 
ATOM     22  H8  UNL     1       6.459   0.504  -0.626  1.00  0.00     0.163 HD
HETATM   23  O1  UNL     1       4.944   1.807   1.032  1.00  0.00    -0.269 OA
ENDBRANCH  10  12
ENDBRANCH   7  10
BRANCH   4  24
HETATM   24  N4  UNL     1      -1.722   3.450   0.677  1.00  0.00    -0.220 N 
ATOM     25  H4  UNL     1      -2.738   3.359   0.680  1.00  0.00     0.178 HD
BRANCH  24  26
HETATM   26  C7  UNL     1      -1.167   4.764   0.775  1.00  0.00     0.099 A 
HETATM   27  C8  UNL     1      -1.971   5.929   0.169  1.00  0.00     0.028 A 
HETATM   28  C9  UNL     1      -0.765   5.414  -0.538  1.00  0.00     0.028 A 
ENDBRANCH  24  26
ENDBRANCH   4  24
BRANCH   1  29
HETATM   29  N2  UNL     1      -1.595  -1.071   0.318  1.00  0.00    -0.220 N 
ATOM     30  H2  UNL     1      -1.014  -1.906   0.245  1.00  0.00     0.178 HD
BRANCH  29  31
HETATM   31  C4  UNL     1      -3.010  -1.255   0.319  1.00  0.00     0.102 C 
HETATM   32  C3  UNL     1      -3.273  -2.653   0.854  1.00  0.00     0.045 C 
HETATM   33  C2  UNL     1      -4.517  -3.265   0.302  1.00  0.00     0.118 C 
HETATM   34  N1  UNL     1      -5.457  -2.378  -0.264  1.00  0.00    -0.416 N 
HETATM   35  C1  UNL     1      -6.470  -1.882   0.603  1.00  0.00     0.143 C 
HETATM   36  C18 UNL     1      -4.967  -1.463  -1.236  1.00  0.00     0.118 C 
HETATM   37  C17 UNL     1      -3.526  -1.097  -1.087  1.00  0.00     0.045 C 
ENDBRANCH  29  31
ENDBRANCH   1  29
TORSDOF 6
