REMARK  3 active torsions:
REMARK  status: ('A' for Active; 'I' for Inactive)
REMARK       I    between atoms: C1_4  and  N3_6 
REMARK       I    between atoms: N5_14  and  C7_15 
REMARK    1  A    between atoms: C7_15  and  C8_17 
REMARK    2  A    between atoms: C8_17  and  C9_18 
REMARK    3  A    between atoms: C9_18  and  C10_19 
ROOT
HETATM    1  N1  UNL     1      -5.847  -1.559   0.500  1.00  0.00    -0.374 N 
ATOM      2  H11 UNL     1      -6.139  -1.159  -0.392  1.00  0.00     0.158 HD
ATOM      3  H12 UNL     1      -6.541  -1.925   1.151  1.00  0.00     0.158 HD
HETATM    4  C1  UNL     1      -4.592  -1.591   0.783  1.00  0.00     0.184 C 
HETATM    5  N2  UNL     1      -4.187  -2.145   2.019  1.00  0.00    -0.064 NA
HETATM    6  N3  UNL     1      -3.631  -1.084  -0.118  1.00  0.00    -0.354 N 
HETATM    7  C2  UNL     1      -2.699  -1.940  -0.766  1.00  0.00     0.127 C 
HETATM    8  C3  UNL     1      -1.382  -2.079  -0.029  1.00  0.00     0.039 C 
HETATM    9  C4  UNL     1      -0.563  -3.102  -0.739  1.00  0.00     0.115 C 
HETATM   10  N4  UNL     1       0.724  -2.673  -1.170  1.00  0.00    -0.420 N 
ATOM     11  H4  UNL     1       1.581  -3.101  -0.820  1.00  0.00     0.153 HD
HETATM   12  C5  UNL     1       0.743  -1.606  -2.123  1.00  0.00     0.133 C 
HETATM   13  C6  UNL     1       2.086  -0.903  -1.983  1.00  0.00     0.145 C 
HETATM   14  N5  UNL     1       2.013   0.195  -1.041  1.00  0.00    -0.347 N 
HETATM   15  C7  UNL     1       3.010   0.262  -0.035  1.00  0.00     0.220 C 
HETATM   16  O1  UNL     1       2.973   1.204   0.797  1.00  0.00    -0.273 OA
HETATM   17  C11 UNL     1       0.974   1.174  -1.123  1.00  0.00     0.153 C 
HETATM   18  C12 UNL     1       1.498   2.569  -0.998  1.00  0.00    -0.011 C 
HETATM   19  C13 UNL     1       0.693   3.592  -0.816  1.00  0.00    -0.029 C 
HETATM   20  C14 UNL     1      -0.793   3.459  -0.721  1.00  0.00     0.028 C 
HETATM   21  C15 UNL     1      -1.319   3.906   0.615  1.00  0.00     0.031 C 
HETATM   22  C16 UNL     1      -2.000   2.779   1.366  1.00  0.00     0.232 C 
HETATM   23  N7  UNL     1      -3.293   2.468   0.813  1.00  0.00    -0.074 N 
ATOM     24  H71 UNL     1      -3.351   2.772  -0.159  1.00  0.00     0.277 HD
ATOM     25  H72 UNL     1      -4.012   3.065   1.222  1.00  0.00     0.277 HD
HETATM   26  C17 UNL     1      -3.655   1.089   0.933  1.00  0.00     0.252 C 
HETATM   27  C18 UNL     1      -3.611   0.336  -0.373  1.00  0.00     0.152 C 
ENDROOT
BRANCH  15  28
HETATM   28  C8  UNL     1       4.104  -0.732   0.084  1.00  0.00     0.112 C 
BRANCH  28  29
HETATM   29  C9  UNL     1       5.022  -0.423   1.239  1.00  0.00     0.109 C 
BRANCH  29  30
HETATM   30  C10 UNL     1       6.094  -1.437   1.320  1.00  0.00     0.231 C 
HETATM   31  N6  UNL     1       7.092  -1.374   2.324  1.00  0.00    -0.062 NA
HETATM   32  O2  UNL     1       6.125  -2.373   0.488  1.00  0.00    -0.277 OA
ENDBRANCH  29  30
ENDBRANCH  28  29
ENDBRANCH  15  28
TORSDOF 3
