REMARK  2 active torsions:
REMARK  status: ('A' for Active; 'I' for Inactive)
REMARK    1  A    between atoms: C4_8  and  C5_9 
REMARK    2  A    between atoms: C6_10  and  O1_11 
ROOT
HETATM    1  C5  UNL     1      -1.327  -0.355  -0.388  1.00  0.00     0.085 A 
HETATM    2  C6  UNL     1      -1.805   0.935  -0.508  1.00  0.00     0.160 A 
HETATM    3  N3  UNL     1      -2.874   1.351   0.225  1.00  0.00    -0.288 N 
ATOM      4  H3  UNL     1      -3.212   2.308   0.123  1.00  0.00     0.172 HD
HETATM    5  C7  UNL     1      -3.491   0.515   1.083  1.00  0.00     0.329 A 
HETATM    6  O2  UNL     1      -4.491   0.876   1.780  1.00  0.00    -0.247 OA
HETATM    7  N4  UNL     1      -3.043  -0.750   1.217  1.00  0.00    -0.275 N 
ATOM      8  H4  UNL     1      -3.509  -1.385   1.865  1.00  0.00     0.173 HD
HETATM    9  C8  UNL     1      -1.981  -1.185   0.499  1.00  0.00     0.264 A 
HETATM   10  O3  UNL     1      -1.558  -2.372   0.623  1.00  0.00    -0.267 OA
ENDROOT
BRANCH   1  11
HETATM   11  C4  UNL     1      -0.174  -0.844  -1.162  1.00  0.00     0.056 C 
HETATM   12  C3  UNL     1       1.067  -0.592  -0.800  1.00  0.00     0.101 A 
HETATM   13  N2  UNL     1       2.166  -1.002  -1.454  1.00  0.00    -0.296 N 
HETATM   14  C9  UNL     1       1.531   0.119   0.284  1.00  0.00     0.227 A 
HETATM   15  N1  UNL     1       3.258  -0.571  -0.812  1.00  0.00    -0.297 N 
ATOM     16  H2  UNL     1       2.168  -1.557  -2.310  1.00  0.00     0.187 HD
HETATM   17  C2  UNL     1       2.911   0.132   0.276  1.00  0.00     0.091 A 
ATOM     18  H1  UNL     1       4.217  -0.751  -1.108  1.00  0.00     0.187 HD
HETATM   19  C1  UNL     1       3.739   0.701   1.133  1.00  0.00     0.049 C 
HETATM   20  O4  UNL     1       0.810   0.677   1.156  1.00  0.00    -0.283 OA
ENDBRANCH   1  11
BRANCH   2  21
HETATM   21  O1  UNL     1      -1.168   1.797  -1.394  1.00  0.00    -0.345 OA
ATOM     22  H1  UNL     1      -1.497   2.684  -1.477  1.00  0.00     0.219 HD
ENDBRANCH   2  21
TORSDOF 2
