REMARK  4 active torsions:
REMARK  status: ('A' for Active; 'I' for Inactive)
REMARK    1  A    between atoms: C2_2  and  C3_3 
REMARK    2  A    between atoms: C3_3  and  C4_4 
REMARK    3  A    between atoms: C4_4  and  N1_5 
REMARK    4  A    between atoms: C10_14  and  C11_15 
ROOT
HETATM    1  C4  UNL     1       3.088  -0.303   0.293  1.00  0.00     0.136 C 
HETATM    2  C5  UNL     1       2.258   0.755  -0.346  1.00  0.00     0.041 C 
HETATM    3  C6  UNL     1       0.985   1.088   0.392  1.00  0.00     0.028 C 
HETATM    4  C7  UNL     1      -0.013  -0.015   0.459  1.00  0.00     0.064 C 
HETATM    5  C8  UNL     1      -0.636  -0.344  -0.875  1.00  0.00     0.026 C 
HETATM    6  C9  UNL     1      -2.071  -0.828  -0.645  1.00  0.00     0.007 C 
HETATM    7  C10 UNL     1      -2.885   0.428  -0.356  1.00  0.00    -0.007 C 
HETATM    8  C15 UNL     1      -2.215   1.159   0.752  1.00  0.00     0.007 C 
HETATM    9  C16 UNL     1      -1.108   0.393   1.412  1.00  0.00     0.026 C 
HETATM   10  S1  UNL     1       0.776  -1.527   1.032  1.00  0.00     0.155 S 
HETATM   11  O1  UNL     1      -0.025  -2.732   0.633  1.00  0.00    -0.227 OA
HETATM   12  O2  UNL     1       0.911  -1.521   2.524  1.00  0.00    -0.227 OA
HETATM   13  C17 UNL     1       2.332  -1.618   0.215  1.00  0.00     0.179 C 
ENDROOT
BRANCH   1  14
HETATM   14  C3  UNL     1       4.349  -0.515  -0.509  1.00  0.00     0.039 C 
BRANCH  14  15
HETATM   15  C2  UNL     1       5.210   0.714  -0.478  1.00  0.00    -0.002 C 
HETATM   16  C1  UNL     1       6.499   0.485  -1.286  1.00  0.00     0.005 C 
ENDBRANCH  14  15
ENDBRANCH   1  14
BRANCH   1  17
HETATM   17  N1  UNL     1       3.492  -0.008   1.652  1.00  0.00    -0.070 N 
ATOM     18  H13 UNL     1       4.105  -0.719   2.051  1.00  0.00     0.275 HD
ATOM     19  H12 UNL     1       4.143   0.775   1.715  1.00  0.00     0.275 HD
ATOM     20  H11 UNL     1       2.640   0.135   2.194  1.00  0.00     0.275 HD
ENDBRANCH   1  17
BRANCH   7  21
HETATM   21  C11 UNL     1      -4.331   0.121  -0.119  1.00  0.00    -0.048 C 
HETATM   22  C12 UNL     1      -4.862  -0.548  -1.386  1.00  0.00     0.015 C 
HETATM   23  C13 UNL     1      -4.604  -0.778   1.026  1.00  0.00     0.015 C 
HETATM   24  C14 UNL     1      -5.071   1.425   0.023  1.00  0.00     0.015 C 
ENDBRANCH   7  21
TORSDOF 4
