REMARK  3 active torsions:
REMARK  status: ('A' for Active; 'I' for Inactive)
REMARK    1  A    between atoms: C3_3  and  O1_4 
REMARK    2  A    between atoms: C4_6  and  O2_7 
REMARK    3  A    between atoms: C13_18  and  C14_19 
ROOT
HETATM    1  C1  UNL     1      -0.133  -0.593  -2.180  1.00  0.00     0.019 C 
HETATM    2  C2  UNL     1      -0.251  -0.246  -0.709  1.00  0.00    -0.006 C 
HETATM    3  C3  UNL     1      -0.604  -1.421   0.117  1.00  0.00     0.155 C 
HETATM    4  C4  UNL     1      -2.034  -1.880  -0.100  1.00  0.00     0.148 C 
HETATM    5  C5  UNL     1      -2.953  -1.113   0.779  1.00  0.00     0.041 C 
HETATM    6  C6  UNL     1      -3.548  -0.038  -0.079  1.00  0.00     0.019 C 
HETATM    7  C7  UNL     1      -4.241   0.954   0.815  1.00  0.00     0.033 C 
HETATM    8  C8  UNL     1      -3.930   2.255   0.150  1.00  0.00     0.168 C 
HETATM    9  O3  UNL     1      -3.160   2.073  -0.950  1.00  0.00    -0.385 OA
HETATM   10  C9  UNL     1      -2.614   0.763  -0.864  1.00  0.00     0.130 C 
HETATM   11  C10 UNL     1      -1.225   0.907  -0.549  1.00  0.00     0.026 C 
HETATM   12  C11 UNL     1      -0.843   1.490   0.775  1.00  0.00     0.008 C 
HETATM   13  C12 UNL     1       0.590   0.999   1.062  1.00  0.00     0.006 C 
HETATM   14  C13 UNL     1       0.971   0.514  -0.307  1.00  0.00     0.001 C 
ENDROOT
BRANCH  14  15
HETATM   15  C14 UNL     1       2.321   0.092  -0.568  1.00  0.00    -0.010 C 
HETATM   16  C15 UNL     1       3.267   1.184  -0.007  1.00  0.00     0.005 C 
HETATM   17  C16 UNL     1       3.714   0.881   1.390  1.00  0.00     0.000 C 
HETATM   18  C17 UNL     1       4.821  -0.175   1.279  1.00  0.00     0.000 C 
HETATM   19  C18 UNL     1       4.409  -1.042   0.119  1.00  0.00     0.000 C 
HETATM   20  C19 UNL     1       2.864  -1.170   0.033  1.00  0.00     0.005 C 
ENDBRANCH  14  15
BRANCH   3  21
HETATM   21  O1  UNL     1       0.099  -2.561  -0.328  1.00  0.00    -0.392 OA
ATOM     22  H1  UNL     1      -0.128  -3.316   0.203  1.00  0.00     0.210 HD
ENDBRANCH   3  21
BRANCH   4  23
HETATM   23  O2  UNL     1      -2.087  -3.225   0.341  1.00  0.00    -0.393 OA
ATOM     24  H2  UNL     1      -2.982  -3.512   0.205  1.00  0.00     0.210 HD
ENDBRANCH   4  23
TORSDOF 3
