REMARK  7 active torsions:
REMARK  status: ('A' for Active; 'I' for Inactive)
REMARK    1  A    between atoms: C2_2  and  O1_3 
REMARK    2  A    between atoms: C2_2  and  C9_14 
REMARK    3  A    between atoms: O1_3  and  C3_4 
REMARK    4  A    between atoms: C3_4  and  C4_5 
REMARK    5  A    between atoms: C4_5  and  C5_6 
REMARK    6  A    between atoms: C11_18  and  N3_19 
REMARK    7  A    between atoms: C12_24  and  C13_25 
ROOT
HETATM    1  C9  UNL     1      -2.374   0.937  -0.806  1.00  0.00     0.011 A 
HETATM    2  C10 UNL     1      -2.688   2.172  -1.416  1.00  0.00     0.117 A 
HETATM    3  N2  UNL     1      -3.718   2.930  -1.053  1.00  0.00    -0.202 N 
ATOM      4  H2  UNL     1      -3.895   3.813  -1.532  1.00  0.00     0.183 HD
HETATM    5  C11 UNL     1      -4.518   2.537  -0.066  1.00  0.00     0.675 A 
HETATM    6  N4  UNL     1      -4.259   1.384   0.535  1.00  0.00    -0.193 N 
ATOM      7  H4  UNL     1      -4.876   1.090   1.292  1.00  0.00     0.184 HD
HETATM    8  C12 UNL     1      -3.204   0.554   0.200  1.00  0.00     0.059 A 
ENDROOT
BRANCH   1   9
HETATM    9  C2  UNL     1      -1.211   0.258  -1.284  1.00  0.00     0.153 C 
HETATM   10  C1  UNL     1      -1.014   0.703  -2.824  1.00  0.00     0.045 C 
BRANCH   9  11
HETATM   11  O1  UNL     1      -0.053   0.846  -0.693  1.00  0.00    -0.381 OA
BRANCH  11  12
HETATM   12  C3  UNL     1       1.033  -0.005  -0.612  1.00  0.00     0.170 C 
BRANCH  12  13
HETATM   13  C4  UNL     1       2.181   0.756   0.000  1.00  0.00     0.061 C 
BRANCH  13  14
HETATM   14  C5  UNL     1       3.391  -0.144   0.073  1.00  0.00     0.211 C 
HETATM   15  C6  UNL     1       4.570   0.607   0.671  1.00  0.00     0.200 C 
HETATM   16  O2  UNL     1       5.054  -0.092   1.742  1.00  0.00    -0.387 OA
HETATM   17  C7  UNL     1       5.483  -1.352   1.386  1.00  0.00     0.195 C 
HETATM   18  C8  UNL     1       4.358  -2.159   0.787  1.00  0.00     0.259 C 
HETATM   19  N1  UNL     1       3.151  -1.335   0.823  1.00  0.00    -0.067 N 
ATOM     20  H12 UNL     1       2.838  -1.142   1.774  1.00  0.00     0.277 HD
ATOM     21  H11 UNL     1       2.324  -1.839   0.503  1.00  0.00     0.277 HD
ENDBRANCH  13  14
ENDBRANCH  12  13
ENDBRANCH  11  12
ENDBRANCH   9  11
ENDBRANCH   1   9
BRANCH   8  22
HETATM   22  C13 UNL     1      -3.027  -0.714   0.904  1.00  0.00     0.073 C 
HETATM   23  C14 UNL     1      -1.773  -0.921   1.665  1.00  0.00     0.039 C 
HETATM   24  C15 UNL     1      -3.336  -1.906  -0.007  1.00  0.00     0.039 C 
HETATM   25 CL1  UNL     1      -4.329  -0.811   2.152  1.00  0.00    -0.113 Cl
ENDBRANCH   8  22
BRANCH   5  26
HETATM   26  N3  UNL     1      -5.529   3.225   0.328  1.00  0.00    -0.234 N 
ATOM     27  H32 UNL     1      -5.728   4.112  -0.134  1.00  0.00     0.174 HD
ATOM     28  H31 UNL     1      -6.143   2.924   1.085  1.00  0.00     0.174 HD
ENDBRANCH   5  26
TORSDOF 7
