REMARK  6 active torsions:
REMARK  status: ('A' for Active; 'I' for Inactive)
REMARK    1  A    between atoms: O1_2  and  C2_3 
REMARK    2  A    between atoms: C5_8  and  O4_9 
REMARK    3  A    between atoms: C6_11  and  O5_12 
REMARK    4  A    between atoms: C10_16  and  O6_17 
REMARK    5  A    between atoms: C15_24  and  C16_25 
REMARK    6  A    between atoms: C16_25  and  C17_26 
ROOT
HETATM    1  C2  UNL     1      -2.135  -0.667   1.564  1.00  0.00     0.265 C 
HETATM    2  O2  UNL     1      -0.761  -0.655   1.913  1.00  0.00    -0.358 OA
HETATM    3  C3  UNL     1      -0.134  -1.410   0.956  1.00  0.00     0.218 C 
HETATM    4  C4  UNL     1       0.234  -0.518  -0.196  1.00  0.00     0.177 A 
HETATM    5  O3  UNL     1       0.722  -1.281  -1.240  1.00  0.00    -0.328 OA
HETATM    6  C5  UNL     1      -0.409  -0.592  -1.404  1.00  0.00     0.227 A 
HETATM    7  C6  UNL     1      -1.823  -1.054  -1.289  1.00  0.00     0.187 C 
HETATM    8  C8  UNL     1      -2.568   0.161  -0.782  1.00  0.00     0.049 C 
HETATM    9  C9  UNL     1      -2.394   0.521   0.632  1.00  0.00     0.073 C 
HETATM   10  C10 UNL     1      -1.557   1.679   0.986  1.00  0.00     0.138 C 
HETATM   11  C11 UNL     1      -0.132   1.680   1.007  1.00  0.00     0.079 C 
HETATM   12  C12 UNL     1       0.398   3.007   0.612  1.00  0.00     0.015 C 
HETATM   13  C13 UNL     1       1.049   2.906  -0.511  1.00  0.00     0.040 C 
HETATM   14  C14 UNL     1       1.747   4.038  -1.257  1.00  0.00     0.076 C 
HETATM   15  O7  UNL     1       0.999   1.589  -0.919  1.00  0.00    -0.341 OA
HETATM   16  C15 UNL     1       0.725   0.767   0.235  1.00  0.00     0.118 C 
ENDROOT
BRANCH  16  17
HETATM   17  C16 UNL     1       2.134   0.647   0.820  1.00  0.00     0.070 C 
BRANCH  17  18
HETATM   18  C17 UNL     1       3.091   0.130  -0.160  1.00  0.00    -0.022 C 
HETATM   19  C18 UNL     1       3.868  -0.924  -0.057  1.00  0.00    -0.091 C 
HETATM   20  C19 UNL     1       3.914  -1.821   1.135  1.00  0.00     0.042 C 
HETATM   21  C20 UNL     1       4.808  -1.326  -1.172  1.00  0.00     0.042 C 
ENDBRANCH  17  18
ENDBRANCH  16  17
BRANCH   6  22
HETATM   22  O4  UNL     1      -0.313   0.411  -2.376  1.00  0.00    -0.361 OA
ATOM     23  H4  UNL     1      -0.759   0.360  -3.213  1.00  0.00     0.213 HD
ENDBRANCH   6  22
BRANCH  10  24
HETATM   24  O6  UNL     1      -2.029   2.760   0.186  1.00  0.00    -0.394 OA
ATOM     25  H6  UNL     1      -1.489   3.507   0.414  1.00  0.00     0.210 HD
ENDBRANCH  10  24
BRANCH   7  26
HETATM   26  O5  UNL     1      -2.290  -1.225  -2.618  1.00  0.00    -0.385 OA
HETATM   27  C7  UNL     1      -2.832  -2.500  -2.803  1.00  0.00     0.202 C 
ENDBRANCH   7  26
BRANCH   1  28
HETATM   28  O1  UNL     1      -2.786  -0.496   2.799  1.00  0.00    -0.366 OA
HETATM   29  C1  UNL     1      -3.617  -1.573   3.088  1.00  0.00     0.204 C 
ENDBRANCH   1  28
TORSDOF 6
