REMARK  4 active torsions:
REMARK  status: ('A' for Active; 'I' for Inactive)
REMARK    1  A    between atoms: C5_5  and  C6_6 
REMARK    2  A    between atoms: C6_6  and  C7_7 
REMARK    3  A    between atoms: C7_7  and  N1_8 
REMARK    4  A    between atoms: N3_15  and  N4_17 
ROOT
HETATM    1  N1  UNL     1       1.231  -0.059   1.668  1.00  0.00    -0.395 N 
ATOM      2  H1  UNL     1       1.209  -0.794   2.375  1.00  0.00     0.159 HD
HETATM    3  C8  UNL     1       2.256   0.021   0.906  1.00  0.00     0.007 C 
HETATM    4  C9  UNL     1       2.431   1.028  -0.161  1.00  0.00     0.173 C 
HETATM    5  N2  UNL     1       3.849   1.004  -0.458  1.00  0.00    -0.373 N 
ATOM      6  H2  UNL     1       4.348   1.732  -0.970  1.00  0.00     0.161 HD
HETATM    7  C10 UNL     1       4.447  -0.171   0.061  1.00  0.00     0.096 C 
HETATM    8  N3  UNL     1       5.628  -0.589  -0.162  1.00  0.00    -0.295 N 
ATOM      9  H3  UNL     1       5.932  -1.456   0.281  1.00  0.00     0.187 HD
HETATM   10  C11 UNL     1       3.451  -0.851   0.929  1.00  0.00     0.131 C 
ENDROOT
BRANCH   1  11
HETATM   11  C7  UNL     1       0.128   0.820   1.578  1.00  0.00     0.121 C 
BRANCH  11  12
HETATM   12  C6  UNL     1      -1.205   0.109   1.699  1.00  0.00     0.044 C 
BRANCH  12  13
HETATM   13  C5  UNL     1      -1.328  -0.915   0.577  1.00  0.00     0.078 C 
HETATM   14  C4  UNL     1      -2.641  -1.636   0.673  1.00  0.00     0.025 C 
HETATM   15  C3  UNL     1      -3.246  -1.878  -0.693  1.00  0.00     0.008 C 
HETATM   16  C2  UNL     1      -3.442  -0.531  -1.339  1.00  0.00    -0.001 C 
HETATM   17  C1  UNL     1      -4.555   0.229  -0.612  1.00  0.00     0.011 C 
HETATM   18  C12 UNL     1      -2.185   0.293  -1.333  1.00  0.00     0.118 C 
HETATM   19  N5  UNL     1      -1.069  -0.346  -0.707  1.00  0.00    -0.417 N 
ATOM     20  H5  UNL     1      -0.150  -0.392  -1.148  1.00  0.00     0.153 HD
ENDBRANCH  12  13
ENDBRANCH  11  12
ENDBRANCH   1  11
BRANCH   8  21
HETATM   21  N4  UNL     1       6.525   0.092  -0.989  1.00  0.00    -0.344 N 
ATOM     22  H42 UNL     1       6.204   0.957  -1.424  1.00  0.00     0.176 HD
ATOM     23  H41 UNL     1       7.472  -0.243  -1.168  1.00  0.00     0.176 HD
ENDBRANCH   8  21
TORSDOF 4
