REMARK  11 active torsions:
REMARK  status: ('A' for Active; 'I' for Inactive)
REMARK    1  A    between atoms: O1_2  and  C2_3 
REMARK    2  A    between atoms: C4_5  and  C5_6 
REMARK    3  A    between atoms: C5_6  and  O2_7 
REMARK    4  A    between atoms: C6_9  and  C7_10 
REMARK    5  A    between atoms: C7_10  and  C8_11 
REMARK    6  A    between atoms: C9_14  and  N2_15 
REMARK    7  A    between atoms: N2_15  and  C10_16 
REMARK    8  A    between atoms: C10_16  and  C13_19 
REMARK    9  A    between atoms: C13_19  and  O3_20 
REMARK   10  A    between atoms: C14_24  and  N4_25 
REMARK   11  A    between atoms: C18_32  and  O4_33 
ROOT
HETATM    1  C8  UNL     1      -0.075  -1.245   0.114  1.00  0.00     0.042 A 
HETATM    2  N1  UNL     1      -1.263  -0.872  -0.412  1.00  0.00    -0.318 N 
ATOM      3  H1  UNL     1      -1.319  -0.758  -1.424  1.00  0.00     0.170 HD
HETATM    4  C9  UNL     1      -2.374  -0.641   0.305  1.00  0.00     0.256 A 
HETATM    5  N3  UNL     1      -2.301  -0.788   1.670  1.00  0.00    -0.301 N 
ATOM      6  H3  UNL     1      -3.123  -0.609   2.246  1.00  0.00     0.171 HD
HETATM    7  C14 UNL     1      -1.173  -1.159   2.234  1.00  0.00     0.125 A 
HETATM    8  C15 UNL     1      -0.033  -1.396   1.452  1.00  0.00     0.111 A 
HETATM    9  C16 UNL     1       1.113  -1.913   2.216  1.00  0.00     0.105 C 
HETATM   10  N5  UNL     1       1.967  -2.336   2.834  1.00  0.00    -0.191 NA
ENDROOT
BRANCH   1  11
HETATM   11  C7  UNL     1       1.129  -1.452  -0.682  1.00  0.00     0.098 C 
BRANCH  11  12
HETATM   12  C6  UNL     1       2.228  -0.465  -0.536  1.00  0.00    -0.041 A 
HETATM   13  C4  UNL     1       2.167   0.819  -0.962  1.00  0.00    -0.025 A 
HETATM   14  C3  UNL     1       3.312   1.632  -0.824  1.00  0.00     0.049 A 
HETATM   15  C2  UNL     1       4.473   1.174  -0.266  1.00  0.00     0.102 A 
HETATM   16  C18 UNL     1       4.493  -0.136   0.156  1.00  0.00     0.102 A 
HETATM   17  C17 UNL     1       3.404  -0.937   0.026  1.00  0.00     0.047 A 
BRANCH  13  18
HETATM   18  C5  UNL     1       0.886   1.432  -1.437  1.00  0.00     0.203 C 
BRANCH  18  19
HETATM   19  O2  UNL     1       0.877   1.522  -2.874  1.00  0.00    -0.396 OA
ATOM     20  H2  UNL     1       0.064   1.911  -3.175  1.00  0.00     0.209 HD
ENDBRANCH  18  19
ENDBRANCH  13  18
BRANCH  15  21
HETATM   21  O1  UNL     1       5.622   1.952  -0.071  1.00  0.00    -0.353 OA
HETATM   22  C1  UNL     1       5.601   3.332  -0.468  1.00  0.00     0.210 C 
ENDBRANCH  15  21
BRANCH  16  23
HETATM   23  O4  UNL     1       5.676  -0.644   0.728  1.00  0.00    -0.353 OA
HETATM   24  C19 UNL     1       5.708  -1.994   1.145  1.00  0.00     0.210 C 
ENDBRANCH  16  23
ENDBRANCH  11  12
ENDBRANCH   1  11
BRANCH   7  25
HETATM   25  N4  UNL     1      -1.133  -1.273   3.535  1.00  0.00    -0.384 N 
ATOM     26  H42 UNL     1      -1.962  -1.101   4.104  1.00  0.00     0.157 HD
ATOM     27  H41 UNL     1      -0.258  -1.561   3.973  1.00  0.00     0.157 HD
ENDBRANCH   7  25
BRANCH   4  28
HETATM   28  N2  UNL     1      -3.456  -0.350  -0.140  1.00  0.00    -0.402 NA
BRANCH  28  29
HETATM   29  C10 UNL     1      -4.703  -0.027  -0.465  1.00  0.00     0.110 C 
HETATM   30  C11 UNL     1      -5.639  -1.217  -0.668  1.00  0.00     0.056 C 
HETATM   31  C12 UNL     1      -4.769   0.735  -1.836  1.00  0.00     0.056 C 
BRANCH  29  32
HETATM   32  C13 UNL     1      -5.503   0.905   0.445  1.00  0.00     0.209 C 
BRANCH  32  33
HETATM   33  O3  UNL     1      -5.698   0.316   1.718  1.00  0.00    -0.397 OA
ATOM     34  H3  UNL     1      -6.195   0.895   2.284  1.00  0.00     0.209 HD
ENDBRANCH  32  33
ENDBRANCH  29  32
ENDBRANCH  28  29
ENDBRANCH   4  28
TORSDOF 11
