REMARK  7 active torsions:
REMARK  status: ('A' for Active; 'I' for Inactive)
REMARK    1  A    between atoms: C2_2  and  C3_3 
REMARK    2  A    between atoms: C3_3  and  N1_5 
REMARK       I    between atoms: N1_5  and  C5_7 
REMARK    3  A    between atoms: C5_7  and  C6_9 
REMARK    4  A    between atoms: C6_9  and  N2_10 
REMARK    5  A    between atoms: C6_9  and  C11_18 
REMARK       I    between atoms: N2_10  and  C7_12 
REMARK    6  A    between atoms: C7_12  and  C8_14 
REMARK    7  A    between atoms: C8_14  and  S1_16 
ROOT
HETATM    1  C6  UNL     1       0.491  -1.066  -0.382  1.00  0.00     0.234 C 
ENDROOT
BRANCH   1   2
HETATM    2  C5  UNL     1      -0.870  -1.489   0.085  1.00  0.00     0.247 C 
HETATM    3  N1  UNL     1      -2.034  -1.184  -0.668  1.00  0.00    -0.355 N 
ATOM      4  H1  UNL     1      -1.935  -0.667  -1.542  1.00  0.00     0.162 HD
HETATM    5  O1  UNL     1      -0.920  -2.122   1.168  1.00  0.00    -0.271 OA
BRANCH   3   6
HETATM    6  C3  UNL     1      -3.353  -1.582  -0.237  1.00  0.00     0.080 C 
HETATM    7  C4  UNL     1      -4.273  -0.418  -0.023  1.00  0.00     0.032 C 
BRANCH   6   8
HETATM    8  C2  UNL     1      -3.995  -2.560  -1.199  1.00  0.00     0.020 C 
HETATM    9  C1  UNL     1      -3.052  -3.745  -1.411  1.00  0.00     0.007 C 
ENDBRANCH   6   8
ENDBRANCH   3   6
ENDBRANCH   1   2
BRANCH   1  10
HETATM   10  N2  UNL     1       1.543  -1.417   0.508  1.00  0.00    -0.341 N 
HETATM   11  C7  UNL     1       1.644  -0.971   1.841  1.00  0.00     0.232 C 
HETATM   12  O2  UNL     1       0.796  -0.207   2.365  1.00  0.00    -0.272 OA
ATOM     13  H2  UNL     1       2.275  -2.034   0.157  1.00  0.00     0.163 HD
BRANCH  11  14
HETATM   14  C8  UNL     1       2.794  -1.402   2.703  1.00  0.00     0.134 C 
HETATM   15  C9  UNL     1       2.754  -2.919   2.784  1.00  0.00     0.031 C 
BRANCH  14  16
HETATM   16  S1  UNL     1       4.319  -0.976   1.778  1.00  0.00    -0.160 SA
HETATM   17  C10 UNL     1       4.471   0.822   1.628  1.00  0.00     0.090 C 
ENDBRANCH  14  16
ENDBRANCH  11  14
ENDBRANCH   1  10
BRANCH   1  18
HETATM   18  C11 UNL     1       0.509   0.363  -0.824  1.00  0.00     0.087 A 
HETATM   19  N3  UNL     1       0.695   1.465  -0.123  1.00  0.00    -0.336 N 
HETATM   20  C12 UNL     1       0.672   2.631  -0.714  1.00  0.00     0.142 A 
ATOM     21  H3  UNL     1       0.857   1.407   0.882  1.00  0.00     0.168 HD
HETATM   22  N4  UNL     1       0.851   3.846  -0.100  1.00  0.00    -0.322 N 
HETATM   23  C15 UNL     1       0.450   2.649  -2.062  1.00  0.00     0.123 A 
HETATM   24  C13 UNL     1       0.806   4.962  -0.807  1.00  0.00     0.170 A 
ATOM     25  H4  UNL     1       1.019   3.888   0.905  1.00  0.00     0.169 HD
HETATM   26  N5  UNL     1       0.979   6.094  -0.195  1.00  0.00    -0.381 N 
HETATM   27  C14 UNL     1       0.583   5.010  -2.171  1.00  0.00     0.290 A 
ATOM     28  H52 UNL     1       1.143   6.059   0.811  1.00  0.00     0.157 HD
ATOM     29  H51 UNL     1       0.944   6.955  -0.741  1.00  0.00     0.157 HD
HETATM   30  O3  UNL     1       0.544   6.080  -2.823  1.00  0.00    -0.264 OA
HETATM   31  N6  UNL     1       0.407   3.820  -2.771  1.00  0.00    -0.311 N 
ATOM     32  H6  UNL     1       0.238   3.788  -3.776  1.00  0.00     0.170 HD
HETATM   33  S2  UNL     1       0.287   0.981  -2.404  1.00  0.00    -0.052 SA
ENDBRANCH   1  18
TORSDOF 7
