REMARK  5 active torsions:
REMARK  status: ('A' for Active; 'I' for Inactive)
REMARK    1  A    between atoms: C1_2  and  N2_4 
REMARK    2  A    between atoms: N3_8  and  C5_9 
REMARK    3  A    between atoms: C5_9  and  O1_10 
REMARK    4  A    between atoms: C5_9  and  N4_12 
REMARK    5  A    between atoms: N5_16  and  C9_17 
ROOT
HETATM    1  C5  UNL     1       0.296   0.879   0.567  1.00  0.00     0.223 C 
ENDROOT
BRANCH   1   2
HETATM    2  N3  UNL     1      -1.061   0.781   0.363  1.00  0.00    -0.331 N 
HETATM    3  C4  UNL     1      -1.927   1.918   0.740  1.00  0.00     0.129 C 
HETATM    4  C3  UNL     1      -2.979   2.145  -0.329  1.00  0.00     0.040 C 
HETATM    5  C2  UNL     1      -3.874   0.952  -0.417  1.00  0.00     0.128 C 
HETATM    6  N2  UNL     1      -3.196  -0.236  -0.003  1.00  0.00    -0.344 N 
HETATM    7  C11 UNL     1      -1.750  -0.342  -0.191  1.00  0.00     0.254 C 
BRANCH   6   8
HETATM    8  C1  UNL     1      -3.933  -1.293   0.583  1.00  0.00     0.184 C 
HETATM    9  N1  UNL     1      -3.341  -2.504   1.021  1.00  0.00    -0.070 NA
HETATM   10  S1  UNL     1      -5.554  -1.164   0.790  1.00  0.00    -0.044 SA
ENDBRANCH   6   8
ENDBRANCH   1   2
BRANCH   1  11
HETATM   11  O1  UNL     1       0.672   2.017   1.096  1.00  0.00    -0.332 OA
ATOM     12  H1  UNL     1       1.609   2.085   1.237  1.00  0.00     0.221 HD
ENDBRANCH   1  11
BRANCH   1  13
HETATM   13  N4  UNL     1       1.372   0.009   0.326  1.00  0.00    -0.310 N 
HETATM   14  C6  UNL     1       1.227  -1.261  -0.241  1.00  0.00     0.071 C 
HETATM   15  C7  UNL     1       2.440  -2.015  -0.677  1.00  0.00     0.065 C 
HETATM   16  C8  UNL     1       3.760  -1.470  -0.283  1.00  0.00     0.131 C 
HETATM   17  N5  UNL     1       3.655  -0.030  -0.258  1.00  0.00    -0.349 N 
HETATM   18  C10 UNL     1       2.712   0.475   0.708  1.00  0.00     0.258 C 
BRANCH  17  19
HETATM   19  C9  UNL     1       4.390   0.853  -1.087  1.00  0.00     0.149 C 
HETATM   20  S2  UNL     1       5.459   0.297  -2.184  1.00  0.00    -0.052 SA
HETATM   21  S3  UNL     1       4.148   2.612  -0.935  1.00  0.00    -0.020 SA
ENDBRANCH  17  19
ENDBRANCH   1  13
TORSDOF 5
