REMARK  5 active torsions:
REMARK  status: ('A' for Active; 'I' for Inactive)
REMARK    1  A    between atoms: C4_4  and  C5_5 
REMARK       I    between atoms: C5_5  and  N1_7 
REMARK    2  A    between atoms: C11_13  and  C12_14 
REMARK    3  A    between atoms: C12_14  and  N2_15 
REMARK       I    between atoms: N2_15  and  C13_17 
REMARK    4  A    between atoms: C13_17  and  C14_19 
REMARK    5  A    between atoms: N4_31  and  C21_32 
ROOT
HETATM    1  C1  UNL     1      -4.105  -1.056  -2.518  1.00  0.00     0.014 C 
HETATM    2  C2  UNL     1      -3.813  -0.379  -1.577  1.00  0.00    -0.095 C 
HETATM    3  C3  UNL     1      -3.473   0.452  -0.447  1.00  0.00     0.169 C 
HETATM    4  C4  UNL     1      -2.475  -0.233   0.476  1.00  0.00     0.131 C 
HETATM    5  C19 UNL     1      -2.442   0.437   1.832  1.00  0.00     0.105 C 
HETATM    6  C20 UNL     1      -3.415  -0.130   2.818  1.00  0.00     0.034 C 
HETATM    7  N3  UNL     1      -2.579   1.902   1.730  1.00  0.00    -0.301 N 
ATOM      8  H3  UNL     1      -1.859   2.594   1.937  1.00  0.00     0.173 HD
HETATM    9  S1  UNL     1      -4.211   2.230   1.186  1.00  0.00     0.300 S 
HETATM   10  O3  UNL     1      -5.098   2.493   2.333  1.00  0.00    -0.188 OA
HETATM   11  O4  UNL     1      -4.096   3.394   0.235  1.00  0.00    -0.188 OA
HETATM   12  N4  UNL     1      -4.636   0.779   0.313  1.00  0.00    -0.173 NA
ENDROOT
BRANCH   4  13
HETATM   13  C5  UNL     1      -1.115  -0.162  -0.098  1.00  0.00     0.229 C 
HETATM   14  O1  UNL     1      -0.964   0.658  -1.069  1.00  0.00    -0.273 OA
HETATM   15  N1  UNL     1      -0.036  -0.935   0.379  1.00  0.00    -0.342 N 
HETATM   16  C6  UNL     1      -0.103  -1.899   1.428  1.00  0.00     0.127 C 
HETATM   17  C11 UNL     1       1.295  -0.711  -0.262  1.00  0.00     0.126 C 
HETATM   18  C7  UNL     1       0.290  -3.261   0.869  1.00  0.00     0.024 C 
HETATM   19  C8  UNL     1       1.624  -3.173   0.187  1.00  0.00    -0.015 C 
HETATM   20  C9  UNL     1       1.882  -4.442  -0.592  1.00  0.00     0.010 C 
HETATM   21  C10 UNL     1       1.669  -2.028  -0.803  1.00  0.00     0.035 C 
BRANCH  17  22
HETATM   22  C12 UNL     1       2.148   0.022   0.676  1.00  0.00     0.089 C 
BRANCH  22  23
HETATM   23  N2  UNL     1       3.448   0.406   0.320  1.00  0.00    -0.338 N 
HETATM   24  C13 UNL     1       4.600  -0.335   0.082  1.00  0.00     0.225 C 
HETATM   25  O2  UNL     1       4.739  -1.572   0.157  1.00  0.00    -0.273 OA
ATOM     26  H2  UNL     1       3.572   1.413   0.217  1.00  0.00     0.167 HD
BRANCH  24  27
HETATM   27  C14 UNL     1       5.866   0.393  -0.321  1.00  0.00     0.078 C 
HETATM   28  C15 UNL     1       6.314   1.361   0.729  1.00  0.00     0.014 C 
HETATM   29  C16 UNL     1       6.884   2.540  -0.036  1.00  0.00     0.001 C 
HETATM   30  C17 UNL     1       6.834   2.178  -1.496  1.00  0.00     0.001 C 
HETATM   31  C18 UNL     1       5.622   1.250  -1.540  1.00  0.00     0.014 C 
ENDBRANCH  24  27
ENDBRANCH  22  23
ENDBRANCH  17  22
ENDBRANCH   4  13
BRANCH  12  32
HETATM   32  C21 UNL     1      -5.833   0.947  -0.458  1.00  0.00     0.069 C 
HETATM   33  C22 UNL     1      -6.953   1.281   0.538  1.00  0.00     0.027 C 
HETATM   34  C23 UNL     1      -5.783   2.059  -1.451  1.00  0.00     0.027 C 
ENDBRANCH  12  32
TORSDOF 5
