REMARK  6 active torsions:
REMARK  status: ('A' for Active; 'I' for Inactive)
REMARK    1  A    between atoms: C3_6  and  N3_7 
REMARK    2  A    between atoms: N3_7  and  N4_9 
REMARK    3  A    between atoms: N4_9  and  C4_11 
REMARK    4  A    between atoms: C4_11  and  C5_12 
REMARK    5  A    between atoms: C5_12  and  O1_13 
REMARK    6  A    between atoms: O1_13  and  N5_14 
ROOT
HETATM    1  C1  UNL     1      -3.070  -2.396  -0.151  1.00  0.00     0.159 C 
HETATM    2  N1  UNL     1      -2.550  -1.022  -0.087  1.00  0.00    -0.320 N 
HETATM    3  C2  UNL     1      -1.260  -0.644  -0.037  1.00  0.00     0.153 A 
HETATM    4  N2  UNL     1       0.013  -1.119  -0.019  1.00  0.00    -0.173 N 
ATOM      5  H2  UNL     1       0.293  -2.099  -0.047  1.00  0.00     0.186 HD
HETATM    6  C3  UNL     1       0.834  -0.056   0.043  1.00  0.00     0.698 A 
HETATM    7  N6  UNL     1       0.134   1.092   0.065  1.00  0.00    -0.185 N 
ATOM      8  H6  UNL     1       0.502   2.042   0.110  1.00  0.00     0.184 HD
HETATM    9  C6  UNL     1      -1.162   0.715   0.015  1.00  0.00     0.113 A 
HETATM   10  C7  UNL     1      -2.456   1.223  -0.003  1.00  0.00     0.107 A 
HETATM   11  C8  UNL     1      -2.977   2.502   0.029  1.00  0.00     0.265 A 
HETATM   12  O2  UNL     1      -2.228   3.510   0.087  1.00  0.00    -0.267 OA
HETATM   13  N7  UNL     1      -4.305   2.706  -0.001  1.00  0.00    -0.275 N 
ATOM     14  H7  UNL     1      -4.696   3.648   0.022  1.00  0.00     0.173 HD
HETATM   15  C9  UNL     1      -5.099   1.621  -0.062  1.00  0.00     0.328 A 
HETATM   16  O3  UNL     1      -6.342   1.810  -0.090  1.00  0.00    -0.247 OA
HETATM   17  N8  UNL     1      -4.608   0.358  -0.094  1.00  0.00    -0.293 N 
ATOM     18  H8  UNL     1      -5.257  -0.427  -0.140  1.00  0.00     0.172 HD
HETATM   19  C10 UNL     1      -3.272   0.112  -0.066  1.00  0.00     0.131 A 
ENDROOT
BRANCH   6  20
HETATM   20  N3  UNL     1       2.120  -0.163   0.075  1.00  0.00    -0.136 N 
ATOM     21  H3  UNL     1       2.679   0.689   0.122  1.00  0.00     0.205 HD
BRANCH  20  22
HETATM   22  N4  UNL     1       2.777  -1.385   0.049  1.00  0.00    -0.320 N 
ATOM     23  H4  UNL     1       2.430  -2.156  -0.521  1.00  0.00     0.180 HD
BRANCH  22  24
HETATM   24  C4  UNL     1       3.974  -1.532   0.859  1.00  0.00     0.168 C 
BRANCH  24  25
HETATM   25  C5  UNL     1       5.015  -0.512   0.416  1.00  0.00     0.221 C 
BRANCH  25  26
HETATM   26  O1  UNL     1       4.557   0.776   0.552  1.00  0.00    -0.286 OA
BRANCH  26  27
HETATM   27  N5  UNL     1       5.520   1.632   0.145  1.00  0.00    -0.311 N 
ATOM     28  H52 UNL     1       6.436   1.351  -0.205  1.00  0.00     0.184 HD
ATOM     29  H51 UNL     1       5.180   2.588   0.246  1.00  0.00     0.184 HD
ENDBRANCH  26  27
ENDBRANCH  25  26
ENDBRANCH  24  25
ENDBRANCH  22  24
ENDBRANCH  20  22
ENDBRANCH   6  20
TORSDOF 6
