REMARK  9 active torsions:
REMARK  status: ('A' for Active; 'I' for Inactive)
REMARK    1  A    between atoms: N1_1  and  C1_4 
REMARK    2  A    between atoms: C4_12  and  N4_13 
REMARK    3  A    between atoms: N4_13  and  C5_15 
REMARK    4  A    between atoms: C5_15  and  N5_16 
REMARK    5  A    between atoms: N6_20  and  C6_21 
REMARK    6  A    between atoms: C6_21  and  C7_22 
REMARK    7  A    between atoms: C7_22  and  C8_23 
REMARK    8  A    between atoms: C8_23  and  C9_24 
REMARK    9  A    between atoms: C9_24  and  O2_25 
ROOT
HETATM    1  C1  UNL     1      -4.207  -2.040   0.061  1.00  0.00     0.679 A 
HETATM    2  N2  UNL     1      -4.634  -0.832   0.425  1.00  0.00    -0.154 N 
ATOM      3  H2  UNL     1      -5.605  -0.715   0.715  1.00  0.00     0.187 HD
HETATM    4  C2  UNL     1      -3.816   0.243   0.420  1.00  0.00     0.289 A 
HETATM    5  O1  UNL     1      -4.248   1.366   0.768  1.00  0.00    -0.265 OA
HETATM    6  C3  UNL     1      -2.501   0.082   0.025  1.00  0.00     0.150 A 
HETATM    7  N3  UNL     1      -1.645   1.140   0.006  1.00  0.00    -0.184 N 
ATOM      8  H3  UNL     1      -1.990   2.058   0.288  1.00  0.00     0.184 HD
HETATM    9  C4  UNL     1      -0.359   1.017  -0.372  1.00  0.00     0.685 A 
HETATM   10  N6  UNL     1       0.056  -0.210  -0.737  1.00  0.00    -0.146 N 
HETATM   11  C10 UNL     1      -0.747  -1.295  -0.738  1.00  0.00     0.291 A 
HETATM   12  O3  UNL     1      -0.316  -2.439  -1.090  1.00  0.00    -0.265 OA
HETATM   13  C11 UNL     1      -2.064  -1.172  -0.351  1.00  0.00     0.150 A 
HETATM   14  N7  UNL     1      -2.918  -2.212  -0.329  1.00  0.00    -0.184 N 
ATOM     15  H7  UNL     1      -2.594  -3.138  -0.608  1.00  0.00     0.184 HD
ENDROOT
BRANCH   9  16
HETATM   16  N4  UNL     1       0.451   2.028  -0.388  1.00  0.00    -0.202 N 
ATOM     17  H4  UNL     1       1.413   1.864  -0.686  1.00  0.00     0.179 HD
BRANCH  16  18
HETATM   18  C5  UNL     1       0.086   3.355  -0.016  1.00  0.00     0.368 C 
BRANCH  18  19
HETATM   19  N5  UNL     1      -0.568   3.978  -1.163  1.00  0.00    -0.063 N 
ATOM     20  H53 UNL     1       0.002   3.947  -2.008  1.00  0.00     0.276 HD
ATOM     21  H52 UNL     1      -1.357   3.434  -1.512  1.00  0.00     0.276 HD
ATOM     22  H51 UNL     1      -0.829   4.927  -0.897  1.00  0.00     0.276 HD
ENDBRANCH  18  19
ENDBRANCH  16  18
ENDBRANCH   9  16
BRANCH  10  23
HETATM   23  C6  UNL     1       1.450  -0.326  -1.144  1.00  0.00     0.151 C 
BRANCH  23  24
HETATM   24  C7  UNL     1       2.330  -0.644   0.055  1.00  0.00     0.023 C 
BRANCH  24  25
HETATM   25  C8  UNL     1       3.773  -0.762  -0.385  1.00  0.00     0.028 C 
BRANCH  25  26
HETATM   26  C9  UNL     1       4.633  -1.077   0.812  1.00  0.00     0.164 C 
BRANCH  26  27
HETATM   27  O2  UNL     1       5.963  -1.185   0.407  1.00  0.00    -0.401 OA
ATOM     28  H2  UNL     1       6.505  -1.384   1.161  1.00  0.00     0.209 HD
ENDBRANCH  26  27
ENDBRANCH  25  26
ENDBRANCH  24  25
ENDBRANCH  23  24
ENDBRANCH  10  23
BRANCH   1  29
HETATM   29  N1  UNL     1      -4.957  -3.090   0.052  1.00  0.00    -0.234 N 
ATOM     30  H12 UNL     1      -5.925  -2.961   0.345  1.00  0.00     0.174 HD
ATOM     31  H11 UNL     1      -4.630  -4.015  -0.227  1.00  0.00     0.174 HD
ENDBRANCH   1  29
TORSDOF 9
