REMARK  5 active torsions:
REMARK  status: ('A' for Active; 'I' for Inactive)
REMARK    1  A    between atoms: C5_8  and  N3_9 
REMARK    2  A    between atoms: N3_9  and  C6_11 
REMARK    3  A    between atoms: C6_11  and  C7_12 
REMARK    4  A    between atoms: C7_12  and  C8_13 
REMARK    5  A    between atoms: C8_13  and  N4_14 
REMARK       I    between atoms: N4_14  and  C9_16 
ROOT
HETATM    1  C1  UNL     1      -5.459   0.079   0.163  1.00  0.00     0.163 C 
HETATM    2  N1  UNL     1      -4.081   0.525   0.412  1.00  0.00    -0.287 N 
HETATM    3  C2  UNL     1      -3.686   1.673   0.991  1.00  0.00     0.330 A 
HETATM    4  O1  UNL     1      -4.442   2.581   1.426  1.00  0.00    -0.246 OA
HETATM    5  N2  UNL     1      -2.344   1.733   1.048  1.00  0.00    -0.297 N 
HETATM    6  C3  UNL     1      -1.534   2.823   1.607  1.00  0.00     0.161 C 
HETATM    7  C4  UNL     1      -1.858   0.613   0.502  1.00  0.00     0.128 A 
HETATM    8  C5  UNL     1      -0.551   0.160   0.306  1.00  0.00     0.148 A 
HETATM    9  N7  UNL     1      -0.426  -1.040  -0.287  1.00  0.00    -0.175 N 
ATOM     10  H7  UNL     1       0.510  -1.411  -0.451  1.00  0.00     0.186 HD
HETATM   11  C10 UNL     1      -1.500  -1.777  -0.676  1.00  0.00     0.679 A 
HETATM   12  N8  UNL     1      -1.360  -2.926  -1.246  1.00  0.00    -0.234 N 
ATOM     13  H81 UNL     1      -2.166  -3.479  -1.538  1.00  0.00     0.174 HD
ATOM     14  H82 UNL     1      -0.408  -3.263  -1.392  1.00  0.00     0.174 HD
HETATM   15  N9  UNL     1      -2.756  -1.332  -0.483  1.00  0.00    -0.174 N 
ATOM     16  H9  UNL     1      -3.554  -1.894  -0.780  1.00  0.00     0.186 HD
HETATM   17  C11 UNL     1      -2.948  -0.134   0.108  1.00  0.00     0.158 A 
ENDROOT
BRANCH   8  18
HETATM   18  N3  UNL     1       0.448   0.890   0.691  1.00  0.00    -0.374 N 
ATOM     19  H3  UNL     1       0.256   1.789   1.133  1.00  0.00     0.161 HD
BRANCH  18  20
HETATM   20  C6  UNL     1       1.843   0.475   0.517  1.00  0.00     0.123 C 
BRANCH  20  21
HETATM   21  C7  UNL     1       2.278   0.978  -0.810  1.00  0.00     0.039 C 
BRANCH  21  22
HETATM   22  C8  UNL     1       3.672   0.697  -1.226  1.00  0.00     0.123 C 
BRANCH  22  23
HETATM   23  N4  UNL     1       4.064  -0.666  -1.341  1.00  0.00    -0.365 N 
HETATM   24  C9  UNL     1       4.226  -1.573  -0.274  1.00  0.00     0.181 C 
HETATM   25  N5  UNL     1       4.905  -1.272   0.792  1.00  0.00    -0.374 N 
HETATM   26  N6  UNL     1       3.659  -2.874  -0.310  1.00  0.00    -0.064 NA
ATOM     27  H52 UNL     1       5.312  -0.337   0.818  1.00  0.00     0.158 HD
ATOM     28  H51 UNL     1       5.022  -1.928   1.564  1.00  0.00     0.158 HD
ATOM     29  H4  UNL     1       4.244  -1.019  -2.281  1.00  0.00     0.162 HD
ENDBRANCH  22  23
ENDBRANCH  21  22
ENDBRANCH  20  21
ENDBRANCH  18  20
ENDBRANCH   8  18
TORSDOF 5
