REMARK  9 active torsions:
REMARK  status: ('A' for Active; 'I' for Inactive)
REMARK    1  A    between atoms: C2_2  and  C3_3 
REMARK    2  A    between atoms: C3_3  and  C4_4 
REMARK    3  A    between atoms: C4_4  and  N1_5 
REMARK    4  A    between atoms: C4_4  and  C5_9 
REMARK    5  A    between atoms: C4_4  and  C11_18 
REMARK    6  A    between atoms: C5_9  and  C6_10 
REMARK    7  A    between atoms: N2_14  and  O1_15 
REMARK    8  A    between atoms: C11_18  and  N3_19 
REMARK    9  A    between atoms: C14_22  and  N4_23 
ROOT
HETATM    1  C4  UNL     1      -0.333   0.664  -0.636  1.00  0.00     0.143 C 
ENDROOT
BRANCH   1   2
HETATM    2  C3  UNL     1       0.537   1.873  -0.236  1.00  0.00     0.040 C 
BRANCH   2   3
HETATM    3  C2  UNL     1      -0.281   3.047   0.222  1.00  0.00    -0.002 C 
HETATM    4  C1  UNL     1       0.708   4.175   0.566  1.00  0.00     0.005 C 
ENDBRANCH   2   3
ENDBRANCH   1   2
BRANCH   1   5
HETATM    5  N1  UNL     1      -1.201   1.160  -1.777  1.00  0.00    -0.069 N 
ATOM      6  H13 UNL     1      -1.738   1.998  -1.552  1.00  0.00     0.275 HD
ATOM      7  H12 UNL     1      -0.673   1.562  -2.552  1.00  0.00     0.275 HD
ATOM      8  H11 UNL     1      -1.776   0.360  -2.042  1.00  0.00     0.275 HD
ENDBRANCH   1   5
BRANCH   1   9
HETATM    9  C5  UNL     1      -1.261   0.351   0.446  1.00  0.00     0.080 C 
BRANCH   9  10
HETATM   10  C6  UNL     1      -2.231  -0.745   0.246  1.00  0.00    -0.038 A 
HETATM   11  C7  UNL     1      -2.132  -2.031   0.702  1.00  0.00     0.010 A 
HETATM   12  C8  UNL     1      -3.088  -2.998   0.452  1.00  0.00     0.020 A 
HETATM   13  C9  UNL     1      -4.194  -2.635  -0.297  1.00  0.00     0.122 A 
HETATM   14  N2  UNL     1      -4.311  -1.368  -0.757  1.00  0.00    -0.247 N 
HETATM   15  C10 UNL     1      -3.382  -0.434  -0.512  1.00  0.00     0.129 A 
BRANCH  14  16
HETATM   16  O1  UNL     1      -5.447  -1.073  -1.502  1.00  0.00    -0.284 OA
ATOM     17  H1  UNL     1      -5.529  -0.183  -1.825  1.00  0.00     0.245 HD
ENDBRANCH  14  16
ENDBRANCH   9  10
ENDBRANCH   1   9
BRANCH   1  18
HETATM   18  C11 UNL     1       0.546  -0.333  -1.264  1.00  0.00     0.168 C 
BRANCH  18  19
HETATM   19  N3  UNL     1       1.670  -0.836  -0.543  1.00  0.00    -0.350 N 
HETATM   20  C12 UNL     1       1.698  -1.922   0.219  1.00  0.00     0.095 A 
HETATM   21  C13 UNL     1       2.835  -2.364   0.913  1.00  0.00     0.065 A 
HETATM   22  C14 UNL     1       3.985  -1.637   0.800  1.00  0.00     0.100 A 
HETATM   23  N5  UNL     1       3.964  -0.538   0.029  1.00  0.00    -0.339 N 
HETATM   24  C15 UNL     1       2.841  -0.151  -0.622  1.00  0.00     0.184 A 
ATOM     25  H5  UNL     1       4.813   0.018  -0.069  1.00  0.00     0.168 HD
BRANCH  22  26
HETATM   26  N4  UNL     1       5.055  -2.018   1.429  1.00  0.00    -0.385 N 
ATOM     27  H42 UNL     1       5.071  -2.853   2.015  1.00  0.00     0.157 HD
ATOM     28  H41 UNL     1       5.914  -1.475   1.345  1.00  0.00     0.157 HD
ENDBRANCH  22  26
ENDBRANCH  18  19
ENDBRANCH   1  18
TORSDOF 9
