REMARK  13 active torsions:
REMARK  status: ('A' for Active; 'I' for Inactive)
REMARK    1  A    between atoms: C7_7  and  C8_8 
REMARK    2  A    between atoms: C8_8  and  C9_9 
REMARK    3  A    between atoms: C9_9  and  C10_10 
REMARK    4  A    between atoms: C10_10  and  N1_11 
REMARK    5  A    between atoms: N1_11  and  C11_13 
REMARK    6  A    between atoms: C12_17  and  N3_18 
REMARK    7  A    between atoms: N3_18  and  C13_20 
REMARK    8  A    between atoms: C13_20  and  C14_21 
REMARK    9  A    between atoms: C14_21  and  C15_22 
REMARK   10  A    between atoms: C15_22  and  C16_23 
REMARK   11  A    between atoms: C16_23  and  C17_24 
REMARK   12  A    between atoms: C17_24  and  C18_25 
REMARK   13  A    between atoms: C18_25  and  C19_26 
ROOT
HETATM    1  C11 UNL     1      -1.061   0.768  -1.653  1.00  0.00     0.686 A 
HETATM    2  N2  UNL     1      -1.303   1.708  -2.569  1.00  0.00    -0.157 N 
ATOM      3  H2  UNL     1      -0.632   2.234  -3.128  1.00  0.00     0.193 HD
HETATM    4  S1  UNL     1      -2.980   1.817  -2.579  1.00  0.00     0.039 SA
HETATM    5  C12 UNL     1      -3.317   0.636  -1.393  1.00  0.00     0.176 A 
HETATM    6  N4  UNL     1      -2.101   0.219  -1.050  1.00  0.00    -0.169 N 
ATOM      7  H4  UNL     1      -1.975  -0.504  -0.342  1.00  0.00     0.186 HD
ENDROOT
BRANCH   1   8
HETATM    8  N1  UNL     1       0.214   0.447  -1.416  1.00  0.00    -0.225 N 
ATOM      9  H1  UNL     1       0.954   0.922  -1.933  1.00  0.00     0.177 HD
BRANCH   8  10
HETATM   10  C10 UNL     1       0.564  -0.562  -0.439  1.00  0.00     0.138 C 
BRANCH  10  11
HETATM   11  C9  UNL     1       1.986  -0.392   0.052  1.00  0.00     0.025 C 
BRANCH  11  12
HETATM   12  C8  UNL     1       2.997  -0.492  -1.069  1.00  0.00     0.041 C 
BRANCH  12  13
HETATM   13  C7  UNL     1       4.343  -0.315  -0.497  1.00  0.00    -0.051 A 
HETATM   14  C2  UNL     1       4.916  -1.366   0.180  1.00  0.00    -0.053 A 
HETATM   15  C1  UNL     1       4.231  -2.677   0.342  1.00  0.00     0.049 C 
HETATM   16  C3  UNL     1       6.165  -1.232   0.732  1.00  0.00     0.044 A 
HETATM   17  C4  UNL     1       6.852  -0.012   0.601  1.00  0.00     0.076 A 
HETATM   18  C5  UNL     1       6.291   1.046  -0.072  1.00  0.00    -0.021 A 
HETATM   19  O3  UNL     1       8.097   0.393   1.050  1.00  0.00    -0.340 OA
HETATM   20  C6  UNL     1       5.037   0.898  -0.622  1.00  0.00     0.017 A 
HETATM   21  C20 UNL     1       7.248   2.185  -0.047  1.00  0.00     0.079 C 
HETATM   22  C21 UNL     1       8.572   1.487   0.294  1.00  0.00     0.064 C 
HETATM   23  C22 UNL     1       9.489   2.386   1.056  1.00  0.00     0.046 C 
HETATM   24  C23 UNL     1       9.195   0.917  -0.968  1.00  0.00     0.046 C 
ENDBRANCH  12  13
ENDBRANCH  11  12
ENDBRANCH  10  11
ENDBRANCH   8  10
ENDBRANCH   1   8
BRANCH   5  25
HETATM   25  N3  UNL     1      -4.481   0.237  -0.931  1.00  0.00    -0.369 N 
ATOM     26  H3  UNL     1      -5.327   0.667  -1.306  1.00  0.00     0.161 HD
BRANCH  25  27
HETATM   27  C13 UNL     1      -4.616  -0.769   0.070  1.00  0.00     0.121 C 
BRANCH  27  28
HETATM   28  C14 UNL     1      -5.777  -1.711  -0.212  1.00  0.00     0.020 C 
BRANCH  28  29
HETATM   29  C15 UNL     1      -7.041  -0.810  -0.246  1.00  0.00     0.002 C 
BRANCH  29  30
HETATM   30  C16 UNL     1      -8.242  -1.623  -0.519  1.00  0.00     0.001 C 
BRANCH  30  31
HETATM   31  C17 UNL     1      -9.513  -0.875  -0.622  1.00  0.00     0.010 C 
BRANCH  31  32
HETATM   32  C18 UNL     1      -9.987  -0.079   0.516  1.00  0.00     0.113 C 
BRANCH  32  33
HETATM   33  C19 UNL     1      -9.290   1.136   0.917  1.00  0.00     0.172 C 
HETATM   34  O1  UNL     1      -8.509   1.826   0.225  1.00  0.00    -0.648 OA
HETATM   35  O2  UNL     1      -9.475   1.648   2.230  1.00  0.00    -0.648 OA
ENDBRANCH  32  33
ENDBRANCH  31  32
ENDBRANCH  30  31
ENDBRANCH  29  30
ENDBRANCH  28  29
ENDBRANCH  27  28
ENDBRANCH  25  27
ENDBRANCH   5  25
TORSDOF 13
