REMARK  5 active torsions:
REMARK  status: ('A' for Active; 'I' for Inactive)
REMARK       I    between atoms: N3_4  and  C2_6 
REMARK    1  A    between atoms: C2_6  and  C3_8 
REMARK    2  A    between atoms: C3_8  and  N4_9 
REMARK    3  A    between atoms: C5_11  and  C6_12 
REMARK    4  A    between atoms: C6_12  and  N5_13 
REMARK    5  A    between atoms: C6_12  and  N6_17 
ROOT
HETATM    1  N4  UNL     1      -0.171  -0.168  -1.037  1.00  0.00    -0.300 N 
HETATM    2  C4  UNL     1      -1.208   0.464  -0.444  1.00  0.00     0.113 A 
HETATM    3  C5  UNL     1      -2.390  -0.204  -0.116  1.00  0.00     0.083 A 
HETATM    4  C7  UNL     1      -2.497  -1.531  -0.403  1.00  0.00     0.260 A 
HETATM    5  O2  UNL     1      -3.561  -2.111  -0.101  1.00  0.00    -0.267 OA
HETATM    6  N7  UNL     1      -1.457  -2.143  -0.992  1.00  0.00    -0.275 N 
ATOM      7  H7  UNL     1      -1.525  -3.137  -1.212  1.00  0.00     0.173 HD
HETATM    8  C8  UNL     1      -0.314  -1.472  -1.303  1.00  0.00     0.329 A 
HETATM    9  O3  UNL     1       0.624  -2.080  -1.848  1.00  0.00    -0.246 OA
ENDROOT
BRANCH   3  10
HETATM   10  C6  UNL     1      -3.502   0.536   0.535  1.00  0.00     0.417 C 
BRANCH  10  11
HETATM   11  N5  UNL     1      -4.022  -0.260   1.622  1.00  0.00    -0.046 N 
ATOM     12  H53 UNL     1      -4.300  -1.194   1.321  1.00  0.00     0.277 HD
ATOM     13  H52 UNL     1      -3.297  -0.534   2.285  1.00  0.00     0.277 HD
ATOM     14  H51 UNL     1      -4.785   0.248   2.069  1.00  0.00     0.277 HD
ENDBRANCH  10  11
BRANCH  10  15
HETATM   15  N6  UNL     1      -3.042   1.807   1.060  1.00  0.00    -0.046 N 
ATOM     16  H63 UNL     1      -2.249   1.689   1.690  1.00  0.00     0.277 HD
ATOM     17  H62 UNL     1      -2.586   2.369   0.341  1.00  0.00     0.277 HD
ATOM     18  H61 UNL     1      -3.805   2.315   1.507  1.00  0.00     0.277 HD
ENDBRANCH  10  15
ENDBRANCH   3  10
BRANCH   1  19
HETATM   19  C3  UNL     1       1.004   0.623  -1.333  1.00  0.00     0.236 C 
BRANCH  19  20
HETATM   20  C2  UNL     1       1.974   0.612  -0.208  1.00  0.00     0.242 C 
HETATM   21  N3  UNL     1       3.070  -0.280  -0.163  1.00  0.00    -0.302 N 
HETATM   22  C1  UNL     1       4.121  -0.040   0.526  1.00  0.00     0.203 C 
ATOM     23  H3  UNL     1       3.021  -1.146  -0.699  1.00  0.00     0.171 HD
HETATM   24  N1  UNL     1       4.202   1.150   1.271  1.00  0.00    -0.066 NA
HETATM   25  N2  UNL     1       5.225  -0.938   0.568  1.00  0.00    -0.066 NA
HETATM   26  O1  UNL     1       1.733   1.466   0.698  1.00  0.00    -0.271 OA
ENDBRANCH  19  20
ENDBRANCH   1  19
TORSDOF 5
