REMARK  7 active torsions:
REMARK  status: ('A' for Active; 'I' for Inactive)
REMARK    1  A    between atoms: N1_1  and  C1_5 
REMARK    2  A    between atoms: C1_5  and  C2_6 
REMARK    3  A    between atoms: C2_6  and  N2_7 
REMARK    4  A    between atoms: C2_6  and  C3_11 
REMARK    5  A    between atoms: C3_11  and  O1_12 
REMARK    6  A    between atoms: C3_11  and  C4_14 
REMARK       I    between atoms: C4_14  and  N3_16 
REMARK    7  A    between atoms: N3_16  and  C5_18 
ROOT
HETATM    1  C4  UNL     1      -0.422  -0.096  -1.304  1.00  0.00     0.266 C 
HETATM    2  O2  UNL     1      -0.190  -1.324  -1.377  1.00  0.00    -0.270 OA
HETATM    3  N3  UNL     1       0.690   0.773  -1.242  1.00  0.00    -0.157 N 
ATOM      4  H3  UNL     1       0.733   1.518  -1.937  1.00  0.00     0.187 HD
ENDROOT
BRANCH   1   5
HETATM    5  C3  UNL     1      -1.792   0.472  -1.280  1.00  0.00     0.242 C 
BRANCH   5   6
HETATM    6  C2  UNL     1      -2.651  -0.014  -0.163  1.00  0.00     0.246 C 
BRANCH   6   7
HETATM    7  C1  UNL     1      -2.995  -1.493  -0.270  1.00  0.00     0.265 C 
BRANCH   7   8
HETATM    8  N1  UNL     1      -4.046  -1.843   0.663  1.00  0.00    -0.077 N 
ATOM      9  H13 UNL     1      -3.807  -1.579   1.619  1.00  0.00     0.274 HD
ATOM     10  H12 UNL     1      -4.870  -1.254   0.543  1.00  0.00     0.274 HD
ATOM     11  H11 UNL     1      -4.277  -2.834   0.591  1.00  0.00     0.274 HD
ENDBRANCH   7   8
ENDBRANCH   6   7
BRANCH   6  12
HETATM   12  N2  UNL     1      -2.196   0.334   1.153  1.00  0.00    -0.070 N 
ATOM     13  H23 UNL     1      -2.872   0.058   1.865  1.00  0.00     0.274 HD
ATOM     14  H22 UNL     1      -1.412  -0.251   1.442  1.00  0.00     0.274 HD
ATOM     15  H21 UNL     1      -1.965   1.325   1.225  1.00  0.00     0.274 HD
ENDBRANCH   6  12
ENDBRANCH   5   6
BRANCH   5  16
HETATM   16  O1  UNL     1      -1.744   1.863  -1.204  1.00  0.00    -0.384 OA
ATOM     17  H1  UNL     1      -1.197   2.173  -1.916  1.00  0.00     0.210 HD
ENDBRANCH   5  16
ENDBRANCH   1   5
BRANCH   3  18
HETATM   18  C5  UNL     1       1.650   0.714  -0.395  1.00  0.00     0.692 C 
HETATM   19  N4  UNL     1       2.632   1.648  -0.504  1.00  0.00    -0.141 N 
HETATM   20  C6  UNL     1       3.865   1.685   0.032  1.00  0.00     0.341 C 
ATOM     21  H4  UNL     1       2.395   2.451  -1.087  1.00  0.00     0.189 HD
HETATM   22  O3  UNL     1       4.606   2.656  -0.343  1.00  0.00    -0.246 OA
HETATM   23  N5  UNL     1       4.441   0.835   0.918  1.00  0.00    -0.270 N 
HETATM   24  C7  UNL     1       3.972  -0.357   1.320  1.00  0.00     0.318 C 
ATOM     25  H5  UNL     1       5.328   1.134   1.323  1.00  0.00     0.174 HD
HETATM   26  O4  UNL     1       4.774  -1.140   1.888  1.00  0.00    -0.262 OA
HETATM   27  C8  UNL     1       2.688  -0.842   1.184  1.00  0.00     0.328 C 
HETATM   28  O5  UNL     1       2.455  -1.941   1.707  1.00  0.00    -0.261 OA
HETATM   29  N6  UNL     1       1.637  -0.253   0.540  1.00  0.00    -0.151 N 
ATOM     30  H6  UNL     1       0.713  -0.594   0.805  1.00  0.00     0.188 HD
ENDBRANCH   3  18
TORSDOF 7
