REMARK  4 active torsions:
REMARK  status: ('A' for Active; 'I' for Inactive)
REMARK    1  A    between atoms: N1_2  and  C2_4 
REMARK    2  A    between atoms: C3_6  and  C4_7 
REMARK    3  A    between atoms: C4_7  and  C5_8 
REMARK    4  A    between atoms: C15_21  and  N2_22 
ROOT
HETATM    1  C2  UNL     1      -2.657   2.037   0.471  1.00  0.00     0.255 C 
HETATM    2  O1  UNL     1      -2.608   0.942   1.288  1.00  0.00    -0.357 OA
HETATM    3  C3  UNL     1      -2.669  -0.279   0.672  1.00  0.00     0.143 C 
HETATM    4  C6  UNL     1      -1.838  -0.431  -0.564  1.00  0.00     0.056 C 
HETATM    5  C7  UNL     1      -2.012   0.776  -1.500  1.00  0.00     0.054 C 
HETATM    6  C8  UNL     1      -1.657   1.968  -0.655  1.00  0.00     0.108 C 
HETATM    7  C9  UNL     1      -1.656   3.224  -1.473  1.00  0.00     0.051 C 
HETATM    8  O4  UNL     1      -0.393   1.795  -0.087  1.00  0.00    -0.335 OA
HETATM    9  C10 UNL     1       0.327   0.617  -0.052  1.00  0.00     0.088 A 
HETATM   10  C11 UNL     1       1.688   0.589   0.209  1.00  0.00     0.010 A 
HETATM   11  C12 UNL     1       2.342  -0.617   0.225  1.00  0.00     0.087 A 
HETATM   12  C13 UNL     1       1.648  -1.793  -0.017  1.00  0.00    -0.001 A 
HETATM   13  C14 UNL     1       2.369  -3.090   0.010  1.00  0.00     0.054 C 
HETATM   14  C15 UNL     1       0.280  -1.742  -0.277  1.00  0.00     0.047 A 
HETATM   15  C18 UNL     1      -0.389  -0.540  -0.296  1.00  0.00     0.010 A 
HETATM   16  O5  UNL     1       3.702  -0.638   0.487  1.00  0.00    -0.340 OA
HETATM   17  C19 UNL     1       4.529   0.508   0.471  1.00  0.00     0.061 C 
HETATM   18  C20 UNL     1       4.903   0.796   1.913  1.00  0.00     0.046 C 
HETATM   19  C21 UNL     1       5.798   0.222  -0.315  1.00  0.00     0.046 C 
HETATM   20  C22 UNL     1       3.813   1.645  -0.180  1.00  0.00     0.042 C 
HETATM   21  C23 UNL     1       2.464   1.820   0.473  1.00  0.00     0.047 C 
ENDROOT
BRANCH   3  22
HETATM   22  C4  UNL     1      -4.096  -0.685   0.334  1.00  0.00     0.146 C 
BRANCH  22  23
HETATM   23  C5  UNL     1      -4.935  -0.782   1.547  1.00  0.00     0.175 C 
HETATM   24  O2  UNL     1      -4.648  -1.513   2.534  1.00  0.00    -0.648 OA
HETATM   25  O3  UNL     1      -6.099  -0.026   1.608  1.00  0.00    -0.648 OA
ENDBRANCH  22  23
ENDBRANCH   3  22
BRANCH   1  26
HETATM   26  N1  UNL     1      -2.283   3.174   1.269  1.00  0.00    -0.380 N 
HETATM   27  C1  UNL     1      -3.062   4.144   1.516  1.00  0.00     0.114 C 
ATOM     28  H1  UNL     1      -1.340   3.202   1.657  1.00  0.00     0.160 HD
ENDBRANCH   1  26
BRANCH  14  29
HETATM   29  N2  UNL     1      -0.403  -2.952  -0.539  1.00  0.00    -0.389 N 
HETATM   30  C16 UNL     1      -0.555  -3.489  -1.885  1.00  0.00     0.149 C 
HETATM   31  C17 UNL     1      -0.974  -3.713   0.547  1.00  0.00     0.149 C 
ENDBRANCH  14  29
TORSDOF 4
