REMARK  5 active torsions:
REMARK  status: ('A' for Active; 'I' for Inactive)
REMARK    1  A    between atoms: C4_4  and  C5_5 
REMARK    2  A    between atoms: C5_5  and  N1_6 
REMARK    3  A    between atoms: N1_6  and  C6_8 
REMARK    4  A    between atoms: C10_16  and  N4_17 
REMARK    5  A    between atoms: C19_26  and  C20_27 
ROOT
HETATM    1  C1  UNL     1      -4.214  -3.032   3.407  1.00  0.00     0.048 C 
HETATM    2  C2  UNL     1      -3.240  -2.306   2.533  1.00  0.00    -0.056 A 
HETATM    3  C3  UNL     1      -3.556  -1.117   1.895  1.00  0.00     0.035 A 
HETATM    4  C4  UNL     1      -2.641  -0.466   1.094  1.00  0.00     0.054 A 
HETATM    5  N2  UNL     1      -1.412  -0.978   0.913  1.00  0.00    -0.228 N 
HETATM    6  N3  UNL     1      -0.362  -0.546   0.198  1.00  0.00    -0.123 N 
ATOM      7  H3  UNL     1      -0.348   0.308  -0.360  1.00  0.00     0.206 HD
HETATM    8  C10 UNL     1       0.667  -1.399   0.322  1.00  0.00     0.697 A 
HETATM    9  N5  UNL     1       0.222  -2.380   1.141  1.00  0.00    -0.173 N 
ATOM     10  H5  UNL     1       0.770  -3.188   1.436  1.00  0.00     0.186 HD
HETATM   11  C21 UNL     1      -1.047  -2.136   1.510  1.00  0.00     0.143 A 
HETATM   12  C22 UNL     1      -1.968  -2.796   2.320  1.00  0.00     0.057 A 
ENDROOT
BRANCH   8  13
HETATM   13  N4  UNL     1       1.957  -1.288  -0.285  1.00  0.00    -0.216 N 
HETATM   14  C11 UNL     1       2.850  -2.372   0.073  1.00  0.00     0.141 C 
HETATM   15  C12 UNL     1       3.951  -1.740   0.929  1.00  0.00     0.020 C 
HETATM   16  C13 UNL     1       5.133  -1.306   0.066  1.00  0.00     0.002 C 
HETATM   17  C14 UNL     1       5.197   0.172  -0.101  1.00  0.00     0.010 C 
HETATM   18  C15 UNL     1       4.409   0.755  -1.198  1.00  0.00    -0.034 A 
HETATM   19  C16 UNL     1       3.393  -0.117  -1.833  1.00  0.00     0.030 C 
HETATM   20  C18 UNL     1       5.176   1.732  -2.146  1.00  0.00     0.016 A 
HETATM   21  C19 UNL     1       4.120   2.211  -1.126  1.00  0.00     0.009 A 
HETATM   22  C17 UNL     1       2.054  -0.113  -1.114  1.00  0.00     0.142 C 
BRANCH  21  23
HETATM   23  C20 UNL     1       4.698   3.049  -0.008  1.00  0.00     0.120 C 
HETATM   24 CL1  UNL     1       4.182   4.740  -0.186  1.00  0.00    -0.130 Cl
ENDBRANCH  21  23
ENDBRANCH   8  13
BRANCH   4  25
HETATM   25  C5  UNL     1      -3.036   0.825   0.428  1.00  0.00     0.174 C 
BRANCH  25  26
HETATM   26  N1  UNL     1      -3.739   0.501  -0.782  1.00  0.00    -0.410 N 
ATOM     27  H1  UNL     1      -3.911  -0.461  -1.075  1.00  0.00     0.154 HD
BRANCH  26  28
HETATM   28  C6  UNL     1      -4.181   1.630  -1.546  1.00  0.00     0.102 C 
HETATM   29  C7  UNL     1      -5.177   2.503  -0.815  1.00  0.00     0.053 C 
HETATM   30  C8  UNL     1      -6.445   1.696  -0.965  1.00  0.00     0.169 C 
HETATM   31  O1  UNL     1      -6.231   0.744  -1.926  1.00  0.00    -0.389 OA
HETATM   32  C9  UNL     1      -5.092   1.067  -2.645  1.00  0.00     0.192 C 
ENDBRANCH  26  28
ENDBRANCH  25  26
ENDBRANCH   4  25
TORSDOF 5
