REMARK  5 active torsions:
REMARK  status: ('A' for Active; 'I' for Inactive)
REMARK    1  A    between atoms: C6_9  and  N2_10 
REMARK    2  A    between atoms: C11_15  and  N3_16 
REMARK    3  A    between atoms: N3_16  and  C12_18 
REMARK    4  A    between atoms: C12_18  and  C13_19 
REMARK    5  A    between atoms: C13_19  and  N4_20 
ROOT
HETATM    1  C1  UNL     1      -2.063  -4.823  -0.679  1.00  0.00     0.070 C 
HETATM    2  C2  UNL     1      -2.860  -3.631  -0.294  1.00  0.00     0.033 A 
HETATM    3  C3  UNL     1      -4.160  -3.640   0.232  1.00  0.00     0.037 A 
HETATM    4 BR1  UNL     1      -5.162  -5.233   0.551  1.00  0.00    -0.049 Br
HETATM    5  C4  UNL     1      -4.568  -2.357   0.467  1.00  0.00     0.070 A 
HETATM    6  C5  UNL     1      -3.509  -1.547   0.081  1.00  0.00     0.116 A 
HETATM    7  N1  UNL     1      -3.388  -0.216   0.104  1.00  0.00    -0.326 N 
ATOM      8  H1  UNL     1      -4.164   0.350   0.448  1.00  0.00     0.169 HD
HETATM    9  C6  UNL     1      -2.235   0.409  -0.328  1.00  0.00     0.135 A 
HETATM   10  C11 UNL     1      -1.192  -0.344  -0.788  1.00  0.00     0.111 A 
HETATM   11  C19 UNL     1      -1.356  -1.739  -0.799  1.00  0.00     0.152 A 
HETATM   12  C20 UNL     1      -0.294  -2.575  -1.319  1.00  0.00     0.120 C 
HETATM   13  N5  UNL     1       0.576  -3.241  -1.770  1.00  0.00    -0.190 NA
HETATM   14  N6  UNL     1      -2.497  -2.335  -0.371  1.00  0.00    -0.289 N 
ENDROOT
BRANCH  10  15
HETATM   15  N3  UNL     1       0.025   0.184  -1.217  1.00  0.00    -0.383 N 
ATOM     16  H3  UNL     1      -0.010   0.636  -2.131  1.00  0.00     0.159 HD
BRANCH  15  17
HETATM   17  C12 UNL     1       1.300   0.201  -0.604  1.00  0.00     0.150 C 
BRANCH  17  18
HETATM   18  C13 UNL     1       1.462   0.799   0.740  1.00  0.00     0.292 C 
BRANCH  18  19
HETATM   19  N4  UNL     1       2.858   0.653   1.130  1.00  0.00     0.090 N 
HETATM   20  C14 UNL     1       3.772   1.437   0.366  1.00  0.00     0.272 C 
HETATM   21  C15 UNL     1       5.150   1.234   1.013  1.00  0.00     0.030 C 
HETATM   22  C16 UNL     1       5.604  -0.180   0.658  1.00  0.00     0.003 C 
HETATM   23  C17 UNL     1       4.418  -1.107   0.435  1.00  0.00     0.030 C 
HETATM   24  C18 UNL     1       3.243  -0.705   1.329  1.00  0.00     0.272 C 
ENDBRANCH  18  19
ENDBRANCH  17  18
ENDBRANCH  15  17
ENDBRANCH  10  15
BRANCH   9  25
HETATM   25  N2  UNL     1      -2.336   1.805  -0.265  1.00  0.00    -0.365 N 
HETATM   26  C7  UNL     1      -1.728   2.741   0.623  1.00  0.00     0.124 C 
HETATM   27  C8  UNL     1      -2.696   3.919   0.694  1.00  0.00     0.021 C 
HETATM   28  C9  UNL     1      -3.463   3.887  -0.583  1.00  0.00     0.021 C 
HETATM   29  C10 UNL     1      -3.176   2.554  -1.210  1.00  0.00     0.124 C 
ENDBRANCH   9  25
TORSDOF 5
