REMARK  6 active torsions:
REMARK  status: ('A' for Active; 'I' for Inactive)
REMARK    1  A    between atoms: S1_2  and  C2_5 
REMARK    2  A    between atoms: C4_9  and  C5_10 
REMARK    3  A    between atoms: C9_19  and  N4_20 
REMARK    4  A    between atoms: N4_20  and  C10_22 
REMARK    5  A    between atoms: C10_22  and  C11_23 
REMARK    6  A    between atoms: C10_22  and  C14_26 
ROOT
HETATM    1  C5  UNL     1       1.107  -2.817   0.718  1.00  0.00     0.017 A 
HETATM    2  C6  UNL     1       1.787  -3.999   1.007  1.00  0.00     0.066 A 
HETATM    3  S2  UNL     1       0.556  -5.159   1.074  1.00  0.00    -0.082 SA
HETATM    4  C7  UNL     1      -0.783  -4.167   0.743  1.00  0.00     0.089 A 
HETATM    5  N2  UNL     1      -2.104  -4.464   0.633  1.00  0.00    -0.346 N 
ATOM      6  H2  UNL     1      -2.428  -5.422   0.769  1.00  0.00     0.167 HD
HETATM    7  C8  UNL     1      -2.980  -3.490   0.345  1.00  0.00     0.182 A 
HETATM    8  N3  UNL     1      -2.470  -2.258   0.179  1.00  0.00    -0.338 N 
ATOM      9  H3  UNL     1      -3.132  -1.515  -0.042  1.00  0.00     0.168 HD
HETATM   10  C9  UNL     1      -1.183  -1.906   0.274  1.00  0.00     0.116 A 
HETATM   11  C17 UNL     1      -0.239  -2.931   0.583  1.00  0.00     0.055 A 
ENDROOT
BRANCH   1  12
HETATM   12  C4  UNL     1       1.936  -1.599   0.653  1.00  0.00     0.083 A 
HETATM   13  N1  UNL     1       1.745  -0.620   1.532  1.00  0.00    -0.361 N 
HETATM   14  C3  UNL     1       2.462   0.517   1.533  1.00  0.00     0.112 A 
ATOM     15  H1  UNL     1       1.020  -0.737   2.239  1.00  0.00     0.165 HD
HETATM   16  C2  UNL     1       3.450   0.720   0.601  1.00  0.00     0.077 A 
HETATM   17  C19 UNL     1       3.688  -0.263  -0.331  1.00  0.00     0.069 A 
HETATM   18  C18 UNL     1       2.917  -1.423  -0.290  1.00  0.00     0.145 A 
HETATM   19  F1  UNL     1       3.122  -2.414  -1.193  1.00  0.00    -0.204 F 
BRANCH  16  20
HETATM   20  S1  UNL     1       4.386   2.214   0.613  1.00  0.00     0.173 S 
HETATM   21  C1  UNL     1       3.588   3.402  -0.403  1.00  0.00     0.167 C 
HETATM   22  O1  UNL     1       5.815   1.991   0.277  1.00  0.00    -0.223 OA
HETATM   23  O2  UNL     1       4.341   2.730   2.035  1.00  0.00    -0.223 OA
ENDBRANCH  16  20
ENDBRANCH   1  12
BRANCH  10  24
HETATM   24  N4  UNL     1      -0.813  -0.742   0.080  1.00  0.00    -0.370 N 
ATOM     25  H4  UNL     1       0.197  -0.659   0.197  1.00  0.00     0.161 HD
BRANCH  24  26
HETATM   26  C10 UNL     1      -1.390   0.520  -0.260  1.00  0.00     0.091 C 
BRANCH  26  27
HETATM   27  C11 UNL     1      -2.136   1.099   0.892  1.00  0.00     0.009 A 
HETATM   28  C12 UNL     1      -2.741   2.489   0.738  1.00  0.00     0.007 A 
HETATM   29  C13 UNL     1      -3.599   1.318   0.852  1.00  0.00     0.007 A 
ENDBRANCH  26  27
BRANCH  26  30
HETATM   30  C14 UNL     1      -2.095   0.357  -1.555  1.00  0.00     0.009 A 
HETATM   31  C15 UNL     1      -2.855   1.303  -2.345  1.00  0.00     0.007 A 
HETATM   32  C16 UNL     1      -1.439   1.213  -2.701  1.00  0.00     0.007 A 
ENDBRANCH  26  30
ENDBRANCH  24  26
ENDBRANCH  10  24
TORSDOF 6
