REMARK  8 active torsions:
REMARK  status: ('A' for Active; 'I' for Inactive)
REMARK    1  A    between atoms: C2_2  and  C3_3 
REMARK    2  A    between atoms: C4_4  and  C5_5 
REMARK    3  A    between atoms: C5_5  and  O2_7 
REMARK    4  A    between atoms: O2_7  and  C6_8 
REMARK    5  A    between atoms: C6_8  and  C7_9 
REMARK    6  A    between atoms: C14_17  and  O4_18 
REMARK    7  A    between atoms: O4_18  and  C15_19 
REMARK    8  A    between atoms: C18_24  and  O6_25 
ROOT
HETATM    1  C7  UNL     1       0.423   1.139   0.952  1.00  0.00    -0.019 A 
HETATM    2  C8  UNL     1       0.729   2.208   0.232  1.00  0.00     0.021 A 
HETATM    3  C9  UNL     1       0.020   2.690  -0.948  1.00  0.00     0.079 A 
HETATM    4  C10 UNL     1       1.012   2.633  -2.142  1.00  0.00     0.051 C 
HETATM    5  C11 UNL     1      -0.381   4.160  -0.746  1.00  0.00     0.051 C 
HETATM    6  O3  UNL     1      -1.051   1.910  -1.298  1.00  0.00    -0.336 OA
HETATM    7  C12 UNL     1      -1.460   0.806  -0.610  1.00  0.00     0.086 A 
HETATM    8  C13 UNL     1      -2.588   0.116  -1.045  1.00  0.00     0.076 A 
HETATM    9  C14 UNL     1      -3.017  -0.990  -0.358  1.00  0.00     0.102 A 
HETATM   10  C17 UNL     1      -2.328  -1.411   0.758  1.00  0.00     0.079 A 
HETATM   11 BR1  UNL     1      -2.890  -2.952   1.756  1.00  0.00    -0.045 Br
HETATM   12  C18 UNL     1      -1.198  -0.725   1.197  1.00  0.00     0.099 A 
HETATM   13  C19 UNL     1      -0.738   0.379   0.535  1.00  0.00     0.040 A 
ENDROOT
BRANCH   1  14
HETATM   14  C6  UNL     1       1.217   0.765   2.114  1.00  0.00     0.218 C 
BRANCH  14  15
HETATM   15  O2  UNL     1       1.874  -0.465   2.128  1.00  0.00    -0.314 OA
BRANCH  15  16
HETATM   16  C5  UNL     1       2.855  -0.809   1.189  1.00  0.00     0.283 C 
HETATM   17  O1  UNL     1       3.056   0.110   0.360  1.00  0.00    -0.260 OA
BRANCH  16  18
HETATM   18  C4  UNL     1       3.530  -2.080   1.209  1.00  0.00     0.082 C 
HETATM   19  C3  UNL     1       4.438  -2.484   0.394  1.00  0.00     0.005 C 
BRANCH  19  20
HETATM   20  C2  UNL     1       5.029  -1.816  -0.735  1.00  0.00    -0.010 C 
HETATM   21  C1  UNL     1       5.973  -2.380  -1.490  1.00  0.00     0.011 C 
ENDBRANCH  19  20
ENDBRANCH  16  18
ENDBRANCH  15  16
ENDBRANCH  14  15
ENDBRANCH   1  14
BRANCH  12  22
HETATM   22  O6  UNL     1      -0.538  -1.162   2.319  1.00  0.00    -0.358 OA
ATOM     23  H6  UNL     1       0.233  -0.694   2.618  1.00  0.00     0.217 HD
ENDBRANCH  12  22
BRANCH   9  24
HETATM   24  O4  UNL     1      -4.130  -1.668  -0.793  1.00  0.00    -0.278 OA
BRANCH  24  25
HETATM   25  C15 UNL     1      -5.379  -1.325  -0.334  1.00  0.00     0.260 C 
HETATM   26  C16 UNL     1      -6.547  -2.098  -0.844  1.00  0.00     0.126 C 
HETATM   27  O5  UNL     1      -5.546  -0.386   0.493  1.00  0.00    -0.265 OA
ENDBRANCH  24  25
ENDBRANCH   9  24
TORSDOF 8
