REMARK  6 active torsions:
REMARK  status: ('A' for Active; 'I' for Inactive)
REMARK    1  A    between atoms: O1_2  and  C2_3 
REMARK    2  A    between atoms: C2_3  and  C5_6 
REMARK    3  A    between atoms: N1_10  and  C9_11 
REMARK       I    between atoms: N2_14  and  C12_15 
REMARK    4  A    between atoms: C12_15  and  O3_17 
REMARK    5  A    between atoms: O3_17  and  C13_18 
REMARK    6  A    between atoms: C19_24  and  C20_25 
ROOT
HETATM    1  C5  UNL     1       3.153  -0.718   0.014  1.00  0.00     0.048 C 
HETATM    2  C6  UNL     1       3.613  -1.294  -1.296  1.00  0.00     0.011 C 
HETATM    3  C7  UNL     1       2.498  -2.108  -1.865  1.00  0.00     0.020 C 
HETATM    4  C8  UNL     1       1.222  -1.901  -1.150  1.00  0.00     0.118 C 
HETATM    5  N1  UNL     1       0.919  -0.573  -0.753  1.00  0.00    -0.397 N 
HETATM    6  C19 UNL     1       1.999   0.150  -0.137  1.00  0.00     0.143 C 
ENDROOT
BRANCH   5   7
HETATM    7  C9  UNL     1      -0.347  -0.417  -0.113  1.00  0.00     0.083 C 
HETATM    8  C10 UNL     1      -0.524  -1.132   1.179  1.00  0.00     0.045 C 
HETATM    9  C11 UNL     1      -1.966  -1.075   1.594  1.00  0.00     0.130 C 
HETATM   10  N2  UNL     1      -2.755  -0.107   0.875  1.00  0.00    -0.328 N 
HETATM   11  C12 UNL     1      -4.117  -0.375   0.625  1.00  0.00     0.363 C 
HETATM   12  C17 UNL     1      -2.222   1.151   0.381  1.00  0.00     0.130 C 
HETATM   13  O2  UNL     1      -4.604  -1.458   1.040  1.00  0.00    -0.238 OA
HETATM   14  C18 UNL     1      -0.747   1.014   0.037  1.00  0.00     0.045 C 
BRANCH  11  15
HETATM   15  O3  UNL     1      -4.953   0.496  -0.059  1.00  0.00    -0.294 OA
BRANCH  15  16
HETATM   16  C13 UNL     1      -6.304   0.232  -0.307  1.00  0.00     0.061 C 
HETATM   17  C14 UNL     1      -7.007   0.060   1.029  1.00  0.00     0.046 C 
HETATM   18  C15 UNL     1      -6.535  -1.031  -1.098  1.00  0.00     0.046 C 
HETATM   19  C16 UNL     1      -6.951   1.396  -1.021  1.00  0.00     0.046 C 
ENDBRANCH  15  16
ENDBRANCH  11  15
ENDBRANCH   5   7
BRANCH   6  20
HETATM   20  C20 UNL     1       2.166   1.427  -0.877  1.00  0.00     0.073 A 
HETATM   21  N3  UNL     1       2.291   2.664  -0.407  1.00  0.00    -0.361 N 
HETATM   22  C21 UNL     1       2.422   3.663  -1.212  1.00  0.00     0.096 A 
ATOM     23  H3  UNL     1       2.283   2.825   0.600  1.00  0.00     0.165 HD
HETATM   24  C22 UNL     1       2.425   3.394  -2.564  1.00  0.00     0.068 A 
HETATM   25  S1  UNL     1       2.237   1.697  -2.564  1.00  0.00    -0.085 SA
ENDBRANCH   6  20
BRANCH   1  26
HETATM   26  C2  UNL     1       4.353  -0.271   0.779  1.00  0.00     0.059 C 
HETATM   27  C3  UNL     1       4.083   0.312   2.110  1.00  0.00     0.046 C 
HETATM   28  C4  UNL     1       5.306   0.605  -0.007  1.00  0.00     0.046 C 
BRANCH  26  29
HETATM   29  O1  UNL     1       5.103  -1.465   0.984  1.00  0.00    -0.385 OA
HETATM   30  C1  UNL     1       6.274  -1.256   1.654  1.00  0.00     0.202 C 
ENDBRANCH  26  29
ENDBRANCH   1  26
TORSDOF 6
