REMARK  8 active torsions:
REMARK  status: ('A' for Active; 'I' for Inactive)
REMARK    1  A    between atoms: N1_1  and  C1_4 
REMARK    2  A    between atoms: C2_7  and  C3_8 
REMARK    3  A    between atoms: C3_8  and  N3_9 
REMARK    4  A    between atoms: N3_9  and  C4_10 
REMARK       I    between atoms: N3_9  and  C11_17 
REMARK    5  A    between atoms: C4_10  and  C5_11 
REMARK    6  A    between atoms: C5_11  and  C6_12 
REMARK    7  A    between atoms: C11_17  and  C12_19 
REMARK    8  A    between atoms: C12_19  and  C13_20 
ROOT
HETATM    1  N3  UNL     1      -0.159   0.324   1.233  1.00  0.00    -0.347 N 
HETATM    2  C11 UNL     1       1.182   0.068   0.864  1.00  0.00     0.220 C 
HETATM    3  O1  UNL     1       2.061   0.921   1.131  1.00  0.00    -0.273 OA
ENDROOT
BRANCH   1   4
HETATM    4  C3  UNL     1      -0.458   1.567   1.908  1.00  0.00     0.183 C 
BRANCH   4   5
HETATM    5  C2  UNL     1      -0.725   2.693   0.993  1.00  0.00     0.045 A 
HETATM    6  N2  UNL     1      -0.419   2.660  -0.297  1.00  0.00    -0.194 N 
HETATM    7  C1  UNL     1      -0.687   3.712  -1.074  1.00  0.00     0.675 A 
ATOM      8  H2  UNL     1       0.021   1.831  -0.696  1.00  0.00     0.184 HD
HETATM    9  N4  UNL     1      -1.267   4.813  -0.567  1.00  0.00    -0.202 N 
HETATM   10  C20 UNL     1      -1.597   4.892   0.743  1.00  0.00     0.108 A 
ATOM     11  H4  UNL     1      -1.462   5.604  -1.181  1.00  0.00     0.183 HD
HETATM   12  C19 UNL     1      -1.318   3.806   1.532  1.00  0.00     0.045 A 
BRANCH   7  13
HETATM   13  N1  UNL     1      -0.378   3.652  -2.321  1.00  0.00    -0.234 N 
ATOM     14  H12 UNL     1       0.062   2.816  -2.706  1.00  0.00     0.174 HD
ATOM     15  H11 UNL     1      -0.583   4.456  -2.915  1.00  0.00     0.174 HD
ENDBRANCH   7  13
ENDBRANCH   4   5
ENDBRANCH   1   4
BRANCH   1  16
HETATM   16  C4  UNL     1      -1.248  -0.580   0.995  1.00  0.00     0.126 C 
BRANCH  16  17
HETATM   17  C5  UNL     1      -1.974  -0.437  -0.282  1.00  0.00     0.024 C 
BRANCH  17  18
HETATM   18  C6  UNL     1      -3.060  -1.506  -0.300  1.00  0.00    -0.013 C 
HETATM   19  C7  UNL     1      -3.868  -1.448  -1.575  1.00  0.00     0.005 C 
HETATM   20  C8  UNL     1      -5.101  -2.231  -1.200  1.00  0.00     0.000 C 
HETATM   21  C9  UNL     1      -5.226  -2.183   0.290  1.00  0.00     0.000 C 
HETATM   22  C10 UNL     1      -4.120  -1.231   0.747  1.00  0.00     0.005 C 
ENDBRANCH  17  18
ENDBRANCH  16  17
ENDBRANCH   1  16
BRANCH   2  23
HETATM   23  C12 UNL     1       1.608  -1.169   0.170  1.00  0.00     0.107 C 
BRANCH  23  24
HETATM   24  C13 UNL     1       3.046  -1.260  -0.150  1.00  0.00    -0.006 C 
HETATM   25  C14 UNL     1       3.604  -0.201  -1.041  1.00  0.00     0.005 C 
HETATM   26  C15 UNL     1       4.908  -0.793  -1.607  1.00  0.00     0.000 C 
HETATM   27  C16 UNL     1       5.857  -1.113  -0.469  1.00  0.00     0.000 C 
HETATM   28  C17 UNL     1       5.237  -2.032   0.558  1.00  0.00     0.000 C 
HETATM   29  C18 UNL     1       3.955  -1.366   1.053  1.00  0.00     0.005 C 
ENDBRANCH  23  24
ENDBRANCH   2  23
TORSDOF 8
