REMARK  7 active torsions:
REMARK  status: ('A' for Active; 'I' for Inactive)
REMARK    1  A    between atoms: C1_2  and  C2_3 
REMARK       I    between atoms: C1_2  and  N3_24 
REMARK    2  A    between atoms: C2_3  and  C3_4 
REMARK    3  A    between atoms: C5_7  and  N1_8 
REMARK       I    between atoms: N1_8  and  C6_10 
REMARK    4  A    between atoms: C6_10  and  C7_12 
REMARK    5  A    between atoms: C11_16  and  C12_17 
REMARK    6  A    between atoms: N3_24  and  C14_26 
REMARK    7  A    between atoms: C17_29  and  N4_30 
ROOT
HETATM    1  C3  UNL     1      -0.154  -0.553   0.419  1.00  0.00     0.026 A 
HETATM    2  C4  UNL     1       0.112   0.744   0.802  1.00  0.00     0.078 A 
HETATM    3  S1  UNL     1       1.586   1.048   0.017  1.00  0.00    -0.064 SA
HETATM    4  C5  UNL     1       1.781  -0.473  -0.750  1.00  0.00     0.151 A 
HETATM    5  N2  UNL     1       0.712  -1.141  -0.368  1.00  0.00    -0.339 N 
ATOM      6  H2  UNL     1       0.561  -2.100  -0.680  1.00  0.00     0.168 HD
ENDROOT
BRANCH   1   7
HETATM    7  C2  UNL     1      -1.390  -1.215   1.004  1.00  0.00     0.160 C 
BRANCH   7   8
HETATM    8  C1  UNL     1      -2.631  -0.679   0.436  1.00  0.00     0.227 C 
HETATM    9  O1  UNL     1      -2.606   0.185  -0.474  1.00  0.00    -0.273 OA
HETATM   10  N3  UNL     1      -3.877  -1.132   0.926  1.00  0.00    -0.327 N 
ATOM     11  H3  UNL     1      -3.869  -1.843   1.657  1.00  0.00     0.169 HD
BRANCH  10  12
HETATM   12  C14 UNL     1      -5.148  -0.663   0.469  1.00  0.00     0.034 A 
HETATM   13  C15 UNL     1      -5.638   0.570   0.912  1.00  0.00     0.032 A 
HETATM   14  C16 UNL     1      -6.848   1.045   0.499  1.00  0.00     0.038 A 
HETATM   15  C17 UNL     1      -7.623   0.303  -0.376  1.00  0.00     0.103 A 
HETATM   16  C18 UNL     1      -7.177  -0.925  -0.842  1.00  0.00     0.038 A 
HETATM   17  C19 UNL     1      -5.937  -1.368  -0.395  1.00  0.00     0.032 A 
BRANCH  15  18
HETATM   18  N4  UNL     1      -8.890   0.784  -0.765  1.00  0.00    -0.116 N 
HETATM   19  O3  UNL     1      -9.628   0.092  -1.486  1.00  0.00    -0.532 OA
HETATM   20  O4  UNL     1      -9.325   2.006  -0.333  1.00  0.00    -0.532 OA
ENDBRANCH  15  18
ENDBRANCH  10  12
ENDBRANCH   7   8
ENDBRANCH   1   7
BRANCH   4  21
HETATM   21  N1  UNL     1       2.809  -0.868  -1.513  1.00  0.00    -0.303 N 
HETATM   22  C6  UNL     1       3.819   0.193  -1.633  1.00  0.00     0.257 C 
HETATM   23  O2  UNL     1       3.585   1.165  -2.340  1.00  0.00    -0.267 OA
ATOM     24  H1  UNL     1       2.881  -1.785  -1.953  1.00  0.00     0.171 HD
BRANCH  22  25
HETATM   25  C7  UNL     1       5.065   0.040  -0.887  1.00  0.00     0.033 A 
HETATM   26  C8  UNL     1       5.468  -1.150  -0.317  1.00  0.00     0.017 A 
HETATM   27  C9  UNL     1       6.571  -1.280   0.485  1.00  0.00     0.002 A 
HETATM   28  C10 UNL     1       7.349  -0.155   0.761  1.00  0.00     0.016 A 
HETATM   29  C11 UNL     1       6.980   1.057   0.211  1.00  0.00     0.048 A 
HETATM   30  C13 UNL     1       5.870   1.139  -0.587  1.00  0.00     0.033 A 
BRANCH  29  31
HETATM   31  C12 UNL     1       7.786   2.256   0.546  1.00  0.00     0.417 C 
HETATM   32  F1  UNL     1       6.890   3.300   0.817  1.00  0.00    -0.166 F 
HETATM   33  F2  UNL     1       8.576   2.005   1.667  1.00  0.00    -0.166 F 
HETATM   34  F3  UNL     1       8.517   2.614  -0.548  1.00  0.00    -0.166 F 
ENDBRANCH  29  31
ENDBRANCH  22  25
ENDBRANCH   4  21
TORSDOF 7
