REMARK  8 active torsions:
REMARK  status: ('A' for Active; 'I' for Inactive)
REMARK    1  A    between atoms: C5_6  and  C6_7 
REMARK    2  A    between atoms: C6_7  and  N1_8 
REMARK    3  A    between atoms: N1_8  and  N2_9 
REMARK       I    between atoms: N2_9  and  C7_11 
REMARK    4  A    between atoms: C7_11  and  C8_13 
REMARK    5  A    between atoms: C18_23  and  O3_24 
REMARK    6  A    between atoms: C20_27  and  O4_28 
REMARK    7  A    between atoms: O4_28  and  C21_29 
REMARK    8  A    between atoms: C21_29  and  C22_30 
ROOT
HETATM    1  O1  UNL     1       6.811   1.939   1.952  1.00  0.00    -0.292 OA
HETATM    2  C1  UNL     1       5.628   2.220   1.635  1.00  0.00     0.163 C 
HETATM    3  C2  UNL     1       4.971   3.544   1.541  1.00  0.00     0.088 C 
HETATM    4  C3  UNL     1       3.533   3.231   1.734  1.00  0.00     0.048 C 
HETATM    5  C4  UNL     1       3.387   1.797   1.327  1.00  0.00    -0.026 A 
HETATM    6  C5  UNL     1       2.240   1.052   1.025  1.00  0.00     0.035 A 
HETATM    7  C18 UNL     1       2.404  -0.281   0.682  1.00  0.00     0.081 A 
HETATM    8  C19 UNL     1       3.709  -0.841   0.647  1.00  0.00     0.075 A 
HETATM    9  C20 UNL     1       4.823  -0.109   0.942  1.00  0.00     0.086 A 
HETATM   10  C23 UNL     1       4.625   1.214   1.280  1.00  0.00     0.050 A 
ENDROOT
BRANCH   6  11
HETATM   11  C6  UNL     1       0.954   1.710   1.099  1.00  0.00     0.223 C 
BRANCH  11  12
HETATM   12  N1  UNL     1      -0.123   1.317   0.895  1.00  0.00    -0.335 NA
BRANCH  12  13
HETATM   13  N2  UNL     1      -1.320   0.875   0.667  1.00  0.00    -0.203 N 
HETATM   14  C7  UNL     1      -1.783   0.491  -0.621  1.00  0.00     0.255 C 
HETATM   15  O2  UNL     1      -0.961   0.595  -1.596  1.00  0.00    -0.270 OA
ATOM     16  H2  UNL     1      -1.964   0.799   1.454  1.00  0.00     0.205 HD
BRANCH  14  17
HETATM   17  C8  UNL     1      -3.161  -0.005  -0.815  1.00  0.00     0.044 C 
HETATM   18  C9  UNL     1      -3.399  -1.256   0.035  1.00  0.00     0.024 C 
HETATM   19  C10 UNL     1      -4.761  -1.795  -0.295  1.00  0.00    -0.013 C 
HETATM   20  C11 UNL     1      -4.830  -2.179  -1.765  1.00  0.00     0.009 C 
HETATM   21  C15 UNL     1      -5.812  -0.782   0.046  1.00  0.00     0.009 C 
HETATM   22  C12 UNL     1      -4.662  -0.922  -2.590  1.00  0.00    -0.013 C 
HETATM   23  C13 UNL     1      -5.690   0.113  -2.232  1.00  0.00     0.009 C 
HETATM   24  C17 UNL     1      -3.314  -0.347  -2.289  1.00  0.00     0.024 C 
HETATM   25  C14 UNL     1      -5.571   0.468  -0.781  1.00  0.00    -0.013 C 
HETATM   26  C16 UNL     1      -4.213   1.003  -0.420  1.00  0.00     0.024 C 
ENDBRANCH  14  17
ENDBRANCH  12  13
ENDBRANCH  11  12
ENDBRANCH   6  11
BRANCH   7  27
HETATM   27  O3  UNL     1       1.366  -1.053   0.385  1.00  0.00    -0.360 OA
ATOM     28  H3  UNL     1       1.478  -1.967   0.150  1.00  0.00     0.217 HD
ENDBRANCH   7  27
BRANCH   9  29
HETATM   29  O4  UNL     1       6.091  -0.683   0.900  1.00  0.00    -0.341 OA
BRANCH  29  30
HETATM   30  C21 UNL     1       6.212  -2.031   0.549  1.00  0.00     0.293 C 
BRANCH  30  31
HETATM   31  C22 UNL     1       7.618  -2.530   0.541  1.00  0.00     0.408 C 
HETATM   32  F1  UNL     1       8.439  -1.869  -0.333  1.00  0.00    -0.169 F 
HETATM   33  F2  UNL     1       7.640  -3.870   0.179  1.00  0.00    -0.169 F 
HETATM   34  F3  UNL     1       8.209  -2.426   1.799  1.00  0.00    -0.169 F 
ENDBRANCH  30  31
ENDBRANCH  29  30
ENDBRANCH   9  29
TORSDOF 8
