REMARK  5 active torsions:
REMARK  status: ('A' for Active; 'I' for Inactive)
REMARK    1  A    between atoms: S1_2  and  N1_5 
REMARK    2  A    between atoms: N1_5  and  C2_7 
REMARK    3  A    between atoms: C15_22  and  C16_23 
REMARK    4  A    between atoms: C17_24  and  C18_25 
REMARK    5  A    between atoms: C21_28  and  N3_29 
ROOT
HETATM    1  C2  UNL     1       4.225   0.527   0.846  1.00  0.00     0.044 A 
HETATM    2  C3  UNL     1       4.008   1.769   0.298  1.00  0.00     0.032 A 
HETATM    3  C4  UNL     1       2.842   1.951  -0.476  1.00  0.00     0.030 A 
HETATM    4  C5  UNL     1       1.989   0.937  -0.658  1.00  0.00     0.106 A 
HETATM    5  C6  UNL     1       2.196  -0.336  -0.108  1.00  0.00     0.058 A 
HETATM    6  C7  UNL     1       3.316  -0.517   0.638  1.00  0.00     0.061 A 
HETATM    7  N2  UNL     1       1.339  -1.426  -0.361  1.00  0.00    -0.352 N 
ATOM      8  H2  UNL     1       1.779  -2.312  -0.611  1.00  0.00     0.166 HD
HETATM    9  C8  UNL     1       0.018  -1.408  -0.304  1.00  0.00     0.071 C 
HETATM   10  C9  UNL     1      -0.531  -2.700  -0.657  1.00  0.00    -0.007 A 
HETATM   11  C10 UNL     1      -1.829  -2.884  -1.027  1.00  0.00     0.014 A 
HETATM   12  C11 UNL     1      -2.374  -4.123  -1.391  1.00  0.00     0.001 A 
HETATM   13  C12 UNL     1      -1.525  -5.201  -1.366  1.00  0.00     0.000 A 
HETATM   14  C13 UNL     1      -0.194  -5.077  -0.999  1.00  0.00     0.001 A 
HETATM   15  C14 UNL     1       0.289  -3.837  -0.650  1.00  0.00     0.014 A 
HETATM   16  C15 UNL     1      -0.895  -0.348  -0.001  1.00  0.00     0.086 C 
HETATM   17  N7  UNL     1      -0.784   0.903  -0.515  1.00  0.00    -0.277 N 
ATOM     18  H7  UNL     1      -1.490   1.598  -0.273  1.00  0.00     0.179 HD
HETATM   19  S2  UNL     1       0.538   1.371  -1.587  1.00  0.00     0.265 S 
HETATM   20  O4  UNL     1       0.523   2.833  -1.764  1.00  0.00    -0.200 OA
HETATM   21  O5  UNL     1       0.547   0.642  -2.849  1.00  0.00    -0.200 OA
ENDROOT
BRANCH  16  22
HETATM   22  C16 UNL     1      -2.023  -0.562   0.865  1.00  0.00     0.075 A 
HETATM   23  C17 UNL     1      -2.989   0.440   0.883  1.00  0.00    -0.004 A 
HETATM   24  C23 UNL     1      -3.902   0.469   1.914  1.00  0.00     0.046 A 
HETATM   25  C24 UNL     1      -3.906  -0.453   2.931  1.00  0.00     0.077 A 
HETATM   26  N5  UNL     1      -2.981  -1.400   2.901  1.00  0.00    -0.219 N 
HETATM   27  C26 UNL     1      -4.397  -1.067   4.173  1.00  0.00     0.139 A 
HETATM   28  C25 UNL     1      -2.041  -1.496   1.921  1.00  0.00     0.280 A 
HETATM   29  N6  UNL     1      -3.465  -1.971   4.086  1.00  0.00    -0.300 N 
HETATM   30  O3  UNL     1      -1.213  -2.419   2.024  1.00  0.00    -0.265 OA
ATOM     31  H6  UNL     1      -3.195  -2.774   4.654  1.00  0.00     0.186 HD
BRANCH  23  32
HETATM   32  C18 UNL     1      -3.236   1.435  -0.160  1.00  0.00    -0.009 A 
HETATM   33  C19 UNL     1      -3.599   1.003  -1.407  1.00  0.00     0.017 A 
HETATM   34  C20 UNL     1      -3.875   1.891  -2.392  1.00  0.00     0.049 A 
HETATM   35  C21 UNL     1      -3.796   3.237  -2.155  1.00  0.00     0.098 A 
HETATM   36  N4  UNL     1      -3.441   3.673  -0.935  1.00  0.00    -0.352 N 
HETATM   37  C22 UNL     1      -3.164   2.802   0.052  1.00  0.00     0.102 A 
ATOM     38  H4  UNL     1      -3.381   4.675  -0.755  1.00  0.00     0.166 HD
BRANCH  35  39
HETATM   39  N3  UNL     1      -4.060   4.083  -3.095  1.00  0.00    -0.385 N 
ATOM     40  H32 UNL     1      -4.330   3.752  -4.021  1.00  0.00     0.157 HD
ATOM     41  H31 UNL     1      -4.001   5.086  -2.918  1.00  0.00     0.157 HD
ENDBRANCH  35  39
ENDBRANCH  23  32
ENDBRANCH  16  22
BRANCH   1  42
HETATM   42  N1  UNL     1       5.364   0.264   1.638  1.00  0.00    -0.285 N 
ATOM     43  H1  UNL     1       5.217  -0.229   2.519  1.00  0.00     0.178 HD
BRANCH  42  44
HETATM   44  S1  UNL     1       6.963   0.701   1.245  1.00  0.00     0.227 S 
HETATM   45  C1  UNL     1       7.192   2.441   1.099  1.00  0.00     0.186 C 
HETATM   46  O1  UNL     1       7.950   0.200   2.275  1.00  0.00    -0.206 OA
HETATM   47  O2  UNL     1       7.360   0.009  -0.050  1.00  0.00    -0.206 OA
ENDBRANCH  42  44
ENDBRANCH   1  42
TORSDOF 5
