REMARK  5 active torsions:
REMARK  status: ('A' for Active; 'I' for Inactive)
REMARK    1  A    between atoms: N5_12  and  N6_14 
REMARK    2  A    between atoms: C6_18  and  N7_19 
REMARK    3  A    between atoms: N7_19  and  C7_21 
REMARK    4  A    between atoms: C7_21  and  C8_22 
REMARK    5  A    between atoms: C8_22  and  N8_23 
ROOT
HETATM    1  C1  UNL     1       0.959   2.969   0.197  1.00  0.00     0.179 C 
HETATM    2  N1  UNL     1      -0.119   2.055  -0.115  1.00  0.00    -0.279 N 
HETATM    3  N2  UNL     1      -1.305   2.341  -0.567  1.00  0.00    -0.281 N 
ATOM      4  H2  UNL     1      -1.652   3.278  -0.771  1.00  0.00     0.189 HD
HETATM    5  C2  UNL     1      -1.996   1.204  -0.721  1.00  0.00     0.139 A 
HETATM    6  N3  UNL     1      -3.247   0.907  -1.147  1.00  0.00    -0.337 N 
ATOM      7  H3  UNL     1      -3.850   1.680  -1.429  1.00  0.00     0.168 HD
HETATM    8  C3  UNL     1      -3.741  -0.325  -1.222  1.00  0.00     0.183 A 
HETATM    9  N4  UNL     1      -2.954  -1.346  -0.853  1.00  0.00    -0.337 N 
ATOM     10  H4  UNL     1      -3.321  -2.296  -0.906  1.00  0.00     0.168 HD
HETATM   11  C4  UNL     1      -1.684  -1.156  -0.411  1.00  0.00     0.138 A 
HETATM   12  N5  UNL     1      -0.994  -2.176  -0.076  1.00  0.00    -0.291 N 
ATOM     13  H5  UNL     1      -0.038  -2.053   0.259  1.00  0.00     0.188 HD
HETATM   14  C5  UNL     1      -1.204   0.131  -0.345  1.00  0.00     0.100 A 
HETATM   15  C6  UNL     1       0.014   0.671   0.049  1.00  0.00     0.135 A 
ENDROOT
BRANCH  15  16
HETATM   16  N7  UNL     1       1.027   0.118   0.461  1.00  0.00    -0.373 N 
ATOM     17  H7  UNL     1       1.658   0.902   0.624  1.00  0.00     0.161 HD
BRANCH  16  18
HETATM   18  C7  UNL     1       1.775  -0.940   0.819  1.00  0.00     0.148 C 
BRANCH  18  19
HETATM   19  C8  UNL     1       3.188  -0.510   1.276  1.00  0.00     0.249 C 
BRANCH  19  20
HETATM   20  N8  UNL     1       3.820   0.171   0.162  1.00  0.00    -0.078 N 
ATOM     21  H83 UNL     1       3.831  -0.388  -0.691  1.00  0.00     0.274 HD
ATOM     22  H82 UNL     1       3.264   0.948  -0.195  1.00  0.00     0.274 HD
ATOM     23  H81 UNL     1       4.752   0.455   0.464  1.00  0.00     0.274 HD
ENDBRANCH  19  20
ENDBRANCH  18  19
ENDBRANCH  16  18
ENDBRANCH  15  16
BRANCH  12  24
HETATM   24  N6  UNL     1      -1.534  -3.450  -0.164  1.00  0.00    -0.344 N 
ATOM     25  H62 UNL     1      -2.491  -3.555  -0.501  1.00  0.00     0.176 HD
ATOM     26  H61 UNL     1      -0.983  -4.265   0.104  1.00  0.00     0.176 HD
ENDBRANCH  12  24
TORSDOF 5
