REMARK  6 active torsions:
REMARK  status: ('A' for Active; 'I' for Inactive)
REMARK    1  A    between atoms: N2_3  and  C2_5 
REMARK    2  A    between atoms: C2_5  and  S2_7 
REMARK    3  A    between atoms: S2_7  and  C3_8 
REMARK    4  A    between atoms: N3_12  and  C5_13 
REMARK    5  A    between atoms: C5_13  and  C6_14 
REMARK    6  A    between atoms: C12_20  and  O2_21 
ROOT
HETATM    1  N1  UNL     1       4.759   0.300   2.155  1.00  0.00    -0.172 NA
HETATM    2  C1  UNL     1       4.971   0.911   1.175  1.00  0.00     0.183 C 
HETATM    3  N2  UNL     1       5.277   1.648   0.052  1.00  0.00    -0.278 N 
ATOM      4  H2  UNL     1       6.167   2.146   0.080  1.00  0.00     0.179 HD
ENDROOT
BRANCH   3   5
HETATM    5  C2  UNL     1       4.542   1.803  -1.106  1.00  0.00     0.154 C 
HETATM    6  S1  UNL     1       5.367   2.837  -2.227  1.00  0.00    -0.051 SA
BRANCH   5   7
HETATM    7  S2  UNL     1       3.054   1.267  -1.748  1.00  0.00    -0.030 SA
BRANCH   7   8
HETATM    8  C3  UNL     1       2.004   0.217  -0.853  1.00  0.00     0.173 A 
HETATM    9  O1  UNL     1       2.115  -0.306   0.323  1.00  0.00    -0.272 OA
HETATM   10  C4  UNL     1       1.106  -1.054   0.659  1.00  0.00     0.225 A 
HETATM   11  S3  UNL     1       0.970  -1.843   2.079  1.00  0.00    -0.032 SA
HETATM   12  N3  UNL     1       0.215  -1.065  -0.345  1.00  0.00    -0.291 N 
HETATM   13  C12 UNL     1       0.752  -0.282  -1.297  1.00  0.00     0.187 A 
BRANCH  12  14
HETATM   14  C5  UNL     1      -1.051  -1.770  -0.387  1.00  0.00     0.172 C 
BRANCH  14  15
HETATM   15  C6  UNL     1      -2.190  -1.000   0.104  1.00  0.00    -0.040 A 
HETATM   16  C7  UNL     1      -2.858  -0.189  -0.826  1.00  0.00     0.009 A 
HETATM   17  C8  UNL     1      -3.936   0.568  -0.477  1.00  0.00     0.001 A 
HETATM   18  C9  UNL     1      -4.395   0.547   0.819  1.00  0.00     0.000 A 
HETATM   19  C10 UNL     1      -3.734  -0.250   1.716  1.00  0.00     0.001 A 
HETATM   20  C11 UNL     1      -2.640  -1.033   1.414  1.00  0.00     0.009 A 
ENDBRANCH  14  15
ENDBRANCH  12  14
BRANCH  13  21
HETATM   21  O2  UNL     1       0.233   0.032  -2.527  1.00  0.00    -0.343 OA
ATOM     22  H2  UNL     1      -0.605  -0.302  -2.824  1.00  0.00     0.219 HD
ENDBRANCH  13  21
ENDBRANCH   7   8
ENDBRANCH   5   7
ENDBRANCH   3   5
TORSDOF 6
