REMARK  3 active torsions:
REMARK  status: ('A' for Active; 'I' for Inactive)
REMARK       I    between atoms: N1_2  and  C2_4 
REMARK       I    between atoms: C2_4  and  N2_6 
REMARK    1  A    between atoms: N2_6  and  C3_8 
REMARK    2  A    between atoms: C3_8  and  C5_10 
REMARK       I    between atoms: C5_10  and  N3_12 
REMARK    3  A    between atoms: N4_15  and  C8_16 
ROOT
HETATM    1  C5  UNL     1       1.227  -0.784   1.358  1.00  0.00     0.246 C 
HETATM    2  O2  UNL     1       1.402  -0.119   2.439  1.00  0.00    -0.271 OA
HETATM    3  N3  UNL     1      -0.129  -1.047   0.956  1.00  0.00    -0.327 N 
HETATM    4  C6  UNL     1      -0.289  -1.689  -0.270  1.00  0.00     0.082 C 
HETATM    5  C7  UNL     1      -0.868  -1.055  -1.502  1.00  0.00     0.149 C 
HETATM    6  N4  UNL     1      -2.140  -0.325  -1.273  1.00  0.00    -0.240 NA
HETATM    7  C12 UNL     1      -2.241  -0.071   0.046  1.00  0.00    -0.085 C 
HETATM    8  C13 UNL     1      -2.279   0.136   1.425  1.00  0.00     0.036 C 
HETATM    9  C14 UNL     1      -3.541  -0.417   2.106  1.00  0.00     0.031 C 
HETATM   10  C15 UNL     1      -2.219   1.600   1.888  1.00  0.00     0.031 C 
HETATM   11  C16 UNL     1      -1.043  -0.576   2.033  1.00  0.00     0.153 C 
ENDROOT
BRANCH   1  12
HETATM   12  C3  UNL     1       2.436  -1.208   0.644  1.00  0.00     0.174 C 
HETATM   13  C4  UNL     1       2.675  -2.709   0.756  1.00  0.00     0.042 C 
BRANCH  12  14
HETATM   14  N2  UNL     1       3.589  -0.553   1.286  1.00  0.00    -0.330 N 
HETATM   15  C2  UNL     1       4.491   0.280   0.594  1.00  0.00     0.316 C 
HETATM   16  N1  UNL     1       5.569   0.873   1.288  1.00  0.00    -0.347 N 
HETATM   17  O1  UNL     1       4.365   0.514  -0.633  1.00  0.00    -0.247 OA
HETATM   18  C1  UNL     1       6.522   1.742   0.604  1.00  0.00     0.151 C 
ATOM     19  H1  UNL     1       5.684   0.691   2.285  1.00  0.00     0.163 HD
ATOM     20  H2  UNL     1       3.742  -0.710   2.282  1.00  0.00     0.165 HD
ENDBRANCH  12  14
ENDBRANCH   1  12
BRANCH   6  21
HETATM   21  C8  UNL     1      -2.359   0.719  -2.214  1.00  0.00     0.014 C 
HETATM   22  C9  UNL     1      -2.474   0.090  -3.561  1.00  0.00     0.032 C 
HETATM   23  C10 UNL     1      -1.293   1.782  -2.251  1.00  0.00     0.032 C 
HETATM   24  C11 UNL     1      -3.683   1.371  -1.894  1.00  0.00     0.032 C 
ENDBRANCH   6  21
TORSDOF 3
