REMARK  5 active torsions:
REMARK  status: ('A' for Active; 'I' for Inactive)
REMARK    1  A    between atoms: C4_4  and  C5_5 
REMARK    2  A    between atoms: C5_5  and  O1_6 
REMARK    3  A    between atoms: O1_6  and  C6_7 
REMARK    4  A    between atoms: C9_10  and  C10_11 
REMARK    5  A    between atoms: C12_13  and  C13_14 
ROOT
HETATM    1  C10 UNL     1      -1.686   0.392   0.689  1.00  0.00    -0.014 A 
HETATM    2  C11 UNL     1      -2.574   0.055  -0.343  1.00  0.00     0.025 A 
HETATM    3  C12 UNL     1      -3.939   0.066  -0.166  1.00  0.00    -0.024 A 
HETATM    4  C19 UNL     1      -4.413   0.422   1.077  1.00  0.00     0.024 A 
HETATM    5  C20 UNL     1      -3.577   0.763   2.133  1.00  0.00    -0.024 A 
HETATM    6  C21 UNL     1      -4.071   1.103   3.363  1.00  0.00     0.012 A 
HETATM    7  C22 UNL     1      -3.243   1.429   4.413  1.00  0.00     0.001 A 
HETATM    8  C23 UNL     1      -1.876   1.419   4.245  1.00  0.00     0.001 A 
HETATM    9  C24 UNL     1      -1.389   1.071   2.988  1.00  0.00     0.013 A 
HETATM   10  C25 UNL     1      -2.186   0.741   1.916  1.00  0.00    -0.015 A 
ENDROOT
BRANCH   1  11
HETATM   11  C9  UNL     1      -0.254   0.408   0.436  1.00  0.00    -0.025 A 
HETATM   12  C8  UNL     1       0.586   1.459   0.592  1.00  0.00     0.015 A 
HETATM   13  C7  UNL     1       1.925   1.348   0.319  1.00  0.00     0.037 A 
HETATM   14  C6  UNL     1       2.497   0.168  -0.129  1.00  0.00     0.069 A 
HETATM   15  C27 UNL     1       1.623  -0.892  -0.281  1.00  0.00     0.037 A 
HETATM   16  C26 UNL     1       0.294  -0.802  -0.016  1.00  0.00     0.015 A 
BRANCH  14  17
HETATM   17  O1  UNL     1       3.839   0.121  -0.384  1.00  0.00    -0.347 OA
BRANCH  17  18
HETATM   18  C5  UNL     1       4.531  -1.003  -0.837  1.00  0.00     0.214 C 
BRANCH  18  19
HETATM   19  C4  UNL     1       5.981  -0.709  -1.013  1.00  0.00    -0.034 A 
HETATM   20  C3  UNL     1       6.839  -1.695  -1.450  1.00  0.00     0.009 A 
HETATM   21  C2  UNL     1       8.187  -1.487  -1.633  1.00  0.00     0.001 A 
HETATM   22  C1  UNL     1       8.719  -0.242  -1.373  1.00  0.00     0.000 A 
HETATM   23  C29 UNL     1       7.875   0.772  -0.932  1.00  0.00     0.001 A 
HETATM   24  C28 UNL     1       6.521   0.545  -0.753  1.00  0.00     0.009 A 
ENDBRANCH  18  19
ENDBRANCH  17  18
ENDBRANCH  14  17
ENDBRANCH   1  11
BRANCH   3  25
HETATM   25  C13 UNL     1      -4.830  -0.293  -1.272  1.00  0.00    -0.026 A 
HETATM   26  C14 UNL     1      -6.077   0.291  -1.357  1.00  0.00     0.012 A 
HETATM   27  C15 UNL     1      -6.964  -0.004  -2.374  1.00  0.00     0.001 A 
HETATM   28  C16 UNL     1      -6.626  -0.910  -3.356  1.00  0.00     0.000 A 
HETATM   29  C17 UNL     1      -5.380  -1.496  -3.274  1.00  0.00     0.001 A 
HETATM   30  C18 UNL     1      -4.483  -1.200  -2.250  1.00  0.00     0.012 A 
ENDBRANCH   3  25
TORSDOF 5
