REMARK  5 active torsions:
REMARK  status: ('A' for Active; 'I' for Inactive)
REMARK    1  A    between atoms: C5_5  and  N1_6 
REMARK    2  A    between atoms: N1_6  and  C6_9 
REMARK    3  A    between atoms: C6_9  and  C7_10 
REMARK    4  A    between atoms: C7_10  and  N2_11 
REMARK    5  A    between atoms: C8_13  and  C9_14 
ROOT
HETATM    1  N1  UNL     1      -0.810   0.258   1.264  1.00  0.00    -0.069 N 
ATOM      2  H11 UNL     1      -0.517  -0.719   1.249  1.00  0.00     0.277 HD
ATOM      3  H12 UNL     1      -1.265   0.271   2.177  1.00  0.00     0.277 HD
ENDROOT
BRANCH   1   4
HETATM    4  C5  UNL     1      -1.737   0.547   0.208  1.00  0.00     0.186 C 
HETATM    5  C4  UNL     1      -2.234  -0.617  -0.575  1.00  0.00     0.033 C 
HETATM    6  C3  UNL     1      -3.232  -1.380   0.230  1.00  0.00     0.002 C 
HETATM    7  C2  UNL     1      -4.604  -0.844   0.281  1.00  0.00     0.000 C 
HETATM    8  C1  UNL     1      -4.910   0.380  -0.501  1.00  0.00     0.000 C 
HETATM    9  C14 UNL     1      -3.927   1.506  -0.283  1.00  0.00     0.002 C 
HETATM   10  C13 UNL     1      -2.978   1.226   0.828  1.00  0.00     0.033 C 
ENDBRANCH   1   4
BRANCH   1  11
HETATM   11  C6  UNL     1       0.312   1.144   1.224  1.00  0.00     0.252 C 
BRANCH  11  12
HETATM   12  C7  UNL     1       1.258   0.706   0.060  1.00  0.00     0.146 C 
BRANCH  12  13
HETATM   13  N2  UNL     1       1.752  -0.571   0.312  1.00  0.00    -0.400 N 
HETATM   14  C8  UNL     1       2.647  -1.271  -0.440  1.00  0.00     0.060 C 
ATOM     15  H2  UNL     1       1.406  -1.034   1.152  1.00  0.00     0.158 HD
BRANCH  14  16
HETATM   16  C9  UNL     1       4.057  -0.903  -0.591  1.00  0.00     0.024 C 
HETATM   17  C10 UNL     1       4.837  -0.791   0.739  1.00  0.00     0.010 C 
HETATM   18  C11 UNL     1       5.804   0.099  -0.055  1.00  0.00     0.001 C 
HETATM   19  C12 UNL     1       4.596   0.391  -1.003  1.00  0.00     0.010 C 
ENDBRANCH  14  16
ENDBRANCH  12  13
ENDBRANCH  11  12
ENDBRANCH   1  11
TORSDOF 5
