REMARK  5 active torsions:
REMARK  status: ('A' for Active; 'I' for Inactive)
REMARK    1  A    between atoms: C2_2  and  C3_3 
REMARK    2  A    between atoms: C3_3  and  C4_4 
REMARK    3  A    between atoms: C3_3  and  C10_14 
REMARK    4  A    between atoms: C4_4  and  N1_5 
REMARK    5  A    between atoms: N1_5  and  C5_7 
ROOT
HETATM    1  C4  UNL     1      -0.268   0.018  -0.867  1.00  0.00     0.119 C 
ENDROOT
BRANCH   1   2
HETATM    2  C3  UNL     1      -0.889  -0.547   0.386  1.00  0.00     0.007 C 
BRANCH   2   3
HETATM    3  C2  UNL     1      -1.053  -2.020   0.345  1.00  0.00     0.002 C 
HETATM    4  C1  UNL     1      -1.881  -2.607  -0.723  1.00  0.00     0.005 C 
ENDBRANCH   2   3
BRANCH   2   5
HETATM    5  C10 UNL     1      -2.128   0.170   0.836  1.00  0.00    -0.009 C 
HETATM    6  C11 UNL     1      -3.330  -0.014  -0.021  1.00  0.00     0.005 C 
HETATM    7  C12 UNL     1      -4.235   1.104   0.459  1.00  0.00     0.000 C 
HETATM    8  C13 UNL     1      -3.236   2.269   0.363  1.00  0.00     0.000 C 
HETATM    9  C14 UNL     1      -2.000   1.634   1.029  1.00  0.00     0.005 C 
ENDBRANCH   2   5
ENDBRANCH   1   2
BRANCH   1  10
HETATM   10  N1  UNL     1       1.028  -0.501  -1.140  1.00  0.00    -0.417 N 
ATOM     11  H1  UNL     1       1.198  -1.107  -1.942  1.00  0.00     0.153 HD
BRANCH  10  12
HETATM   12  C5  UNL     1       2.074  -0.142  -0.252  1.00  0.00     0.079 C 
HETATM   13  C6  UNL     1       2.395   1.313  -0.194  1.00  0.00     0.044 C 
HETATM   14  C7  UNL     1       3.873   1.476   0.135  1.00  0.00     0.115 C 
HETATM   15  N2  UNL     1       4.390   0.438   0.965  1.00  0.00    -0.421 N 
HETATM   16  C8  UNL     1       4.265  -0.889   0.461  1.00  0.00     0.115 C 
ATOM     17  H2  UNL     1       4.824   0.634   1.867  1.00  0.00     0.153 HD
HETATM   18  C9  UNL     1       3.339  -0.868  -0.730  1.00  0.00     0.044 C 
ENDBRANCH  10  12
ENDBRANCH   1  10
TORSDOF 5
