REMARK  1 active torsions:
REMARK  status: ('A' for Active; 'I' for Inactive)
REMARK    1  A    between atoms: O1_1  and  C1_3 
ROOT
HETATM    1  C1  UNL     1       0.502   1.064   0.422  1.00  0.00     0.126 C 
HETATM    2  C2  UNL     1       1.753   1.205  -0.449  1.00  0.00     0.032 C 
HETATM    3  C3  UNL     1       2.642   0.082  -0.012  1.00  0.00     0.002 C 
HETATM    4  C4  UNL     1       2.037  -1.242  -0.316  1.00  0.00     0.001 C 
HETATM    5  C5  UNL     1       0.570  -1.287  -0.473  1.00  0.00     0.012 C 
HETATM    6  C6  UNL     1      -0.233  -0.174   0.044  1.00  0.00    -0.014 C 
HETATM    7  C7  UNL     1      -1.293   0.198  -0.995  1.00  0.00     0.012 C 
HETATM    8  C8  UNL     1      -2.608  -0.261  -0.440  1.00  0.00     0.001 C 
HETATM    9  C9  UNL     1      -2.427   0.027   1.049  1.00  0.00     0.001 C 
HETATM   10  C10 UNL     1      -1.053  -0.572   1.278  1.00  0.00     0.012 C 
ENDROOT
BRANCH   1  11
HETATM   11  O1  UNL     1      -0.286   2.196   0.385  1.00  0.00    -0.395 OA
ATOM     12  H1  UNL     1      -1.062   2.108   0.926  1.00  0.00     0.210 HD
ENDBRANCH   1  11
TORSDOF 1
