REMARK  10 active torsions:
REMARK  status: ('A' for Active; 'I' for Inactive)
REMARK    1  A    between atoms: C2_2  and  C3_3 
REMARK    2  A    between atoms: C3_3  and  C4_4 
REMARK    3  A    between atoms: C5_5  and  C6_6 
REMARK    4  A    between atoms: C6_6  and  N1_7 
REMARK    5  A    between atoms: C7_8  and  O1_9 
REMARK    6  A    between atoms: C8_11  and  N2_12 
REMARK    7  A    between atoms: N2_12  and  C9_14 
REMARK    8  A    between atoms: C9_14  and  C11_16 
REMARK    9  A    between atoms: C16_21  and  N3_22 
REMARK   10  A    between atoms: C17_27  and  N5_28 
ROOT
HETATM    1  N1  UNL     1       1.408   0.805   0.640  1.00  0.00    -0.316 N 
HETATM    2  C7  UNL     1       0.737  -0.259   0.279  1.00  0.00     0.171 A 
HETATM    3  C8  UNL     1      -0.532   0.177  -0.139  1.00  0.00     0.094 A 
HETATM    4  C14 UNL     1      -0.625   1.566  -0.026  1.00  0.00     0.046 A 
HETATM    5  C15 UNL     1      -1.482   2.596  -0.239  1.00  0.00     0.058 A 
HETATM    6  C16 UNL     1      -2.794   2.603  -0.747  1.00  0.00     0.128 A 
HETATM    7  N4  UNL     1      -3.471   3.757  -0.892  1.00  0.00    -0.176 N 
ATOM      8  H4  UNL     1      -4.420   3.712  -1.263  1.00  0.00     0.186 HD
HETATM    9  C17 UNL     1      -2.983   4.941  -0.584  1.00  0.00     0.678 A 
HETATM   10  N6  UNL     1      -1.743   4.997  -0.099  1.00  0.00    -0.185 N 
ATOM     11  H6  UNL     1      -1.328   5.895   0.151  1.00  0.00     0.185 HD
HETATM   12  C18 UNL     1      -1.041   3.854   0.058  1.00  0.00     0.107 A 
HETATM   13  S1  UNL     1       0.548   3.591   0.620  1.00  0.00    -0.052 SA
HETATM   14  C19 UNL     1       0.612   1.903   0.466  1.00  0.00     0.094 A 
ENDROOT
BRANCH   3  15
HETATM   15  N2  UNL     1      -1.465  -0.795  -0.590  1.00  0.00    -0.381 N 
ATOM     16  H2  UNL     1      -1.697  -0.876  -1.580  1.00  0.00     0.160 HD
BRANCH  15  17
HETATM   17  C9  UNL     1      -2.078  -1.666   0.387  1.00  0.00     0.081 C 
HETATM   18  C10 UNL     1      -2.663  -0.880   1.501  1.00  0.00     0.032 C 
BRANCH  17  19
HETATM   19  C11 UNL     1      -3.195  -2.442  -0.308  1.00  0.00    -0.000 C 
HETATM   20  C12 UNL     1      -2.635  -3.261  -1.444  1.00  0.00     0.011 C 
HETATM   21  C13 UNL     1      -3.789  -3.370   0.720  1.00  0.00     0.011 C 
ENDBRANCH  17  19
ENDBRANCH  15  17
ENDBRANCH   3  15
BRANCH   2  22
HETATM   22  O1  UNL     1       1.094  -1.611   0.267  1.00  0.00    -0.344 OA
ATOM     23  H1  UNL     1       0.607  -2.383   0.005  1.00  0.00     0.219 HD
ENDBRANCH   2  22
BRANCH   1  24
HETATM   24  C6  UNL     1       2.788   0.842   1.130  1.00  0.00     0.159 C 
BRANCH  24  25
HETATM   25  C5  UNL     1       3.802   1.095   0.115  1.00  0.00    -0.007 C 
HETATM   26  C4  UNL     1       4.131   0.239  -1.002  1.00  0.00    -0.006 C 
BRANCH  26  27
HETATM   27  C3  UNL     1       4.869  -1.015  -0.955  1.00  0.00    -0.027 C 
BRANCH  27  28
HETATM   28  C2  UNL     1       4.554  -2.227  -0.219  1.00  0.00     0.022 C 
HETATM   29  C1  UNL     1       4.550  -2.233   1.257  1.00  0.00     0.009 C 
ENDBRANCH  27  28
ENDBRANCH  26  27
ENDBRANCH  24  25
ENDBRANCH   1  24
BRANCH   6  30
HETATM   30  N3  UNL     1      -3.398   1.544  -1.119  1.00  0.00    -0.384 N 
ATOM     31  H32 UNL     1      -2.885   0.669  -1.009  1.00  0.00     0.157 HD
ATOM     32  H31 UNL     1      -4.349   1.549  -1.487  1.00  0.00     0.157 HD
ENDBRANCH   6  30
BRANCH   9  33
HETATM   33  N5  UNL     1      -3.710   5.995  -0.758  1.00  0.00    -0.234 N 
ATOM     34  H52 UNL     1      -4.659   5.952  -1.129  1.00  0.00     0.174 HD
ATOM     35  H51 UNL     1      -3.332   6.912  -0.519  1.00  0.00     0.174 HD
ENDBRANCH   9  33
TORSDOF 10
