REMARK  9 active torsions:
REMARK  status: ('A' for Active; 'I' for Inactive)
REMARK    1  A    between atoms: N1_5  and  C5_6 
REMARK    2  A    between atoms: C5_6  and  C6_7 
REMARK    3  A    between atoms: C6_7  and  C7_8 
REMARK    4  A    between atoms: C7_8  and  N2_9 
REMARK    5  A    between atoms: N2_9  and  C8_10 
REMARK    6  A    between atoms: C8_10  and  C9_11 
REMARK    7  A    between atoms: C9_11  and  O1_12 
REMARK    8  A    between atoms: N5_27  and  N6_29 
REMARK    9  A    between atoms: N6_29  and  N7_31 
ROOT
HETATM    1  N2  UNL     1       1.154  -0.198  -0.310  1.00  0.00     0.062 N 
HETATM    2  C14 UNL     1       0.687   0.863  -1.141  1.00  0.00     0.422 C 
HETATM    3  O3  UNL     1       0.071   1.916  -0.810  1.00  0.00    -0.239 OA
HETATM    4  N4  UNL     1       1.012   0.597  -2.500  1.00  0.00    -0.329 N 
ATOM      5  H4  UNL     1       1.142   1.280  -3.247  1.00  0.00     0.164 HD
HETATM    6  C15 UNL     1       1.120  -0.830  -2.604  1.00  0.00     0.211 C 
HETATM    7  C16 UNL     1       1.437  -1.253  -1.194  1.00  0.00     0.229 C 
HETATM    8  N5  UNL     1       1.892  -2.423  -1.041  1.00  0.00    -0.267 N 
ATOM      9  H5  UNL     1       1.965  -2.921  -1.928  1.00  0.00     0.190 HD
ENDROOT
BRANCH   1  10
HETATM   10  C7  UNL     1       0.222  -0.661   0.666  1.00  0.00     0.259 C 
BRANCH  10  11
HETATM   11  C6  UNL     1      -1.154  -0.195   0.737  1.00  0.00     0.049 C 
BRANCH  11  12
HETATM   12  C5  UNL     1      -1.985  -0.559  -0.448  1.00  0.00     0.129 C 
BRANCH  12  13
HETATM   13  N1  UNL     1      -3.372  -0.061  -0.273  1.00  0.00    -0.366 N 
HETATM   14  C4  UNL     1      -3.739   1.153  -0.695  1.00  0.00     0.091 A 
HETATM   15  C3  UNL     1      -5.048   1.601  -0.517  1.00  0.00     0.024 A 
HETATM   16  C2  UNL     1      -5.987   0.807   0.093  1.00  0.00    -0.053 A 
HETATM   17  C1  UNL     1      -7.368   1.306   0.268  1.00  0.00     0.049 C 
HETATM   18  C18 UNL     1      -5.607  -0.438   0.524  1.00  0.00    -0.041 A 
HETATM   19  C17 UNL     1      -4.290  -0.836   0.323  1.00  0.00     0.097 A 
HETATM   20  C19 UNL     1      -6.562  -1.344   1.188  1.00  0.00     0.050 C 
ENDBRANCH  12  13
ENDBRANCH  11  12
ENDBRANCH  10  11
ENDBRANCH   1  10
BRANCH   1  21
HETATM   21  C8  UNL     1       2.321   0.234   0.436  1.00  0.00     0.305 C 
BRANCH  21  22
HETATM   22  C9  UNL     1       3.485   0.772  -0.258  1.00  0.00     0.165 C 
HETATM   23  C10 UNL     1       4.397   1.317   0.901  1.00  0.00     0.074 C 
HETATM   24  C11 UNL     1       5.263   0.170   1.275  1.00  0.00     0.083 C 
HETATM   25  C12 UNL     1       6.719   0.613   1.329  1.00  0.00     0.032 C 
HETATM   26  N3  UNL     1       5.150  -0.747   0.167  1.00  0.00    -0.354 N 
HETATM   27  C13 UNL     1       4.409  -0.148  -0.919  1.00  0.00     0.254 C 
ATOM     28  H3  UNL     1       5.540  -1.689   0.152  1.00  0.00     0.162 HD
HETATM   29  O2  UNL     1       4.647  -0.471  -2.102  1.00  0.00    -0.270 OA
BRANCH  22  30
HETATM   30  O1  UNL     1       3.298   1.887  -1.048  1.00  0.00    -0.378 OA
ATOM     31  H1  UNL     1       4.056   2.238  -1.500  1.00  0.00     0.211 HD
ENDBRANCH  22  30
ENDBRANCH  21  22
ENDBRANCH   1  21
BRANCH   8  32
HETATM   32  N6  UNL     1       2.302  -3.174  -0.013  1.00  0.00    -0.248 N 
ATOM     33  H6  UNL     1       2.992  -2.800   0.639  1.00  0.00     0.207 HD
BRANCH  32  34
HETATM   34  N7  UNL     1       1.838  -4.363   0.165  1.00  0.00    -0.331 N 
ATOM     35  H72 UNL     1       1.149  -4.721  -0.496  1.00  0.00     0.178 HD
ATOM     36  H71 UNL     1       2.151  -4.936   0.949  1.00  0.00     0.178 HD
ENDBRANCH  32  34
ENDBRANCH   8  32
TORSDOF 9
