REMARK  8 active torsions:
REMARK  status: ('A' for Active; 'I' for Inactive)
REMARK    1  A    between atoms: C2_2  and  O1_3 
REMARK    2  A    between atoms: O1_3  and  C3_4 
REMARK    3  A    between atoms: C3_4  and  C4_5 
REMARK    4  A    between atoms: C4_5  and  N1_6 
REMARK    5  A    between atoms: C8_10  and  C9_11 
REMARK    6  A    between atoms: C13_20  and  C14_21 
REMARK    7  A    between atoms: C14_21  and  N4_22 
REMARK    8  A    between atoms: C17_29  and  C18_30 
ROOT
HETATM    1  C9  UNL     1       0.003  -0.185  -0.757  1.00  0.00     0.047 A 
HETATM    2  C10 UNL     1      -0.349   1.042  -0.300  1.00  0.00     0.048 A 
HETATM    3  C11 UNL     1      -1.673   1.365  -0.117  1.00  0.00     0.039 A 
HETATM    4  C12 UNL     1      -1.993   2.628   0.335  1.00  0.00     0.113 A 
HETATM    5  N2  UNL     1      -1.025   3.451   0.585  1.00  0.00    -0.385 N 
ATOM      6  H21 UNL     1      -1.262   4.385   0.919  1.00  0.00     0.157 HD
ATOM      7  H22 UNL     1      -0.038   3.221   0.469  1.00  0.00     0.157 HD
HETATM    8  N3  UNL     1      -3.273   2.926   0.486  1.00  0.00    -0.330 N 
ATOM      9  H3  UNL     1      -3.538   3.853   0.821  1.00  0.00     0.168 HD
HETATM   10  C13 UNL     1      -4.225   2.029   0.206  1.00  0.00     0.111 A 
HETATM   11  N5  UNL     1      -3.968   0.755  -0.248  1.00  0.00    -0.337 N 
HETATM   12  C15 UNL     1      -5.014  -0.103  -0.641  1.00  0.00     0.158 C 
HETATM   13  C16 UNL     1      -2.669   0.413  -0.406  1.00  0.00     0.072 A 
HETATM   14  C17 UNL     1      -2.324  -0.837  -0.863  1.00  0.00     0.039 A 
HETATM   15  N6  UNL     1      -0.966  -1.062  -1.017  1.00  0.00    -0.352 N 
HETATM   16  C20 UNL     1      -0.593  -2.404  -1.528  1.00  0.00     0.156 C 
ENDROOT
BRANCH   1  17
HETATM   17  C8  UNL     1       1.394  -0.571  -0.970  1.00  0.00     0.006 A 
HETATM   18  C7  UNL     1       2.024  -0.370  -2.174  1.00  0.00     0.016 A 
HETATM   19  C6  UNL     1       3.353  -0.732  -2.360  1.00  0.00     0.018 A 
HETATM   20  C5  UNL     1       4.010  -1.304  -1.277  1.00  0.00     0.090 A 
HETATM   21  N1  UNL     1       3.405  -1.507  -0.095  1.00  0.00    -0.364 N 
HETATM   22  C21 UNL     1       2.107  -1.141   0.053  1.00  0.00     0.104 A 
BRANCH  21  23
HETATM   23  C4  UNL     1       4.167  -2.107   0.970  1.00  0.00     0.154 C 
BRANCH  23  24
HETATM   24  C3  UNL     1       4.877  -1.077   1.821  1.00  0.00     0.187 C 
BRANCH  24  25
HETATM   25  O1  UNL     1       5.774  -0.306   1.070  1.00  0.00    -0.390 OA
BRANCH  25  26
HETATM   26  C2  UNL     1       6.363   0.599   1.951  1.00  0.00     0.163 C 
HETATM   27  C1  UNL     1       7.359   1.504   1.284  1.00  0.00     0.033 C 
ENDBRANCH  25  26
ENDBRANCH  24  25
ENDBRANCH  23  24
ENDBRANCH  21  23
ENDBRANCH   1  17
BRANCH  14  28
HETATM   28  C18 UNL     1      -3.276  -1.912  -1.001  1.00  0.00     0.055 C 
HETATM   29  C19 UNL     1      -3.480  -2.724   0.287  1.00  0.00     0.011 C 
ENDBRANCH  14  28
BRANCH  10  30
HETATM   30  C14 UNL     1      -5.671   2.362   0.397  1.00  0.00     0.306 C 
BRANCH  30  31
HETATM   31  N4  UNL     1      -5.705   3.624   1.133  1.00  0.00    -0.073 N 
ATOM     32  H43 UNL     1      -5.176   3.600   2.005  1.00  0.00     0.274 HD
ATOM     33  H42 UNL     1      -5.173   4.370   0.684  1.00  0.00     0.274 HD
ATOM     34  H41 UNL     1      -6.691   3.851   1.263  1.00  0.00     0.274 HD
ENDBRANCH  30  31
ENDBRANCH  10  30
TORSDOF 8
