REMARK  5 active torsions:
REMARK  status: ('A' for Active; 'I' for Inactive)
REMARK    1  A    between atoms: O1_1  and  C1_3 
REMARK    2  A    between atoms: C1_3  and  C2_4 
REMARK    3  A    between atoms: C1_3  and  C9_13 
REMARK    4  A    between atoms: C9_13  and  C10_15 
REMARK    5  A    between atoms: C11_16  and  C12_17 
ROOT
HETATM    1  C1  UNL     1      -0.929  -0.098  -0.204  1.00  0.00     0.186 C 
ENDROOT
BRANCH   1   2
HETATM    2  O1  UNL     1      -0.285  -0.466  -1.394  1.00  0.00    -0.388 OA
ATOM      3  H1  UNL     1       0.601  -0.125  -1.414  1.00  0.00     0.210 HD
ENDBRANCH   1   2
BRANCH   1   4
HETATM    4  C2  UNL     1      -2.307  -0.628  -0.173  1.00  0.00     0.052 A 
HETATM    5  C3  UNL     1      -3.503  -0.072  -0.087  1.00  0.00     0.016 A 
HETATM    6  C4  UNL     1      -4.349   1.038   0.015  1.00  0.00     0.016 A 
HETATM    7  C8  UNL     1      -4.060  -1.331  -0.136  1.00  0.00     0.044 A 
HETATM    8  C5  UNL     1      -5.711   0.873   0.066  1.00  0.00     0.001 A 
HETATM    9  C6  UNL     1      -6.277  -0.376   0.018  1.00  0.00     0.002 A 
HETATM   10  C7  UNL     1      -5.442  -1.478  -0.083  1.00  0.00     0.030 A 
HETATM   11  N1  UNL     1      -2.914  -1.900  -0.221  1.00  0.00    -0.356 N 
ATOM     12  H1  UNL     1      -2.583  -2.862  -0.293  1.00  0.00     0.166 HD
ENDBRANCH   1   4
BRANCH   1  13
HETATM   13  C9  UNL     1      -0.091  -0.642   0.941  1.00  0.00     0.115 C 
HETATM   14 BR1  UNL     1      -0.845  -0.219   2.649  1.00  0.00    -0.084 Br
BRANCH  13  15
HETATM   15  C10 UNL     1       1.252   0.047   0.828  1.00  0.00    -0.007 C 
HETATM   16  C11 UNL     1       2.165  -0.545   0.108  1.00  0.00     0.008 C 
BRANCH  16  17
HETATM   17  C12 UNL     1       3.490   0.057  -0.050  1.00  0.00    -0.036 A 
HETATM   18  C13 UNL     1       3.871   1.246   0.520  1.00  0.00     0.011 A 
HETATM   19  C14 UNL     1       5.151   1.781   0.339  1.00  0.00     0.001 A 
HETATM   20  C15 UNL     1       6.092   1.132  -0.427  1.00  0.00     0.000 A 
HETATM   21  C16 UNL     1       5.711  -0.061  -1.000  1.00  0.00     0.001 A 
HETATM   22  C17 UNL     1       4.457  -0.597  -0.829  1.00  0.00     0.011 A 
ENDBRANCH  16  17
ENDBRANCH  13  15
ENDBRANCH   1  13
TORSDOF 5
