REMARK  9 active torsions:
REMARK  status: ('A' for Active; 'I' for Inactive)
REMARK    1  A    between atoms: C2_2  and  N1_3 
REMARK    2  A    between atoms: C5_8  and  C6_9 
REMARK    3  A    between atoms: C6_9  and  C7_10 
REMARK    4  A    between atoms: C7_10  and  C8_11 
REMARK    5  A    between atoms: C9_14  and  C10_15 
REMARK    6  A    between atoms: C10_15  and  N4_16 
REMARK    7  A    between atoms: N4_16  and  C11_18 
REMARK    8  A    between atoms: C11_18  and  C12_19 
REMARK    9  A    between atoms: C12_19  and  C13_20 
ROOT
HETATM    1  C8  UNL     1      -1.225   0.903   0.924  1.00  0.00     0.073 A 
HETATM    2  N3  UNL     1      -0.327   0.585   0.014  1.00  0.00    -0.344 N 
ATOM      3  H3  UNL     1      -0.381  -0.126  -0.715  1.00  0.00     0.167 HD
HETATM    4  C9  UNL     1       0.665   1.422   0.285  1.00  0.00     0.092 A 
HETATM    5  S1  UNL     1      -0.211   2.075   1.542  1.00  0.00    -0.053 SA
ENDROOT
BRANCH   4   6
HETATM    6  C10 UNL     1       1.883   1.627  -0.263  1.00  0.00     0.124 C 
BRANCH   6   7
HETATM    7  N4  UNL     1       2.328   0.863  -1.363  1.00  0.00    -0.376 N 
ATOM      8  H4  UNL     1       2.010   1.114  -2.299  1.00  0.00     0.164 HD
BRANCH   7   9
HETATM    9  C11 UNL     1       3.132  -0.153  -1.222  1.00  0.00     0.065 C 
BRANCH   9  10
HETATM   10  C12 UNL     1       3.605  -0.533   0.134  1.00  0.00     0.091 C 
BRANCH  10  11
HETATM   11  C13 UNL     1       5.070  -0.760   0.114  1.00  0.00     0.040 A 
HETATM   12  C14 UNL     1       6.081   0.175   0.086  1.00  0.00     0.034 A 
HETATM   13  C15 UNL     1       5.875   1.646   0.075  1.00  0.00     0.070 C 
HETATM   14  N5  UNL     1       7.275  -0.485   0.075  1.00  0.00    -0.302 N 
HETATM   15  N6  UNL     1       7.050  -1.785   0.094  1.00  0.00    -0.266 N 
ATOM     16  H5  UNL     1       8.195  -0.044   0.055  1.00  0.00     0.186 HD
HETATM   17  C16 UNL     1       5.723  -1.995   0.119  1.00  0.00     0.268 A 
ATOM     18  H6  UNL     1       7.766  -2.511   0.090  1.00  0.00     0.190 HD
HETATM   19  O1  UNL     1       5.096  -3.079   0.142  1.00  0.00    -0.266 OA
ENDBRANCH  10  11
ENDBRANCH   9  10
ENDBRANCH   7   9
ENDBRANCH   6   7
ENDBRANCH   4   6
BRANCH   1  20
HETATM   20  C7  UNL     1      -2.455   0.496   1.264  1.00  0.00     0.018 C 
BRANCH  20  21
HETATM   21  C6  UNL     1      -3.098  -0.602   0.489  1.00  0.00     0.106 C 
BRANCH  21  22
HETATM   22  C5  UNL     1      -4.184  -0.077  -0.380  1.00  0.00     0.086 A 
HETATM   23  N1  UNL     1      -5.467   0.050   0.012  1.00  0.00    -0.345 N 
HETATM   24  C3  UNL     1      -6.118   0.552  -1.049  1.00  0.00     0.109 A 
HETATM   25  C4  UNL     1      -5.251   0.739  -2.102  1.00  0.00     0.106 A 
HETATM   26  N2  UNL     1      -4.050   0.337  -1.654  1.00  0.00    -0.354 N 
ATOM     27  H2  UNL     1      -3.182   0.344  -2.189  1.00  0.00     0.166 HD
BRANCH  23  28
HETATM   28  C2  UNL     1      -6.007  -0.289   1.311  1.00  0.00     0.125 C 
HETATM   29  C1  UNL     1      -6.492  -1.720   1.391  1.00  0.00     0.027 C 
ENDBRANCH  23  28
ENDBRANCH  21  22
ENDBRANCH  20  21
ENDBRANCH   1  20
TORSDOF 9
