REMARK  9 active torsions:
REMARK  status: ('A' for Active; 'I' for Inactive)
REMARK    1  A    between atoms: C6_6  and  C7_7 
REMARK    2  A    between atoms: C7_7  and  C8_8 
REMARK    3  A    between atoms: N2_11  and  C9_12 
REMARK    4  A    between atoms: C9_12  and  O1_14 
REMARK    5  A    between atoms: C12_18  and  C13_19 
REMARK    6  A    between atoms: C13_19  and  C14_20 
REMARK    7  A    between atoms: C14_20  and  C15_21 
REMARK    8  A    between atoms: C17_23  and  C18_24 
REMARK    9  A    between atoms: N3_25  and  N4_27 
ROOT
HETATM    1  C8  UNL     1      -0.138   0.051  -0.369  1.00  0.00     0.134 C 
HETATM    2  N1  UNL     1       0.365  -1.126  -1.054  1.00  0.00    -0.320 N 
ATOM      3  H1  UNL     1      -0.155  -2.003  -1.078  1.00  0.00     0.181 HD
HETATM    4  N2  UNL     1       1.587  -0.984  -1.669  1.00  0.00    -0.235 N 
HETATM    5  C11 UNL     1       2.653  -0.349  -0.984  1.00  0.00     0.245 C 
HETATM    6  O2  UNL     1       3.811  -0.660  -1.258  1.00  0.00    -0.271 OA
HETATM    7  C12 UNL     1       2.238   0.682   0.044  1.00  0.00     0.091 C 
HETATM    8  C17 UNL     1       0.908   1.170  -0.449  1.00  0.00     0.067 C 
ENDROOT
BRANCH   1   9
HETATM    9  C7  UNL     1      -1.311   0.502  -1.130  1.00  0.00     0.030 C 
BRANCH   9  10
HETATM   10  C6  UNL     1      -2.563   0.130  -0.984  1.00  0.00     0.036 A 
HETATM   11  C4  UNL     1      -3.169  -0.750  -0.118  1.00  0.00    -0.033 A 
HETATM   12  C3  UNL     1      -4.543  -0.796  -0.467  1.00  0.00     0.037 A 
HETATM   13  C5  UNL     1      -2.540  -1.502   0.984  1.00  0.00     0.050 C 
HETATM   14  C2  UNL     1      -4.703   0.032  -1.503  1.00  0.00     0.023 A 
HETATM   15  C1  UNL     1      -5.924   0.224  -2.180  1.00  0.00     0.043 C 
HETATM   16  N5  UNL     1      -3.552   0.590  -1.819  1.00  0.00    -0.357 N 
ATOM     17  H5  UNL     1      -3.415   1.264  -2.572  1.00  0.00     0.166 HD
ENDBRANCH   9  10
ENDBRANCH   1   9
BRANCH   8  18
HETATM   18  C18 UNL     1       0.437   2.444   0.050  1.00  0.00     0.087 C 
HETATM   19  N3  UNL     1       0.794   3.541  -0.523  1.00  0.00    -0.322 N 
ATOM     20  H3  UNL     1       1.413   3.485  -1.332  1.00  0.00     0.185 HD
BRANCH  19  21
HETATM   21  N4  UNL     1       0.374   4.812  -0.091  1.00  0.00    -0.346 N 
ATOM     22  H42 UNL     1      -0.245   4.849   0.719  1.00  0.00     0.176 HD
ATOM     23  H41 UNL     1       0.657   5.681  -0.545  1.00  0.00     0.176 HD
ENDBRANCH  19  21
ENDBRANCH   8  18
BRANCH   4  24
HETATM   24  C9  UNL     1       1.756  -1.487  -3.006  1.00  0.00     0.239 C 
HETATM   25  C10 UNL     1       2.861  -2.448  -3.191  1.00  0.00     0.065 C 
BRANCH  24  26
HETATM   26  O1  UNL     1       1.969  -0.397  -3.892  1.00  0.00    -0.375 OA
ATOM     27  H1  UNL     1       2.081  -0.729  -4.775  1.00  0.00     0.212 HD
ENDBRANCH  24  26
ENDBRANCH   4  24
BRANCH   7  28
HETATM   28  C13 UNL     1       2.191  -0.079   1.345  1.00  0.00     0.015 C 
BRANCH  28  29
HETATM   29  C14 UNL     1       1.811   0.756   2.533  1.00  0.00     0.001 C 
BRANCH  29  30
HETATM   30  C15 UNL     1       1.806  -0.148   3.769  1.00  0.00    -0.005 C 
HETATM   31  C16 UNL     1       1.373   0.612   5.000  1.00  0.00     0.005 C 
ENDBRANCH  29  30
ENDBRANCH  28  29
ENDBRANCH   7  28
TORSDOF 9
