REMARK  2 active torsions:
REMARK  status: ('A' for Active; 'I' for Inactive)
REMARK    1  A    between atoms: C5_5  and  O1_6 
REMARK    2  A    between atoms: C9_15  and  N3_16 
ROOT
HETATM    1  C1  UNL     1      -2.808   1.477   0.806  1.00  0.00     0.023 C 
HETATM    2  C2  UNL     1      -2.354   0.599  -0.336  1.00  0.00     0.015 C 
HETATM    3  C3  UNL     1      -2.553   1.239  -1.674  1.00  0.00     0.023 C 
HETATM    4  C4  UNL     1      -3.114  -0.700  -0.259  1.00  0.00     0.071 C 
HETATM    5  C5  UNL     1      -2.118  -1.754  -0.615  1.00  0.00     0.229 C 
HETATM    6  N1  UNL     1      -0.811  -1.141  -0.333  1.00  0.00    -0.283 N 
HETATM    7  C6  UNL     1      -0.934   0.174  -0.176  1.00  0.00     0.097 A 
HETATM    8  N2  UNL     1       0.199   0.896   0.095  1.00  0.00    -0.328 N 
ATOM      9  H2  UNL     1       0.146   1.906   0.224  1.00  0.00     0.169 HD
HETATM   10  C7  UNL     1       1.369   0.269   0.189  1.00  0.00     0.152 A 
HETATM   11  C8  UNL     1       2.663   0.721   0.448  1.00  0.00     0.099 A 
HETATM   12  S1  UNL     1       3.692   2.044   0.783  1.00  0.00    -0.047 SA
HETATM   13  C9  UNL     1       5.175   1.191   0.895  1.00  0.00     0.144 A 
HETATM   14  N4  UNL     1       4.806  -0.066   0.670  1.00  0.00    -0.321 N 
ATOM     15  H4  UNL     1       5.495  -0.818   0.674  1.00  0.00     0.169 HD
HETATM   16  C10 UNL     1       3.543  -0.322   0.443  1.00  0.00     0.143 A 
HETATM   17  N5  UNL     1       2.741  -1.412   0.174  1.00  0.00    -0.274 N 
ATOM     18  H5  UNL     1       3.079  -2.371   0.097  1.00  0.00     0.189 HD
HETATM   19  N6  UNL     1       1.497  -1.058   0.031  1.00  0.00    -0.210 N 
HETATM   20  C11 UNL     1       0.391  -1.793  -0.237  1.00  0.00     0.205 A 
HETATM   21  S2  UNL     1       0.491  -3.391  -0.436  1.00  0.00    -0.038 SA
ENDROOT
BRANCH  13  22
HETATM   22  N3  UNL     1       6.378   1.659   1.142  1.00  0.00    -0.380 N 
ATOM     23  H32 UNL     1       6.661   2.624   1.315  1.00  0.00     0.158 HD
ATOM     24  H31 UNL     1       7.260   1.152   1.209  1.00  0.00     0.158 HD
ENDBRANCH  13  22
BRANCH   5  25
HETATM   25  O1  UNL     1      -2.273  -2.912   0.156  1.00  0.00    -0.376 OA
ATOM     26  H1  UNL     1      -1.639  -3.583  -0.070  1.00  0.00     0.212 HD
ENDBRANCH   5  25
TORSDOF 2
