REMARK  11 active torsions:
REMARK  status: ('A' for Active; 'I' for Inactive)
REMARK    1  A    between atoms: C2_2  and  O1_3 
REMARK    2  A    between atoms: C2_2  and  C3_5 
REMARK    3  A    between atoms: C2_2  and  C15_26 
REMARK    4  A    between atoms: C4_6  and  C5_7 
REMARK    5  A    between atoms: C5_7  and  N1_8 
REMARK    6  A    between atoms: C9_12  and  C10_13 
REMARK    7  A    between atoms: C10_13  and  C11_14 
REMARK    8  A    between atoms: C11_14  and  C12_15 
REMARK    9  A    between atoms: C12_15  and  N2_16 
REMARK   10  A    between atoms: C15_26  and  C16_27 
REMARK   11  A    between atoms: C16_27  and  N6_28 
ROOT
HETATM    1  C5  UNL     1      -0.577   1.782   1.304  1.00  0.00     0.221 C 
ENDROOT
BRANCH   1   2
HETATM    2  C4  UNL     1       0.392   0.721   1.011  1.00  0.00    -0.083 C 
HETATM    3  C3  UNL     1       1.198  -0.139   0.756  1.00  0.00    -0.067 C 
BRANCH   3   4
HETATM    4  C2  UNL     1       2.188  -1.172   0.426  1.00  0.00     0.119 C 
HETATM    5  C1  UNL     1       1.986  -2.304   1.399  1.00  0.00     0.060 C 
BRANCH   4   6
HETATM    6  O1  UNL     1       1.943  -1.629  -0.874  1.00  0.00    -0.378 OA
ATOM      7  H1  UNL     1       2.070  -0.915  -1.488  1.00  0.00     0.211 HD
ENDBRANCH   4   6
BRANCH   4   8
HETATM    8  C15 UNL     1       3.537  -0.545   0.514  1.00  0.00     0.071 C 
BRANCH   8   9
HETATM    9  C16 UNL     1       4.667  -1.503   0.240  1.00  0.00     0.134 C 
BRANCH   9  10
HETATM   10  N6  UNL     1       5.930  -0.799   0.350  1.00  0.00    -0.341 N 
HETATM   11  C17 UNL     1       6.631  -0.692   1.505  1.00  0.00     0.183 A 
HETATM   12  N7  UNL     1       7.736   0.021   1.227  1.00  0.00    -0.350 N 
HETATM   13  C18 UNL     1       7.771   0.377  -0.063  1.00  0.00     0.060 A 
ATOM     14  H7  UNL     1       8.455   0.260   1.910  1.00  0.00     0.166 HD
HETATM   15  C19 UNL     1       8.623   1.083  -0.878  1.00  0.00     0.032 A 
HETATM   16  C23 UNL     1       6.619  -0.146  -0.625  1.00  0.00     0.062 A 
HETATM   17  C20 UNL     1       8.358   1.279  -2.223  1.00  0.00     0.002 A 
HETATM   18  C21 UNL     1       7.195   0.740  -2.745  1.00  0.00     0.002 A 
HETATM   19  C22 UNL     1       6.320   0.029  -1.961  1.00  0.00     0.032 A 
ENDBRANCH   9  10
ENDBRANCH   8   9
ENDBRANCH   4   8
ENDBRANCH   3   4
ENDBRANCH   1   2
BRANCH   1  20
HETATM   20  N1  UNL     1      -1.929   1.307   1.344  1.00  0.00    -0.355 N 
HETATM   21  C6  UNL     1      -2.458   0.870   2.493  1.00  0.00     0.091 A 
HETATM   22  C7  UNL     1      -3.753   0.410   2.560  1.00  0.00     0.018 A 
HETATM   23  C8  UNL     1      -4.517   0.402   1.409  1.00  0.00     0.014 A 
HETATM   24  C9  UNL     1      -3.996   0.841   0.231  1.00  0.00    -0.021 A 
HETATM   25  C14 UNL     1      -2.683   1.289   0.254  1.00  0.00     0.102 A 
BRANCH  24  26
HETATM   26  C10 UNL     1      -4.726   0.794  -1.006  1.00  0.00     0.010 C 
BRANCH  26  27
HETATM   27  C11 UNL     1      -5.789   0.206  -1.405  1.00  0.00    -0.003 C 
BRANCH  27  28
HETATM   28  C12 UNL     1      -6.709  -0.692  -0.730  1.00  0.00     0.198 C 
BRANCH  28  29
HETATM   29  N2  UNL     1      -8.043  -0.170  -0.582  1.00  0.00    -0.212 N 
HETATM   30  N3  UNL     1      -8.445   0.533   0.463  1.00  0.00    -0.232 N 
HETATM   31  C13 UNL     1      -9.727   0.841   0.244  1.00  0.00     0.355 A 
ATOM     32  H3  UNL     1      -7.886   0.790   1.277  1.00  0.00     0.193 HD
HETATM   33  O2  UNL     1     -10.502   1.510   0.997  1.00  0.00    -0.244 OA
HETATM   34  N4  UNL     1     -10.112   0.334  -0.925  1.00  0.00    -0.234 N 
HETATM   35  N5  UNL     1      -9.053  -0.287  -1.415  1.00  0.00    -0.222 N 
ATOM     36  H4  UNL     1     -11.034   0.409  -1.354  1.00  0.00     0.193 HD
ATOM     37  H5  UNL     1      -9.024  -0.783  -2.306  1.00  0.00     0.210 HD
ENDBRANCH  28  29
ENDBRANCH  27  28
ENDBRANCH  26  27
ENDBRANCH  24  26
ENDBRANCH   1  20
TORSDOF 11
