REMARK  11 active torsions:
REMARK  status: ('A' for Active; 'I' for Inactive)
REMARK    1  A    between atoms: C4_5  and  C5_6 
REMARK       I    between atoms: C5_6  and  N1_8 
REMARK    2  A    between atoms: N1_8  and  C6_10 
REMARK    3  A    between atoms: C8_13  and  C9_14 
REMARK    4  A    between atoms: C9_14  and  O3_15 
REMARK    5  A    between atoms: C10_17  and  O4_18 
REMARK    6  A    between atoms: C11_20  and  O5_21 
REMARK    7  A    between atoms: C12_23  and  C13_24 
REMARK    8  A    between atoms: C13_24  and  S2_25 
REMARK    9  A    between atoms: S2_25  and  C14_26 
REMARK   10  A    between atoms: C17_33  and  C18_34 
REMARK   11  A    between atoms: C18_34  and  N3_35 
ROOT
HETATM    1  C1  UNL     1       2.733  -3.815  -0.671  1.00  0.00     0.027 C 
HETATM    2  C2  UNL     1       2.089  -2.497  -1.007  1.00  0.00     0.007 C 
HETATM    3  C3  UNL     1       2.193  -2.125  -2.444  1.00  0.00     0.027 C 
HETATM    4  S1  UNL     1       0.341  -2.592  -0.446  1.00  0.00    -0.144 SA
HETATM    5  C4  UNL     1       0.215  -0.902   0.282  1.00  0.00     0.145 C 
HETATM    6  C12 UNL     1       1.506  -0.325  -0.229  1.00  0.00     0.025 C 
HETATM    7  C17 UNL     1       2.571  -1.379  -0.073  1.00  0.00     0.035 C 
ENDROOT
BRANCH   5   8
HETATM    8  C5  UNL     1      -0.988  -0.223  -0.196  1.00  0.00     0.232 C 
HETATM    9  O1  UNL     1      -0.881   0.833  -0.859  1.00  0.00    -0.272 OA
HETATM   10  N1  UNL     1      -2.292  -0.715   0.063  1.00  0.00    -0.351 N 
ATOM     11  H1  UNL     1      -2.399  -1.574   0.602  1.00  0.00     0.163 HD
BRANCH  10  12
HETATM   12  C6  UNL     1      -3.490  -0.025  -0.422  1.00  0.00     0.139 C 
HETATM   13  C7  UNL     1      -4.234  -1.007  -1.282  1.00  0.00     0.196 C 
HETATM   14  O2  UNL     1      -5.353  -0.492  -1.886  1.00  0.00    -0.379 OA
HETATM   15  C8  UNL     1      -6.103   0.358  -1.114  1.00  0.00     0.176 C 
HETATM   16  C10 UNL     1      -5.805   0.319   0.342  1.00  0.00     0.180 C 
HETATM   17  C11 UNL     1      -4.367   0.389   0.709  1.00  0.00     0.174 C 
BRANCH  15  18
HETATM   18  C9  UNL     1      -6.073   1.792  -1.665  1.00  0.00     0.198 C 
BRANCH  18  19
HETATM   19  O3  UNL     1      -6.833   2.639  -0.877  1.00  0.00    -0.398 OA
ATOM     20  H3  UNL     1      -6.814   3.526  -1.218  1.00  0.00     0.209 HD
ENDBRANCH  18  19
ENDBRANCH  15  18
BRANCH  16  21
HETATM   21  O4  UNL     1      -6.424  -0.804   0.939  1.00  0.00    -0.390 OA
ATOM     22  H4  UNL     1      -6.234  -0.829   1.869  1.00  0.00     0.210 HD
ENDBRANCH  16  21
BRANCH  17  23
HETATM   23  O5  UNL     1      -4.135  -0.451   1.788  1.00  0.00    -0.391 OA
ATOM     24  H5  UNL     1      -4.694  -0.187   2.509  1.00  0.00     0.210 HD
ENDBRANCH  17  23
ENDBRANCH  10  12
ENDBRANCH   5   8
BRANCH   6  25
HETATM   25  C13 UNL     1       1.894   0.985   0.384  1.00  0.00     0.085 C 
BRANCH  25  26
HETATM   26  S2  UNL     1       3.484   1.499  -0.372  1.00  0.00    -0.109 SA
BRANCH  26  27
HETATM   27  C14 UNL     1       3.993   3.084   0.343  1.00  0.00     0.385 C 
HETATM   28  N2  UNL     1       5.229   3.558  -0.195  1.00  0.00    -0.037 N 
HETATM   29  C15 UNL     1       6.274   3.072   0.665  1.00  0.00     0.262 C 
ATOM     30  H22 UNL     1       5.364   3.304  -1.174  1.00  0.00     0.281 HD
ATOM     31  H21 UNL     1       5.250   4.570  -0.320  1.00  0.00     0.281 HD
HETATM   32  C16 UNL     1       5.526   2.753   1.937  1.00  0.00     0.199 C 
HETATM   33  O6  UNL     1       4.193   3.018   1.701  1.00  0.00    -0.350 OA
ENDBRANCH  26  27
ENDBRANCH  25  26
ENDBRANCH   6  25
BRANCH   7  34
HETATM   34  C18 UNL     1       2.647  -1.988   1.289  1.00  0.00     0.236 C 
BRANCH  34  35
HETATM   35  N3  UNL     1       3.080  -1.125   2.337  1.00  0.00    -0.079 N 
ATOM     36  H33 UNL     1       3.979  -0.709   2.093  1.00  0.00     0.274 HD
ATOM     37  H32 UNL     1       2.493  -0.291   2.363  1.00  0.00     0.274 HD
ATOM     38  H31 UNL     1       3.132  -1.541   3.267  1.00  0.00     0.274 HD
ENDBRANCH  34  35
ENDBRANCH   7  34
TORSDOF 11
