REMARK  9 active torsions:
REMARK  status: ('A' for Active; 'I' for Inactive)
REMARK    1  A    between atoms: C3_3  and  C4_4 
REMARK    2  A    between atoms: C3_3  and  O1_6 
REMARK    3  A    between atoms: O1_6  and  C6_7 
REMARK    4  A    between atoms: C6_7  and  C7_8 
REMARK    5  A    between atoms: C7_8  and  N1_9 
REMARK    6  A    between atoms: N1_9  and  C8_11 
REMARK    7  A    between atoms: C9_14  and  N3_15 
REMARK       I    between atoms: N3_15  and  C10_17 
REMARK    8  A    between atoms: C11_24  and  N7_25 
REMARK    9  A    between atoms: N7_25  and  C12_27 
ROOT
HETATM    1  C8  UNL     1      -1.457   0.681  -0.415  1.00  0.00     0.707 A 
HETATM    2  N2  UNL     1      -2.465   1.561  -0.481  1.00  0.00    -0.021 N 
ATOM      3  H2  UNL     1      -2.247   2.553  -0.576  1.00  0.00     0.203 HD
HETATM    4  C9  UNL     1      -3.763   1.181  -0.426  1.00  0.00     0.713 A 
HETATM    5  N6  UNL     1      -3.998  -0.138  -0.302  1.00  0.00    -0.021 N 
ATOM      6  H6  UNL     1      -4.967  -0.453  -0.259  1.00  0.00     0.203 HD
HETATM    7  C11 UNL     1      -3.029  -1.061  -0.232  1.00  0.00     0.713 A 
HETATM    8  N9  UNL     1      -1.746  -0.626  -0.291  1.00  0.00    -0.021 N 
ATOM      9  H9  UNL     1      -0.985  -1.304  -0.240  1.00  0.00     0.203 HD
ENDROOT
BRANCH   1  10
HETATM   10  N1  UNL     1      -0.228   1.034  -0.466  1.00  0.00    -0.223 N 
ATOM     11  H1  UNL     1      -0.032   2.031  -0.560  1.00  0.00     0.177 HD
BRANCH  10  12
HETATM   12  C7  UNL     1       0.891   0.152  -0.402  1.00  0.00     0.164 C 
BRANCH  12  13
HETATM   13  C6  UNL     1       2.130   0.928  -0.774  1.00  0.00     0.195 C 
BRANCH  13  14
HETATM   14  O1  UNL     1       3.300   0.179  -0.750  1.00  0.00    -0.354 OA
BRANCH  14  15
HETATM   15  C3  UNL     1       3.807  -0.469   0.365  1.00  0.00     0.042 C 
HETATM   16  C2  UNL     1       4.498   0.254   1.219  1.00  0.00     0.001 C 
HETATM   17  C1  UNL     1       4.747   1.697   1.036  1.00  0.00     0.038 C 
BRANCH  15  18
HETATM   18  C4  UNL     1       3.607  -1.905   0.628  1.00  0.00     0.060 C 
HETATM   19  C5  UNL     1       4.193  -2.763  -0.498  1.00  0.00     0.012 C 
ENDBRANCH  15  18
ENDBRANCH  14  15
ENDBRANCH  13  14
ENDBRANCH  12  13
ENDBRANCH  10  12
ENDBRANCH   1  10
BRANCH   4  20
HETATM   20  N3  UNL     1      -4.752   1.972  -0.484  1.00  0.00    -0.163 N 
HETATM   21  C10 UNL     1      -4.722   3.356  -0.611  1.00  0.00     0.200 C 
HETATM   22  N4  UNL     1      -4.817   3.904  -1.766  1.00  0.00    -0.373 N 
HETATM   23  N5  UNL     1      -4.585   4.179   0.531  1.00  0.00    -0.063 NA
ATOM     24  H42 UNL     1      -4.916   3.310  -2.590  1.00  0.00     0.158 HD
ATOM     25  H41 UNL     1      -4.795   4.919  -1.859  1.00  0.00     0.158 HD
ATOM     26  H3  UNL     1      -5.676   1.544  -0.431  1.00  0.00     0.187 HD
ENDBRANCH   4  20
BRANCH   7  27
HETATM   27  N7  UNL     1      -3.349  -2.289  -0.115  1.00  0.00    -0.167 N 
ATOM     28  H7  UNL     1      -4.345  -2.508  -0.081  1.00  0.00     0.186 HD
BRANCH  27  29
HETATM   29  C12 UNL     1      -2.454  -3.367  -0.029  1.00  0.00     0.199 C 
HETATM   30  N8  UNL     1      -2.310  -4.068   1.207  1.00  0.00    -0.069 NA
HETATM   31  S1  UNL     1      -1.537  -3.896  -1.277  1.00  0.00    -0.044 SA
ENDBRANCH  27  29
ENDBRANCH   7  27
TORSDOF 9
