REMARK  4 active torsions:
REMARK  status: ('A' for Active; 'I' for Inactive)
REMARK       I    between atoms: C1_4  and  N3_6 
REMARK       I    between atoms: C2_8  and  N5_10 
REMARK    1  A    between atoms: N5_10  and  C3_12 
REMARK    2  A    between atoms: C5_17  and  N7_18 
REMARK       I    between atoms: N7_18  and  C6_19 
REMARK    3  A    between atoms: C6_19  and  C7_21 
REMARK    4  A    between atoms: C8_22  and  N8_23 
ROOT
HETATM    1  C3  UNL     1       3.095  -0.912  -0.494  1.00  0.00     0.356 C 
HETATM    2  N6  UNL     1       2.132  -1.956  -0.376  1.00  0.00    -0.044 N 
ATOM      3  H61 UNL     1       2.210  -2.446   0.515  1.00  0.00     0.280 HD
ATOM      4  H62 UNL     1       2.341  -2.738  -0.997  1.00  0.00     0.280 HD
HETATM    5  C4  UNL     1       0.804  -1.440  -0.591  1.00  0.00     0.275 C 
HETATM    6  C5  UNL     1       0.476  -0.460   0.572  1.00  0.00     0.200 C 
HETATM    7  C13 UNL     1       1.270   0.805   0.174  1.00  0.00     0.123 C 
HETATM    8  C14 UNL     1       2.362   0.378  -0.756  1.00  0.00     0.179 C 
HETATM    9  O2  UNL     1       2.628   1.089  -1.701  1.00  0.00    -0.294 OA
ENDROOT
BRANCH   1  10
HETATM   10  N5  UNL     1       3.887  -0.692   0.698  1.00  0.00    -0.331 N 
HETATM   11  C2  UNL     1       4.743  -1.639   1.290  1.00  0.00     0.192 C 
HETATM   12  N3  UNL     1       5.518  -1.292   2.243  1.00  0.00    -0.305 N 
HETATM   13  N4  UNL     1       4.735  -2.968   0.821  1.00  0.00    -0.063 NA
HETATM   14  C1  UNL     1       6.426  -2.105   2.937  1.00  0.00     0.188 C 
ATOM     15  H3  UNL     1       5.472  -0.315   2.532  1.00  0.00     0.171 HD
HETATM   16  N1  UNL     1       5.969  -3.140   3.554  1.00  0.00    -0.373 N 
HETATM   17  N2  UNL     1       7.822  -1.858   3.000  1.00  0.00    -0.064 NA
ATOM     18  H12 UNL     1       6.629  -3.731   4.059  1.00  0.00     0.158 HD
ATOM     19  H11 UNL     1       4.966  -3.318   3.509  1.00  0.00     0.158 HD
ATOM     20  H5  UNL     1       3.819   0.223   1.144  1.00  0.00     0.164 HD
ENDBRANCH   1  10
BRANCH   6  21
HETATM   21  N7  UNL     1      -0.872  -0.214   0.626  1.00  0.00    -0.404 NA
HETATM   22  C6  UNL     1      -2.220   0.029   0.684  1.00  0.00     0.312 C 
HETATM   23  O1  UNL     1      -3.032  -0.382   1.547  1.00  0.00    -0.252 OA
BRANCH  22  24
HETATM   24  C7  UNL     1      -2.870   0.876  -0.359  1.00  0.00     0.106 C 
HETATM   25  C8  UNL     1      -4.154   1.111  -0.324  1.00  0.00     0.092 C 
BRANCH  25  26
HETATM   26  N8  UNL     1      -4.853   1.889  -1.246  1.00  0.00    -0.390 N 
HETATM   27  C9  UNL     1      -5.210   1.622  -2.603  1.00  0.00     0.122 C 
HETATM   28  C10 UNL     1      -6.625   2.142  -2.709  1.00  0.00     0.021 C 
HETATM   29  C11 UNL     1      -6.791   3.070  -1.520  1.00  0.00     0.021 C 
HETATM   30  C12 UNL     1      -5.387   3.222  -0.945  1.00  0.00     0.122 C 
ENDBRANCH  25  26
ENDBRANCH  22  24
ENDBRANCH   6  21
TORSDOF 4
