REMARK  6 active torsions:
REMARK  status: ('A' for Active; 'I' for Inactive)
REMARK    1  A    between atoms: N1_2  and  C2_4 
REMARK    2  A    between atoms: C2_4  and  N2_6 
REMARK    3  A    between atoms: N2_6  and  N3_8 
REMARK       I    between atoms: N3_8  and  C3_10 
REMARK       I    between atoms: C3_10  and  N4_12 
REMARK       I    between atoms: N4_12  and  C4_14 
REMARK    4  A    between atoms: C4_14  and  C5_16 
REMARK    5  A    between atoms: C5_16  and  N5_18 
REMARK    6  A    between atoms: C5_16  and  C9_25 
REMARK       I    between atoms: C7_20  and  N7_22 
ROOT
HETATM    1  N3  UNL     1       2.539  -0.878   0.150  1.00  0.00    -0.249 N 
ATOM      2  H3  UNL     1       2.170  -0.441   0.995  1.00  0.00     0.192 HD
HETATM    3  C3  UNL     1       1.802  -0.916  -1.034  1.00  0.00     0.341 C 
HETATM    4  O1  UNL     1       2.381  -1.477  -2.044  1.00  0.00    -0.245 OA
HETATM    5  N4  UNL     1       0.523  -0.433  -1.285  1.00  0.00    -0.276 N 
ATOM      6  H4  UNL     1       0.146  -0.530  -2.228  1.00  0.00     0.173 HD
HETATM    7  C4  UNL     1      -0.284   0.187  -0.298  1.00  0.00     0.254 C 
HETATM    8  O2  UNL     1       0.136   0.353   0.839  1.00  0.00    -0.270 OA
ENDROOT
BRANCH   7   9
HETATM    9  C5  UNL     1      -1.674   0.652  -0.617  1.00  0.00     0.113 C 
HETATM   10  C6  UNL     1      -1.856   0.524  -2.152  1.00  0.00     0.049 C 
BRANCH   9  11
HETATM   11  N5  UNL     1      -2.629  -0.089   0.032  1.00  0.00    -0.347 N 
HETATM   12  C7  UNL     1      -2.915  -0.694   1.040  1.00  0.00     0.184 C 
HETATM   13  N6  UNL     1      -2.094  -0.871   2.207  1.00  0.00    -0.064 NA
HETATM   14  N7  UNL     1      -4.207  -1.363   1.189  1.00  0.00    -0.369 N 
HETATM   15  C8  UNL     1      -4.629  -2.271   0.155  1.00  0.00     0.148 C 
ATOM     16  H7  UNL     1      -4.794  -1.190   2.005  1.00  0.00     0.161 HD
ATOM     17  H5  UNL     1      -3.430  -0.159  -0.595  1.00  0.00     0.163 HD
ENDBRANCH   9  11
BRANCH   9  18
HETATM   18  C9  UNL     1      -1.821   2.149  -0.382  1.00  0.00     0.015 C 
HETATM   19  C10 UNL     1      -3.216   2.570  -0.701  1.00  0.00     0.012 C 
HETATM   20  C11 UNL     1      -1.388   2.623   0.954  1.00  0.00     0.012 C 
ENDBRANCH   9  18
ENDBRANCH   7   9
BRANCH   1  21
HETATM   21  N2  UNL     1       3.834  -1.479   0.124  1.00  0.00    -0.272 N 
ATOM     22  H2  UNL     1       3.906  -2.483  -0.042  1.00  0.00     0.189 HD
BRANCH  21  23
HETATM   23  C2  UNL     1       5.015  -0.738   0.319  1.00  0.00     0.186 C 
HETATM   24  S1  UNL     1       4.993   0.878   0.584  1.00  0.00    -0.040 SA
BRANCH  23  25
HETATM   25  N1  UNL     1       6.262  -1.393   0.283  1.00  0.00    -0.370 N 
HETATM   26  C1  UNL     1       7.471  -0.624   0.483  1.00  0.00     0.148 C 
ATOM     27  H1  UNL     1       6.312  -2.398   0.118  1.00  0.00     0.161 HD
ENDBRANCH  23  25
ENDBRANCH  21  23
ENDBRANCH   1  21
TORSDOF 6
