REMARK  5 active torsions:
REMARK  status: ('A' for Active; 'I' for Inactive)
REMARK    1  A    between atoms: N1_1  and  C1_4 
REMARK    2  A    between atoms: N4_11  and  N5_12 
REMARK    3  A    between atoms: C3_14  and  C4_16 
REMARK    4  A    between atoms: C7_19  and  N7_20 
REMARK    5  A    between atoms: C7_19  and  C8_24 
REMARK       I    between atoms: C8_24  and  N8_26 
ROOT
HETATM    1  C4  UNL     1       1.219  -1.189   0.264  1.00  0.00     0.055 C 
HETATM    2  C5  UNL     1       0.743  -1.988  -0.931  1.00  0.00     0.015 C 
HETATM    3  C6  UNL     1      -0.754  -2.075  -0.719  1.00  0.00     0.049 C 
HETATM    4  C7  UNL     1      -1.119  -0.690  -0.185  1.00  0.00     0.204 C 
HETATM    5  C13 UNL     1       0.102  -0.268   0.631  1.00  0.00     0.060 C 
ENDROOT
BRANCH   1   6
HETATM    6  C3  UNL     1       2.429  -0.387  -0.028  1.00  0.00     0.112 C 
HETATM    7  N5  UNL     1       3.506  -0.589   0.645  1.00  0.00    -0.265 N 
ATOM      8  H5  UNL     1       3.509  -1.303   1.374  1.00  0.00     0.189 HD
HETATM    9  N6  UNL     1       2.421   0.593  -1.032  1.00  0.00    -0.086 NA
BRANCH   7  10
HETATM   10  N4  UNL     1       4.658   0.133   0.409  1.00  0.00    -0.028 N 
HETATM   11  C1  UNL     1       4.914   1.370   0.852  1.00  0.00     0.716 A 
HETATM   12  N2  UNL     1       6.126   1.769   0.436  1.00  0.00    -0.127 N 
HETATM   13  N3  UNL     1       6.623   0.765  -0.272  1.00  0.00    -0.235 N 
ATOM     14  H2  UNL     1       6.575   2.665   0.627  1.00  0.00     0.206 HD
HETATM   15  C2  UNL     1       5.739  -0.235  -0.295  1.00  0.00     0.375 A 
ATOM     16  H3  UNL     1       7.536   0.758  -0.727  1.00  0.00     0.192 HD
HETATM   17  O1  UNL     1       5.857  -1.346  -0.865  1.00  0.00    -0.243 OA
BRANCH  11  18
HETATM   18  N1  UNL     1       4.144   2.125   1.580  1.00  0.00    -0.231 N 
ATOM     19  H12 UNL     1       4.339   3.068   1.918  1.00  0.00     0.174 HD
ATOM     20  H11 UNL     1       3.223   1.822   1.896  1.00  0.00     0.174 HD
ENDBRANCH  11  18
ENDBRANCH   7  10
ENDBRANCH   1   6
BRANCH   4  21
HETATM   21  N7  UNL     1      -1.288   0.240  -1.257  1.00  0.00    -0.061 N 
ATOM     22  H73 UNL     1      -0.467   0.273  -1.861  1.00  0.00     0.275 HD
ATOM     23  H72 UNL     1      -1.968  -0.092  -1.941  1.00  0.00     0.275 HD
ATOM     24  H71 UNL     1      -1.532   1.164  -0.901  1.00  0.00     0.275 HD
ENDBRANCH   4  21
BRANCH   4  25
HETATM   25  C8  UNL     1      -2.243  -0.746   0.742  1.00  0.00     0.256 C 
HETATM   26  O2  UNL     1      -2.124  -1.490   1.775  1.00  0.00    -0.271 OA
HETATM   27  N8  UNL     1      -3.438  -0.045   0.579  1.00  0.00    -0.350 N 
HETATM   28  C9  UNL     1      -3.796   0.829  -0.514  1.00  0.00     0.126 C 
HETATM   29  C12 UNL     1      -4.582  -0.040   1.502  1.00  0.00     0.126 C 
HETATM   30  C10 UNL     1      -5.249   1.244  -0.302  1.00  0.00     0.021 C 
HETATM   31  C11 UNL     1      -5.750   0.061   0.549  1.00  0.00     0.021 C 
ENDBRANCH   4  25
TORSDOF 5
