REMARK  13 active torsions:
REMARK  status: ('A' for Active; 'I' for Inactive)
REMARK    1  A    between atoms: N5_13  and  C5_14 
REMARK    2  A    between atoms: C5_14  and  C6_15 
REMARK    3  A    between atoms: C6_15  and  C7_16 
REMARK    4  A    between atoms: C7_16  and  N6_17 
REMARK    5  A    between atoms: C7_16  and  C8_21 
REMARK       I    between atoms: C8_21  and  N7_23 
REMARK    6  A    between atoms: N7_23  and  C9_25 
REMARK    7  A    between atoms: C9_25  and  C10_26 
REMARK    8  A    between atoms: C10_26  and  N8_27 
REMARK    9  A    between atoms: N9_30  and  C13_31 
REMARK   10  A    between atoms: C15_37  and  C16_38 
REMARK   11  A    between atoms: N14_51  and  C22_52 
REMARK   12  A    between atoms: C22_52  and  C23_53 
REMARK   13  A    between atoms: C23_53  and  O4_54 
ROOT
HETATM    1  N8  UNL     1       0.866   2.755  -0.432  1.00  0.00    -0.299 N 
HETATM    2  C11 UNL     1       0.729   1.382  -0.917  1.00  0.00     0.157 C 
HETATM    3  C12 UNL     1      -0.532   0.724  -0.530  1.00  0.00     0.196 C 
HETATM    4  N9  UNL     1      -1.690   1.561  -0.342  1.00  0.00    -0.076 N 
HETATM    5  O5  UNL     1      -1.551   2.891  -0.145  1.00  0.00    -0.163 OA
HETATM    6  C24 UNL     1      -0.337   3.520  -0.177  1.00  0.00     0.389 C 
HETATM    7  O6  UNL     1      -0.212   4.757   0.007  1.00  0.00    -0.236 OA
ENDROOT
BRANCH   1   8
HETATM    8  C10 UNL     1       2.138   3.350  -0.313  1.00  0.00     0.113 C 
BRANCH   8   9
HETATM    9  C9  UNL     1       2.850   3.479   0.948  1.00  0.00     0.108 C 
BRANCH   9  10
HETATM   10  N7  UNL     1       3.222   2.406   1.772  1.00  0.00    -0.334 N 
HETATM   11  C8  UNL     1       2.446   1.496   2.508  1.00  0.00     0.252 C 
HETATM   12  O2  UNL     1       1.194   1.555   2.510  1.00  0.00    -0.271 OA
ATOM     13  H7  UNL     1       4.229   2.262   1.850  1.00  0.00     0.168 HD
BRANCH  11  14
HETATM   14  C7  UNL     1       3.082   0.442   3.310  1.00  0.00     0.276 C 
BRANCH  14  15
HETATM   15  C6  UNL     1       4.058  -0.381   2.553  1.00  0.00     0.064 C 
BRANCH  15  16
HETATM   16  C5  UNL     1       3.485  -1.189   1.434  1.00  0.00     0.153 C 
BRANCH  16  17
HETATM   17  N5  UNL     1       4.584  -1.954   0.842  1.00  0.00    -0.270 N 
HETATM   18  C3  UNL     1       5.370  -1.568  -0.155  1.00  0.00     0.155 A 
HETATM   19  C2  UNL     1       5.479  -0.444  -0.962  1.00  0.00     0.291 A 
HETATM   20  C4  UNL     1       6.279  -2.575  -0.400  1.00  0.00     0.153 A 
HETATM   21  N2  UNL     1       6.415  -0.369  -1.907  1.00  0.00    -0.260 N 
HETATM   22  O1  UNL     1       4.680   0.494  -0.781  1.00  0.00    -0.264 OA
HETATM   23  N1  UNL     1       7.266  -1.341  -2.118  1.00  0.00    -0.257 N 
ATOM     24  H2  UNL     1       6.470   0.471  -2.483  1.00  0.00     0.190 HD
HETATM   25  C1  UNL     1       8.257  -1.181  -3.170  1.00  0.00     0.181 C 
HETATM   26  C25 UNL     1       7.218  -2.443  -1.384  1.00  0.00     0.292 A 
HETATM   27  O7  UNL     1       8.038  -3.377  -1.588  1.00  0.00    -0.264 OA
HETATM   28  N3  UNL     1       5.987  -3.547   0.487  1.00  0.00    -0.279 N 
HETATM   29  N4  UNL     1       4.981  -3.163   1.215  1.00  0.00    -0.239 N 
ATOM     30  H3  UNL     1       6.476  -4.438   0.573  1.00  0.00     0.189 HD
ATOM     31  H4  UNL     1       4.559  -3.712   1.964  1.00  0.00     0.208 HD
ENDBRANCH  16  17
ENDBRANCH  15  16
ENDBRANCH  14  15
BRANCH  14  32
HETATM   32  N6  UNL     1       2.052  -0.420   3.903  1.00  0.00    -0.066 N 
ATOM     33  H63 UNL     1       1.596  -1.007   3.205  1.00  0.00     0.275 HD
ATOM     34  H62 UNL     1       2.456  -1.159   4.478  1.00  0.00     0.275 HD
ATOM     35  H61 UNL     1       1.381   0.146   4.423  1.00  0.00     0.275 HD
ENDBRANCH  14  32
ENDBRANCH  11  14
ENDBRANCH   9  10
ENDBRANCH   8   9
ENDBRANCH   1   8
BRANCH   4  36
HETATM   36  C13 UNL     1      -2.980   0.918  -0.339  1.00  0.00     0.709 A 
HETATM   37  N10 UNL     1      -3.122  -0.435  -0.379  1.00  0.00    -0.172 N 
HETATM   38  C14 UNL     1      -4.406  -0.778  -0.351  1.00  0.00     0.153 A 
ATOM     39  H10 UNL     1      -2.347  -1.097  -0.424  1.00  0.00     0.186 HD
HETATM   40  N11 UNL     1      -5.067  -1.957  -0.366  1.00  0.00    -0.338 N 
HETATM   41  C21 UNL     1      -5.100   0.428  -0.291  1.00  0.00     0.146 A 
HETATM   42  C15 UNL     1      -6.406  -1.989  -0.323  1.00  0.00     0.065 A 
ATOM     43  H11 UNL     1      -4.542  -2.830  -0.410  1.00  0.00     0.167 HD
HETATM   44  C19 UNL     1      -7.122  -0.824  -0.264  1.00  0.00     0.089 A 
HETATM   45  C20 UNL     1      -6.469   0.375  -0.248  1.00  0.00     0.205 A 
HETATM   46  O3  UNL     1      -7.159   1.411  -0.194  1.00  0.00    -0.286 OA
HETATM   47  N14 UNL     1      -4.202   1.467  -0.285  1.00  0.00    -0.172 N 
BRANCH  42  48
HETATM   48  C16 UNL     1      -7.096  -3.318  -0.326  1.00  0.00     0.068 A 
HETATM   49  C17 UNL     1      -8.470  -3.360  -0.319  1.00  0.00     0.085 A 
HETATM   50  S1  UNL     1      -8.783  -5.038  -0.312  1.00  0.00    -0.064 SA
HETATM   51  C18 UNL     1      -7.178  -5.590  -0.318  1.00  0.00     0.142 A 
HETATM   52  N12 UNL     1      -6.711  -6.825  -0.316  1.00  0.00    -0.380 N 
HETATM   53  N13 UNL     1      -6.465  -4.461  -0.326  1.00  0.00    -0.335 N 
ATOM     54 2H12 UNL     1      -7.256  -7.687  -0.310  1.00  0.00     0.158 HD
ATOM     55 1H12 UNL     1      -5.746  -7.157  -0.320  1.00  0.00     0.158 HD
ATOM     56  H13 UNL     1      -5.445  -4.491  -0.332  1.00  0.00     0.168 HD
ENDBRANCH  42  48
BRANCH  47  57
HETATM   57  C22 UNL     1      -4.568   2.842  -0.255  1.00  0.00     0.174 C 
BRANCH  57  58
HETATM   58  C23 UNL     1      -4.861   3.468  -1.583  1.00  0.00     0.185 C 
BRANCH  58  59
HETATM   59  O4  UNL     1      -3.825   3.444  -2.496  1.00  0.00    -0.399 OA
ATOM     60  H4  UNL     1      -4.011   3.841  -3.339  1.00  0.00     0.209 HD
ENDBRANCH  58  59
ENDBRANCH  57  58
ENDBRANCH  47  57
ENDBRANCH   4  36
TORSDOF 13
