REMARK  20 active torsions:
REMARK  status: ('A' for Active; 'I' for Inactive)
REMARK    1  A    between atoms: O1_2  and  C2_3 
REMARK    2  A    between atoms: C2_3  and  C3_5 
REMARK    3  A    between atoms: C3_5  and  N1_6 
REMARK    4  A    between atoms: N1_6  and  C4_8 
REMARK    5  A    between atoms: C4_8  and  C5_9 
REMARK    6  A    between atoms: C4_8  and  C7_15 
REMARK    7  A    between atoms: C5_9  and  O3_10 
REMARK    8  A    between atoms: C5_9  and  C6_12 
REMARK    9  A    between atoms: C6_12  and  O4_13 
REMARK   10  A    between atoms: C7_15  and  O5_16 
REMARK   11  A    between atoms: C7_15  and  C13_23 
REMARK   12  A    between atoms: O5_16  and  C8_17 
REMARK   13  A    between atoms: C8_17  and  C9_19 
REMARK   14  A    between atoms: C9_19  and  C10_20 
REMARK   15  A    between atoms: C13_23  and  N2_24 
REMARK   16  A    between atoms: C13_23  and  O7_28 
REMARK   17  A    between atoms: C15_31  and  C16_32 
REMARK   18  A    between atoms: C18_35  and  O9_36 
REMARK   19  A    between atoms: C18_35  and  O10_38 
REMARK   20  A    between atoms: C20_41  and  O11_42 
ROOT
HETATM    1  C4  UNL     1       0.227  -1.718   1.327  1.00  0.00     0.142 C 
ENDROOT
BRANCH   1   2
HETATM    2  N1  UNL     1       0.030  -1.134   0.081  1.00  0.00    -0.393 N 
ATOM      3  H1  UNL     1       0.835  -1.151  -0.545  1.00  0.00     0.155 HD
BRANCH   2   4
HETATM    4  C3  UNL     1      -1.133  -0.519  -0.438  1.00  0.00     0.142 C 
HETATM    5  C14 UNL     1      -1.132   0.939   0.036  1.00  0.00     0.061 C 
HETATM    6  C15 UNL     1      -2.182   1.783  -0.511  1.00  0.00     0.120 C 
HETATM    7  C18 UNL     1      -3.569   1.208  -0.419  1.00  0.00     0.172 C 
HETATM    8  C19 UNL     1      -3.617  -0.244  -0.644  1.00  0.00     0.103 C 
HETATM    9  C20 UNL     1      -2.468  -1.082  -0.175  1.00  0.00     0.161 C 
BRANCH   4  10
HETATM   10  C2  UNL     1      -0.924  -0.481  -1.910  1.00  0.00     0.289 C 
HETATM   11  O2  UNL     1       0.121  -0.895  -2.454  1.00  0.00    -0.262 OA
BRANCH  10  12
HETATM   12  O1  UNL     1      -1.894   0.020  -2.724  1.00  0.00    -0.324 OA
HETATM   13  C1  UNL     1      -1.827   0.113  -4.130  1.00  0.00     0.213 C 
ENDBRANCH  10  12
ENDBRANCH   4  10
BRANCH   6  14
HETATM   14  C16 UNL     1      -2.202   3.057   0.315  1.00  0.00     0.132 C 
HETATM   15  C17 UNL     1      -2.425   3.102   1.759  1.00  0.00     0.091 C 
HETATM   16  O8  UNL     1      -2.021   4.134  -0.245  1.00  0.00    -0.298 OA
ENDBRANCH   6  14
BRANCH   7  17
HETATM   17  O9  UNL     1      -4.173   1.532   0.812  1.00  0.00    -0.365 OA
ATOM     18  H9  UNL     1      -5.049   1.169   0.870  1.00  0.00     0.213 HD
ENDBRANCH   7  17
BRANCH   7  19
HETATM   19  O10 UNL     1      -4.358   1.847  -1.373  1.00  0.00    -0.365 OA
ATOM     20  H10 UNL     1      -5.234   1.484  -1.315  1.00  0.00     0.213 HD
ENDBRANCH   7  19
BRANCH   9  21
HETATM   21  O11 UNL     1      -2.621  -2.278  -0.955  1.00  0.00    -0.392 OA
ATOM     22  H11 UNL     1      -3.482  -2.641  -0.785  1.00  0.00     0.210 HD
ENDBRANCH   9  21
ENDBRANCH   2   4
ENDBRANCH   1   2
BRANCH   1  23
HETATM   23  C5  UNL     1      -0.343  -3.043   1.508  1.00  0.00     0.166 C 
BRANCH  23  24
HETATM   24  O3  UNL     1      -0.224  -3.575   2.834  1.00  0.00    -0.391 OA
ATOM     25  H3  UNL     1      -0.596  -4.441   2.952  1.00  0.00     0.210 HD
ENDBRANCH  23  24
BRANCH  23  26
HETATM   26  C6  UNL     1       0.199  -4.114   0.576  1.00  0.00     0.197 C 
BRANCH  26  27
HETATM   27  O4  UNL     1       0.234  -3.815  -0.741  1.00  0.00    -0.398 OA
ATOM     28  H4  UNL     1       0.573  -4.485  -1.324  1.00  0.00     0.209 HD
ENDBRANCH  26  27
ENDBRANCH  23  26
ENDBRANCH   1  23
BRANCH   1  29
HETATM   29  C7  UNL     1       1.696  -1.497   1.668  1.00  0.00     0.212 C 
BRANCH  29  30
HETATM   30  O5  UNL     1       1.909  -0.059   1.639  1.00  0.00    -0.309 OA
BRANCH  30  31
HETATM   31  C8  UNL     1       2.733   0.545   0.708  1.00  0.00     0.259 C 
HETATM   32  O6  UNL     1       3.284  -0.228  -0.106  1.00  0.00    -0.265 OA
BRANCH  31  33
HETATM   33  C9  UNL     1       2.949   2.025   0.678  1.00  0.00     0.115 C 
BRANCH  33  34
HETATM   34  C10 UNL     1       3.889   2.335  -0.467  1.00  0.00    -0.013 C 
HETATM   35  C11 UNL     1       4.172   3.806  -0.582  1.00  0.00     0.010 C 
HETATM   36  C12 UNL     1       3.322   1.853  -1.775  1.00  0.00     0.010 C 
ENDBRANCH  33  34
ENDBRANCH  31  33
ENDBRANCH  30  31
ENDBRANCH  29  30
BRANCH  29  37
HETATM   37  C13 UNL     1       2.212  -2.013   2.927  1.00  0.00     0.348 C 
BRANCH  37  38
HETATM   38  N2  UNL     1       2.474  -3.331   3.343  1.00  0.00    -0.050 N 
ATOM     39  H23 UNL     1       1.596  -3.829   3.198  1.00  0.00     0.277 HD
ATOM     40  H22 UNL     1       3.099  -3.709   2.631  1.00  0.00     0.277 HD
ATOM     41  H21 UNL     1       2.836  -3.693   4.225  1.00  0.00     0.277 HD
ENDBRANCH  37  38
BRANCH  37  42
HETATM   42  O7  UNL     1       2.519  -1.185   3.888  1.00  0.00    -0.368 OA
ATOM     43  H7  UNL     1       2.856  -1.522   4.710  1.00  0.00     0.212 HD
ENDBRANCH  37  42
ENDBRANCH  29  37
ENDBRANCH   1  29
TORSDOF 20
