REMARK  7 active torsions:
REMARK  status: ('A' for Active; 'I' for Inactive)
REMARK    1  A    between atoms: N1_2  and  C4_5 
REMARK    2  A    between atoms: C4_5  and  C5_6 
REMARK    3  A    between atoms: C5_6  and  C6_7 
REMARK    4  A    between atoms: C6_7  and  N2_8 
REMARK       I    between atoms: N2_8  and  C7_10 
REMARK       I    between atoms: C7_10  and  N3_12 
REMARK    5  A    between atoms: C9_15  and  N4_16 
REMARK       I    between atoms: N4_16  and  C10_18 
REMARK    6  A    between atoms: C12_24  and  N7_25 
REMARK       I    between atoms: N7_25  and  C13_27 
REMARK       I    between atoms: C13_27  and  N9_31 
REMARK    7  A    between atoms: N9_31  and  C14_33 
ROOT
HETATM    1  N2  UNL     1       0.303  -1.191   0.550  1.00  0.00    -0.343 N 
ATOM      2  H2  UNL     1      -0.363  -1.752   0.020  1.00  0.00     0.164 HD
HETATM    3  C7  UNL     1       0.105   0.190   0.623  1.00  0.00     0.326 C 
HETATM    4  O1  UNL     1       0.898   0.915   1.269  1.00  0.00    -0.247 OA
HETATM    5  N3  UNL     1      -0.985   0.857  -0.019  1.00  0.00    -0.245 N 
HETATM    6  C8  UNL     1      -1.237   2.268  -0.020  1.00  0.00     0.252 C 
HETATM    7  O2  UNL     1      -0.622   3.089   0.704  1.00  0.00    -0.270 OA
HETATM    8  C9  UNL     1      -2.306   2.591  -0.981  1.00  0.00     0.180 C 
HETATM    9  C11 UNL     1      -2.951   1.273  -1.261  1.00  0.00     0.083 C 
HETATM   10  C12 UNL     1      -1.998   0.199  -0.790  1.00  0.00     0.216 C 
ENDROOT
BRANCH  10  11
HETATM   11  N7  UNL     1      -2.740  -0.785  -0.070  1.00  0.00    -0.205 N 
HETATM   12  C13 UNL     1      -3.512  -0.434   1.058  1.00  0.00     0.670 C 
HETATM   13  N8  UNL     1      -3.389   0.682   1.673  1.00  0.00    -0.235 N 
HETATM   14  N9  UNL     1      -4.466  -1.369   1.538  1.00  0.00    -0.196 N 
ATOM     15  H82 UNL     1      -2.703   1.354   1.328  1.00  0.00     0.174 HD
ATOM     16  H81 UNL     1      -3.947   0.936   2.488  1.00  0.00     0.174 HD
ATOM     17  H9  UNL     1      -4.342  -1.737   2.481  1.00  0.00     0.180 HD
ATOM     18  H7  UNL     1      -2.712  -1.758  -0.376  1.00  0.00     0.179 HD
BRANCH  14  19
HETATM   19  C14 UNL     1      -5.584  -1.825   0.785  1.00  0.00     0.325 A 
HETATM   20  C15 UNL     1      -6.628  -0.929   0.282  1.00  0.00     0.289 A 
HETATM   21  N10 UNL     1      -5.722  -1.620  -0.622  1.00  0.00    -0.049 N 
ATOM     22 2H10 UNL     1      -5.090  -1.321  -1.365  1.00  0.00     0.279 HD
ATOM     23 1H10 UNL     1      -5.848  -2.237  -1.424  1.00  0.00     0.279 HD
ENDBRANCH  14  19
ENDBRANCH  10  11
BRANCH   8  24
HETATM   24  N4  UNL     1      -1.761   3.219  -2.158  1.00  0.00    -0.351 N 
HETATM   25  C10 UNL     1      -1.038   4.444  -2.056  1.00  0.00     0.182 C 
HETATM   26  N5  UNL     1      -1.342   5.345  -1.186  1.00  0.00    -0.374 N 
HETATM   27  N6  UNL     1       0.050   4.698  -2.928  1.00  0.00    -0.064 NA
ATOM     28  H52 UNL     1      -2.125   5.162  -0.558  1.00  0.00     0.158 HD
ATOM     29  H51 UNL     1      -0.825   6.221  -1.113  1.00  0.00     0.158 HD
ATOM     30  H4  UNL     1      -1.893   2.784  -3.071  1.00  0.00     0.163 HD
ENDBRANCH   8  24
BRANCH   1  31
HETATM   31  C6  UNL     1       1.398  -1.850   1.186  1.00  0.00     0.126 C 
BRANCH  31  32
HETATM   32  C5  UNL     1       2.725  -1.399   0.670  1.00  0.00     0.048 C 
BRANCH  32  33
HETATM   33  C4  UNL     1       3.874  -2.132   1.353  1.00  0.00     0.237 C 
BRANCH  33  34
HETATM   34  N1  UNL     1       5.103  -1.630   0.805  1.00  0.00    -0.079 N 
HETATM   35  C1  UNL     1       6.259  -2.390   1.247  1.00  0.00     0.271 C 
HETATM   36  C2  UNL     1       5.026  -1.645  -0.626  1.00  0.00     0.271 C 
HETATM   37  C3  UNL     1       5.270  -0.271   1.300  1.00  0.00     0.271 C 
ENDBRANCH  33  34
ENDBRANCH  32  33
ENDBRANCH  31  32
ENDBRANCH   1  31
TORSDOF 7
