REMARK  2 active torsions:
REMARK  status: ('A' for Active; 'I' for Inactive)
REMARK    1  A    between atoms: N1_2  and  C2_4 
REMARK    2  A    between atoms: C3_7  and  S1_8 
ROOT
HETATM    1  C2  UNL     1       1.691  -0.289  -0.199  1.00  0.00     0.152 C 
HETATM    2  N2  UNL     1       0.619   0.134   0.273  1.00  0.00    -0.325 N 
ATOM      3  H2  UNL     1       0.594   1.107   0.577  1.00  0.00     0.169 HD
HETATM    4  C3  UNL     1      -0.530  -0.600   0.418  1.00  0.00     0.110 C 
HETATM    5  S2  UNL     1      -0.171  -2.361   0.416  1.00  0.00    -0.025 SA
HETATM    6  S3  UNL     1       1.663  -2.013  -0.699  1.00  0.00    -0.014 SA
ENDROOT
BRANCH   1   7
HETATM    7  N1  UNL     1       2.942   0.444  -0.378  1.00  0.00    -0.374 N 
HETATM    8  C1  UNL     1       4.115   0.129   0.383  1.00  0.00     0.148 C 
ATOM      9  H1  UNL     1       2.982   1.199  -1.062  1.00  0.00     0.161 HD
ENDBRANCH   1   7
BRANCH   4  10
HETATM   10  S1  UNL     1      -2.086  -0.049   0.580  1.00  0.00    -0.170 SA
HETATM   11  C4  UNL     1      -2.371   1.778   0.573  1.00  0.00     0.085 C 
HETATM   12  C5  UNL     1      -3.497  -1.075   0.056  1.00  0.00     0.085 C 
ENDBRANCH   4  10
TORSDOF 2
