REMARK  11 active torsions:
REMARK  status: ('A' for Active; 'I' for Inactive)
REMARK    1  A    between atoms: C2_2  and  C3_3 
REMARK    2  A    between atoms: C3_3  and  C5_5 
REMARK    3  A    between atoms: C5_5  and  N1_6 
REMARK    4  A    between atoms: C5_5  and  C22_29 
REMARK       I    between atoms: N1_6  and  C6_8 
REMARK    5  A    between atoms: C6_8  and  C7_10 
REMARK    6  A    between atoms: C12_15  and  C13_16 
REMARK    7  A    between atoms: C13_16  and  C14_17 
REMARK    8  A    between atoms: C14_17  and  N2_19 
REMARK    9  A    between atoms: N2_19  and  C15_21 
REMARK   10  A    between atoms: C15_21  and  C16_22 
REMARK       I    between atoms: C22_29  and  N3_31 
REMARK   11  A    between atoms: N3_31  and  C23_33 
ROOT
HETATM    1  C7  UNL     1       0.156   1.862  -0.862  1.00  0.00     0.082 C 
HETATM    2  C8  UNL     1      -0.736   2.561  -1.898  1.00  0.00     0.014 C 
HETATM    3  C9  UNL     1      -0.218   3.957  -2.176  1.00  0.00     0.001 C 
HETATM    4  C10 UNL     1       1.225   3.970  -1.745  1.00  0.00     0.000 C 
HETATM    5  C11 UNL     1       1.987   2.740  -2.182  1.00  0.00     0.006 C 
HETATM    6  C12 UNL     1       1.416   1.455  -1.590  1.00  0.00     0.005 C 
ENDROOT
BRANCH   1   7
HETATM    7  C6  UNL     1      -0.628   0.711  -0.378  1.00  0.00     0.223 C 
HETATM    8  N1  UNL     1      -1.859   0.938   0.272  1.00  0.00    -0.347 N 
ATOM      9  H1  UNL     1      -2.183   1.897   0.395  1.00  0.00     0.163 HD
HETATM   10  O1  UNL     1      -0.232  -0.462  -0.529  1.00  0.00    -0.273 OA
BRANCH   8  11
HETATM   11  C5  UNL     1      -2.690  -0.167   0.778  1.00  0.00     0.180 C 
BRANCH  11  12
HETATM   12  C3  UNL     1      -2.794  -0.048   2.275  1.00  0.00     0.013 C 
HETATM   13  C4  UNL     1      -3.197   1.338   2.734  1.00  0.00     0.012 C 
BRANCH  12  14
HETATM   14  C2  UNL     1      -3.611  -1.082   2.963  1.00  0.00     0.002 C 
HETATM   15  C1  UNL     1      -3.339  -0.951   4.468  1.00  0.00     0.005 C 
ENDBRANCH  12  14
ENDBRANCH  11  12
BRANCH  11  16
HETATM   16  C22 UNL     1      -4.015   0.018   0.173  1.00  0.00     0.241 C 
HETATM   17  O3  UNL     1      -4.312   1.074  -0.469  1.00  0.00    -0.271 OA
HETATM   18  N3  UNL     1      -5.031  -0.955   0.260  1.00  0.00    -0.355 N 
ATOM     19  H3  UNL     1      -4.830  -1.821   0.760  1.00  0.00     0.162 HD
BRANCH  18  20
HETATM   20  C23 UNL     1      -6.349  -0.788  -0.326  1.00  0.00     0.084 C 
HETATM   21  C24 UNL     1      -7.435  -0.861   0.725  1.00  0.00     0.025 C 
HETATM   22  C25 UNL     1      -8.735  -0.478   0.009  1.00  0.00     0.002 C 
HETATM   23  C26 UNL     1      -9.027  -1.609  -0.980  1.00  0.00     0.000 C 
HETATM   24  C27 UNL     1      -7.920  -1.723  -2.000  1.00  0.00     0.002 C 
HETATM   25  C28 UNL     1      -6.576  -1.903  -1.298  1.00  0.00     0.025 C 
ENDBRANCH  18  20
ENDBRANCH  11  16
ENDBRANCH   8  11
ENDBRANCH   1   7
BRANCH   6  26
HETATM   26  C13 UNL     1       2.454   0.891  -0.659  1.00  0.00     0.074 C 
BRANCH  26  27
HETATM   27  C14 UNL     1       3.671   0.488  -1.374  1.00  0.00     0.073 C 
HETATM   28  S1  UNL     1       3.717   0.597  -3.010  1.00  0.00    -0.066 SA
BRANCH  27  29
HETATM   29  N2  UNL     1       4.834  -0.009  -0.725  1.00  0.00    -0.382 N 
ATOM     30  H2  UNL     1       4.831  -0.094   0.291  1.00  0.00     0.160 HD
BRANCH  29  31
HETATM   31  C15 UNL     1       6.003  -0.393  -1.443  1.00  0.00     0.152 C 
BRANCH  31  32
HETATM   32  C16 UNL     1       7.117  -0.890  -0.559  1.00  0.00     0.139 C 
HETATM   33  C17 UNL     1       6.759  -2.148   0.180  1.00  0.00     0.034 C 
HETATM   34  C18 UNL     1       7.963  -2.650   0.905  1.00  0.00     0.003 C 
HETATM   35  C19 UNL     1       9.258  -2.403   0.193  1.00  0.00     0.002 C 
HETATM   36  C20 UNL     1       9.673  -0.971   0.161  1.00  0.00     0.026 C 
HETATM   37  C21 UNL     1       8.734  -0.045   0.885  1.00  0.00     0.168 C 
HETATM   38  O2  UNL     1       7.494   0.086   0.325  1.00  0.00    -0.384 OA
ENDBRANCH  31  32
ENDBRANCH  29  31
ENDBRANCH  27  29
ENDBRANCH  26  27
ENDBRANCH   6  26
TORSDOF 11
