REMARK  3 active torsions:
REMARK  status: ('A' for Active; 'I' for Inactive)
REMARK    1  A    between atoms: C2_3  and  O1_4 
REMARK    2  A    between atoms: C2_3  and  C3_6 
REMARK    3  A    between atoms: C3_6  and  N2_7 
ROOT
HETATM    1  N1  UNL     1       5.370  -1.056  -1.017  1.00  0.00    -0.194 NA
HETATM    2  C1  UNL     1       4.489  -0.627  -0.398  1.00  0.00     0.092 C 
HETATM    3  C2  UNL     1       3.376  -0.110   0.375  1.00  0.00     0.242 C 
ENDROOT
BRANCH   3   4
HETATM    4  O1  UNL     1       3.662   1.210   0.718  1.00  0.00    -0.380 OA
ATOM      5  H1  UNL     1       2.933   1.549   1.224  1.00  0.00     0.211 HD
ENDBRANCH   3   4
BRANCH   3   6
HETATM    6  C3  UNL     1       2.099  -0.128  -0.483  1.00  0.00     0.168 C 
BRANCH   6   7
HETATM    7  N2  UNL     1       0.997   0.413   0.221  1.00  0.00    -0.368 N 
HETATM    8  C4  UNL     1      -0.244   0.387  -0.072  1.00  0.00     0.173 C 
HETATM    9  N3  UNL     1      -1.103   0.999   0.803  1.00  0.00    -0.312 N 
HETATM   10  C7  UNL     1      -0.671  -0.236  -1.225  1.00  0.00     0.293 C 
HETATM   11  C5  UNL     1      -2.381   0.612   1.074  1.00  0.00     0.198 C 
ATOM     12  H3  UNL     1      -0.753   1.820   1.297  1.00  0.00     0.170 HD
HETATM   13  N4  UNL     1      -3.006   1.213   2.197  1.00  0.00    -0.063 NA
HETATM   14  N5  UNL     1      -3.167  -0.270   0.432  1.00  0.00    -0.282 N 
HETATM   15  C6  UNL     1      -2.943  -0.976  -0.693  1.00  0.00     0.329 C 
ATOM     16  H5  UNL     1      -4.076  -0.430   0.865  1.00  0.00     0.173 HD
HETATM   17  O2  UNL     1      -3.877  -1.758  -1.074  1.00  0.00    -0.247 OA
HETATM   18  N6  UNL     1      -1.826  -0.926  -1.441  1.00  0.00    -0.272 N 
ATOM     19  H6  UNL     1      -1.847  -1.486  -2.293  1.00  0.00     0.174 HD
HETATM   20  O3  UNL     1       0.137  -0.136  -2.184  1.00  0.00    -0.264 OA
ATOM     21  H2  UNL     1       1.229   0.894   1.090  1.00  0.00     0.161 HD
ENDBRANCH   6   7
ENDBRANCH   3   6
TORSDOF 3
