REMARK  3 active torsions:
REMARK  status: ('A' for Active; 'I' for Inactive)
REMARK    1  A    between atoms: N1_1  and  C1_4 
REMARK    2  A    between atoms: N3_9  and  C3_10 
REMARK    3  A    between atoms: C3_10  and  C4_11 
ROOT
HETATM    1  C1  UNL     1      -3.757   0.182   0.381  1.00  0.00     0.683 A 
HETATM    2  N2  UNL     1      -3.256  -0.244  -0.807  1.00  0.00    -0.141 N 
ATOM      3  H2  UNL     1      -3.847  -0.307  -1.636  1.00  0.00     0.189 HD
HETATM    4  C2  UNL     1      -1.962  -0.578  -0.853  1.00  0.00     0.348 A 
HETATM    5  O1  UNL     1      -1.462  -0.975  -1.923  1.00  0.00    -0.245 OA
HETATM    6  N3  UNL     1      -1.138  -0.514   0.202  1.00  0.00    -0.227 N 
HETATM    7  C7  UNL     1      -1.650  -0.090   1.369  1.00  0.00     0.348 A 
HETATM    8  O2  UNL     1      -1.009   0.021   2.443  1.00  0.00    -0.245 OA
HETATM    9  N7  UNL     1      -2.961   0.259   1.462  1.00  0.00    -0.141 N 
ATOM     10  H7  UNL     1      -3.341   0.580   2.353  1.00  0.00     0.189 HD
ENDROOT
BRANCH   6  11
HETATM   11  C3  UNL     1       0.199  -0.893   0.098  1.00  0.00     0.106 C 
BRANCH  11  12
HETATM   12  C4  UNL     1       1.266  -0.011  -0.320  1.00  0.00     0.141 C 
HETATM   13  C5  UNL     1       1.535   1.227   0.506  1.00  0.00     0.152 C 
HETATM   14  N4  UNL     1       2.974   1.501   0.237  1.00  0.00    -0.362 N 
HETATM   15  C6  UNL     1       3.544   0.369  -0.090  1.00  0.00     0.184 C 
ATOM     16  H4  UNL     1       3.434   2.410   0.297  1.00  0.00     0.162 HD
HETATM   17  N5  UNL     1       4.915   0.236  -0.416  1.00  0.00    -0.064 NA
HETATM   18  N6  UNL     1       2.562  -0.678  -0.063  1.00  0.00    -0.354 N 
ATOM     19  H6  UNL     1       2.723  -1.672   0.099  1.00  0.00     0.163 HD
ENDBRANCH  11  12
ENDBRANCH   6  11
BRANCH   1  20
HETATM   20  N1  UNL     1      -5.001   0.526   0.515  1.00  0.00    -0.234 N 
ATOM     21  H12 UNL     1      -5.605   0.468  -0.305  1.00  0.00     0.174 HD
ATOM     22  H11 UNL     1      -5.377   0.846   1.407  1.00  0.00     0.174 HD
ENDBRANCH   1  20
TORSDOF 3
