REMARK  5 active torsions:
REMARK  status: ('A' for Active; 'I' for Inactive)
REMARK    1  A    between atoms: N1_1  and  C1_4 
REMARK    2  A    between atoms: C4_11  and  O1_12 
REMARK    3  A    between atoms: N5_18  and  C7_20 
REMARK    4  A    between atoms: C7_20  and  C8_21 
REMARK    5  A    between atoms: C8_21  and  N6_22 
ROOT
HETATM    1  C1  UNL     1      -0.589  -3.010   0.453  1.00  0.00     0.679 A 
HETATM    2  N2  UNL     1      -1.756  -2.236   0.425  1.00  0.00    -0.174 N 
ATOM      3  H2  UNL     1      -2.641  -2.699   0.633  1.00  0.00     0.186 HD
HETATM    4  C2  UNL     1      -1.784  -0.974   0.153  1.00  0.00     0.153 A 
HETATM    5  N3  UNL     1      -2.801  -0.096   0.084  1.00  0.00    -0.325 N 
ATOM      6  H3  UNL     1      -3.786  -0.305   0.249  1.00  0.00     0.169 HD
HETATM    7  C3  UNL     1      -2.293   1.101  -0.239  1.00  0.00     0.129 A 
HETATM    8  C4  UNL     1      -3.000   2.207  -0.395  1.00  0.00     0.179 C 
HETATM    9  N4  UNL     1      -0.940   0.991  -0.379  1.00  0.00    -0.335 N 
ATOM     10  H4  UNL     1      -0.293   1.742  -0.621  1.00  0.00     0.168 HD
HETATM   11  C5  UNL     1      -0.621  -0.284  -0.139  1.00  0.00     0.123 A 
HETATM   12  C6  UNL     1       0.664  -0.986  -0.141  1.00  0.00     0.147 A 
HETATM   13  N5  UNL     1       1.781  -0.463  -0.390  1.00  0.00    -0.372 N 
ATOM     14  H5  UNL     1       2.575  -1.102  -0.346  1.00  0.00     0.161 HD
HETATM   15  N7  UNL     1       0.651  -2.392   0.168  1.00  0.00    -0.175 N 
ATOM     16  H7  UNL     1       1.517  -2.931   0.181  1.00  0.00     0.186 HD
ENDROOT
BRANCH  13  17
HETATM   17  C7  UNL     1       2.111   0.887  -0.725  1.00  0.00     0.148 C 
BRANCH  17  18
HETATM   18  C8  UNL     1       2.436   1.602   0.595  1.00  0.00     0.249 C 
BRANCH  18  19
HETATM   19  N6  UNL     1       3.560   0.877   1.162  1.00  0.00    -0.078 N 
ATOM     20  H63 UNL     1       3.391  -0.123   1.268  1.00  0.00     0.274 HD
ATOM     21  H62 UNL     1       4.358   0.798   0.531  1.00  0.00     0.274 HD
ATOM     22  H61 UNL     1       3.776   1.352   2.039  1.00  0.00     0.274 HD
ENDBRANCH  18  19
ENDBRANCH  17  18
ENDBRANCH  13  17
BRANCH   1  23
HETATM   23  N1  UNL     1      -0.579  -4.280   0.729  1.00  0.00    -0.234 N 
ATOM     24  H12 UNL     1      -1.473  -4.726   0.935  1.00  0.00     0.174 HD
ATOM     25  H11 UNL     1       0.271  -4.844   0.749  1.00  0.00     0.174 HD
ENDBRANCH   1  23
BRANCH   8  26
HETATM   26  O1  UNL     1      -4.369   2.146  -0.216  1.00  0.00    -0.369 OA
ATOM     27  H1  UNL     1      -4.877   2.941  -0.328  1.00  0.00     0.216 HD
ENDBRANCH   8  26
TORSDOF 5
