REMARK  4 active torsions:
REMARK  status: ('A' for Active; 'I' for Inactive)
REMARK    1  A    between atoms: S1_2  and  C2_3 
REMARK    2  A    between atoms: C2_3  and  N1_5 
REMARK    3  A    between atoms: N1_5  and  C3_7 
REMARK    4  A    between atoms: C6_12  and  C7_13 
ROOT
HETATM    1  C3  UNL     1       1.761   0.869   1.052  1.00  0.00     0.151 A 
HETATM    2  N2  UNL     1       1.369   1.208  -0.179  1.00  0.00    -0.339 N 
ATOM      3  H2  UNL     1       1.990   1.729  -0.798  1.00  0.00     0.168 HD
HETATM    4  C4  UNL     1       0.181   0.861  -0.572  1.00  0.00     0.026 A 
HETATM    5  C5  UNL     1      -0.385   1.185  -1.949  1.00  0.00     0.070 C 
HETATM    6  C6  UNL     1      -0.607   0.163   0.303  1.00  0.00     0.053 A 
HETATM    7  S3  UNL     1       0.408   0.036   1.668  1.00  0.00    -0.050 SA
ENDROOT
BRANCH   6   8
HETATM    8  C7  UNL     1      -1.976  -0.360   0.149  1.00  0.00     0.027 C 
HETATM    9  N3  UNL     1      -2.678  -0.224  -0.913  1.00  0.00    -0.389 N 
HETATM   10  C8  UNL     1      -3.977  -0.843  -0.761  1.00  0.00     0.157 C 
ATOM     11  H3  UNL     1      -2.363   0.257  -1.755  1.00  0.00     0.159 HD
HETATM   12  C9  UNL     1      -3.721  -1.866   0.313  1.00  0.00     0.193 C 
HETATM   13  F1  UNL     1      -4.851  -2.148   1.053  1.00  0.00    -0.247 F 
HETATM   14  C10 UNL     1      -2.715  -1.108   1.191  1.00  0.00     0.097 C 
ENDBRANCH   6   8
BRANCH   1  15
HETATM   15  N1  UNL     1       2.919   1.130   1.623  1.00  0.00    -0.322 N 
ATOM     16  H1  UNL     1       3.085   0.809   2.577  1.00  0.00     0.169 HD
BRANCH  15  17
HETATM   17  C2  UNL     1       3.930   1.838   0.955  1.00  0.00     0.140 C 
HETATM   18  S2  UNL     1       4.088   3.454   1.118  1.00  0.00    -0.053 SA
BRANCH  17  19
HETATM   19  S1  UNL     1       5.064   0.944  -0.092  1.00  0.00    -0.105 SA
HETATM   20  C1  UNL     1       4.677  -0.815  -0.100  1.00  0.00     0.098 C 
ENDBRANCH  17  19
ENDBRANCH  15  17
ENDBRANCH   1  15
TORSDOF 4
