REMARK  9 active torsions:
REMARK  status: ('A' for Active; 'I' for Inactive)
REMARK    1  A    between atoms: N1_1  and  C1_4 
REMARK    2  A    between atoms: N3_10  and  C4_11 
REMARK    3  A    between atoms: C6_15  and  O2_16 
REMARK    4  A    between atoms: N6_20  and  C8_21 
REMARK    5  A    between atoms: C8_21  and  C9_22 
REMARK    6  A    between atoms: C9_22  and  O4_23 
REMARK    7  A    between atoms: C9_22  and  C10_25 
REMARK    8  A    between atoms: C10_25  and  O5_26 
REMARK    9  A    between atoms: N7_29  and  N8_30 
ROOT
HETATM    1  C1  UNL     1      -1.448   3.408  -1.272  1.00  0.00     0.699 A 
HETATM    2  N2  UNL     1      -0.130   3.433  -1.034  1.00  0.00    -0.181 N 
ATOM      3  H2  UNL     1       0.476   4.249  -1.127  1.00  0.00     0.184 HD
HETATM    4  C2  UNL     1       0.262   2.206  -0.653  1.00  0.00     0.164 A 
HETATM    5  C3  UNL     1       1.467   1.651  -0.290  1.00  0.00     0.283 A 
HETATM    6  O1  UNL     1       2.512   2.374  -0.278  1.00  0.00    -0.265 OA
HETATM    7  N3  UNL     1       1.593   0.329   0.064  1.00  0.00    -0.254 N 
HETATM    8  C7  UNL     1       0.473  -0.406   0.040  1.00  0.00     0.334 A 
HETATM    9  O3  UNL     1       0.583  -1.615   0.363  1.00  0.00    -0.246 OA
HETATM   10  N6  UNL     1      -0.754   0.078  -0.308  1.00  0.00    -0.279 N 
HETATM   11  C11 UNL     1      -0.853   1.379  -0.653  1.00  0.00     0.184 A 
HETATM   12  N7  UNL     1      -1.872   2.176  -1.042  1.00  0.00    -0.074 N 
ENDROOT
BRANCH   7  13
HETATM   13  C4  UNL     1       2.852  -0.144   0.415  1.00  0.00     0.160 C 
HETATM   14  C5  UNL     1       3.005  -1.037   1.612  1.00  0.00     0.160 C 
HETATM   15  N4  UNL     1       4.482  -1.170   1.539  1.00  0.00    -0.144 NA
HETATM   16  N5  UNL     1       4.730  -1.449   0.194  1.00  0.00    -0.114 NA
HETATM   17  C6  UNL     1       3.644  -0.923  -0.601  1.00  0.00     0.251 C 
BRANCH  17  18
HETATM   18  O2  UNL     1       2.950  -1.909  -1.249  1.00  0.00    -0.376 OA
ATOM     19  H2  UNL     1       3.450  -2.401  -1.890  1.00  0.00     0.211 HD
ENDBRANCH  17  18
ENDBRANCH   7  13
BRANCH  10  20
HETATM   20  C8  UNL     1      -1.899  -0.783  -0.304  1.00  0.00     0.169 C 
BRANCH  20  21
HETATM   21  C9  UNL     1      -2.633  -0.821   1.020  1.00  0.00     0.160 C 
BRANCH  21  22
HETATM   22  O4  UNL     1      -1.759  -1.280   2.012  1.00  0.00    -0.392 OA
ATOM     23  H4  UNL     1      -2.219  -1.304   2.843  1.00  0.00     0.210 HD
ENDBRANCH  21  22
BRANCH  21  24
HETATM   24  C10 UNL     1      -3.751  -1.845   0.867  1.00  0.00     0.197 C 
BRANCH  24  25
HETATM   25  O5  UNL     1      -3.163  -3.053   0.499  1.00  0.00    -0.398 OA
ATOM     26  H5  UNL     1      -3.860  -3.691   0.404  1.00  0.00     0.209 HD
ENDBRANCH  24  25
ENDBRANCH  21  24
ENDBRANCH  20  21
ENDBRANCH  10  20
BRANCH   1  27
HETATM   27  N1  UNL     1      -2.116   4.461  -1.660  1.00  0.00    -0.233 N 
ATOM     28  H12 UNL     1      -1.789   5.411  -1.837  1.00  0.00     0.174 HD
ATOM     29  H11 UNL     1      -3.120   4.442  -1.841  1.00  0.00     0.174 HD
ENDBRANCH   1  27
BRANCH  12  30
HETATM   30  N8  UNL     1      -3.187   1.761  -1.183  1.00  0.00    -0.322 N 
ATOM     31  H82 UNL     1      -3.956   2.363  -1.477  1.00  0.00     0.178 HD
ATOM     32  H81 UNL     1      -3.514   0.811  -1.006  1.00  0.00     0.178 HD
ENDBRANCH  12  30
TORSDOF 9
