REMARK  12 active torsions:
REMARK  status: ('A' for Active; 'I' for Inactive)
REMARK    1  A    between atoms: N1_1  and  C1_4 
REMARK    2  A    between atoms: C2_7  and  N3_8 
REMARK    3  A    between atoms: N3_8  and  O1_10 
REMARK    4  A    between atoms: C3_14  and  N5_15 
REMARK    5  A    between atoms: N5_15  and  O2_17 
REMARK    6  A    between atoms: O2_17  and  C4_18 
REMARK       I    between atoms: C4_18  and  N6_20 
REMARK    7  A    between atoms: N6_20  and  N7_22 
REMARK    8  A    between atoms: N9_32  and  C9_33 
REMARK    9  A    between atoms: C9_33  and  C10_34 
REMARK   10  A    between atoms: C10_34  and  O5_35 
REMARK   11  A    between atoms: C10_34  and  C11_37 
REMARK   12  A    between atoms: C11_37  and  O6_38 
ROOT
HETATM    1  C1  UNL     1      -1.157   2.932   1.316  1.00  0.00     0.144 C 
HETATM    2  N2  UNL     1      -0.043   3.390   0.718  1.00  0.00    -0.173 N 
ATOM      3  H2  UNL     1       0.132   4.372   0.930  1.00  0.00     0.186 HD
HETATM    4  C2  UNL     1       0.903   2.866  -0.097  1.00  0.00     0.705 C 
HETATM    5  N4  UNL     1       1.327   1.595  -0.319  1.00  0.00    -0.169 N 
ATOM      6  H4  UNL     1       2.057   1.561  -1.030  1.00  0.00     0.186 HD
HETATM    7  C3  UNL     1       1.034   0.355   0.158  1.00  0.00     0.194 C 
HETATM    8  C5  UNL     1       0.021  -0.133   0.941  1.00  0.00     0.247 C 
HETATM    9  O4  UNL     1       0.210  -1.200   1.529  1.00  0.00    -0.282 OA
HETATM   10  C6  UNL     1      -1.258   0.345   1.238  1.00  0.00     0.121 A 
HETATM   11  C7  UNL     1      -1.703   1.668   1.412  1.00  0.00     0.109 A 
HETATM   12  N8  UNL     1      -2.995   1.548   1.750  1.00  0.00    -0.347 N 
ATOM     13  H8  UNL     1      -3.624   2.325   1.951  1.00  0.00     0.167 HD
HETATM   14  C8  UNL     1      -3.333   0.258   1.783  1.00  0.00     0.184 A 
HETATM   15  N9  UNL     1      -2.232  -0.527   1.456  1.00  0.00    -0.335 N 
ENDROOT
BRANCH   7  16
HETATM   16  N5  UNL     1       1.844  -0.575  -0.165  1.00  0.00    -0.236 N 
ATOM     17  H5  UNL     1       1.679  -1.527   0.161  1.00  0.00     0.197 HD
BRANCH  16  18
HETATM   18  O2  UNL     1       2.942  -0.300  -0.953  1.00  0.00    -0.178 OA
BRANCH  18  19
HETATM   19  C4  UNL     1       3.851  -1.297  -1.276  1.00  0.00     0.401 C 
HETATM   20  O3  UNL     1       3.634  -2.448  -0.826  1.00  0.00    -0.235 OA
HETATM   21  N6  UNL     1       4.991  -1.032  -2.089  1.00  0.00    -0.250 N 
ATOM     22  H6  UNL     1       5.159  -0.093  -2.451  1.00  0.00     0.191 HD
BRANCH  21  23
HETATM   23  N7  UNL     1       5.872  -2.066  -2.384  1.00  0.00    -0.341 N 
ATOM     24  H72 UNL     1       5.690  -2.999  -2.014  1.00  0.00     0.177 HD
ATOM     25  H71 UNL     1       6.688  -1.876  -2.966  1.00  0.00     0.177 HD
ENDBRANCH  21  23
ENDBRANCH  18  19
ENDBRANCH  16  18
ENDBRANCH   7  16
BRANCH   4  26
HETATM   26  N3  UNL     1       1.515   3.755  -0.794  1.00  0.00    -0.098 N 
ATOM     27  H3  UNL     1       2.251   3.487  -1.448  1.00  0.00     0.213 HD
BRANCH  26  28
HETATM   28  O1  UNL     1       1.160   5.070  -0.642  1.00  0.00    -0.276 OA
ATOM     29  H1  UNL     1       1.613   5.727  -1.157  1.00  0.00     0.245 HD
ENDBRANCH  26  28
ENDBRANCH   4  26
BRANCH  15  30
HETATM   30  C9  UNL     1      -2.288  -1.940   1.337  1.00  0.00     0.164 C 
BRANCH  30  31
HETATM   31  C10 UNL     1      -2.957  -2.302   0.033  1.00  0.00     0.160 C 
BRANCH  31  32
HETATM   32  O5  UNL     1      -3.072  -3.690  -0.148  1.00  0.00    -0.392 OA
ATOM     33  H5  UNL     1      -3.493  -3.918  -0.969  1.00  0.00     0.210 HD
ENDBRANCH  31  32
BRANCH  31  34
HETATM   34  C11 UNL     1      -2.345  -1.773  -1.225  1.00  0.00     0.197 C 
BRANCH  34  35
HETATM   35  O6  UNL     1      -1.122  -2.382  -1.479  1.00  0.00    -0.398 OA
ATOM     36  H6  UNL     1      -0.733  -2.046  -2.278  1.00  0.00     0.209 HD
ENDBRANCH  34  35
ENDBRANCH  31  34
ENDBRANCH  30  31
ENDBRANCH  15  30
BRANCH   1  37
HETATM   37  N1  UNL     1      -1.860   3.828   1.917  1.00  0.00    -0.383 N 
ATOM     38  H12 UNL     1      -1.457   4.762   1.846  1.00  0.00     0.157 HD
ATOM     39  H11 UNL     1      -2.705   3.481   2.371  1.00  0.00     0.157 HD
ENDBRANCH   1  37
TORSDOF 12
