REMARK  10 active torsions:
REMARK  status: ('A' for Active; 'I' for Inactive)
REMARK    1  A    between atoms: C2_2  and  O1_3 
REMARK    2  A    between atoms: O1_3  and  C3_4 
REMARK       I    between atoms: C3_4  and  N1_6 
REMARK    3  A    between atoms: N1_6  and  S1_8 
REMARK    4  A    between atoms: S1_8  and  C4_10 
REMARK    5  A    between atoms: S1_8  and  C15_38 
REMARK    6  A    between atoms: C4_10  and  C5_11 
REMARK    7  A    between atoms: C5_11  and  N2_12 
REMARK    8  A    between atoms: C7_20  and  N6_21 
REMARK    9  A    between atoms: C10_24  and  N7_25 
REMARK   10  A    between atoms: C13_34  and  N10_35 
ROOT
HETATM    1  N2  UNL     1       0.030   1.841  -0.707  1.00  0.00    -0.106 N 
HETATM    2  N3  UNL     1       0.007   1.161  -1.833  1.00  0.00    -0.212 N 
ATOM      3  H3  UNL     1      -0.833   1.211  -2.410  1.00  0.00     0.209 HD
HETATM    4  N4  UNL     1       1.007   0.422  -2.253  1.00  0.00    -0.114 N 
ATOM      5  H4  UNL     1       0.947  -0.088  -3.134  1.00  0.00     0.207 HD
HETATM    6  C6  UNL     1       2.128   0.354  -1.480  1.00  0.00     0.749 A 
HETATM    7  N5  UNL     1       3.289  -0.286  -1.609  1.00  0.00    -0.017 N 
ATOM      8  H5  UNL     1       3.542  -0.888  -2.393  1.00  0.00     0.203 HD
HETATM    9  C7  UNL     1       4.076  -0.022  -0.557  1.00  0.00     0.710 A 
HETATM   10  N8  UNL     1       3.368   0.800   0.226  1.00  0.00    -0.095 N 
ATOM     11  H8  UNL     1       3.688   1.188   1.113  1.00  0.00     0.207 HD
HETATM   12  N9  UNL     1       2.196   1.030  -0.324  1.00  0.00     0.107 N 
HETATM   13  C13 UNL     1       1.163   1.764   0.060  1.00  0.00     0.732 A 
ENDROOT
BRANCH   1  14
HETATM   14  C5  UNL     1      -1.082   2.658  -0.285  1.00  0.00     0.183 C 
BRANCH  14  15
HETATM   15  C4  UNL     1      -2.070   1.954   0.613  1.00  0.00     0.147 C 
BRANCH  15  16
HETATM   16  S1  UNL     1      -2.817   0.486  -0.308  1.00  0.00     0.080 S 
HETATM   17  O3  UNL     1      -2.891   0.481  -2.120  1.00  0.00    -0.243 OA
BRANCH  16  18
HETATM   18  N1  UNL     1      -3.260  -1.077   0.694  1.00  0.00    -0.257 N 
HETATM   19  C3  UNL     1      -3.798  -2.182   0.047  1.00  0.00     0.372 C 
HETATM   20  O2  UNL     1      -4.006  -2.180  -1.210  1.00  0.00    -0.238 OA
ATOM     21  H1  UNL     1      -3.102  -1.101   1.701  1.00  0.00     0.181 HD
BRANCH  19  22
HETATM   22  O1  UNL     1      -4.137  -3.346   0.723  1.00  0.00    -0.304 OA
BRANCH  22  23
HETATM   23  C2  UNL     1      -4.681  -4.475   0.111  1.00  0.00     0.176 C 
HETATM   24  C1  UNL     1      -6.007  -4.195  -0.560  1.00  0.00     0.034 C 
ENDBRANCH  22  23
ENDBRANCH  19  22
ENDBRANCH  16  18
BRANCH  16  25
HETATM   25  C15 UNL     1      -4.716   1.022  -0.230  1.00  0.00     0.138 A 
HETATM   26  N11 UNL     1      -5.708   0.992  -1.123  1.00  0.00    -0.348 N 
HETATM   27  C16 UNL     1      -6.864   1.429  -0.720  1.00  0.00     0.036 A 
ATOM     28  H11 UNL     1      -5.566   0.645  -2.071  1.00  0.00     0.166 HD
HETATM   29  C17 UNL     1      -8.094   1.479  -1.558  1.00  0.00     0.070 C 
HETATM   30  C18 UNL     1      -6.692   1.813   0.594  1.00  0.00     0.092 A 
HETATM   31  N12 UNL     1      -7.461   2.331   1.569  1.00  0.00    -0.309 N 
HETATM   32  C19 UNL     1      -5.342   1.563   0.923  1.00  0.00     0.106 A 
HETATM   33  S2  UNL     1      -6.422   2.478   2.874  1.00  0.00     0.068 SA
ATOM     34  H12 UNL     1      -8.450   2.578   1.524  1.00  0.00     0.176 HD
HETATM   35  N13 UNL     1      -5.000   1.887   2.208  1.00  0.00    -0.308 N 
ATOM     36  H13 UNL     1      -4.089   1.791   2.658  1.00  0.00     0.176 HD
ENDBRANCH  16  25
ENDBRANCH  15  16
ENDBRANCH  14  15
ENDBRANCH   1  14
BRANCH  13  37
HETATM   37  N10 UNL     1       1.129   2.448   1.149  1.00  0.00    -0.227 N 
HETATM   38  C14 UNL     1       2.219   2.500   2.092  1.00  0.00     0.165 C 
ATOM     39  H10 UNL     1       0.285   2.983   1.357  1.00  0.00     0.177 HD
ENDBRANCH  13  37
BRANCH   9  40
HETATM   40  N6  UNL     1       5.387  -0.533  -0.357  1.00  0.00    -0.216 N 
HETATM   41  C8  UNL     1       5.984  -1.407  -1.328  1.00  0.00     0.143 C 
HETATM   42  C9  UNL     1       7.424  -0.938  -1.497  1.00  0.00     0.053 C 
HETATM   43  C10 UNL     1       8.169  -1.269  -0.233  1.00  0.00     0.186 C 
HETATM   44  C11 UNL     1       7.356  -1.062   0.999  1.00  0.00     0.053 C 
HETATM   45  C12 UNL     1       6.151  -0.187   0.829  1.00  0.00     0.143 C 
BRANCH  43  46
HETATM   46  N7  UNL     1       9.391  -0.480  -0.202  1.00  0.00    -0.075 N 
ATOM     47  H73 UNL     1       9.961  -0.607  -1.038  1.00  0.00     0.274 HD
ATOM     48  H72 UNL     1       9.215   0.520  -0.304  1.00  0.00     0.274 HD
ATOM     49  H71 UNL     1       9.896  -0.704   0.655  1.00  0.00     0.274 HD
ENDBRANCH  43  46
ENDBRANCH   9  40
TORSDOF 10
