REMARK  9 active torsions:
REMARK  status: ('A' for Active; 'I' for Inactive)
REMARK    1  A    between atoms: O1_2  and  C2_3 
REMARK    2  A    between atoms: C2_3  and  C3_5 
REMARK    3  A    between atoms: C4_6  and  O3_7 
REMARK    4  A    between atoms: C5_9  and  C6_10 
REMARK    5  A    between atoms: C6_10  and  O4_11 
REMARK    6  A    between atoms: O4_11  and  C7_12 
REMARK    7  A    between atoms: C7_12  and  N1_13 
REMARK    8  A    between atoms: C7_12  and  N2_17 
REMARK    9  A    between atoms: C9_23  and  O5_25 
ROOT
HETATM    1  C7  UNL     1       3.744  -0.278  -0.049  1.00  0.00     0.484 C 
HETATM    2  C8  UNL     1       4.605  -0.994  -0.989  1.00  0.00     0.160 C 
HETATM    3  N3  UNL     1       5.290  -1.571  -1.720  1.00  0.00    -0.190 NA
ENDROOT
BRANCH   1   4
HETATM    4  O4  UNL     1       2.523   0.096  -0.668  1.00  0.00    -0.291 OA
BRANCH   4   5
HETATM    5  C6  UNL     1       1.588   0.777   0.110  1.00  0.00     0.154 C 
BRANCH   5   6
HETATM    6  C5  UNL     1       0.286   0.580  -0.018  1.00  0.00     0.036 A 
HETATM    7  C4  UNL     1      -0.872   1.093   0.596  1.00  0.00     0.092 A 
HETATM    8  C3  UNL     1      -1.667   0.370  -0.121  1.00  0.00     0.089 A 
HETATM    9  C9  UNL     1      -0.562  -0.241  -0.835  1.00  0.00     0.121 A 
HETATM   10  C10 UNL     1      -0.514  -1.732  -0.510  1.00  0.00     0.057 C 
BRANCH   7  11
HETATM   11  O3  UNL     1      -1.154   2.048   1.623  1.00  0.00    -0.359 OA
ATOM     12  H3  UNL     1      -0.569   2.580   2.150  1.00  0.00     0.217 HD
ENDBRANCH   7  11
BRANCH   8  13
HETATM   13  C2  UNL     1      -3.141   0.204  -0.207  1.00  0.00     0.295 C 
HETATM   14  O2  UNL     1      -3.669  -0.584  -1.008  1.00  0.00    -0.259 OA
BRANCH  13  15
HETATM   15  O1  UNL     1      -3.974   0.940   0.623  1.00  0.00    -0.323 OA
HETATM   16  C1  UNL     1      -5.391   0.809   0.570  1.00  0.00     0.213 C 
ENDBRANCH  13  15
ENDBRANCH   8  13
BRANCH   9  17
HETATM   17  O5  UNL     1      -0.550   0.009  -2.213  1.00  0.00    -0.380 OA
ATOM     18  H5  UNL     1       0.174  -0.391  -2.681  1.00  0.00     0.211 HD
ENDBRANCH   9  17
ENDBRANCH   5   6
ENDBRANCH   4   5
ENDBRANCH   1   4
BRANCH   1  19
HETATM   19  N1  UNL     1       4.473   0.892   0.443  1.00  0.00    -0.007 N 
ATOM     20  H13 UNL     1       4.624   1.577  -0.297  1.00  0.00     0.281 HD
ATOM     21  H12 UNL     1       3.896   1.457   1.066  1.00  0.00     0.281 HD
ATOM     22  H11 UNL     1       5.351   0.623   0.888  1.00  0.00     0.281 HD
ENDBRANCH   1  19
BRANCH   1  23
HETATM   23  N2  UNL     1       3.403  -1.100   1.101  1.00  0.00    -0.007 N 
ATOM     24  H23 UNL     1       2.752  -0.644   1.741  1.00  0.00     0.281 HD
ATOM     25  H22 UNL     1       2.814  -1.898   0.863  1.00  0.00     0.281 HD
ATOM     26  H21 UNL     1       4.281  -1.369   1.546  1.00  0.00     0.281 HD
ENDBRANCH   1  23
TORSDOF 9
