REMARK  5 active torsions:
REMARK  status: ('A' for Active; 'I' for Inactive)
REMARK    1  A    between atoms: C2_3  and  O1_4 
REMARK    2  A    between atoms: C3_6  and  N2_7 
REMARK    3  A    between atoms: N2_7  and  O2_9 
REMARK    4  A    between atoms: N3_11  and  C4_12 
REMARK    5  A    between atoms: C5_15  and  N5_16 
ROOT
HETATM    1  C4  UNL     1       0.819   0.143   0.258  1.00  0.00     0.712 C 
HETATM    2  N4  UNL     1       1.657  -0.833  -0.201  1.00  0.00    -0.021 N 
ATOM      3  H4  UNL     1       1.202  -1.650  -0.607  1.00  0.00     0.203 HD
HETATM    4  C5  UNL     1       3.011  -0.861  -0.189  1.00  0.00     0.693 C 
HETATM    5  N6  UNL     1       3.829   0.206  -0.153  1.00  0.00    -0.151 N 
ATOM      6  H6  UNL     1       4.762   0.081  -0.546  1.00  0.00     0.188 HD
HETATM    7  C6  UNL     1       3.542   1.428   0.350  1.00  0.00     0.328 C 
HETATM    8  O3  UNL     1       4.492   2.219   0.382  1.00  0.00    -0.261 OA
HETATM    9  C7  UNL     1       2.338   1.919   0.833  1.00  0.00     0.328 C 
HETATM   10  O4  UNL     1       2.317   3.086   1.292  1.00  0.00    -0.261 OA
HETATM   11  N7  UNL     1       1.151   1.290   0.875  1.00  0.00    -0.150 N 
ATOM     12  H7  UNL     1       0.423   1.731   1.436  1.00  0.00     0.188 HD
ENDROOT
BRANCH   1  13
HETATM   13  N3  UNL     1      -0.579  -0.054   0.075  1.00  0.00    -0.074 N 
HETATM   14  C3  UNL     1      -1.192  -1.255   0.102  1.00  0.00     0.204 A 
HETATM   15  C2  UNL     1      -2.551  -1.083  -0.111  1.00  0.00     0.194 A 
HETATM   16  N1  UNL     1      -2.747   0.239  -0.267  1.00  0.00    -0.280 N 
HETATM   17  C1  UNL     1      -4.010   0.907  -0.514  1.00  0.00     0.163 C 
HETATM   18  C8  UNL     1      -1.550   0.836  -0.151  1.00  0.00     0.351 A 
HETATM   19  O5  UNL     1      -1.391   2.077  -0.247  1.00  0.00    -0.245 OA
BRANCH  14  20
HETATM   20  N2  UNL     1      -0.603  -2.530   0.310  1.00  0.00    -0.248 N 
ATOM     21  H2  UNL     1      -0.375  -3.144  -0.472  1.00  0.00     0.196 HD
BRANCH  20  22
HETATM   22  O2  UNL     1      -0.377  -2.867   1.482  1.00  0.00    -0.288 OA
ATOM     23  H2  UNL     1       0.017  -3.720   1.621  1.00  0.00     0.244 HD
ENDBRANCH  20  22
ENDBRANCH  14  20
BRANCH  15  24
HETATM   24  O1  UNL     1      -3.539  -2.052  -0.161  1.00  0.00    -0.343 OA
ATOM     25  H1  UNL     1      -3.401  -2.985  -0.051  1.00  0.00     0.219 HD
ENDBRANCH  15  24
ENDBRANCH   1  13
BRANCH   4  26
HETATM   26  N5  UNL     1       3.608  -1.998  -0.215  1.00  0.00    -0.234 N 
ATOM     27  H52 UNL     1       2.988  -2.807  -0.242  1.00  0.00     0.174 HD
ATOM     28  H51 UNL     1       4.628  -2.019  -0.206  1.00  0.00     0.174 HD
ENDBRANCH   4  26
TORSDOF 5
