REMARK  8 active torsions:
REMARK  status: ('A' for Active; 'I' for Inactive)
REMARK    1  A    between atoms: C2_2  and  C4_4 
REMARK    2  A    between atoms: C4_4  and  O1_5 
REMARK    3  A    between atoms: O1_5  and  C5_6 
REMARK    4  A    between atoms: C7_8  and  C8_9 
REMARK    5  A    between atoms: C9_12  and  O4_13 
REMARK    6  A    between atoms: O4_13  and  C10_14 
REMARK    7  A    between atoms: C25_29  and  O5_30 
REMARK    8  A    between atoms: C29_36  and  O7_37 
ROOT
HETATM    1  C10 UNL     1      -0.885   1.792   0.828  1.00  0.00     0.133 C 
HETATM    2  C11 UNL     1      -1.367   2.664  -0.330  1.00  0.00     0.034 C 
HETATM    3  C12 UNL     1      -2.753   2.481  -0.762  1.00  0.00     0.012 C 
HETATM    4  C13 UNL     1      -3.395   1.130  -0.514  1.00  0.00    -0.034 C 
HETATM    5  C14 UNL     1      -3.148   0.345  -1.812  1.00  0.00     0.010 C 
HETATM    6  C15 UNL     1      -3.986  -0.842  -2.015  1.00  0.00     0.008 C 
HETATM    7  C16 UNL     1      -5.235  -0.932  -1.225  1.00  0.00     0.018 C 
HETATM    8  C17 UNL     1      -5.156  -1.887  -0.042  1.00  0.00    -0.012 C 
HETATM    9  C18 UNL     1      -5.461  -3.312  -0.469  1.00  0.00     0.010 C 
HETATM   10  C19 UNL     1      -3.872  -1.835   0.692  1.00  0.00     0.005 C 
HETATM   11  C20 UNL     1      -3.793  -0.473   1.392  1.00  0.00     0.006 C 
HETATM   12  C21 UNL     1      -2.831   0.380   0.644  1.00  0.00     0.004 C 
HETATM   13  C22 UNL     1      -2.012   1.222   1.596  1.00  0.00    -0.017 C 
HETATM   14  C23 UNL     1      -2.828   2.232   2.350  1.00  0.00     0.018 C 
HETATM   15  C24 UNL     1      -1.460   0.292   2.650  1.00  0.00     0.018 C 
HETATM   16  C25 UNL     1      -5.814   0.394  -0.836  1.00  0.00     0.123 C 
HETATM   17  C26 UNL     1      -4.878   1.423  -0.368  1.00  0.00     0.042 C 
ENDROOT
BRANCH   1  18
HETATM   18  O4  UNL     1      -0.151   0.792   0.201  1.00  0.00    -0.354 OA
BRANCH  18  19
HETATM   19  C9  UNL     1       1.188   0.785   0.413  1.00  0.00     0.275 C 
HETATM   20  C7  UNL     1       1.710  -0.573   0.799  1.00  0.00     0.144 C 
HETATM   21  C6  UNL     1       3.058  -0.400   1.392  1.00  0.00     0.055 C 
HETATM   22  C5  UNL     1       4.241  -0.381   0.501  1.00  0.00     0.153 C 
HETATM   23  C29 UNL     1       4.293   0.755  -0.460  1.00  0.00     0.175 C 
HETATM   24  C27 UNL     1       3.102   1.677  -0.375  1.00  0.00     0.151 C 
HETATM   25  O6  UNL     1       1.905   1.111  -0.771  1.00  0.00    -0.353 OA
HETATM   26  C28 UNL     1       3.398   2.848  -1.322  1.00  0.00     0.042 C 
BRANCH  20  27
HETATM   27  C8  UNL     1       1.615  -1.538  -0.320  1.00  0.00     0.181 C 
HETATM   28  O2  UNL     1       1.008  -2.628  -0.158  1.00  0.00    -0.648 OA
HETATM   29  O3  UNL     1       2.153  -1.350  -1.582  1.00  0.00    -0.648 OA
ENDBRANCH  20  27
BRANCH  22  30
HETATM   30  O1  UNL     1       4.529  -1.583  -0.095  1.00  0.00    -0.383 OA
BRANCH  30  31
HETATM   31  C4  UNL     1       5.670  -2.214   0.294  1.00  0.00     0.172 C 
BRANCH  31  32
HETATM   32  C2  UNL     1       6.963  -1.524   0.050  1.00  0.00     0.001 C 
HETATM   33  C1  UNL     1       7.146  -1.288  -1.440  1.00  0.00     0.011 C 
HETATM   34  C3  UNL     1       8.078  -2.481   0.466  1.00  0.00     0.011 C 
ENDBRANCH  31  32
ENDBRANCH  30  31
ENDBRANCH  22  30
BRANCH  23  35
HETATM   35  O7  UNL     1       5.401   1.614  -0.212  1.00  0.00    -0.390 OA
ATOM     36  H7  UNL     1       5.434   2.339  -0.825  1.00  0.00     0.210 HD
ENDBRANCH  23  35
ENDBRANCH  18  19
ENDBRANCH   1  18
BRANCH  16  37
HETATM   37  O5  UNL     1      -6.639   0.840  -1.899  1.00  0.00    -0.395 OA
ATOM     38  H5  UNL     1      -7.006   1.681  -1.652  1.00  0.00     0.210 HD
ENDBRANCH  16  37
TORSDOF 8
