REMARK  11 active torsions:
REMARK  status: ('A' for Active; 'I' for Inactive)
REMARK    1  A    between atoms: O1_1  and  C1_3 
REMARK    2  A    between atoms: C1_3  and  N1_4 
REMARK    3  A    between atoms: C1_3  and  C7_12 
REMARK    4  A    between atoms: C1_3  and  C19_33 
REMARK    5  A    between atoms: C2_6  and  C3_7 
REMARK    6  A    between atoms: C7_12  and  C8_13 
REMARK    7  A    between atoms: C8_13  and  C9_14 
REMARK    8  A    between atoms: C9_14  and  O3_15 
REMARK    9  A    between atoms: C9_14  and  C10_17 
REMARK   10  A    between atoms: C9_14  and  C11_20 
REMARK   11  A    between atoms: N2_24  and  C12_26 
ROOT
HETATM    1  C7  UNL     1       0.226   0.193  -0.583  1.00  0.00     0.070 C 
HETATM    2  N2  UNL     1      -0.933  -0.419  -0.380  1.00  0.00    -0.384 N 
ATOM      3  H2  UNL     1      -1.010  -1.323  -0.846  1.00  0.00     0.160 HD
ENDROOT
BRANCH   1   4
HETATM    4  C1  UNL     1       1.119  -0.598  -1.437  1.00  0.00     0.276 C 
BRANCH   4   5
HETATM    5  O1  UNL     1       0.268  -1.700  -1.912  1.00  0.00    -0.359 OA
ATOM      6  H1  UNL     1      -0.357  -1.216  -2.438  1.00  0.00     0.213 HD
ENDBRANCH   4   5
BRANCH   4   7
HETATM    7  N1  UNL     1       2.082  -1.344  -0.627  1.00  0.00    -0.353 N 
HETATM    8  C2  UNL     1       3.115  -0.810  -0.139  1.00  0.00     0.123 C 
ATOM      9  H1  UNL     1       1.911  -2.334  -0.450  1.00  0.00     0.162 HD
BRANCH   8  10
HETATM   10  C3  UNL     1       4.014  -1.663   0.661  1.00  0.00     0.090 A 
HETATM   11  C4  UNL     1       5.190  -1.262   1.276  1.00  0.00     0.040 A 
HETATM   12  C5  UNL     1       5.719  -2.351   1.914  1.00  0.00     0.027 A 
HETATM   13  C6  UNL     1       4.848  -3.389   1.670  1.00  0.00     0.142 A 
HETATM   14  O2  UNL     1       3.875  -2.930   0.936  1.00  0.00    -0.321 OA
ENDBRANCH   8  10
ENDBRANCH   4   7
BRANCH   4  15
HETATM   15  C19 UNL     1       1.686  -0.096  -2.690  1.00  0.00     0.444 C 
HETATM   16  F6  UNL     1       0.765   0.391  -3.559  1.00  0.00    -0.166 F 
HETATM   17  F7  UNL     1       2.866   0.564  -2.679  1.00  0.00    -0.166 F 
HETATM   18  F8  UNL     1       2.109  -1.353  -3.351  1.00  0.00    -0.166 F 
ENDBRANCH   4  15
ENDBRANCH   1   4
BRANCH   1  19
HETATM   19  C8  UNL     1       0.462   1.459   0.047  1.00  0.00     0.055 C 
BRANCH  19  20
HETATM   20  C9  UNL     1       0.496   2.768  -0.590  1.00  0.00     0.235 C 
BRANCH  20  21
HETATM   21  O3  UNL     1       1.402   3.049  -1.571  1.00  0.00    -0.373 OA
ATOM     22  H3  UNL     1       1.424   3.903  -1.987  1.00  0.00     0.211 HD
ENDBRANCH  20  21
BRANCH  20  23
HETATM   23  C10 UNL     1       0.943   3.738   0.564  1.00  0.00     0.400 C 
HETATM   24  F1  UNL     1       0.021   3.642   1.553  1.00  0.00    -0.210 F 
HETATM   25  F2  UNL     1       1.197   4.979   0.086  1.00  0.00    -0.210 F 
ENDBRANCH  20  23
BRANCH  20  26
HETATM   26  C11 UNL     1      -0.831   3.351  -1.031  1.00  0.00     0.427 C 
HETATM   27  F3  UNL     1      -1.712   3.540  -0.025  1.00  0.00    -0.167 F 
HETATM   28  F4  UNL     1      -1.371   2.667  -2.110  1.00  0.00    -0.167 F 
HETATM   29  F5  UNL     1      -0.534   4.626  -1.543  1.00  0.00    -0.167 F 
ENDBRANCH  20  26
ENDBRANCH  19  20
ENDBRANCH   1  19
BRANCH   2  30
HETATM   30  C12 UNL     1      -2.041  -0.068   0.334  1.00  0.00     0.086 C 
HETATM   31  C13 UNL     1      -3.328   0.024  -0.513  1.00  0.00     0.030 C 
HETATM   32  C14 UNL     1      -4.428  -0.589   0.283  1.00  0.00    -0.012 C 
HETATM   33  C15 UNL     1      -4.361  -2.087   0.077  1.00  0.00     0.005 C 
HETATM   34  C18 UNL     1      -3.856  -0.507   1.709  1.00  0.00     0.011 C 
HETATM   35  C16 UNL     1      -2.965  -2.386   0.644  1.00  0.00     0.007 C 
HETATM   36  C17 UNL     1      -2.504  -1.146   1.335  1.00  0.00     0.009 C 
ENDBRANCH   2  30
TORSDOF 11
