REMARK  9 active torsions:
REMARK  status: ('A' for Active; 'I' for Inactive)
REMARK    1  A    between atoms: N1_1  and  C1_4 
REMARK    2  A    between atoms: C2_7  and  C3_8 
REMARK    3  A    between atoms: C3_8  and  C4_9 
REMARK    4  A    between atoms: C6_13  and  N4_14 
REMARK    5  A    between atoms: N4_14  and  C7_16 
REMARK    6  A    between atoms: C7_16  and  C8_17 
REMARK    7  A    between atoms: C12_25  and  C13_26 
REMARK    8  A    between atoms: C18_32  and  O1_33 
REMARK    9  A    between atoms: O1_33  and  C19_34 
ROOT
HETATM    1  C1  UNL     1      -2.037  -2.977  -0.701  1.00  0.00     0.222 A 
HETATM    2  N2  UNL     1      -1.244  -1.908  -0.579  1.00  0.00    -0.323 N 
ATOM      3  H2  UNL     1      -0.238  -1.887  -0.745  1.00  0.00     0.169 HD
HETATM    4  C2  UNL     1      -2.022  -0.841  -0.191  1.00  0.00     0.053 A 
HETATM    5  C12 UNL     1      -3.299  -1.291  -0.087  1.00  0.00     0.115 A 
HETATM    6  O2  UNL     1      -3.234  -2.611  -0.412  1.00  0.00    -0.277 OA
ENDROOT
BRANCH   4   7
HETATM    7  C3  UNL     1      -1.431   0.458   0.123  1.00  0.00     0.120 C 
BRANCH   7   8
HETATM    8  C4  UNL     1       0.079   0.325   0.112  1.00  0.00     0.048 A 
HETATM    9  C5  UNL     1       0.737  -0.192   1.194  1.00  0.00     0.133 A 
HETATM   10  N3  UNL     1       2.101  -0.302   1.160  1.00  0.00    -0.199 N 
HETATM   11  C6  UNL     1       2.799   0.087   0.085  1.00  0.00     0.692 A 
ATOM     12  H3  UNL     1       2.594  -0.686   1.966  1.00  0.00     0.183 HD
HETATM   13  N5  UNL     1       2.119   0.592  -0.961  1.00  0.00    -0.132 N 
HETATM   14  N6  UNL     1       0.796   0.712  -0.960  1.00  0.00    -0.289 N 
ATOM     15  H5  UNL     1       2.639   0.894  -1.785  1.00  0.00     0.205 HD
ATOM     16  H6  UNL     1       0.321   1.099  -1.775  1.00  0.00     0.187 HD
BRANCH  11  17
HETATM   17  N4  UNL     1       4.104  -0.004   0.002  1.00  0.00    -0.224 N 
ATOM     18  H4  UNL     1       4.663  -0.385   0.766  1.00  0.00     0.177 HD
BRANCH  17  19
HETATM   19  C7  UNL     1       4.711   0.459  -1.218  1.00  0.00     0.142 C 
BRANCH  19  20
HETATM   20  C8  UNL     1       6.179   0.666  -1.169  1.00  0.00     0.004 C 
HETATM   21  C9  UNL     1       6.672   1.663  -0.138  1.00  0.00     0.006 C 
HETATM   22  C10 UNL     1       7.286   0.510   0.619  1.00  0.00     0.001 C 
HETATM   23  C11 UNL     1       7.048  -0.388  -0.580  1.00  0.00     0.006 C 
ENDBRANCH  19  20
ENDBRANCH  17  19
ENDBRANCH  11  17
ENDBRANCH   7   8
ENDBRANCH   4   7
BRANCH   5  24
HETATM   24  C13 UNL     1      -4.564  -0.681   0.281  1.00  0.00     0.035 A 
HETATM   25  C14 UNL     1      -5.490  -1.483   0.985  1.00  0.00     0.041 A 
HETATM   26  C15 UNL     1      -6.738  -1.085   1.323  1.00  0.00     0.035 A 
HETATM   27 CL1  UNL     1      -7.813  -2.174   2.199  1.00  0.00    -0.084 Cl
HETATM   28  C16 UNL     1      -7.168   0.168   0.981  1.00  0.00     0.026 A 
HETATM   29  C17 UNL     1      -6.316   0.983   0.302  1.00  0.00     0.039 A 
HETATM   30  C18 UNL     1      -5.009   0.551  -0.049  1.00  0.00     0.088 A 
BRANCH  30  31
HETATM   31  O1  UNL     1      -4.216   1.408  -0.738  1.00  0.00    -0.289 OA
BRANCH  31  32
HETATM   32  C19 UNL     1      -4.447   2.677  -1.209  1.00  0.00     0.505 C 
HETATM   33  F1  UNL     1      -4.141   2.698  -2.582  1.00  0.00    -0.184 F 
HETATM   34  F2  UNL     1      -3.582   3.559  -0.568  1.00  0.00    -0.184 F 
ENDBRANCH  31  32
ENDBRANCH  30  31
ENDBRANCH   5  24
BRANCH   1  35
HETATM   35  N1  UNL     1      -1.600  -4.161  -1.056  1.00  0.00    -0.365 N 
ATOM     36  H12 UNL     1      -0.650  -4.452  -1.285  1.00  0.00     0.159 HD
ATOM     37  H11 UNL     1      -2.205  -4.977  -1.149  1.00  0.00     0.159 HD
ENDBRANCH   1  35
TORSDOF 9
