REMARK  0 active torsions:
REMARK  status: ('A' for Active; 'I' for Inactive)
ROOT
HETATM    1  C1  UNL     1       3.485  -0.403  -0.513  1.00  0.00     0.146 C 
HETATM    2  N1  UNL     1       2.499   0.658  -0.775  1.00  0.00    -0.173 NA
HETATM    3  C2  UNL     1       2.305   1.354   0.480  1.00  0.00     0.355 C 
HETATM    4  N2  UNL     1       1.278   0.510   1.105  1.00  0.00    -0.028 N 
ATOM      5  H21 UNL     1       0.766   0.939   1.876  1.00  0.00     0.282 HD
ATOM      6  H22 UNL     1       1.629  -0.272   1.657  1.00  0.00     0.282 HD
HETATM    7  C3  UNL     1       0.482   0.151  -0.046  1.00  0.00     0.246 C 
HETATM    8  C4  UNL     1      -0.613   1.181  -0.252  1.00  0.00     0.071 C 
HETATM    9  C5  UNL     1      -1.648   0.967   0.801  1.00  0.00     0.005 C 
HETATM   10  C6  UNL     1      -2.872   0.265   0.326  1.00  0.00     0.000 C 
HETATM   11  C7  UNL     1      -2.682  -1.000  -0.392  1.00  0.00     0.000 C 
HETATM   12  C8  UNL     1      -1.320  -1.371  -0.818  1.00  0.00     0.005 C 
HETATM   13  C9  UNL     1      -0.230  -1.190   0.161  1.00  0.00     0.071 C 
HETATM   14  O1  UNL     1       1.354   0.066  -1.102  1.00  0.00    -0.262 OA
ENDROOT
TORSDOF 0
