REMARK  9 active torsions:
REMARK  status: ('A' for Active; 'I' for Inactive)
REMARK    1  A    between atoms: C2_2  and  C3_3 
REMARK    2  A    between atoms: C5_5  and  O1_7 
REMARK    3  A    between atoms: C7_9  and  O2_10 
REMARK    4  A    between atoms: O2_10  and  C8_11 
REMARK    5  A    between atoms: C8_11  and  O4_13 
REMARK    6  A    between atoms: O4_13  and  C9_14 
REMARK    7  A    between atoms: C14_19  and  O5_20 
REMARK    8  A    between atoms: C15_22  and  C16_23 
REMARK    9  A    between atoms: C18_26  and  O7_27 
ROOT
HETATM    1  C3  UNL     1      -2.519   0.994   1.550  1.00  0.00    -0.045 C 
HETATM    2  C4  UNL     1      -1.649   0.487   2.448  1.00  0.00     0.025 C 
HETATM    3  C5  UNL     1      -0.662  -0.572   2.135  1.00  0.00     0.122 C 
HETATM    4  C6  UNL     1      -1.373  -1.901   2.390  1.00  0.00     0.058 C 
HETATM    5  C7  UNL     1      -0.204  -0.400   0.767  1.00  0.00     0.111 C 
HETATM    6  C13 UNL     1      -1.353  -0.326  -0.173  1.00  0.00     0.045 A 
HETATM    7  C14 UNL     1      -1.299  -0.977  -1.409  1.00  0.00     0.092 A 
HETATM    8  C15 UNL     1      -2.288  -0.732  -2.319  1.00  0.00     0.038 A 
HETATM    9  C17 UNL     1      -3.323   0.158  -1.994  1.00  0.00     0.054 A 
HETATM   10  C18 UNL     1      -3.359   0.786  -0.765  1.00  0.00     0.078 A 
HETATM   11  C19 UNL     1      -2.371   0.546   0.160  1.00  0.00     0.019 A 
ENDROOT
BRANCH   5  12
HETATM   12  O2  UNL     1       0.792  -1.119   0.228  1.00  0.00    -0.255 OA
BRANCH  12  13
HETATM   13  C8  UNL     1       2.009  -0.650  -0.165  1.00  0.00     0.412 C 
HETATM   14  O3  UNL     1       2.151   0.555   0.017  1.00  0.00    -0.229 OA
BRANCH  13  15
HETATM   15  O4  UNL     1       3.044  -1.376  -0.721  1.00  0.00    -0.288 OA
BRANCH  15  16
HETATM   16  C9  UNL     1       4.231  -0.685  -1.058  1.00  0.00     0.062 C 
HETATM   17  C10 UNL     1       3.988   0.413  -2.073  1.00  0.00     0.046 C 
HETATM   18  C11 UNL     1       4.981  -0.192   0.155  1.00  0.00     0.046 C 
HETATM   19  C12 UNL     1       5.145  -1.707  -1.748  1.00  0.00     0.046 C 
ENDBRANCH  15  16
ENDBRANCH  13  15
ENDBRANCH  12  13
ENDBRANCH   5  12
BRANCH   3  20
HETATM   20  O1  UNL     1       0.351  -0.385   3.107  1.00  0.00    -0.379 OA
ATOM     21  H1  UNL     1       0.984  -1.064   2.906  1.00  0.00     0.211 HD
ENDBRANCH   3  20
BRANCH   7  22
HETATM   22  O5  UNL     1      -0.270  -1.810  -1.614  1.00  0.00    -0.359 OA
ATOM     23  H5  UNL     1      -0.233  -2.252  -2.454  1.00  0.00     0.217 HD
ENDBRANCH   7  22
BRANCH   1  24
HETATM   24  C2  UNL     1      -3.478   2.027   1.916  1.00  0.00     0.035 C 
HETATM   25  C1  UNL     1      -3.150   3.422   1.417  1.00  0.00     0.010 C 
ENDBRANCH   1  24
BRANCH   8  26
HETATM   26  C16 UNL     1      -2.284  -1.377  -3.617  1.00  0.00     0.272 C 
HETATM   27  O6  UNL     1      -1.417  -2.175  -3.996  1.00  0.00    -0.301 OA
ENDBRANCH   8  26
BRANCH  10  28
HETATM   28  O7  UNL     1      -4.383   1.651  -0.458  1.00  0.00    -0.360 OA
ATOM     29  H7  UNL     1      -4.408   2.083   0.388  1.00  0.00     0.217 HD
ENDBRANCH  10  28
TORSDOF 9
