REMARK  4 active torsions:
REMARK  status: ('A' for Active; 'I' for Inactive)
REMARK    1  A    between atoms: O1_2  and  C2_3 
REMARK    2  A    between atoms: C9_11  and  C10_12 
REMARK    3  A    between atoms: C18_24  and  O6_25 
REMARK    4  A    between atoms: C19_27  and  O7_28 
ROOT
HETATM    1  C2  UNL     1       4.265   0.567   0.262  1.00  0.00     0.105 A 
HETATM    2  C3  UNL     1       3.086  -0.193   0.149  1.00  0.00     0.058 A 
HETATM    3  C4  UNL     1       1.858   0.423   0.156  1.00  0.00     0.054 A 
HETATM    4  C5  UNL     1       0.710  -0.382   0.040  1.00  0.00     0.199 A 
HETATM    5  O2  UNL     1       0.933  -1.549  -0.055  1.00  0.00    -0.286 OA
HETATM    6  C6  UNL     1      -0.491   0.252   0.050  1.00  0.00     0.062 A 
HETATM    7  C7  UNL     1      -0.552   1.652   0.172  1.00  0.00     0.092 A 
HETATM    8  C8  UNL     1      -1.776   2.285   0.181  1.00  0.00     0.057 A 
HETATM    9  C9  UNL     1      -2.943   1.591   0.074  1.00  0.00     0.066 A 
HETATM   10  C11 UNL     1      -2.898   0.216  -0.046  1.00  0.00     0.103 A 
HETATM   11  O4  UNL     1      -3.818  -0.686  -0.162  1.00  0.00    -0.313 OA
HETATM   12  C12 UNL     1      -3.323  -1.879  -0.248  1.00  0.00     0.056 A 
HETATM   13  C13 UNL     1      -4.081  -3.163  -0.391  1.00  0.00     0.077 C 
HETATM   14  C14 UNL     1      -1.916  -1.811  -0.187  1.00  0.00    -0.018 A 
HETATM   15  C15 UNL     1      -1.079  -3.015  -0.257  1.00  0.00     0.052 C 
HETATM   16  C16 UNL     1      -1.668  -0.474  -0.060  1.00  0.00     0.024 A 
HETATM   17  O5  UNL     1       0.552   2.349   0.277  1.00  0.00    -0.306 OA
HETATM   18  C17 UNL     1       1.725   1.783   0.272  1.00  0.00     0.126 A 
HETATM   19  C18 UNL     1       2.884   2.539   0.384  1.00  0.00     0.137 A 
HETATM   20  C19 UNL     1       4.105   1.917   0.376  1.00  0.00     0.135 A 
ENDROOT
BRANCH   9  21
HETATM   21  C10 UNL     1      -4.218   2.275   0.085  1.00  0.00     0.267 C 
HETATM   22  N1  UNL     1      -5.463   1.575  -0.026  1.00  0.00    -0.057 NA
HETATM   23  O3  UNL     1      -4.305   3.527   0.192  1.00  0.00    -0.271 OA
ENDBRANCH   9  21
BRANCH  19  24
HETATM   24  O6  UNL     1       2.745   3.893   0.499  1.00  0.00    -0.356 OA
ATOM     25  H6  UNL     1       3.538   4.410   0.576  1.00  0.00     0.218 HD
ENDBRANCH  19  24
BRANCH  20  26
HETATM   26  O7  UNL     1       5.233   2.704   0.489  1.00  0.00    -0.356 OA
ATOM     27  H7  UNL     1       5.122   3.644   0.568  1.00  0.00     0.218 HD
ENDBRANCH  20  26
BRANCH   1  28
HETATM   28  O1  UNL     1       5.484  -0.046   0.255  1.00  0.00    -0.353 OA
HETATM   29  C1  UNL     1       5.674  -1.429   0.139  1.00  0.00     0.210 C 
ENDBRANCH   1  28
TORSDOF 4
