REMARK  7 active torsions:
REMARK  status: ('A' for Active; 'I' for Inactive)
REMARK    1  A    between atoms: N1_1  and  C1_5 
REMARK    2  A    between atoms: C1_5  and  C2_6 
REMARK    3  A    between atoms: C2_6  and  C3_7 
REMARK    4  A    between atoms: C3_7  and  C4_8 
REMARK    5  A    between atoms: C4_8  and  C5_9 
REMARK    6  A    between atoms: C5_9  and  C6_10 
REMARK    7  A    between atoms: C6_10  and  C7_11 
ROOT
HETATM    1  C6  UNL     1       0.196  -0.872  -1.002  1.00  0.00     0.032 C 
ENDROOT
BRANCH   1   2
HETATM    2  C5  UNL     1      -0.317  -1.394   0.311  1.00  0.00     0.002 C 
BRANCH   2   3
HETATM    3  C4  UNL     1      -1.618  -2.097   0.092  1.00  0.00     0.000 C 
BRANCH   3   4
HETATM    4  C3  UNL     1      -2.686  -1.232  -0.487  1.00  0.00     0.002 C 
BRANCH   4   5
HETATM    5  C2  UNL     1      -3.013  -0.043   0.398  1.00  0.00     0.027 C 
BRANCH   5   6
HETATM    6  C1  UNL     1      -4.088   0.809  -0.207  1.00  0.00     0.229 C 
BRANCH   6   7
HETATM    7  N1  UNL     1      -4.336   1.916   0.702  1.00  0.00    -0.079 N 
ATOM      8  H13 UNL     1      -4.558   1.610   1.649  1.00  0.00     0.274 HD
ATOM      9  H12 UNL     1      -3.492   2.442   0.926  1.00  0.00     0.274 HD
ATOM     10  H11 UNL     1      -5.067   2.496   0.290  1.00  0.00     0.274 HD
ENDBRANCH   6   7
ENDBRANCH   5   6
ENDBRANCH   4   5
ENDBRANCH   3   4
ENDBRANCH   2   3
ENDBRANCH   1   2
BRANCH   1  11
HETATM   11  C7  UNL     1       1.514  -0.147  -0.856  1.00  0.00     0.186 C 
HETATM   12  N2  UNL     1       1.424   0.988   0.022  1.00  0.00    -0.134 NA
HETATM   13  N3  UNL     1       2.453   1.870  -0.392  1.00  0.00    -0.146 NA
HETATM   14  C8  UNL     1       3.559   1.858   0.505  1.00  0.00     0.150 C 
HETATM   15  C9  UNL     1       4.427   0.675   0.465  1.00  0.00     0.140 C 
HETATM   16  N4  UNL     1       3.823  -0.577   0.189  1.00  0.00    -0.358 N 
HETATM   17  C10 UNL     1       2.604  -1.014  -0.399  1.00  0.00     0.238 C 
ATOM     18  H4  UNL     1       4.408  -1.359   0.486  1.00  0.00     0.162 HD
HETATM   19  O1  UNL     1       2.448  -2.270  -0.540  1.00  0.00    -0.272 OA
ENDBRANCH   1  11
TORSDOF 7
