REMARK  6 active torsions:
REMARK  status: ('A' for Active; 'I' for Inactive)
REMARK    1  A    between atoms: C2_5  and  C3_6 
REMARK    2  A    between atoms: C3_6  and  C4_7 
REMARK    3  A    between atoms: C4_7  and  C5_8 
REMARK    4  A    between atoms: C5_8  and  O1_9 
REMARK    5  A    between atoms: O1_9  and  C6_10 
REMARK    6  A    between atoms: C6_10  and  C7_11 
ROOT
HETATM    1  C4  UNL     1       0.699  -0.038   0.187  1.00  0.00     0.032 C 
ENDROOT
BRANCH   1   2
HETATM    2  C3  UNL     1       1.782   0.461  -0.780  1.00  0.00     0.061 C 
BRANCH   2   3
HETATM    3  C2  UNL     1       3.114  -0.049  -0.421  1.00  0.00     0.027 A 
HETATM    4  N2  UNL     1       4.052   0.477   0.389  1.00  0.00    -0.333 N 
HETATM    5  C1  UNL     1       5.129  -0.326   0.433  1.00  0.00     0.192 A 
ATOM      6  H2  UNL     1       3.959   1.357   0.896  1.00  0.00     0.168 HD
HETATM    7  N1  UNL     1       6.317  -0.101   1.181  1.00  0.00    -0.063 NA
HETATM    8  N4  UNL     1       4.849  -1.366  -0.366  1.00  0.00    -0.339 N 
HETATM    9  C10 UNL     1       3.629  -1.242  -0.911  1.00  0.00     0.115 A 
ATOM     10  H4  UNL     1       5.480  -2.149  -0.537  1.00  0.00     0.168 HD
ENDBRANCH   2   3
ENDBRANCH   1   2
BRANCH   1  11
HETATM   11  C5  UNL     1      -0.597   0.538  -0.272  1.00  0.00     0.168 C 
BRANCH  11  12
HETATM   12  O1  UNL     1      -1.682   0.186   0.491  1.00  0.00    -0.389 OA
BRANCH  12  13
HETATM   13  C6  UNL     1      -2.808   0.813  -0.082  1.00  0.00     0.193 C 
BRANCH  13  14
HETATM   14  C7  UNL     1      -4.070   0.509   0.662  1.00  0.00     0.116 A 
HETATM   15  C8  UNL     1      -5.270   0.699  -0.244  1.00  0.00     0.130 A 
HETATM   16  C9  UNL     1      -5.555  -0.751  -0.119  1.00  0.00     0.220 A 
HETATM   17  O2  UNL     1      -6.398  -1.582  -0.549  1.00  0.00    -0.274 OA
HETATM   18  N3  UNL     1      -4.435  -0.883   0.740  1.00  0.00    -0.354 N 
ATOM     19  H3  UNL     1      -4.032  -1.678   1.236  1.00  0.00     0.162 HD
ENDBRANCH  13  14
ENDBRANCH  12  13
ENDBRANCH  11  12
ENDBRANCH   1  11
TORSDOF 6
