REMARK  11 active torsions:
REMARK  status: ('A' for Active; 'I' for Inactive)
REMARK    1  A    between atoms: C2_3  and  N2_4 
REMARK    2  A    between atoms: C2_3  and  C3_7 
REMARK    3  A    between atoms: C3_7  and  C4_8 
REMARK    4  A    between atoms: C4_8  and  N4_11 
REMARK    5  A    between atoms: N4_11  and  C6_13 
REMARK    6  A    between atoms: C6_13  and  N5_14 
REMARK    7  A    between atoms: C6_13  and  C7_19 
REMARK    8  A    between atoms: N5_14  and  N6_16 
REMARK    9  A    between atoms: C9_28  and  N11_29 
REMARK   10  A    between atoms: N11_29  and  S1_31 
REMARK   11  A    between atoms: S1_31  and  C10_34 
ROOT
HETATM    1  N1  UNL     1      -8.339   0.148   1.410  1.00  0.00    -0.190 NA
HETATM    2  C1  UNL     1      -7.593  -0.202   0.574  1.00  0.00     0.112 C 
HETATM    3  C2  UNL     1      -6.710  -0.635  -0.464  1.00  0.00     0.087 C 
ENDROOT
BRANCH   3   4
HETATM    4  N2  UNL     1      -7.191  -0.484  -1.681  1.00  0.00    -0.394 N 
ATOM      5  H22 UNL     1      -8.119  -0.089  -1.836  1.00  0.00     0.156 HD
ATOM      6  H21 UNL     1      -6.561  -0.793  -2.421  1.00  0.00     0.156 HD
ENDBRANCH   3   4
BRANCH   3   7
HETATM    7  C3  UNL     1      -5.372  -1.204  -0.241  1.00  0.00     0.108 C 
BRANCH   7   8
HETATM    8  C4  UNL     1      -4.389  -0.298   0.408  1.00  0.00     0.197 C 
HETATM    9  C5  UNL     1      -4.739   0.179   1.731  1.00  0.00     0.085 C 
HETATM   10  N3  UNL     1      -4.993   0.557   2.791  1.00  0.00    -0.195 NA
BRANCH   8  11
HETATM   11  N4  UNL     1      -3.048  -0.842   0.439  1.00  0.00    -0.356 N 
ATOM     12  H4  UNL     1      -2.936  -1.830   0.668  1.00  0.00     0.162 HD
BRANCH  11  13
HETATM   13  C6  UNL     1      -1.994  -0.157   0.196  1.00  0.00     0.149 C 
BRANCH  13  14
HETATM   14  N5  UNL     1      -2.104   1.206  -0.124  1.00  0.00    -0.290 N 
ATOM     15  H5  UNL     1      -2.028   1.483  -1.103  1.00  0.00     0.188 HD
BRANCH  14  16
HETATM   16  N6  UNL     1      -2.316   2.216   0.850  1.00  0.00    -0.344 N 
ATOM     17  H62 UNL     1      -2.390   1.921   1.824  1.00  0.00     0.176 HD
ATOM     18  H61 UNL     1      -2.396   3.206   0.618  1.00  0.00     0.176 HD
ENDBRANCH  14  16
ENDBRANCH  13  14
BRANCH  13  19
HETATM   19  C7  UNL     1      -0.699  -0.800   0.259  1.00  0.00     0.138 A 
HETATM   20  N7  UNL     1      -0.562  -2.114   0.573  1.00  0.00    -0.291 N 
HETATM   21  N8  UNL     1       0.614  -2.704   0.634  1.00  0.00    -0.273 N 
ATOM     22  H7  UNL     1      -1.399  -2.663   0.768  1.00  0.00     0.187 HD
HETATM   23  C8  UNL     1       1.768  -2.059   0.393  1.00  0.00     0.208 A 
ATOM     24  H8  UNL     1       0.650  -3.694   0.875  1.00  0.00     0.189 HD
HETATM   25  N9  UNL     1       3.033  -2.722   0.467  1.00  0.00    -0.062 NA
HETATM   26  N10 UNL     1       1.673  -0.757   0.079  1.00  0.00    -0.313 N 
HETATM   27  C9  UNL     1       0.490  -0.120   0.007  1.00  0.00     0.149 A 
ATOM     28  H10 UNL     1       2.527  -0.233  -0.112  1.00  0.00     0.170 HD
BRANCH  27  29
HETATM   29  N11 UNL     1       0.370   1.114  -0.291  1.00  0.00    -0.264 N 
ATOM     30  H11 UNL     1      -0.577   1.492  -0.317  1.00  0.00     0.180 HD
BRANCH  29  31
HETATM   31  S1  UNL     1       1.649   2.201  -0.652  1.00  0.00     0.264 S 
HETATM   32  O1  UNL     1       1.576   3.435   0.239  1.00  0.00    -0.200 OA
HETATM   33  O2  UNL     1       1.439   2.716  -2.053  1.00  0.00    -0.200 OA
BRANCH  31  34
HETATM   34  C10 UNL     1       3.231   1.488  -0.488  1.00  0.00     0.080 A 
HETATM   35  C11 UNL     1       3.849   1.521   0.740  1.00  0.00     0.027 A 
HETATM   36  C12 UNL     1       5.103   0.962   0.866  1.00  0.00     0.028 A 
HETATM   37  C13 UNL     1       5.765   0.371  -0.186  1.00  0.00     0.046 A 
HETATM   38  N12 UNL     1       7.060  -0.206  -0.051  1.00  0.00    -0.102 NA
HETATM   39  C14 UNL     1       5.139   0.343  -1.410  1.00  0.00     0.028 A 
HETATM   40  C15 UNL     1       3.869   0.904  -1.558  1.00  0.00     0.027 A 
ENDBRANCH  31  34
ENDBRANCH  29  31
ENDBRANCH  27  29
ENDBRANCH  13  19
ENDBRANCH  11  13
ENDBRANCH   8  11
ENDBRANCH   7   8
ENDBRANCH   3   7
TORSDOF 11
