REMARK  16 active torsions:
REMARK  status: ('A' for Active; 'I' for Inactive)
REMARK       I    between atoms: N1_2  and  C2_4 
REMARK    1  A    between atoms: C2_4  and  C3_6 
REMARK    2  A    between atoms: C3_6  and  N2_7 
REMARK    3  A    between atoms: N2_7  and  C4_9 
REMARK    4  A    between atoms: C7_14  and  C8_15 
REMARK    5  A    between atoms: C8_15  and  C9_16 
REMARK    6  A    between atoms: C9_16  and  C10_17 
REMARK    7  A    between atoms: C10_17  and  C11_18 
REMARK    8  A    between atoms: C11_18  and  N4_19 
REMARK    9  A    between atoms: N5_22  and  C14_23 
REMARK   10  A    between atoms: C14_23  and  C15_24 
REMARK   11  A    between atoms: C19_28  and  C20_29 
REMARK   12  A    between atoms: C24_34  and  N6_35 
REMARK   13  A    between atoms: N6_35  and  C25_37 
REMARK   14  A    between atoms: C25_37  and  C26_38 
REMARK   15  A    between atoms: C26_38  and  C27_39 
REMARK   16  A    between atoms: C27_39  and  O3_40 
ROOT
HETATM    1  C4  UNL     1      -5.796  -0.439  -0.722  1.00  0.00     0.680 A 
HETATM    2  N3  UNL     1      -4.941  -0.562  -1.729  1.00  0.00    -0.195 N 
ATOM      3  H3  UNL     1      -5.297  -0.669  -2.679  1.00  0.00     0.184 HD
HETATM    4  C5  UNL     1      -3.588  -0.548  -1.513  1.00  0.00     0.032 A 
HETATM    5  C6  UNL     1      -2.700  -0.693  -2.678  1.00  0.00     0.069 C 
HETATM    6  C7  UNL     1      -3.076  -0.406  -0.247  1.00  0.00     0.009 A 
HETATM    7  C24 UNL     1      -3.987  -0.280   0.780  1.00  0.00     0.125 A 
HETATM    8  N7  UNL     1      -5.323  -0.297   0.541  1.00  0.00    -0.176 N 
ATOM      9  H7  UNL     1      -5.977  -0.202   1.318  1.00  0.00     0.186 HD
ENDROOT
BRANCH   6  10
HETATM   10  C8  UNL     1      -1.631  -0.394  -0.011  1.00  0.00     0.044 C 
BRANCH  10  11
HETATM   11  C9  UNL     1      -0.954   0.885  -0.377  1.00  0.00     0.006 C 
BRANCH  11  12
HETATM   12  C10 UNL     1       0.534   0.869  -0.123  1.00  0.00     0.020 C 
BRANCH  12  13
HETATM   13  C11 UNL     1       1.252  -0.188  -0.885  1.00  0.00     0.126 C 
BRANCH  13  14
HETATM   14  N4  UNL     1       2.689  -0.185  -0.641  1.00  0.00    -0.349 N 
HETATM   15  C12 UNL     1       3.619   0.571  -1.437  1.00  0.00     0.156 C 
HETATM   16  C13 UNL     1       4.825   0.968  -0.638  1.00  0.00     0.293 C 
HETATM   17  N5  UNL     1       5.499  -0.019   0.101  1.00  0.00     0.104 N 
HETATM   18  C19 UNL     1       4.734  -1.175   0.495  1.00  0.00     0.318 C 
HETATM   19  C23 UNL     1       3.259  -0.960   0.416  1.00  0.00     0.254 C 
HETATM   20  O2  UNL     1       2.464  -1.443   1.266  1.00  0.00    -0.271 OA
BRANCH  17  21
HETATM   21  C14 UNL     1       6.157   0.568   1.236  1.00  0.00     0.278 C 
BRANCH  21  22
HETATM   22  C15 UNL     1       7.312   1.433   1.096  1.00  0.00     0.014 C 
HETATM   23  C16 UNL     1       8.552   0.900   0.426  1.00  0.00     0.006 C 
HETATM   24  C17 UNL     1       8.458   2.047  -0.584  1.00  0.00     0.001 C 
HETATM   25  C18 UNL     1       7.376   2.659   0.291  1.00  0.00     0.006 C 
ENDBRANCH  21  22
ENDBRANCH  17  21
BRANCH  18  26
HETATM   26  C20 UNL     1       5.180  -2.480  -0.100  1.00  0.00     0.028 A 
HETATM   27  C21 UNL     1       5.208  -2.751  -1.555  1.00  0.00     0.008 A 
HETATM   28  C22 UNL     1       6.483  -2.639  -0.803  1.00  0.00     0.008 A 
ENDBRANCH  18  26
ENDBRANCH  13  14
ENDBRANCH  12  13
ENDBRANCH  11  12
ENDBRANCH  10  11
ENDBRANCH   6  10
BRANCH   7  29
HETATM   29  N6  UNL     1      -3.557  -0.147   1.987  1.00  0.00    -0.375 N 
ATOM     30  H6  UNL     1      -2.549  -0.139   2.144  1.00  0.00     0.161 HD
BRANCH  29  31
HETATM   31  C25 UNL     1      -4.431  -0.009   3.131  1.00  0.00     0.123 C 
BRANCH  31  32
HETATM   32  C26 UNL     1      -4.905   1.419   3.317  1.00  0.00     0.046 C 
BRANCH  32  33
HETATM   33  C27 UNL     1      -3.707   2.329   3.527  1.00  0.00     0.168 C 
BRANCH  33  34
HETATM   34  O3  UNL     1      -4.145   3.638   3.697  1.00  0.00    -0.396 OA
HETATM   35  C28 UNL     1      -3.017   4.437   3.886  1.00  0.00     0.201 C 
ENDBRANCH  33  34
ENDBRANCH  32  33
ENDBRANCH  31  32
ENDBRANCH  29  31
ENDBRANCH   7  29
BRANCH   1  36
HETATM   36  N2  UNL     1      -7.073  -0.448  -0.899  1.00  0.00    -0.217 N 
ATOM     37  H2  UNL     1      -7.658  -0.348  -0.069  1.00  0.00     0.178 HD
BRANCH  36  38
HETATM   38  C3  UNL     1      -7.745  -0.586  -2.161  1.00  0.00     0.240 C 
BRANCH  38  39
HETATM   39  C2  UNL     1      -8.001  -2.014  -2.475  1.00  0.00     0.235 C 
HETATM   40  N1  UNL     1      -7.595  -3.022  -1.577  1.00  0.00    -0.364 N 
HETATM   41  C1  UNL     1      -7.818  -4.424  -1.835  1.00  0.00     0.149 C 
ATOM     42  H1  UNL     1      -7.126  -2.750  -0.713  1.00  0.00     0.161 HD
HETATM   43  O1  UNL     1      -8.592  -2.304  -3.570  1.00  0.00    -0.272 OA
ENDBRANCH  38  39
ENDBRANCH  36  38
ENDBRANCH   1  36
TORSDOF 16
