REMARK  3 active torsions:
REMARK  status: ('A' for Active; 'I' for Inactive)
REMARK    1  A    between atoms: C3_3  and  O1_4 
REMARK    2  A    between atoms: O1_4  and  C4_5 
REMARK    3  A    between atoms: N3_21  and  C14_23 
ROOT
HETATM    1  C1  UNL     1       0.177   1.172   1.659  1.00  0.00     0.056 C 
HETATM    2  C2  UNL     1       0.171   0.006   0.732  1.00  0.00     0.025 A 
HETATM    3  C3  UNL     1      -0.927  -0.748   0.582  1.00  0.00     0.200 A 
HETATM    4  O2  UNL     1      -0.802  -1.790  -0.244  1.00  0.00    -0.271 OA
HETATM    5  C10 UNL     1       0.277  -2.111  -0.889  1.00  0.00     0.182 A 
HETATM    6  N1  UNL     1       0.300  -3.268  -1.761  1.00  0.00    -0.073 NA
HETATM    7  C11 UNL     1       1.414  -1.359  -0.757  1.00  0.00     0.119 A 
HETATM    8  C12 UNL     1       2.575  -1.768  -1.500  1.00  0.00     0.106 C 
HETATM    9  N2  UNL     1       3.495  -2.116  -2.105  1.00  0.00    -0.191 NA
HETATM   10  C13 UNL     1       1.410  -0.262   0.064  1.00  0.00     0.064 A 
HETATM   11  N3  UNL     1       2.358   0.481   0.261  1.00  0.00    -0.384 N 
ATOM     12  H3  UNL     1       2.046   1.199   0.915  1.00  0.00     0.160 HD
ENDROOT
BRANCH  11  13
HETATM   13  C14 UNL     1       3.676   0.750  -0.036  1.00  0.00     0.073 C 
HETATM   14  C15 UNL     1       4.097   2.190   0.296  1.00  0.00     0.031 C 
HETATM   15  C16 UNL     1       4.568  -0.109   0.880  1.00  0.00     0.031 C 
ENDBRANCH  11  13
BRANCH   3  16
HETATM   16  O1  UNL     1      -2.133  -0.589   1.147  1.00  0.00    -0.282 OA
BRANCH  16  17
HETATM   17  C4  UNL     1      -3.312  -0.068   0.769  1.00  0.00     0.138 A 
HETATM   18  C5  UNL     1      -3.751   1.179   1.082  1.00  0.00     0.154 A 
HETATM   19  F1  UNL     1      -3.092   2.086   1.854  1.00  0.00    -0.203 F 
HETATM   20  C6  UNL     1      -5.005   1.660   0.644  1.00  0.00     0.087 A 
HETATM   21  C7  UNL     1      -5.822   0.886  -0.112  1.00  0.00     0.121 A 
HETATM   22  F2  UNL     1      -7.033   1.366  -0.529  1.00  0.00    -0.206 F 
HETATM   23  C8  UNL     1      -5.418  -0.366  -0.443  1.00  0.00     0.069 A 
HETATM   24  C9  UNL     1      -4.198  -0.833  -0.016  1.00  0.00     0.074 A 
HETATM   25 CL1  UNL     1      -3.769  -2.449  -0.471  1.00  0.00    -0.081 Cl
ENDBRANCH  16  17
ENDBRANCH   3  16
TORSDOF 3
