REMARK  6 active torsions:
REMARK  status: ('A' for Active; 'I' for Inactive)
REMARK    1  A    between atoms: C4_4  and  C5_5 
REMARK    2  A    between atoms: C6_6  and  C7_7 
REMARK    3  A    between atoms: C9_9  and  C10_10 
REMARK    4  A    between atoms: C10_10  and  C12_12 
REMARK    5  A    between atoms: C19_19  and  O1_20 
REMARK    6  A    between atoms: C20_22  and  O2_23 
ROOT
HETATM    1  C12 UNL     1      -1.438  -1.766   0.130  1.00  0.00    -0.007 C 
HETATM    2  C13 UNL     1      -2.082  -1.443  -1.202  1.00  0.00     0.006 C 
HETATM    3  C14 UNL     1      -3.471  -0.920  -1.017  1.00  0.00     0.012 C 
HETATM    4  C15 UNL     1      -3.444   0.244  -0.103  1.00  0.00    -0.012 C 
HETATM    5  C16 UNL     1      -2.622   1.398  -0.602  1.00  0.00     0.018 C 
HETATM    6  C17 UNL     1      -2.941  -0.251   1.261  1.00  0.00    -0.001 C 
HETATM    7  C18 UNL     1      -3.217   0.928   2.125  1.00  0.00     0.039 C 
HETATM    8  C19 UNL     1      -4.397   1.662   1.476  1.00  0.00     0.148 C 
HETATM    9  C20 UNL     1      -4.801   0.766   0.297  1.00  0.00     0.155 C 
HETATM   10  C21 UNL     1      -1.504  -0.600   1.094  1.00  0.00     0.011 C 
ENDROOT
BRANCH   1  11
HETATM   11  C10 UNL     1      -0.047  -2.301  -0.063  1.00  0.00     0.008 C 
HETATM   12  C11 UNL     1      -0.147  -3.635  -0.771  1.00  0.00     0.014 C 
BRANCH  11  13
HETATM   13  C9  UNL     1       0.861  -1.373  -0.745  1.00  0.00    -0.015 C 
HETATM   14  C7  UNL     1       1.986  -0.913  -0.206  1.00  0.00    -0.065 C 
HETATM   15  C8  UNL     1       2.302  -1.387   1.146  1.00  0.00     0.048 C 
BRANCH  14  16
HETATM   16  C6  UNL     1       2.827  -0.007  -0.932  1.00  0.00     0.006 C 
HETATM   17  C5  UNL     1       3.948   0.493  -0.477  1.00  0.00     0.001 C 
BRANCH  17  18
HETATM   18  C4  UNL     1       4.764   1.424  -1.285  1.00  0.00     0.002 C 
HETATM   19  C2  UNL     1       5.889   1.925  -0.828  1.00  0.00    -0.088 C 
HETATM   20  C1  UNL     1       6.660   2.857  -1.695  1.00  0.00     0.043 C 
HETATM   21  C3  UNL     1       6.392   1.573   0.530  1.00  0.00     0.043 C 
ENDBRANCH  17  18
ENDBRANCH  14  16
ENDBRANCH  11  13
ENDBRANCH   1  11
BRANCH   9  22
HETATM   22  O2  UNL     1      -5.558  -0.273   0.827  1.00  0.00    -0.392 OA
ATOM     23  H2  UNL     1      -6.413   0.056   1.079  1.00  0.00     0.210 HD
ENDBRANCH   9  22
BRANCH   8  24
HETATM   24  O1  UNL     1      -5.434   1.857   2.353  1.00  0.00    -0.393 OA
ATOM     25  H1  UNL     1      -6.165   2.312   1.951  1.00  0.00     0.210 HD
ENDBRANCH   8  24
TORSDOF 6
