REMARK  6 active torsions:
REMARK  status: ('A' for Active; 'I' for Inactive)
REMARK    1  A    between atoms: C1_2  and  C2_3 
REMARK       I    between atoms: C1_2  and  N6_18 
REMARK    2  A    between atoms: C2_3  and  N1_4 
REMARK    3  A    between atoms: C3_11  and  N5_12 
REMARK    4  A    between atoms: N6_18  and  C9_20 
REMARK    5  A    between atoms: C14_25  and  N7_26 
REMARK       I    between atoms: N7_26  and  C15_28 
REMARK    6  A    between atoms: C15_28  and  C16_30 
ROOT
HETATM    1  O1  UNL     1      -1.382  -2.402   1.132  1.00  0.00    -0.271 OA
HETATM    2  C1  UNL     1      -0.702  -1.384   1.088  1.00  0.00     0.242 C 
HETATM    3  N6  UNL     1       0.456  -1.099   0.338  1.00  0.00    -0.324 N 
ATOM      4  H6  UNL     1       0.881  -0.178   0.449  1.00  0.00     0.169 HD
ENDROOT
BRANCH   3   5
HETATM    5  C9  UNL     1       1.060  -1.993  -0.546  1.00  0.00     0.061 A 
HETATM    6  C10 UNL     1       0.445  -3.183  -0.933  1.00  0.00     0.032 A 
HETATM    7  C11 UNL     1       0.996  -4.059  -1.848  1.00  0.00     0.002 A 
HETATM    8  C12 UNL     1       2.205  -3.726  -2.390  1.00  0.00     0.002 A 
HETATM    9  C13 UNL     1       2.842  -2.536  -2.018  1.00  0.00     0.032 A 
HETATM   10  C14 UNL     1       2.313  -1.655  -1.112  1.00  0.00     0.062 A 
BRANCH  10  11
HETATM   11  N7  UNL     1       3.010  -0.489  -0.694  1.00  0.00    -0.321 N 
HETATM   12  C15 UNL     1       4.107   0.119  -1.287  1.00  0.00     0.252 C 
HETATM   13  O2  UNL     1       4.651  -0.274  -2.317  1.00  0.00    -0.268 OA
ATOM     14  H7  UNL     1       2.658  -0.041   0.152  1.00  0.00     0.169 HD
BRANCH  12  15
HETATM   15  C16 UNL     1       4.688   1.341  -0.640  1.00  0.00     0.010 C 
HETATM   16  C17 UNL     1       5.711   1.942  -1.197  1.00  0.00     0.012 C 
HETATM   17  C18 UNL     1       6.297   3.144  -0.576  1.00  0.00     0.195 C 
HETATM   18  O3  UNL     1       5.415   3.829   0.220  1.00  0.00    -0.387 OA
HETATM   19  C19 UNL     1       4.776   3.044   1.138  1.00  0.00     0.172 C 
HETATM   20  C20 UNL     1       4.115   1.830   0.625  1.00  0.00     0.070 C 
ENDBRANCH  12  15
ENDBRANCH  10  11
ENDBRANCH   3   5
BRANCH   2  21
HETATM   21  C2  UNL     1      -1.182  -0.252   1.981  1.00  0.00     0.272 C 
BRANCH  21  22
HETATM   22  N1  UNL     1      -2.383  -0.665   2.635  1.00  0.00    -0.098 N 
HETATM   23  N2  UNL     1      -2.560  -1.220   3.826  1.00  0.00    -0.211 N 
HETATM   24  N3  UNL     1      -3.838  -1.406   4.053  1.00  0.00    -0.213 N 
ATOM     25  H2  UNL     1      -1.810  -1.467   4.472  1.00  0.00     0.210 HD
HETATM   26  N4  UNL     1      -4.521  -0.974   3.011  1.00  0.00    -0.115 N 
ATOM     27  H3  UNL     1      -4.238  -1.817   4.897  1.00  0.00     0.210 HD
HETATM   28  C3  UNL     1      -3.628  -0.507   2.113  1.00  0.00     0.714 A 
ATOM     29  H4  UNL     1      -5.535  -0.990   2.904  1.00  0.00     0.207 HD
BRANCH  28  30
HETATM   30  N5  UNL     1      -3.871   0.026   0.826  1.00  0.00    -0.215 N 
HETATM   31  C4  UNL     1      -4.395  -0.846  -0.245  1.00  0.00     0.141 C 
HETATM   32  C5  UNL     1      -5.794  -0.384  -0.535  1.00  0.00     0.020 C 
HETATM   33  C6  UNL     1      -6.037   1.045  -0.166  1.00  0.00     0.003 C 
HETATM   34  C7  UNL     1      -4.810   1.913  -0.322  1.00  0.00     0.020 C 
HETATM   35  C8  UNL     1      -3.619   1.400   0.440  1.00  0.00     0.141 C 
ENDBRANCH  28  30
ENDBRANCH  21  22
ENDBRANCH   2  21
TORSDOF 6
