REMARK  15 active torsions:
REMARK  status: ('A' for Active; 'I' for Inactive)
REMARK    1  A    between atoms: C2_2  and  C3_3 
REMARK    2  A    between atoms: C2_2  and  C10_10 
REMARK    3  A    between atoms: C3_3  and  C4_4 
REMARK    4  A    between atoms: C12_15  and  C13_16 
REMARK    5  A    between atoms: C13_16  and  C14_17 
REMARK    6  A    between atoms: C14_17  and  C15_18 
REMARK    7  A    between atoms: C15_18  and  C16_19 
REMARK    8  A    between atoms: C16_19  and  C17_20 
REMARK    9  A    between atoms: C17_20  and  C18_21 
REMARK   10  A    between atoms: C18_21  and  O2_22 
REMARK   11  A    between atoms: N2_24  and  O3_26 
REMARK   12  A    between atoms: C20_32  and  C21_33 
REMARK   13  A    between atoms: C21_33  and  C22_34 
REMARK   14  A    between atoms: C22_34  and  C23_35 
REMARK   15  A    between atoms: C23_35  and  N4_36 
ROOT
HETATM    1  C10 UNL     1       1.440   0.591  -0.540  1.00  0.00     0.158 C 
HETATM    2  N1  UNL     1       0.517   0.957  -1.577  1.00  0.00    -0.348 N 
ATOM      3  H1  UNL     1       0.877   1.358  -2.443  1.00  0.00     0.163 HD
HETATM    4  C11 UNL     1      -0.909   0.772  -1.427  1.00  0.00     0.241 C 
HETATM    5  O1  UNL     1      -1.576   0.414  -2.427  1.00  0.00    -0.271 OA
HETATM    6  C12 UNL     1      -1.592   0.986  -0.144  1.00  0.00     0.176 C 
HETATM    7  N3  UNL     1      -2.520  -0.066   0.217  1.00  0.00    -0.347 N 
ATOM      8  H3  UNL     1      -3.514   0.111   0.071  1.00  0.00     0.163 HD
HETATM    9  C19 UNL     1      -2.149  -1.323   0.758  1.00  0.00     0.222 C 
HETATM   10  O4  UNL     1      -2.798  -1.705   1.796  1.00  0.00    -0.273 OA
HETATM   11  C20 UNL     1      -1.096  -2.214   0.235  1.00  0.00     0.078 C 
HETATM   12  C25 UNL     1       0.033  -2.380   1.229  1.00  0.00     0.021 C 
HETATM   13  C26 UNL     1       1.087  -1.338   1.151  1.00  0.00     0.081 C 
HETATM   14  C27 UNL     1       1.432  -0.846  -0.185  1.00  0.00     0.149 C 
HETATM   15  O5  UNL     1       1.727  -1.651  -1.052  1.00  0.00    -0.296 OA
ENDROOT
BRANCH   6  16
HETATM   16  C13 UNL     1      -2.273   2.344  -0.171  1.00  0.00     0.035 C 
BRANCH  16  17
HETATM   17  C14 UNL     1      -3.295   2.507  -1.237  1.00  0.00     0.002 C 
BRANCH  17  18
HETATM   18  C15 UNL     1      -3.937   3.875  -1.223  1.00  0.00     0.001 C 
BRANCH  18  19
HETATM   19  C16 UNL     1      -4.616   4.105   0.078  1.00  0.00     0.008 C 
BRANCH  19  20
HETATM   20  C17 UNL     1      -5.338   5.443   0.179  1.00  0.00     0.086 C 
BRANCH  20  21
HETATM   21  C18 UNL     1      -4.453   6.596   0.018  1.00  0.00     0.135 C 
HETATM   22  N2  UNL     1      -4.291   7.396   1.039  1.00  0.00    -0.251 N 
ATOM     23  H2  UNL     1      -3.676   8.204   0.942  1.00  0.00     0.196 HD
BRANCH  21  24
HETATM   24  O2  UNL     1      -3.765   6.897  -1.167  1.00  0.00    -0.348 OA
ATOM     25  H2  UNL     1      -3.190   7.646  -1.272  1.00  0.00     0.219 HD
ENDBRANCH  21  24
BRANCH  22  26
HETATM   26  O3  UNL     1      -4.915   7.184   2.223  1.00  0.00    -0.288 OA
ATOM     27  H3  UNL     1      -4.797   7.765   2.965  1.00  0.00     0.244 HD
ENDBRANCH  22  26
ENDBRANCH  20  21
ENDBRANCH  19  20
ENDBRANCH  18  19
ENDBRANCH  17  18
ENDBRANCH  16  17
ENDBRANCH   6  16
BRANCH   1  28
HETATM   28  C2  UNL     1       2.830   1.069  -0.977  1.00  0.00     0.012 C 
HETATM   29  C1  UNL     1       3.253   0.451  -2.251  1.00  0.00     0.012 C 
BRANCH  28  30
HETATM   30  C3  UNL     1       3.802   1.032   0.124  1.00  0.00     0.011 C 
BRANCH  30  31
HETATM   31  C4  UNL     1       5.111   1.707  -0.010  1.00  0.00    -0.014 C 
HETATM   32  C5  UNL     1       6.058   1.291  -1.058  1.00  0.00     0.005 C 
HETATM   33  C6  UNL     1       6.762  -0.021  -0.741  1.00  0.00     0.000 C 
HETATM   34  C7  UNL     1       7.603   0.293   0.505  1.00  0.00     0.000 C 
HETATM   35  C8  UNL     1       6.612   0.542   1.621  1.00  0.00     0.000 C 
HETATM   36  C9  UNL     1       5.831   1.799   1.341  1.00  0.00     0.005 C 
ENDBRANCH  30  31
ENDBRANCH  28  30
ENDBRANCH   1  28
BRANCH  11  37
HETATM   37  C21 UNL     1      -1.676  -3.503  -0.215  1.00  0.00     0.015 C 
BRANCH  37  38
HETATM   38  C22 UNL     1      -2.387  -4.341   0.771  1.00  0.00     0.020 C 
BRANCH  38  39
HETATM   39  C23 UNL     1      -2.840  -5.603   0.001  1.00  0.00     0.122 C 
BRANCH  39  40
HETATM   40  N4  UNL     1      -3.552  -6.495   0.887  1.00  0.00    -0.367 N 
HETATM   41  C24 UNL     1      -3.389  -7.769   0.837  1.00  0.00     0.196 C 
HETATM   42  N5  UNL     1      -2.503  -8.364  -0.090  1.00  0.00    -0.067 NA
HETATM   43  N6  UNL     1      -4.112  -8.589   1.728  1.00  0.00    -0.067 NA
ATOM     44  H4  UNL     1      -4.201  -6.104   1.570  1.00  0.00     0.161 HD
ENDBRANCH  39  40
ENDBRANCH  38  39
ENDBRANCH  37  38
ENDBRANCH  11  37
TORSDOF 15
