REMARK  4 active torsions:
REMARK  status: ('A' for Active; 'I' for Inactive)
REMARK    1  A    between atoms: C2_2  and  C4_4 
REMARK    2  A    between atoms: C5_5  and  O1_6 
REMARK       I    between atoms: N1_13  and  C10_14 
REMARK    3  A    between atoms: C10_14  and  C11_16 
REMARK    4  A    between atoms: C11_16  and  C12_17 
ROOT
HETATM    1  C4  UNL     1      -2.136  -1.070  -1.130  1.00  0.00     0.052 C 
HETATM    2  C5  UNL     1      -1.642  -2.455  -0.838  1.00  0.00     0.146 C 
HETATM    3  C6  UNL     1      -0.124  -2.252  -1.012  1.00  0.00     0.118 C 
HETATM    4 CL1  UNL     1       0.712  -3.218   0.247  1.00  0.00    -0.122 Cl
HETATM    5  C7  UNL     1       0.134  -0.806  -0.794  1.00  0.00     0.041 C 
HETATM    6  C8  UNL     1       1.374  -0.523  -0.015  1.00  0.00     0.120 C 
HETATM    7  C9  UNL     1       2.509  -1.233  -0.770  1.00  0.00     0.035 C 
HETATM    8  N1  UNL     1       1.675   0.888  -0.077  1.00  0.00    -0.221 N 
HETATM    9  C10 UNL     1       2.800   1.408   0.636  1.00  0.00     0.252 C 
HETATM   10  O2  UNL     1       2.999   2.655   0.550  1.00  0.00    -0.271 OA
HETATM   11  O4  UNL     1       0.985   1.863  -0.763  1.00  0.00    -0.270 OA
HETATM   12  C13 UNL     1      -0.191   2.028  -0.033  1.00  0.00     0.149 C 
HETATM   13  C14 UNL     1      -0.633   3.482  -0.048  1.00  0.00     0.042 C 
HETATM   14  C15 UNL     1      -1.285   1.244  -0.707  1.00  0.00     0.044 C 
HETATM   15  C16 UNL     1      -1.148  -0.217  -0.336  1.00  0.00    -0.025 C 
HETATM   16  C17 UNL     1      -1.422  -0.319   1.142  1.00  0.00     0.016 C 
ENDROOT
BRANCH   9  17
HETATM   17  C11 UNL     1       3.698   0.576   1.437  1.00  0.00     0.204 C 
BRANCH  17  18
HETATM   18  C12 UNL     1       4.695   1.399   2.147  1.00  0.00     0.239 C 
HETATM   19  N2  UNL     1       5.705   0.726   2.946  1.00  0.00    -0.062 NA
HETATM   20  O3  UNL     1       4.682   2.634   2.072  1.00  0.00    -0.276 OA
ENDBRANCH  17  18
ENDBRANCH   9  17
BRANCH   2  21
HETATM   21  O1  UNL     1      -1.849  -2.947   0.413  1.00  0.00    -0.393 OA
ATOM     22  H1  UNL     1      -1.536  -3.825   0.598  1.00  0.00     0.210 HD
ENDBRANCH   2  21
BRANCH   1  23
HETATM   23  C2  UNL     1      -3.533  -0.817  -1.037  1.00  0.00    -0.086 C 
HETATM   24  C1  UNL     1      -4.414  -1.686  -0.577  1.00  0.00     0.014 C 
HETATM   25  C3  UNL     1      -4.160   0.464  -1.521  1.00  0.00     0.043 C 
ENDBRANCH   1  23
TORSDOF 4
