REMARK  1 active torsions:
REMARK  status: ('A' for Active; 'I' for Inactive)
REMARK       I    between atoms: C1_2  and  N2_4 
REMARK    1  A    between atoms: N2_4  and  C2_6 
ROOT
HETATM    1  C2  UNL     1       0.461  -0.327   0.422  1.00  0.00     0.090 C 
HETATM    2  C3  UNL     1      -0.473   0.698   1.065  1.00  0.00     0.030 C 
HETATM    3  C4  UNL     1      -1.849   0.152   0.876  1.00  0.00    -0.012 C 
HETATM    4  C5  UNL     1      -2.301   0.544  -0.529  1.00  0.00     0.005 C 
HETATM    5  C6  UNL     1      -1.231  -0.135  -1.368  1.00  0.00     0.007 C 
HETATM    6  C7  UNL     1      -0.494  -1.079  -0.444  1.00  0.00     0.009 C 
HETATM    7  C8  UNL     1      -1.601  -1.341   0.600  1.00  0.00     0.011 C 
ENDROOT
BRANCH   1   8
HETATM    8  N2  UNL     1       1.532   0.312  -0.261  1.00  0.00    -0.340 N 
HETATM    9  C1  UNL     1       2.882   0.128   0.085  1.00  0.00     0.329 C 
HETATM   10  N1  UNL     1       3.942   0.774  -0.608  1.00  0.00    -0.040 NA
HETATM   11  O1  UNL     1       3.195  -0.634   1.043  1.00  0.00    -0.251 OA
ATOM     12  H2  UNL     1       1.310   0.933  -1.039  1.00  0.00     0.164 HD
ENDBRANCH   1   8
TORSDOF 1
