REMARK  1 active torsions:
REMARK  status: ('A' for Active; 'I' for Inactive)
REMARK    1  A    between atoms: C1_2  and  C2_4 
ROOT
HETATM    1  C2  UNL     1       0.967  -0.451  -0.793  1.00  0.00     0.110 C 
HETATM    2  C3  UNL     1       0.249   0.823  -1.161  1.00  0.00     0.051 C 
HETATM    3  C4  UNL     1      -1.190   0.368  -1.175  1.00  0.00     0.227 C 
HETATM    4  C5  UNL     1      -1.967   0.906  -0.013  1.00  0.00     0.071 C 
HETATM    5  C6  UNL     1      -1.811  -0.485   0.538  1.00  0.00     0.228 A 
HETATM    6  C7  UNL     1      -0.512  -0.652   1.290  1.00  0.00     0.072 A 
HETATM    7  C8  UNL     1      -0.020  -1.256   0.022  1.00  0.00     0.238 A 
HETATM    8  N2  UNL     1      -1.255  -0.972  -0.680  1.00  0.00     0.103 N 
ENDROOT
BRANCH   1   9
HETATM    9  C1  UNL     1       2.258  -0.253  -0.141  1.00  0.00     0.237 C 
HETATM   10  N1  UNL     1       2.401   0.456   1.086  1.00  0.00    -0.062 NA
HETATM   11  O1  UNL     1       3.291  -0.745  -0.715  1.00  0.00    -0.276 OA
ENDBRANCH   1   9
TORSDOF 1
