REMARK  0 active torsions:
REMARK  status: ('A' for Active; 'I' for Inactive)
ROOT
HETATM    1  N1  UNL     1       3.479  -0.891  -0.010  1.00  0.00    -0.232 N 
ATOM      2  H11 UNL     1       3.609  -1.899  -0.097  1.00  0.00     0.174 HD
ATOM      3  H12 UNL     1       4.309  -0.303   0.060  1.00  0.00     0.174 HD
HETATM    4  C1  UNL     1       2.284  -0.391   0.011  1.00  0.00     0.706 A 
HETATM    5  N2  UNL     1       2.103   1.015   0.133  1.00  0.00    -0.129 N 
ATOM      6  H2  UNL     1       2.929   1.609   0.202  1.00  0.00     0.205 HD
HETATM    7  N3  UNL     1       0.843   1.617   0.162  1.00  0.00    -0.264 N 
ATOM      8  H3  UNL     1       0.750   2.629   0.251  1.00  0.00     0.189 HD
HETATM    9  C2  UNL     1      -0.216   0.852   0.072  1.00  0.00     0.229 A 
HETATM   10  C3  UNL     1      -1.511   1.548   0.109  1.00  0.00     0.298 A 
HETATM   11  O1  UNL     1      -1.586   2.797   0.219  1.00  0.00    -0.264 OA
HETATM   12  N4  UNL     1      -2.666   0.728   0.012  1.00  0.00    -0.271 N 
ATOM     13  H4  UNL     1      -3.591   1.158   0.032  1.00  0.00     0.174 HD
HETATM   14  C4  UNL     1      -2.552  -0.684  -0.112  1.00  0.00     0.343 A 
HETATM   15  O2  UNL     1      -3.563  -1.432  -0.199  1.00  0.00    -0.245 OA
HETATM   16  N5  UNL     1      -1.284  -1.322  -0.144  1.00  0.00    -0.228 N 
ATOM     17  H5  UNL     1      -1.227  -2.336  -0.234  1.00  0.00     0.194 HD
HETATM   18  N6  UNL     1      -0.111  -0.563  -0.053  1.00  0.00    -0.154 N 
HETATM   19  N7  UNL     1       1.128  -1.210  -0.086  1.00  0.00    -0.108 N 
ATOM     20  H7  UNL     1       1.198  -2.224  -0.176  1.00  0.00     0.208 HD
ENDROOT
TORSDOF 0
