REMARK  6 active torsions:
REMARK  status: ('A' for Active; 'I' for Inactive)
REMARK    1  A    between atoms: C1_2  and  C2_4 
REMARK    2  A    between atoms: C3_7  and  N3_8 
REMARK    3  A    between atoms: C4_11  and  N4_12 
REMARK       I    between atoms: N4_12  and  C5_14 
REMARK       I    between atoms: C5_14  and  N5_15 
REMARK       I    between atoms: C5_14  and  N6_19 
REMARK    4  A    between atoms: C6_25  and  C7_26 
REMARK    5  A    between atoms: C7_26  and  O4_27 
REMARK    6  A    between atoms: C7_26  and  O5_29 
ROOT
HETATM    1  C2  UNL     1       1.916  -0.018   0.432  1.00  0.00     0.127 A 
HETATM    2  N2  UNL     1       1.344   0.667   1.482  1.00  0.00    -0.329 N 
ATOM      3  H2  UNL     1       1.942   1.078   2.199  1.00  0.00     0.168 HD
HETATM    4  C3  UNL     1       0.017   0.801   1.575  1.00  0.00     0.218 A 
HETATM    5  C4  UNL     1      -0.849   0.272   0.643  1.00  0.00     0.155 A 
HETATM    6  N7  UNL     1      -0.296  -0.389  -0.372  1.00  0.00    -0.337 N 
ATOM      7  H7  UNL     1      -0.906  -0.795  -1.082  1.00  0.00     0.167 HD
HETATM    8  C6  UNL     1       1.072  -0.547  -0.503  1.00  0.00     0.098 A 
ENDROOT
BRANCH   5   9
HETATM    9  N4  UNL     1      -2.120   0.403   0.741  1.00  0.00    -0.324 N 
HETATM   10  C5  UNL     1      -3.084  -0.109  -0.172  1.00  0.00     0.481 C 
HETATM   11  N5  UNL     1      -4.406   0.105   0.419  1.00  0.00    -0.033 N 
HETATM   12  N6  UNL     1      -3.097   0.583  -1.447  1.00  0.00    -0.033 N 
ATOM     13  H53 UNL     1      -4.493  -0.293   1.354  1.00  0.00     0.278 HD
ATOM     14  H52 UNL     1      -4.576   1.078   0.672  1.00  0.00     0.278 HD
ATOM     15  H51 UNL     1      -5.097  -0.262  -0.235  1.00  0.00     0.278 HD
ATOM     16  H63 UNL     1      -3.224   1.586  -1.312  1.00  0.00     0.278 HD
ATOM     17  H62 UNL     1      -2.167   0.585  -1.867  1.00  0.00     0.278 HD
ATOM     18  H61 UNL     1      -3.788   0.216  -2.101  1.00  0.00     0.278 HD
ATOM     19  H4  UNL     1      -2.472   0.921   1.546  1.00  0.00     0.165 HD
ENDBRANCH   5   9
BRANCH   4  20
HETATM   20  N3  UNL     1      -0.530   1.515   2.672  1.00  0.00    -0.094 N 
HETATM   21  O2  UNL     1      -1.643   1.166   3.099  1.00  0.00    -0.530 OA
HETATM   22  O3  UNL     1       0.100   2.566   3.285  1.00  0.00    -0.530 OA
ENDBRANCH   4  20
BRANCH   8  23
HETATM   23  C7  UNL     1       1.596  -1.222  -1.707  1.00  0.00     0.307 C 
BRANCH  23  24
HETATM   24  O4  UNL     1       2.541  -0.545  -2.423  1.00  0.00    -0.366 OA
ATOM     25  H4  UNL     1       2.878  -0.979  -3.198  1.00  0.00     0.213 HD
ENDBRANCH  23  24
BRANCH  23  26
HETATM   26  O5  UNL     1       1.996  -2.544  -1.413  1.00  0.00    -0.366 OA
ATOM     27  H5  UNL     1       2.333  -2.978  -2.188  1.00  0.00     0.213 HD
ENDBRANCH  23  26
ENDBRANCH   8  23
BRANCH   1  28
HETATM   28  C1  UNL     1       3.363  -0.166   0.409  1.00  0.00     0.283 C 
HETATM   29  N1  UNL     1       4.101   0.617   1.380  1.00  0.00    -0.056 NA
HETATM   30  O1  UNL     1       4.063  -0.862  -0.318  1.00  0.00    -0.269 OA
ENDBRANCH   1  28
TORSDOF 6
