REMARK  7 active torsions:
REMARK  status: ('A' for Active; 'I' for Inactive)
REMARK    1  A    between atoms: C1_4  and  C2_6 
REMARK    2  A    between atoms: N5_11  and  C3_12 
REMARK    3  A    between atoms: C3_12  and  C4_13 
REMARK    4  A    between atoms: C4_13  and  N6_14 
REMARK    5  A    between atoms: C4_13  and  C5_18 
REMARK    6  A    between atoms: C6_21  and  N8_22 
REMARK    7  A    between atoms: C7_27  and  N10_28 
ROOT
HETATM    1  C4  UNL     1      -0.437  -0.367  -0.158  1.00  0.00     0.273 C 
ENDROOT
BRANCH   1   2
HETATM    2  C3  UNL     1       0.181   1.015   0.015  1.00  0.00     0.211 C 
BRANCH   2   3
HETATM    3  N5  UNL     1       1.584   0.886  -0.386  1.00  0.00    -0.216 N 
HETATM    4  N4  UNL     1       2.096   1.055  -1.594  1.00  0.00    -0.224 N 
HETATM    5  N3  UNL     1       3.393   0.843  -1.506  1.00  0.00    -0.266 N 
ATOM      6  H4  UNL     1       1.581   1.304  -2.439  1.00  0.00     0.210 HD
HETATM    7  C2  UNL     1       3.710   0.532  -0.216  1.00  0.00     0.178 A 
ATOM      8  H3  UNL     1       4.055   0.902  -2.280  1.00  0.00     0.190 HD
HETATM    9  N12 UNL     1       2.553   0.568   0.459  1.00  0.00    -0.264 N 
ATOM     10  H12 UNL     1       2.438   0.382   1.455  1.00  0.00     0.190 HD
BRANCH   7  11
HETATM   11  C1  UNL     1       5.011   0.226   0.324  1.00  0.00     0.157 C 
HETATM   12  N1  UNL     1       6.041   0.226  -0.434  1.00  0.00    -0.385 N 
ATOM     13  H12 UNL     1       6.962   0.009  -0.052  1.00  0.00     0.157 HD
ATOM     14  H11 UNL     1       5.934   0.444  -1.425  1.00  0.00     0.157 HD
HETATM   15  N2  UNL     1       5.160  -0.076   1.699  1.00  0.00    -0.079 NA
ENDBRANCH   7  11
ENDBRANCH   2   3
ENDBRANCH   1   2
BRANCH   1  16
HETATM   16  N6  UNL     1      -0.290  -0.707  -1.562  1.00  0.00    -0.067 N 
ATOM     17  H63 UNL     1      -0.682  -0.007  -2.191  1.00  0.00     0.275 HD
ATOM     18  H62 UNL     1       0.673  -0.650  -1.894  1.00  0.00     0.275 HD
ATOM     19  H61 UNL     1      -0.704  -1.632  -1.678  1.00  0.00     0.275 HD
ENDBRANCH   1  16
BRANCH   1  20
HETATM   20  C5  UNL     1      -1.892  -0.273   0.140  1.00  0.00     0.145 A 
HETATM   21  N7  UNL     1      -2.405   0.748   0.868  1.00  0.00    -0.178 N 
HETATM   22  C6  UNL     1      -3.726   0.807   1.123  1.00  0.00     0.691 A 
ATOM     23  H7  UNL     1      -1.787   1.476   1.225  1.00  0.00     0.185 HD
HETATM   24  N9  UNL     1      -4.586  -0.126   0.677  1.00  0.00    -0.023 N 
HETATM   25  C7  UNL     1      -4.079  -1.141  -0.046  1.00  0.00     0.691 A 
ATOM     26  H9  UNL     1      -5.584  -0.066   0.879  1.00  0.00     0.203 HD
HETATM   27  N11 UNL     1      -2.759  -1.203  -0.303  1.00  0.00    -0.178 N 
ATOM     28  H11 UNL     1      -2.402  -1.984  -0.854  1.00  0.00     0.185 HD
BRANCH  22  29
HETATM   29  N8  UNL     1      -4.246   1.781   1.821  1.00  0.00    -0.234 N 
ATOM     30  H82 UNL     1      -3.594   2.489   2.159  1.00  0.00     0.174 HD
ATOM     31  H81 UNL     1      -5.247   1.826   2.014  1.00  0.00     0.174 HD
ENDBRANCH  22  29
BRANCH  25  32
HETATM   32  N10 UNL     1      -4.896  -2.041  -0.478  1.00  0.00    -0.234 N 
ATOM     33 2H10 UNL     1      -5.896  -1.994  -0.283  1.00  0.00     0.174 HD
ATOM     34 1H10 UNL     1      -4.512  -2.811  -1.026  1.00  0.00     0.174 HD
ENDBRANCH  25  32
ENDBRANCH   1  20
TORSDOF 7
