REMARK  9 active torsions:
REMARK  status: ('A' for Active; 'I' for Inactive)
REMARK    1  A    between atoms: N1_1  and  C1_5 
REMARK    2  A    between atoms: C1_5  and  C2_6 
REMARK    3  A    between atoms: N2_8  and  C4_9 
REMARK    4  A    between atoms: C4_9  and  C5_10 
REMARK    5  A    between atoms: C5_10  and  N3_11 
REMARK    6  A    between atoms: C5_10  and  C6_15 
REMARK    7  A    between atoms: C6_15  and  N4_16 
REMARK    8  A    between atoms: N4_16  and  N5_18 
REMARK    9  A    between atoms: N6_20  and  C7_22 
ROOT
HETATM    1  C5  UNL     1       0.878   0.776  -0.684  1.00  0.00     0.222 C 
ENDROOT
BRANCH   1   2
HETATM    2  C4  UNL     1       1.659   0.807   0.612  1.00  0.00     0.184 C 
BRANCH   2   3
HETATM    3  N2  UNL     1       2.856   0.005   0.533  1.00  0.00    -0.285 N 
HETATM    4  C3  UNL     1       4.070   0.382   0.146  1.00  0.00     0.140 A 
HETATM    5  C2  UNL     1       4.929  -0.693   0.218  1.00  0.00     0.069 A 
HETATM    6  N11 UNL     1       4.176  -1.716   0.662  1.00  0.00    -0.287 N 
HETATM    7  N10 UNL     1       2.944  -1.272   0.841  1.00  0.00    -0.241 N 
ATOM      8  H11 UNL     1       4.500  -2.668   0.831  1.00  0.00     0.188 HD
ATOM      9  H10 UNL     1       2.166  -1.842   1.173  1.00  0.00     0.208 HD
BRANCH   5  10
HETATM   10  C1  UNL     1       6.369  -0.677  -0.130  1.00  0.00     0.289 C 
BRANCH  10  11
HETATM   11  N1  UNL     1       6.737   0.634  -0.556  1.00  0.00    -0.074 N 
ATOM     12  H13 UNL     1       6.151   0.971  -1.320  1.00  0.00     0.274 HD
ATOM     13  H12 UNL     1       6.498   1.346   0.134  1.00  0.00     0.274 HD
ATOM     14  H11 UNL     1       7.728   0.645  -0.796  1.00  0.00     0.274 HD
ENDBRANCH  10  11
ENDBRANCH   5  10
ENDBRANCH   2   3
ENDBRANCH   1   2
BRANCH   1  15
HETATM   15  N3  UNL     1      -0.314   1.563  -0.632  1.00  0.00    -0.072 N 
ATOM     16  H33 UNL     1      -0.901   1.285   0.155  1.00  0.00     0.274 HD
ATOM     17  H32 UNL     1      -0.106   2.522  -0.354  1.00  0.00     0.274 HD
ATOM     18  H31 UNL     1      -0.840   1.542  -1.505  1.00  0.00     0.274 HD
ENDBRANCH   1  15
BRANCH   1  19
HETATM   19  C6  UNL     1       0.498  -0.635  -1.058  1.00  0.00     0.175 C 
BRANCH  19  20
HETATM   20  N4  UNL     1      -0.320  -1.223  -0.024  1.00  0.00    -0.320 N 
ATOM     21  H4  UNL     1       0.021  -2.066   0.438  1.00  0.00     0.181 HD
BRANCH  20  22
HETATM   22  N5  UNL     1      -1.542  -0.707   0.377  1.00  0.00    -0.245 N 
HETATM   23  N6  UNL     1      -2.510  -0.731  -0.437  1.00  0.00    -0.269 N 
ATOM     24  H6  UNL     1      -2.357  -1.130  -1.363  1.00  0.00     0.190 HD
ATOM     25  H5  UNL     1      -1.659  -0.315   1.311  1.00  0.00     0.208 HD
BRANCH  23  26
HETATM   26  C7  UNL     1      -3.802  -0.227  -0.121  1.00  0.00     0.155 A 
HETATM   27  N7  UNL     1      -3.951   0.743   0.800  1.00  0.00    -0.292 N 
HETATM   28  C8  UNL     1      -5.180   1.208   1.086  1.00  0.00     0.328 A 
ATOM     29  H7  UNL     1      -3.135   1.124   1.279  1.00  0.00     0.172 HD
HETATM   30  O1  UNL     1      -5.325   2.113   1.946  1.00  0.00    -0.247 OA
HETATM   31  N8  UNL     1      -6.293   0.738   0.480  1.00  0.00    -0.274 N 
HETATM   32  C9  UNL     1      -6.202  -0.232  -0.449  1.00  0.00     0.277 A 
ATOM     33  H8  UNL     1      -7.206   1.120   0.728  1.00  0.00     0.173 HD
HETATM   34  O2  UNL     1      -7.180  -0.713  -1.048  1.00  0.00    -0.266 OA
HETATM   35  C10 UNL     1      -4.929  -0.716  -0.748  1.00  0.00     0.159 A 
HETATM   36  N9  UNL     1      -4.734  -1.742  -1.718  1.00  0.00    -0.092 NA
ENDBRANCH  23  26
ENDBRANCH  20  22
ENDBRANCH  19  20
ENDBRANCH   1  19
TORSDOF 9
