REMARK  6 active torsions:
REMARK  status: ('A' for Active; 'I' for Inactive)
REMARK    1  A    between atoms: O1_2  and  C2_3 
REMARK    2  A    between atoms: C2_3  and  O2_4 
REMARK    3  A    between atoms: C2_3  and  C3_6 
REMARK    4  A    between atoms: C6_9  and  C7_10 
REMARK    5  A    between atoms: N2_14  and  O4_15 
REMARK    6  A    between atoms: C11_25  and  N5_26 
ROOT
HETATM    1  C3  UNL     1       1.261   0.186  -0.303  1.00  0.00     0.041 A 
HETATM    2  C4  UNL     1       0.235  -0.724  -0.093  1.00  0.00    -0.019 A 
HETATM    3  C5  UNL     1       0.496  -2.161   0.053  1.00  0.00     0.051 C 
HETATM    4  C6  UNL     1      -1.081  -0.253  -0.047  1.00  0.00     0.071 A 
HETATM    5  N3  UNL     1      -1.269   1.069  -0.213  1.00  0.00    -0.338 N 
ATOM      6  H3  UNL     1      -2.228   1.414  -0.180  1.00  0.00     0.167 HD
HETATM    7  C10 UNL     1      -0.285   1.982  -0.421  1.00  0.00     0.133 A 
HETATM    8  N4  UNL     1      -0.564   3.254  -0.568  1.00  0.00    -0.383 N 
ATOM      9  H41 UNL     1       0.175   3.940  -0.724  1.00  0.00     0.157 HD
ATOM     10  H42 UNL     1      -1.530   3.579  -0.532  1.00  0.00     0.157 HD
HETATM   11  C11 UNL     1       1.016   1.545  -0.470  1.00  0.00     0.158 A 
ENDROOT
BRANCH   4  12
HETATM   12  C7  UNL     1      -2.184  -1.184   0.164  1.00  0.00     0.111 A 
HETATM   13  N1  UNL     1      -2.079  -2.535   0.353  1.00  0.00    -0.235 N 
HETATM   14  O3  UNL     1      -3.232  -3.074   0.492  1.00  0.00    -0.128 OA
ATOM     15  H1  UNL     1      -1.197  -3.046   0.380  1.00  0.00     0.197 HD
HETATM   16  N2  UNL     1      -4.157  -2.176   0.413  1.00  0.00    -0.104 N 
HETATM   17  C8  UNL     1      -3.530  -0.966   0.205  1.00  0.00     0.095 A 
HETATM   18  C9  UNL     1      -4.313   0.259   0.064  1.00  0.00     0.076 C 
BRANCH  16  19
HETATM   19  O4  UNL     1      -5.493  -2.403   0.518  1.00  0.00    -0.261 OA
ATOM     20  H4  UNL     1      -6.173  -1.743   0.460  1.00  0.00     0.247 HD
ENDBRANCH  16  19
ENDBRANCH   4  12
BRANCH   1  21
HETATM   21  C2  UNL     1       2.680  -0.209  -0.340  1.00  0.00     0.293 C 
BRANCH  21  22
HETATM   22  O1  UNL     1       3.397   0.757   0.385  1.00  0.00    -0.362 OA
HETATM   23  C1  UNL     1       4.231   0.216   1.335  1.00  0.00     0.205 C 
ENDBRANCH  21  22
BRANCH  21  24
HETATM   24  O2  UNL     1       3.136  -0.180  -1.679  1.00  0.00    -0.367 OA
ATOM     25  H2  UNL     1       2.651  -0.833  -2.169  1.00  0.00     0.213 HD
ENDBRANCH  21  24
ENDBRANCH   1  21
BRANCH  11  26
HETATM   26  N5  UNL     1       2.009   2.525  -0.684  1.00  0.00    -0.111 N 
HETATM   27  O5  UNL     1       2.576   2.612  -1.772  1.00  0.00    -0.532 OA
HETATM   28  O6  UNL     1       2.328   3.386   0.322  1.00  0.00    -0.532 OA
ENDBRANCH  11  26
TORSDOF 6
