REMARK  16 active torsions:
REMARK  status: ('A' for Active; 'I' for Inactive)
REMARK    1  A    between atoms: C2_2  and  C3_3 
REMARK    2  A    between atoms: C3_3  and  C4_4 
REMARK    3  A    between atoms: C4_4  and  O1_5 
REMARK    4  A    between atoms: O1_5  and  C5_6 
REMARK    5  A    between atoms: C8_9  and  C9_10 
REMARK    6  A    between atoms: C10_11  and  O2_12 
REMARK    7  A    between atoms: C11_14  and  O3_15 
REMARK    8  A    between atoms: C12_17  and  O4_18 
REMARK    9  A    between atoms: N1_21  and  C14_22 
REMARK   10  A    between atoms: C14_22  and  C15_23 
REMARK   11  A    between atoms: C15_23  and  C16_24 
REMARK   12  A    between atoms: C16_24  and  C17_25 
REMARK   13  A    between atoms: C17_25  and  C18_26 
REMARK   14  A    between atoms: C21_29  and  C22_30 
REMARK   15  A    between atoms: C21_29  and  C24_32 
REMARK   16  A    between atoms: C24_32  and  O5_33 
ROOT
HETATM    1  C9  UNL     1       1.051  -1.949  -1.249  1.00  0.00     0.287 C 
HETATM    2  C10 UNL     1       1.633  -3.294  -1.076  1.00  0.00     0.187 C 
HETATM    3  C11 UNL     1       0.577  -4.358  -1.061  1.00  0.00     0.179 C 
HETATM    4  C12 UNL     1      -0.324  -4.085   0.102  1.00  0.00     0.177 C 
HETATM    5  C13 UNL     1      -0.210  -2.678   0.617  1.00  0.00     0.307 C 
HETATM    6  N1  UNL     1      -0.146  -1.664  -0.429  1.00  0.00     0.102 N 
ENDROOT
BRANCH   1   7
HETATM    7  C8  UNL     1       2.036  -0.831  -1.178  1.00  0.00    -0.022 A 
HETATM    8  C7  UNL     1       2.377  -0.228   0.011  1.00  0.00     0.012 A 
HETATM    9  C6  UNL     1       3.293   0.817   0.069  1.00  0.00     0.037 A 
HETATM   10  C5  UNL     1       3.910   1.308  -1.055  1.00  0.00     0.070 A 
HETATM   11  C26 UNL     1       3.566   0.697  -2.265  1.00  0.00     0.037 A 
HETATM   12  C25 UNL     1       2.659  -0.335  -2.305  1.00  0.00     0.012 A 
BRANCH  10  13
HETATM   13  O1  UNL     1       4.831   2.346  -1.063  1.00  0.00    -0.334 OA
BRANCH  13  14
HETATM   14  C4  UNL     1       6.214   2.236  -0.942  1.00  0.00     0.139 A 
HETATM   15  C27 UNL     1       6.937   3.533  -1.370  1.00  0.00     0.127 A 
HETATM   16  C28 UNL     1       7.104   2.270  -2.134  1.00  0.00     0.278 A 
HETATM   17  F1  UNL     1       8.363   1.684  -2.026  1.00  0.00    -0.203 F 
HETATM   18  F2  UNL     1       6.642   2.288  -3.414  1.00  0.00    -0.203 F 
BRANCH  14  19
HETATM   19  C3  UNL     1       6.851   1.636   0.295  1.00  0.00     0.045 C 
BRANCH  19  20
HETATM   20  C2  UNL     1       6.546   2.381   1.554  1.00  0.00    -0.001 C 
HETATM   21  C1  UNL     1       7.208   1.732   2.765  1.00  0.00     0.005 C 
ENDBRANCH  19  20
ENDBRANCH  14  19
ENDBRANCH  13  14
ENDBRANCH  10  13
ENDBRANCH   1   7
BRANCH   2  22
HETATM   22  O2  UNL     1       2.517  -3.453  -0.023  1.00  0.00    -0.390 OA
ATOM     23  H2  UNL     1       2.892  -4.319   0.088  1.00  0.00     0.210 HD
ENDBRANCH   2  22
BRANCH   6  24
HETATM   24  C14 UNL     1      -1.308  -1.790  -1.257  1.00  0.00     0.273 C 
BRANCH  24  25
HETATM   25  C15 UNL     1      -2.536  -1.031  -0.927  1.00  0.00     0.030 C 
BRANCH  25  26
HETATM   26  C16 UNL     1      -3.173  -1.219   0.389  1.00  0.00     0.002 C 
BRANCH  26  27
HETATM   27  C17 UNL     1      -4.481  -0.555   0.660  1.00  0.00     0.005 C 
BRANCH  27  28
HETATM   28  C18 UNL     1      -4.560   0.906   0.625  1.00  0.00    -0.004 C 
HETATM   29  C19 UNL     1      -4.258   1.604  -0.656  1.00  0.00     0.006 C 
HETATM   30  C20 UNL     1      -5.430   2.555  -0.359  1.00  0.00     0.012 C 
HETATM   31  C21 UNL     1      -5.974   1.494   0.534  1.00  0.00    -0.016 C 
BRANCH  31  32
HETATM   32  C22 UNL     1      -6.380   2.003   1.902  1.00  0.00     0.007 C 
HETATM   33  C23 UNL     1      -7.749   2.601   1.923  1.00  0.00     0.006 C 
ENDBRANCH  31  32
BRANCH  31  34
HETATM   34  C24 UNL     1      -6.917   0.516  -0.075  1.00  0.00     0.173 C 
BRANCH  34  35
HETATM   35  O5  UNL     1      -8.220   1.018  -0.181  1.00  0.00    -0.400 OA
ATOM     36  H5  UNL     1      -8.822   0.394  -0.570  1.00  0.00     0.209 HD
ENDBRANCH  34  35
ENDBRANCH  31  34
ENDBRANCH  27  28
ENDBRANCH  26  27
ENDBRANCH  25  26
ENDBRANCH  24  25
ENDBRANCH   6  24
BRANCH   3  37
HETATM   37  O3  UNL     1       1.250  -5.589  -0.904  1.00  0.00    -0.390 OA
ATOM     38  H3  UNL     1       0.581  -6.263  -0.894  1.00  0.00     0.210 HD
ENDBRANCH   3  37
BRANCH   4  39
HETATM   39  O4  UNL     1       0.095  -4.949   1.149  1.00  0.00    -0.391 OA
ATOM     40  H4  UNL     1      -0.477  -4.776   1.887  1.00  0.00     0.210 HD
ENDBRANCH   4  39
TORSDOF 16
