REMARK  12 active torsions:
REMARK  status: ('A' for Active; 'I' for Inactive)
REMARK    1  A    between atoms: C2_2  and  N1_3 
REMARK    2  A    between atoms: C2_2  and  C9_19 
REMARK    3  A    between atoms: N1_3  and  C3_6 
REMARK    4  A    between atoms: C3_6  and  C4_7 
REMARK    5  A    between atoms: C4_7  and  N2_8 
REMARK    6  A    between atoms: N2_8  and  C5_11 
REMARK    7  A    between atoms: C5_11  and  C6_12 
REMARK    8  A    between atoms: C6_12  and  C7_13 
REMARK    9  A    between atoms: C7_13  and  C8_14 
REMARK   10  A    between atoms: C8_14  and  N3_15 
REMARK   11  A    between atoms: C17_27  and  C18_28 
REMARK   12  A    between atoms: C18_28  and  O1_31 
ROOT
HETATM    1  C9  UNL     1      -0.035  -0.564   0.022  1.00  0.00     0.022 C 
HETATM    2  C10 UNL     1      -0.897   0.629   0.318  1.00  0.00     0.012 C 
HETATM    3  C11 UNL     1      -2.337   0.271  -0.030  1.00  0.00    -0.004 C 
HETATM    4  C12 UNL     1      -3.285   1.275   0.540  1.00  0.00     0.001 C 
HETATM    5  C13 UNL     1      -2.963   2.593  -0.104  1.00  0.00    -0.010 C 
HETATM    6  C14 UNL     1      -3.842   3.734   0.318  1.00  0.00     0.005 C 
HETATM    7  C15 UNL     1      -4.912   3.261   1.249  1.00  0.00     0.001 C 
HETATM    8  C16 UNL     1      -5.615   2.126   0.517  1.00  0.00     0.008 C 
HETATM    9  C17 UNL     1      -4.708   0.886   0.538  1.00  0.00     0.024 C 
HETATM   10  C21 UNL     1      -2.912   2.583  -1.595  1.00  0.00     0.005 C 
HETATM   11  C22 UNL     1      -2.037   1.521  -2.200  1.00  0.00     0.006 C 
HETATM   12  C23 UNL     1      -2.343   0.215  -1.539  1.00  0.00    -0.002 C 
HETATM   13  C24 UNL     1      -1.562  -0.964  -1.969  1.00  0.00    -0.035 C 
HETATM   14  C25 UNL     1      -1.279  -0.751  -3.471  1.00  0.00     0.016 C 
HETATM   15  C26 UNL     1      -2.573  -2.130  -1.973  1.00  0.00     0.017 C 
HETATM   16  C27 UNL     1      -2.036  -3.299  -2.740  1.00  0.00     0.080 C 
HETATM   17  C28 UNL     1      -0.736  -3.624  -2.093  1.00  0.00     0.135 C 
HETATM   18  O2  UNL     1      -0.229  -4.679  -2.435  1.00  0.00    -0.297 OA
HETATM   19  C29 UNL     1      -0.044  -2.793  -1.103  1.00  0.00     0.018 C 
HETATM   20  C30 UNL     1      -0.417  -3.305   0.264  1.00  0.00     0.023 C 
HETATM   21  C31 UNL     1       1.454  -3.101  -1.264  1.00  0.00     0.023 C 
HETATM   22  C32 UNL     1      -0.304  -1.288  -1.245  1.00  0.00     0.015 C 
ENDROOT
BRANCH   1  23
HETATM   23  C2  UNL     1       1.414  -0.047   0.135  1.00  0.00     0.186 C 
HETATM   24  C1  UNL     1       1.701   1.057  -0.840  1.00  0.00     0.040 C 
BRANCH  23  25
HETATM   25  N1  UNL     1       1.660   0.490   1.452  1.00  0.00    -0.069 N 
ATOM     26  H12 UNL     1       1.036   1.265   1.674  1.00  0.00     0.277 HD
ATOM     27  H11 UNL     1       1.367  -0.150   2.190  1.00  0.00     0.277 HD
BRANCH  25  28
HETATM   28  C3  UNL     1       3.044   0.857   1.571  1.00  0.00     0.260 C 
BRANCH  28  29
HETATM   29  C4  UNL     1       4.011  -0.286   1.585  1.00  0.00     0.259 C 
BRANCH  29  30
HETATM   30  N2  UNL     1       5.345   0.305   1.722  1.00  0.00    -0.074 N 
ATOM     31  H22 UNL     1       5.528   0.998   0.996  1.00  0.00     0.277 HD
ATOM     32  H21 UNL     1       5.406   0.916   2.536  1.00  0.00     0.277 HD
BRANCH  30  33
HETATM   33  C5  UNL     1       6.362  -0.726   1.748  1.00  0.00     0.232 C 
BRANCH  33  34
HETATM   34  C6  UNL     1       7.731  -0.149   1.891  1.00  0.00     0.029 C 
BRANCH  34  35
HETATM   35  C7  UNL     1       8.109   0.793   0.757  1.00  0.00     0.029 C 
BRANCH  35  36
HETATM   36  C8  UNL     1       9.523   1.315   0.999  1.00  0.00     0.229 C 
BRANCH  36  37
HETATM   37  N3  UNL     1      10.470   0.211   1.043  1.00  0.00    -0.079 N 
ATOM     38  H33 UNL     1      10.202  -0.493   1.731  1.00  0.00     0.274 HD
ATOM     39  H32 UNL     1      10.417  -0.369   0.205  1.00  0.00     0.274 HD
ATOM     40  H31 UNL     1      11.415   0.560   1.205  1.00  0.00     0.274 HD
ENDBRANCH  36  37
ENDBRANCH  35  36
ENDBRANCH  34  35
ENDBRANCH  33  34
ENDBRANCH  30  33
ENDBRANCH  29  30
ENDBRANCH  28  29
ENDBRANCH  25  28
ENDBRANCH  23  25
ENDBRANCH   1  23
BRANCH   9  41
HETATM   41  C18 UNL     1      -5.195   0.068   1.691  1.00  0.00     0.054 C 
HETATM   42  C19 UNL     1      -6.689  -0.191   1.441  1.00  0.00     0.045 C 
HETATM   43  C20 UNL     1      -4.561  -1.272   1.857  1.00  0.00     0.045 C 
BRANCH  41  44
HETATM   44  O1  UNL     1      -5.125   0.719   2.919  1.00  0.00    -0.390 OA
ATOM     45  H1  UNL     1      -5.434   0.199   3.652  1.00  0.00     0.210 HD
ENDBRANCH  41  44
ENDBRANCH   9  41
TORSDOF 12
