REMARK  13 active torsions:
REMARK  status: ('A' for Active; 'I' for Inactive)
REMARK    1  A    between atoms: C2_2  and  C4_4 
REMARK    2  A    between atoms: C4_4  and  C5_6 
REMARK    3  A    between atoms: C8_11  and  C9_12 
REMARK    4  A    between atoms: C9_12  and  O2_13 
REMARK    5  A    between atoms: C9_12  and  C10_15 
REMARK    6  A    between atoms: C10_15  and  C11_16 
REMARK    7  A    between atoms: C14_21  and  C15_22 
REMARK    8  A    between atoms: C14_21  and  C27_34 
REMARK    9  A    between atoms: C16_23  and  C17_24 
REMARK   10  A    between atoms: C17_24  and  C18_25 
REMARK   11  A    between atoms: C18_25  and  C19_26 
REMARK   12  A    between atoms: C19_26  and  C20_27 
REMARK   13  A    between atoms: C30_41  and  O3_42 
ROOT
HETATM    1  C5  UNL     1      -2.996  -1.607  -0.198  1.00  0.00    -0.016 C 
HETATM    2  C6  UNL     1      -2.137  -0.538  -0.647  1.00  0.00     0.062 C 
HETATM    3  C7  UNL     1      -3.272   0.473  -1.004  1.00  0.00     0.116 C 
HETATM    4  N1  UNL     1      -2.787   1.740  -1.424  1.00  0.00    -0.407 N 
ATOM      5  H1  UNL     1      -3.043   2.143  -2.325  1.00  0.00     0.154 HD
HETATM    6  C8  UNL     1      -1.935   2.408  -0.530  1.00  0.00     0.107 C 
HETATM    7  C13 UNL     1      -1.272   1.533   0.490  1.00  0.00     0.048 C 
HETATM    8  C14 UNL     1      -0.991   0.119  -0.001  1.00  0.00     0.032 C 
HETATM    9  C30 UNL     1      -4.257   0.404   0.085  1.00  0.00     0.153 C 
HETATM   10  C31 UNL     1      -4.220  -1.055   0.488  1.00  0.00     0.008 C 
HETATM   11  C32 UNL     1      -5.533  -1.655  -0.079  1.00  0.00     0.022 C 
HETATM   12  C33 UNL     1      -4.372  -1.232   1.941  1.00  0.00     0.022 C 
ENDROOT
BRANCH   8  13
HETATM   13  C15 UNL     1       0.135   0.170  -1.043  1.00  0.00    -0.014 C 
HETATM   14  C16 UNL     1       1.386   0.826  -0.842  1.00  0.00    -0.029 C 
BRANCH  14  15
HETATM   15  C17 UNL     1       2.368   0.471   0.223  1.00  0.00     0.027 C 
BRANCH  15  16
HETATM   16  C18 UNL     1       3.533   1.471  -0.014  1.00  0.00     0.004 C 
BRANCH  16  17
HETATM   17  C19 UNL     1       4.638   1.291   0.952  1.00  0.00     0.005 C 
BRANCH  17  18
HETATM   18  C20 UNL     1       5.296  -0.064   0.959  1.00  0.00    -0.011 C 
HETATM   19  C21 UNL     1       6.381  -0.018   2.019  1.00  0.00     0.005 C 
HETATM   20  C22 UNL     1       7.605  -0.792   1.672  1.00  0.00     0.000 C 
HETATM   21  C23 UNL     1       8.209  -0.420   0.350  1.00  0.00     0.000 C 
HETATM   22  C24 UNL     1       7.200   0.100  -0.631  1.00  0.00     0.004 C 
HETATM   23  C25 UNL     1       5.824  -0.509  -0.369  1.00  0.00    -0.015 C 
HETATM   24  C26 UNL     1       5.876  -2.024  -0.508  1.00  0.00     0.010 C 
ENDBRANCH  17  18
ENDBRANCH  16  17
ENDBRANCH  15  16
ENDBRANCH  14  15
ENDBRANCH   8  13
BRANCH   8  25
HETATM   25  C27 UNL     1      -0.427  -0.588   1.188  1.00  0.00     0.039 A 
HETATM   26  C28 UNL     1      -0.538  -0.273   2.528  1.00  0.00     0.115 A 
HETATM   27  N2  UNL     1       0.099  -1.159   3.305  1.00  0.00    -0.360 N 
HETATM   28  C29 UNL     1       0.636  -2.066   2.489  1.00  0.00     0.180 A 
ATOM     29  H2  UNL     1       0.161  -1.143   4.323  1.00  0.00     0.166 HD
HETATM   30  N3  UNL     1       0.320  -1.721   1.245  1.00  0.00    -0.354 N 
ATOM     31  H3  UNL     1       0.607  -2.250   0.422  1.00  0.00     0.166 HD
ENDBRANCH   8  25
BRANCH   1  32
HETATM   32  C4  UNL     1      -2.567  -2.924   0.193  1.00  0.00     0.156 C 
HETATM   33  O1  UNL     1      -2.696  -3.418   1.329  1.00  0.00    -0.293 OA
BRANCH  32  34
HETATM   34  C2  UNL     1      -1.904  -3.850  -0.791  1.00  0.00     0.052 C 
HETATM   35  C1  UNL     1      -1.532  -5.172  -0.199  1.00  0.00     0.018 C 
HETATM   36  C3  UNL     1      -2.853  -4.133  -1.953  1.00  0.00     0.018 C 
ENDBRANCH  32  34
ENDBRANCH   1  32
BRANCH   6  37
HETATM   37  C9  UNL     1      -2.586   3.576   0.122  1.00  0.00     0.146 C 
BRANCH  37  38
HETATM   38  O2  UNL     1      -1.656   4.115   1.107  1.00  0.00    -0.393 OA
ATOM     39  H2  UNL     1      -2.072   4.861   1.523  1.00  0.00     0.210 HD
ENDBRANCH  37  38
BRANCH  37  40
HETATM   40  C10 UNL     1      -2.917   4.776  -0.671  1.00  0.00     0.112 C 
BRANCH  40  41
HETATM   41  C11 UNL     1      -3.840   4.715  -1.821  1.00  0.00     0.242 C 
HETATM   42  C12 UNL     1      -5.222   4.191  -1.493  1.00  0.00     0.090 C 
HETATM   43  F1  UNL     1      -3.269   4.178  -2.921  1.00  0.00    -0.207 F 
HETATM   44  F2  UNL     1      -4.098   6.104  -2.153  1.00  0.00    -0.207 F 
ENDBRANCH  40  41
ENDBRANCH  37  40
ENDBRANCH   6  37
BRANCH   9  45
HETATM   45  O3  UNL     1      -5.514   0.737  -0.479  1.00  0.00    -0.392 OA
ATOM     46  H3  UNL     1      -6.151   0.692   0.225  1.00  0.00     0.210 HD
ENDBRANCH   9  45
TORSDOF 13
