REMARK  5 active torsions:
REMARK  status: ('A' for Active; 'I' for Inactive)
REMARK    1  A    between atoms: C6_7  and  C7_8 
REMARK    2  A    between atoms: C8_9  and  C9_10 
REMARK    3  A    between atoms: C12_13  and  N1_14 
REMARK    4  A    between atoms: N1_14  and  C13_16 
REMARK    5  A    between atoms: C13_16  and  C14_17 
ROOT
HETATM    1  C9  UNL     1       0.250  -0.669   0.370  1.00  0.00     0.033 A 
HETATM    2  C10 UNL     1      -0.040  -1.562   1.400  1.00  0.00     0.026 A 
HETATM    3  C11 UNL     1      -1.325  -2.067   1.511  1.00  0.00     0.050 A 
HETATM    4  C12 UNL     1      -2.313  -1.703   0.626  1.00  0.00     0.101 A 
HETATM    5  N3  UNL     1      -2.004  -0.843  -0.354  1.00  0.00    -0.351 N 
ATOM      6  H3  UNL     1      -2.729  -0.567  -1.016  1.00  0.00     0.166 HD
HETATM    7  C19 UNL     1      -0.760  -0.330  -0.493  1.00  0.00     0.110 A 
ENDROOT
BRANCH   1   8
HETATM    8  C8  UNL     1       1.580  -0.139   0.244  1.00  0.00    -0.060 C 
HETATM    9  C7  UNL     1       2.706   0.294   0.152  1.00  0.00    -0.058 C 
BRANCH   9  10
HETATM   10  C6  UNL     1       4.063   0.793   0.057  1.00  0.00     0.057 A 
HETATM   11  C5  UNL     1       4.271   2.134   0.284  1.00  0.00     0.135 A 
HETATM   12  C4  UNL     1       5.536   2.638   0.202  1.00  0.00     0.044 A 
HETATM   13  F1  UNL     1       3.247   2.961   0.586  1.00  0.00    -0.205 F 
HETATM   14  C3  UNL     1       6.591   1.775  -0.111  1.00  0.00     0.010 A 
HETATM   15  C2  UNL     1       6.377   0.430  -0.339  1.00  0.00    -0.060 A 
HETATM   16  C1  UNL     1       7.515  -0.492  -0.675  1.00  0.00     0.048 C 
HETATM   17  C20 UNL     1       5.096  -0.056  -0.251  1.00  0.00     0.030 A 
ENDBRANCH   9  10
ENDBRANCH   1   8
BRANCH   4  18
HETATM   18  N1  UNL     1      -3.517  -2.143   0.690  1.00  0.00    -0.372 N 
ATOM     19  H1  UNL     1      -3.720  -2.794   1.448  1.00  0.00     0.161 HD
BRANCH  18  20
HETATM   20  C13 UNL     1      -4.599  -1.826  -0.175  1.00  0.00     0.161 C 
BRANCH  20  21
HETATM   21  C14 UNL     1      -5.273  -0.545   0.145  1.00  0.00    -0.025 A 
HETATM   22  C15 UNL     1      -6.290  -0.057  -0.647  1.00  0.00     0.011 A 
HETATM   23  C16 UNL     1      -6.901   1.157  -0.308  1.00  0.00     0.018 A 
HETATM   24  C17 UNL     1      -6.503   1.867   0.801  1.00  0.00     0.087 A 
HETATM   25  N2  UNL     1      -5.511   1.366   1.551  1.00  0.00    -0.375 N 
HETATM   26  C18 UNL     1      -4.906   0.196   1.243  1.00  0.00     0.096 A 
ATOM     27  H2  UNL     1      -5.204   1.881   2.376  1.00  0.00     0.164 HD
ENDBRANCH  20  21
ENDBRANCH  18  20
ENDBRANCH   4  18
TORSDOF 5
