REMARK  14 active torsions:
REMARK  status: ('A' for Active; 'I' for Inactive)
REMARK    1  A    between atoms: N1_1  and  C1_4 
REMARK    2  A    between atoms: C4_13  and  S1_14 
REMARK    3  A    between atoms: S1_14  and  S2_15 
REMARK    4  A    between atoms: S2_15  and  C5_16 
REMARK    5  A    between atoms: C5_16  and  C6_17 
REMARK    6  A    between atoms: C6_17  and  N5_18 
REMARK    7  A    between atoms: N5_18  and  C7_21 
REMARK    8  A    between atoms: C7_21  and  C8_22 
REMARK    9  A    between atoms: C8_22  and  C9_23 
REMARK   10  A    between atoms: C9_23  and  C10_24 
REMARK   11  A    between atoms: C10_24  and  N6_25 
REMARK   12  A    between atoms: N6_25  and  C11_28 
REMARK   13  A    between atoms: C11_28  and  C12_29 
REMARK   14  A    between atoms: C12_29  and  C13_30 
ROOT
HETATM    1  S2  UNL     1      -3.263   3.055  -0.966  1.00  0.00    -0.088 SA
ENDROOT
BRANCH   1   2
HETATM    2  S1  UNL     1      -4.090   2.712   0.935  1.00  0.00    -0.021 SA
BRANCH   2   3
HETATM    3  C4  UNL     1      -4.968   1.142   0.923  1.00  0.00     0.157 A 
HETATM    4  N4  UNL     1      -4.530  -0.078   1.259  1.00  0.00    -0.320 N 
HETATM    5  C3  UNL     1      -5.518  -0.973   1.098  1.00  0.00     0.139 A 
ATOM      6  H4  UNL     1      -3.589  -0.295   1.587  1.00  0.00     0.169 HD
HETATM    7  N3  UNL     1      -5.593  -2.317   1.293  1.00  0.00    -0.337 N 
HETATM    8  C14 UNL     1      -6.641  -0.309   0.640  1.00  0.00     0.123 A 
HETATM    9  C2  UNL     1      -6.738  -2.956   1.040  1.00  0.00     0.183 A 
ATOM     10  H3  UNL     1      -4.780  -2.833   1.630  1.00  0.00     0.168 HD
HETATM   11  N2  UNL     1      -7.837  -2.358   0.600  1.00  0.00    -0.337 N 
HETATM   12  C1  UNL     1      -7.811  -1.033   0.393  1.00  0.00     0.131 A 
ATOM     13  H2  UNL     1      -8.686  -2.895   0.422  1.00  0.00     0.168 HD
HETATM   14  N7  UNL     1      -6.274   0.974   0.545  1.00  0.00    -0.330 N 
ATOM     15  H7  UNL     1      -6.886   1.728   0.232  1.00  0.00     0.168 HD
BRANCH  12  16
HETATM   16  N1  UNL     1      -8.853  -0.418  -0.039  1.00  0.00    -0.383 N 
ATOM     17  H12 UNL     1      -9.707  -0.946  -0.219  1.00  0.00     0.157 HD
ATOM     18  H11 UNL     1      -8.833   0.590  -0.196  1.00  0.00     0.157 HD
ENDBRANCH  12  16
ENDBRANCH   2   3
ENDBRANCH   1   2
BRANCH   1  19
HETATM   19  C5  UNL     1      -1.584   2.419  -1.067  1.00  0.00     0.114 C 
BRANCH  19  20
HETATM   20  C6  UNL     1      -1.539   0.939  -0.961  1.00  0.00     0.243 C 
BRANCH  20  21
HETATM   21  N5  UNL     1      -0.226   0.349  -1.083  1.00  0.00    -0.074 N 
ATOM     22  H52 UNL     1      -0.270  -0.660  -1.226  1.00  0.00     0.277 HD
ATOM     23  H51 UNL     1       0.228   0.602  -1.960  1.00  0.00     0.277 HD
BRANCH  21  24
HETATM   24  C7  UNL     1       0.569   0.698   0.056  1.00  0.00     0.232 C 
BRANCH  24  25
HETATM   25  C8  UNL     1       1.944   0.046   0.003  1.00  0.00     0.029 C 
BRANCH  25  26
HETATM   26  C9  UNL     1       2.643   0.510  -1.242  1.00  0.00     0.029 C 
BRANCH  26  27
HETATM   27  C10 UNL     1       4.011  -0.090  -1.396  1.00  0.00     0.232 C 
BRANCH  27  28
HETATM   28  N6  UNL     1       4.838   0.271  -0.277  1.00  0.00    -0.075 N 
ATOM     29  H62 UNL     1       4.863   1.282  -0.147  1.00  0.00     0.277 HD
ATOM     30  H61 UNL     1       4.402   0.006   0.606  1.00  0.00     0.277 HD
BRANCH  28  31
HETATM   31  C11 UNL     1       6.177  -0.279  -0.388  1.00  0.00     0.235 C 
BRANCH  31  32
HETATM   32  C12 UNL     1       6.989   0.131   0.829  1.00  0.00     0.063 C 
BRANCH  32  33
HETATM   33  C13 UNL     1       8.402  -0.439   0.722  1.00  0.00     0.179 C 
HETATM   34 CL1  UNL     1       9.206   0.174  -0.739  1.00  0.00    -0.108 Cl
HETATM   35 CL2  UNL     1       8.271  -2.211   0.680  1.00  0.00    -0.108 Cl
ENDBRANCH  32  33
ENDBRANCH  31  32
ENDBRANCH  28  31
ENDBRANCH  27  28
ENDBRANCH  26  27
ENDBRANCH  25  26
ENDBRANCH  24  25
ENDBRANCH  21  24
ENDBRANCH  20  21
ENDBRANCH  19  20
ENDBRANCH   1  19
TORSDOF 14
