REMARK  17 active torsions:
REMARK  status: ('A' for Active; 'I' for Inactive)
REMARK       I    between atoms: C2_2  and  N1_4 
REMARK    1  A    between atoms: N1_4  and  C3_6 
REMARK    2  A    between atoms: C3_6  and  C4_7 
REMARK    3  A    between atoms: C4_7  and  C5_8 
REMARK    4  A    between atoms: C5_8  and  C6_9 
REMARK    5  A    between atoms: C6_9  and  C7_10 
REMARK    6  A    between atoms: C7_10  and  C8_11 
REMARK    7  A    between atoms: C8_11  and  N2_12 
REMARK    8  A    between atoms: C8_11  and  C26_41 
REMARK       I    between atoms: N2_12  and  C9_14 
REMARK    9  A    between atoms: C9_14  and  C10_16 
REMARK   10  A    between atoms: C12_18  and  C13_19 
REMARK   11  A    between atoms: C13_19  and  O3_20 
REMARK   12  A    between atoms: C13_19  and  N3_22 
REMARK   13  A    between atoms: N3_22  and  C14_24 
REMARK   14  A    between atoms: C14_24  and  C15_25 
REMARK   15  A    between atoms: C14_24  and  C20_35 
REMARK       I    between atoms: C15_25  and  N4_27 
REMARK   16  A    between atoms: N4_27  and  C16_29 
REMARK   17  A    between atoms: C16_29  and  C17_30 
ROOT
HETATM    1  C10 UNL     1      -0.830  -0.017  -0.800  1.00  0.00     0.090 A 
HETATM    2  C11 UNL     1      -0.949  -1.477  -0.883  1.00  0.00     0.028 A 
HETATM    3  C12 UNL     1      -0.976  -0.907   0.459  1.00  0.00     0.074 A 
ENDROOT
BRANCH   3   4
HETATM    4  C13 UNL     1      -2.178  -0.559   1.232  1.00  0.00     0.120 C 
BRANCH   4   5
HETATM    5  O3  UNL     1      -1.979  -0.547   2.525  1.00  0.00    -0.349 OA
ATOM      6  H3  UNL     1      -2.755  -0.322   3.024  1.00  0.00     0.219 HD
ENDBRANCH   4   5
BRANCH   4   7
HETATM    7  N3  UNL     1      -3.416  -0.258   0.818  1.00  0.00    -0.339 N 
ATOM      8  H3  UNL     1      -3.414   0.762   0.820  1.00  0.00     0.167 HD
BRANCH   7   9
HETATM    9  C14 UNL     1      -4.530  -0.522   0.445  1.00  0.00     0.083 C 
BRANCH   9  10
HETATM   10  C15 UNL     1      -5.438   0.612   0.143  1.00  0.00     0.265 C 
HETATM   11  O4  UNL     1      -6.593   0.369  -0.234  1.00  0.00    -0.266 OA
HETATM   12  N4  UNL     1      -4.995   1.952   0.283  1.00  0.00    -0.338 N 
ATOM     13  H4  UNL     1      -4.041   2.143   0.589  1.00  0.00     0.164 HD
BRANCH  12  14
HETATM   14  C16 UNL     1      -5.903   3.061  -0.011  1.00  0.00     0.112 A 
HETATM   15  C18 UNL     1      -5.241   4.306  -0.537  1.00  0.00     0.043 A 
HETATM   16  C19 UNL     1      -6.009   3.458  -1.463  1.00  0.00     0.043 A 
BRANCH  14  17
HETATM   17  C17 UNL     1      -7.130   3.160   0.812  1.00  0.00     0.259 C 
HETATM   18  N5  UNL     1      -8.173   4.019   0.421  1.00  0.00    -0.060 NA
HETATM   19  O5  UNL     1      -7.237   2.483   1.851  1.00  0.00    -0.274 OA
ENDBRANCH  14  17
ENDBRANCH  12  14
ENDBRANCH   9  10
BRANCH   9  20
HETATM   20  C20 UNL     1      -5.072  -1.885   0.249  1.00  0.00     0.041 C 
HETATM   21  C21 UNL     1      -5.429  -2.184  -1.188  1.00  0.00     0.011 C 
HETATM   22  C22 UNL     1      -5.580  -3.669  -1.359  1.00  0.00     0.001 C 
HETATM   23  C23 UNL     1      -6.071  -4.362  -0.104  1.00  0.00     0.000 C 
HETATM   24  C24 UNL     1      -5.058  -4.205   1.020  1.00  0.00     0.001 C 
HETATM   25  C25 UNL     1      -4.176  -2.986   0.753  1.00  0.00     0.011 C 
ENDBRANCH   9  20
ENDBRANCH   7   9
ENDBRANCH   4   7
ENDBRANCH   3   4
BRANCH   1  26
HETATM   26  C9  UNL     1       0.425   0.739  -0.792  1.00  0.00     0.223 C 
HETATM   27  N2  UNL     1       1.655   0.219  -0.299  1.00  0.00    -0.353 N 
ATOM     28  H2  UNL     1       1.688  -0.734   0.063  1.00  0.00     0.163 HD
HETATM   29  O2  UNL     1       0.440   1.917  -1.235  1.00  0.00    -0.273 OA
BRANCH  27  30
HETATM   30  C8  UNL     1       2.896   1.046  -0.303  1.00  0.00     0.111 C 
BRANCH  30  31
HETATM   31  C7  UNL     1       3.985   0.312  -0.979  1.00  0.00    -0.006 C 
BRANCH  31  32
HETATM   32  C6  UNL     1       5.300   0.887  -1.198  1.00  0.00    -0.029 C 
BRANCH  32  33
HETATM   33  C5  UNL     1       6.224   1.308  -0.150  1.00  0.00     0.028 C 
BRANCH  33  34
HETATM   34  C4  UNL     1       6.703   0.274   0.820  1.00  0.00     0.023 C 
BRANCH  34  35
HETATM   35  C3  UNL     1       7.455  -0.867   0.226  1.00  0.00     0.123 C 
BRANCH  35  36
HETATM   36  N1  UNL     1       8.664  -0.474  -0.465  1.00  0.00    -0.361 N 
HETATM   37  C2  UNL     1       9.522  -1.408  -1.097  1.00  0.00     0.213 C 
HETATM   38  C1  UNL     1      10.752  -1.006  -1.798  1.00  0.00     0.117 C 
HETATM   39  O1  UNL     1       9.216  -2.630  -1.055  1.00  0.00    -0.274 OA
ATOM     40  H1  UNL     1       8.909   0.516  -0.499  1.00  0.00     0.162 HD
ENDBRANCH  35  36
ENDBRANCH  34  35
ENDBRANCH  33  34
ENDBRANCH  32  33
ENDBRANCH  31  32
ENDBRANCH  30  31
BRANCH  30  41
HETATM   41  C26 UNL     1       3.171   1.302   1.137  1.00  0.00     0.012 C 
HETATM   42  C27 UNL     1       2.031   2.077   1.857  1.00  0.00     0.007 C 
HETATM   43  C28 UNL     1       2.517   1.337   3.114  1.00  0.00     0.001 C 
HETATM   44  C29 UNL     1       2.903   0.202   2.132  1.00  0.00     0.007 C 
ENDBRANCH  30  41
ENDBRANCH  27  30
ENDBRANCH   1  26
TORSDOF 17
