REMARK  10 active torsions:
REMARK  status: ('A' for Active; 'I' for Inactive)
REMARK    1  A    between atoms: N1_2  and  C4_5 
REMARK    2  A    between atoms: C4_5  and  C5_6 
REMARK       I    between atoms: C5_6  and  N2_8 
REMARK    3  A    between atoms: N2_8  and  C6_10 
REMARK    4  A    between atoms: C6_10  and  C7_11 
REMARK    5  A    between atoms: C6_10  and  C11_27 
REMARK    6  A    between atoms: C7_11  and  N3_12 
REMARK    7  A    between atoms: N3_12  and  C8_14 
REMARK    8  A    between atoms: C9_17  and  N5_18 
REMARK       I    between atoms: C11_27  and  N8_29 
REMARK    9  A    between atoms: N8_29  and  N9_31 
REMARK   10  A    between atoms: N9_31  and  N10_33 
ROOT
HETATM    1  C6  UNL     1       0.732   1.329   0.129  1.00  0.00     0.196 C 
ENDROOT
BRANCH   1   2
HETATM    2  N2  UNL     1      -0.157   0.327  -0.370  1.00  0.00    -0.345 N 
HETATM    3  C5  UNL     1      -1.549   0.285   0.007  1.00  0.00     0.244 C 
HETATM    4  O1  UNL     1      -1.965   1.169   0.797  1.00  0.00    -0.272 OA
ATOM      5  H2  UNL     1       0.203  -0.379  -1.012  1.00  0.00     0.163 HD
BRANCH   3   6
HETATM    6  C4  UNL     1      -2.468  -0.729  -0.491  1.00  0.00     0.338 C 
BRANCH   6   7
HETATM    7  N1  UNL     1      -3.820  -0.661  -0.085  1.00  0.00    -0.070 N 
HETATM    8  C1  UNL     1      -4.101  -0.150   1.216  1.00  0.00     0.272 C 
HETATM    9  C2  UNL     1      -4.353  -2.041  -0.114  1.00  0.00     0.272 C 
HETATM   10  C3  UNL     1      -4.664   0.064  -1.033  1.00  0.00     0.272 C 
ENDBRANCH   6   7
ENDBRANCH   3   6
ENDBRANCH   1   2
BRANCH   1  11
HETATM   11  C7  UNL     1       2.165   0.886   0.280  1.00  0.00     0.173 C 
BRANCH  11  12
HETATM   12  N3  UNL     1       2.343  -0.210   1.159  1.00  0.00    -0.223 N 
ATOM     13  H3  UNL     1       1.807  -0.182   2.026  1.00  0.00     0.177 HD
BRANCH  12  14
HETATM   14  C8  UNL     1       3.101  -1.237   0.993  1.00  0.00     0.696 A 
HETATM   15  N4  UNL     1       3.087  -2.140   1.987  1.00  0.00    -0.022 N 
HETATM   16  C9  UNL     1       3.836  -3.257   1.929  1.00  0.00     0.694 A 
ATOM     17  H4  UNL     1       2.497  -1.976   2.803  1.00  0.00     0.203 HD
HETATM   18  N6  UNL     1       4.602  -3.431   0.830  1.00  0.00    -0.141 N 
HETATM   19  C10 UNL     1       4.622  -2.543  -0.157  1.00  0.00     0.352 A 
ATOM     20  H6  UNL     1       5.181  -4.268   0.756  1.00  0.00     0.189 HD
HETATM   21  O2  UNL     1       5.333  -2.688  -1.192  1.00  0.00    -0.246 OA
HETATM   22  N7  UNL     1       3.866  -1.407  -0.106  1.00  0.00    -0.140 N 
ATOM     23  H7  UNL     1       3.879  -0.721  -0.861  1.00  0.00     0.189 HD
BRANCH  16  24
HETATM   24  N5  UNL     1       3.842  -4.133   2.863  1.00  0.00    -0.234 N 
ATOM     25  H52 UNL     1       3.264  -4.002   3.693  1.00  0.00     0.174 HD
ATOM     26  H51 UNL     1       4.410  -4.979   2.819  1.00  0.00     0.174 HD
ENDBRANCH  16  24
ENDBRANCH  12  14
ENDBRANCH  11  12
ENDBRANCH   1  11
BRANCH   1  27
HETATM   27  C11 UNL     1       0.764   2.517  -0.823  1.00  0.00     0.261 C 
HETATM   28  O3  UNL     1       0.031   2.432  -1.833  1.00  0.00    -0.269 OA
HETATM   29  N8  UNL     1       1.572   3.638  -0.566  1.00  0.00    -0.254 N 
ATOM     30  H8  UNL     1       2.146   3.644   0.277  1.00  0.00     0.191 HD
BRANCH  29  31
HETATM   31  N9  UNL     1       1.620   4.723  -1.401  1.00  0.00    -0.247 N 
ATOM     32  H9  UNL     1       2.356   5.425  -1.325  1.00  0.00     0.207 HD
BRANCH  31  33
HETATM   33  N10 UNL     1       0.628   4.818  -2.346  1.00  0.00    -0.331 N 
ATOM     34 2H10 UNL     1      -0.101   4.108  -2.410  1.00  0.00     0.178 HD
ATOM     35 1H10 UNL     1       0.664   5.626  -2.968  1.00  0.00     0.178 HD
ENDBRANCH  31  33
ENDBRANCH  29  31
ENDBRANCH   1  27
TORSDOF 10
