REMARK  7 active torsions:
REMARK  status: ('A' for Active; 'I' for Inactive)
REMARK       I    between atoms: C1_4  and  N3_6 
REMARK    1  A    between atoms: N3_6  and  O1_8 
REMARK    2  A    between atoms: O1_8  and  C2_9 
REMARK    3  A    between atoms: C2_9  and  C3_10 
REMARK    4  A    between atoms: C3_10  and  N4_11 
REMARK       I    between atoms: N4_11  and  C4_13 
REMARK    5  A    between atoms: C4_13  and  C5_15 
REMARK    6  A    between atoms: N5_16  and  C6_17 
REMARK    7  A    between atoms: N6_18  and  N7_20 
ROOT
HETATM    1  C5  UNL     1      -1.555   0.631   0.279  1.00  0.00     0.223 C 
HETATM    2  N5  UNL     1      -2.513   1.401  -0.525  1.00  0.00    -0.360 N 
HETATM    3  C7  UNL     1      -2.793   0.637  -1.708  1.00  0.00     0.128 C 
HETATM    4  C8  UNL     1      -2.265  -0.768  -1.464  1.00  0.00     0.072 C 
HETATM    5  C9  UNL     1      -2.093  -0.770   0.059  1.00  0.00     0.235 C 
HETATM    6  N8  UNL     1      -1.210  -1.790   0.500  1.00  0.00    -0.053 N 
ATOM      7  H81 UNL     1      -0.425  -1.405   1.025  1.00  0.00     0.278 HD
ATOM      8  H82 UNL     1      -0.692  -2.199  -0.278  1.00  0.00     0.278 HD
HETATM    9  C10 UNL     1      -1.925  -2.818   1.273  1.00  0.00     0.253 C 
HETATM   10  C11 UNL     1      -3.115  -3.317   0.489  1.00  0.00     0.150 C 
HETATM   11  N9  UNL     1      -4.073  -2.193   0.537  1.00  0.00    -0.357 N 
ATOM     12  H9  UNL     1      -5.084  -2.326   0.533  1.00  0.00     0.162 HD
HETATM   13  C12 UNL     1      -3.466  -0.920   0.589  1.00  0.00     0.257 C 
HETATM   14  O3  UNL     1      -4.071   0.042   1.068  1.00  0.00    -0.271 OA
ENDROOT
BRANCH   1  15
HETATM   15  C4  UNL     1      -0.199   0.735  -0.324  1.00  0.00     0.243 C 
HETATM   16  N4  UNL     1       1.016   0.501   0.343  1.00  0.00    -0.357 N 
ATOM     17  H4  UNL     1       1.010   0.239   1.329  1.00  0.00     0.162 HD
HETATM   18  O2  UNL     1      -0.107   1.070  -1.558  1.00  0.00    -0.271 OA
BRANCH  16  19
HETATM   19  C3  UNL     1       2.268   0.628  -0.354  1.00  0.00     0.151 C 
BRANCH  19  20
HETATM   20  C2  UNL     1       3.450   0.332   0.548  1.00  0.00     0.220 C 
BRANCH  20  21
HETATM   21  O1  UNL     1       4.648   0.459  -0.138  1.00  0.00    -0.276 OA
BRANCH  21  22
HETATM   22  N3  UNL     1       5.703   0.202   0.640  1.00  0.00    -0.239 N 
HETATM   23  C1  UNL     1       6.968  -0.094   0.107  1.00  0.00     0.205 C 
HETATM   24  N1  UNL     1       7.274  -1.346  -0.110  1.00  0.00    -0.372 N 
HETATM   25  N2  UNL     1       7.912   0.911  -0.200  1.00  0.00    -0.062 NA
ATOM     26  H12 UNL     1       8.193  -1.561  -0.497  1.00  0.00     0.158 HD
ATOM     27  H11 UNL     1       6.592  -2.072   0.112  1.00  0.00     0.158 HD
ATOM     28  H3  UNL     1       5.586   0.221   1.653  1.00  0.00     0.197 HD
ENDBRANCH  21  22
ENDBRANCH  20  21
ENDBRANCH  19  20
ENDBRANCH  16  19
ENDBRANCH   1  15
BRANCH   2  29
HETATM   29  C6  UNL     1      -3.051   2.670  -0.184  1.00  0.00     0.195 C 
HETATM   30  N6  UNL     1      -4.143   3.130  -0.678  1.00  0.00    -0.303 N 
ATOM     31  H6  UNL     1      -4.675   2.580  -1.353  1.00  0.00     0.187 HD
BRANCH  30  32
HETATM   32  N7  UNL     1      -4.595   4.389  -0.283  1.00  0.00    -0.344 N 
ATOM     33  H72 UNL     1      -4.051   4.926   0.393  1.00  0.00     0.176 HD
ATOM     34  H71 UNL     1      -5.463   4.754  -0.675  1.00  0.00     0.176 HD
ENDBRANCH  30  32
ENDBRANCH   2  29
TORSDOF 7
