REMARK  9 active torsions:
REMARK  status: ('A' for Active; 'I' for Inactive)
REMARK    1  A    between atoms: C3_5  and  N2_6 
REMARK    2  A    between atoms: N3_9  and  C6_10 
REMARK    3  A    between atoms: C6_10  and  C7_11 
REMARK    4  A    between atoms: C7_11  and  N4_12 
REMARK    5  A    between atoms: C10_15  and  N5_16 
REMARK    6  A    between atoms: N5_16  and  C11_18 
REMARK    7  A    between atoms: C14_23  and  N8_24 
REMARK    8  A    between atoms: N10_31  and  O2_32 
REMARK    9  A    between atoms: C19_38  and  N12_39 
ROOT
HETATM    1  N4  UNL     1      -0.450   1.039  -2.091  1.00  0.00    -0.274 N 
HETATM    2  C8  UNL     1      -0.681   2.082  -2.972  1.00  0.00     0.116 A 
HETATM    3  C9  UNL     1      -2.023   2.360  -2.873  1.00  0.00     0.071 A 
HETATM    4  C10 UNL     1      -2.590   1.511  -1.960  1.00  0.00     0.154 A 
HETATM    5  N10 UNL     1      -1.565   0.722  -1.516  1.00  0.00    -0.144 N 
ENDROOT
BRANCH   1   6
HETATM    6  C7  UNL     1       0.853   0.427  -1.913  1.00  0.00     0.181 C 
BRANCH   6   7
HETATM    7  C6  UNL     1       1.724   1.083  -0.918  1.00  0.00     0.294 C 
BRANCH   7   8
HETATM    8  N3  UNL     1       1.275   1.104   0.445  1.00  0.00     0.093 N 
HETATM    9  C5  UNL     1       1.345  -0.211   1.012  1.00  0.00     0.293 C 
HETATM   10  C4  UNL     1       2.417  -0.299   2.110  1.00  0.00     0.171 C 
HETATM   11  N2  UNL     1       3.598   0.301   1.556  1.00  0.00    -0.214 N 
HETATM   12  C18 UNL     1       3.504   1.746   1.286  1.00  0.00     0.171 C 
HETATM   13  C17 UNL     1       2.023   2.100   1.167  1.00  0.00     0.293 C 
BRANCH  11  14
HETATM   14  C3  UNL     1       4.792  -0.406   1.268  1.00  0.00     0.696 A 
HETATM   15  N1  UNL     1       5.851   0.268   0.770  1.00  0.00    -0.180 N 
HETATM   16  C2  UNL     1       6.996  -0.354   0.481  1.00  0.00     0.109 A 
ATOM     17  H1  UNL     1       5.774   1.273   0.612  1.00  0.00     0.185 HD
HETATM   18  C1  UNL     1       8.133   0.448  -0.068  1.00  0.00     0.090 C 
HETATM   19  N13 UNL     1       7.118  -1.684   0.684  1.00  0.00    -0.180 N 
HETATM   20  C19 UNL     1       6.063  -2.344   1.178  1.00  0.00     0.691 A 
ATOM     21  H13 UNL     1       7.988  -2.171   0.467  1.00  0.00     0.185 HD
HETATM   22  N11 UNL     1       4.901  -1.717   1.472  1.00  0.00    -0.022 N 
ATOM     23  H11 UNL     1       4.113  -2.245   1.848  1.00  0.00     0.203 HD
BRANCH  20  24
HETATM   24  N12 UNL     1       6.147  -3.623   1.384  1.00  0.00    -0.234 N 
ATOM     25 2H12 UNL     1       5.343  -4.126   1.760  1.00  0.00     0.174 HD
ATOM     26 1H12 UNL     1       7.023  -4.096   1.162  1.00  0.00     0.174 HD
ENDBRANCH  20  24
ENDBRANCH  11  14
ENDBRANCH   7   8
ENDBRANCH   6   7
ENDBRANCH   1   6
BRANCH   5  27
HETATM   27  O2  UNL     1      -1.777  -0.264  -0.599  1.00  0.00    -0.266 OA
ATOM     28  H2  UNL     1      -2.596  -0.497  -0.177  1.00  0.00     0.247 HD
ENDBRANCH   5  27
BRANCH   4  29
HETATM   29  N5  UNL     1      -3.939   1.451  -1.554  1.00  0.00    -0.332 N 
ATOM     30  H5  UNL     1      -4.583   2.114  -1.985  1.00  0.00     0.168 HD
BRANCH  29  31
HETATM   31  C11 UNL     1      -4.472   0.568  -0.618  1.00  0.00     0.145 A 
HETATM   32  C12 UNL     1      -4.970  -0.660  -0.985  1.00  0.00     0.166 A 
HETATM   33  N6  UNL     1      -4.977  -1.113  -2.328  1.00  0.00    -0.079 NA
HETATM   34  N7  UNL     1      -5.486  -1.495  -0.033  1.00  0.00    -0.172 N 
HETATM   35  C13 UNL     1      -6.009  -2.788  -0.422  1.00  0.00     0.177 C 
HETATM   36  C14 UNL     1      -5.526  -1.160   1.260  1.00  0.00     0.683 A 
HETATM   37  N9  UNL     1      -5.037   0.052   1.641  1.00  0.00    -0.150 N 
HETATM   38  C15 UNL     1      -5.085   0.402   3.042  1.00  0.00     0.179 C 
HETATM   39  C16 UNL     1      -4.531   0.876   0.722  1.00  0.00     0.291 A 
HETATM   40  O1  UNL     1      -4.087   1.988   1.112  1.00  0.00    -0.265 OA
BRANCH  36  41
HETATM   41  N8  UNL     1      -6.015  -1.934   2.185  1.00  0.00    -0.234 N 
ATOM     42  H82 UNL     1      -6.381  -2.842   1.900  1.00  0.00     0.174 HD
ATOM     43  H81 UNL     1      -6.046  -1.678   3.172  1.00  0.00     0.174 HD
ENDBRANCH  36  41
ENDBRANCH  29  31
ENDBRANCH   4  29
TORSDOF 9
