REMARK  8 active torsions:
REMARK  status: ('A' for Active; 'I' for Inactive)
REMARK    1  A    between atoms: N1_1  and  C1_4 
REMARK    2  A    between atoms: C3_8  and  C4_9 
REMARK    3  A    between atoms: C5_14  and  C6_15 
REMARK    4  A    between atoms: C6_15  and  N5_16 
REMARK    5  A    between atoms: C10_21  and  S1_22 
REMARK    6  A    between atoms: S1_22  and  C11_25 
REMARK    7  A    between atoms: C11_25  and  N6_26 
REMARK    8  A    between atoms: N6_26  and  C12_28 
ROOT
HETATM    1  N5  UNL     1       0.191   0.810  -0.302  1.00  0.00    -0.344 N 
HETATM    2  C7  UNL     1       0.840   0.806  -1.545  1.00  0.00     0.091 C 
HETATM    3  C8  UNL     1       1.024  -0.599  -2.087  1.00  0.00     0.212 C 
HETATM    4  O1  UNL     1       1.169  -1.421  -0.982  1.00  0.00    -0.383 OA
HETATM    5  C9  UNL     1       0.026  -1.562  -0.250  1.00  0.00     0.209 C 
HETATM    6  C10 UNL     1      -0.753  -0.246  -0.059  1.00  0.00     0.236 C 
ENDROOT
BRANCH   1   7
HETATM    7  C6  UNL     1       0.799   1.416   0.799  1.00  0.00     0.149 C 
BRANCH   7   8
HETATM    8  C5  UNL     1       2.116   0.862   1.201  1.00  0.00     0.180 A 
HETATM    9  N4  UNL     1       2.295  -0.099   2.110  1.00  0.00    -0.277 N 
HETATM   10  N3  UNL     1       3.590  -0.320   2.191  1.00  0.00    -0.276 N 
ATOM     11  H4  UNL     1       1.565  -0.573   2.642  1.00  0.00     0.189 HD
HETATM   12  C4  UNL     1       4.241   0.490   1.343  1.00  0.00     0.193 A 
ATOM     13  H3  UNL     1       4.032  -1.004   2.806  1.00  0.00     0.189 HD
HETATM   14  O5  UNL     1       3.300   1.187   0.766  1.00  0.00    -0.271 OA
BRANCH  12  15
HETATM   15  C3  UNL     1       5.700   0.547   1.139  1.00  0.00     0.101 A 
HETATM   16  N2  UNL     1       6.260   1.389   0.268  1.00  0.00    -0.358 N 
HETATM   17  C2  UNL     1       7.593   1.407   0.115  1.00  0.00     0.136 A 
ATOM     18  H2  UNL     1       5.675   2.019  -0.281  1.00  0.00     0.165 HD
HETATM   19  C1  UNL     1       8.444   0.581   0.826  1.00  0.00     0.114 A 
HETATM   20  N10 UNL     1       7.838  -0.256   1.696  1.00  0.00    -0.349 N 
HETATM   21  C15 UNL     1       6.510  -0.290   1.864  1.00  0.00     0.123 A 
ATOM     22  H10 UNL     1       8.417  -0.889   2.248  1.00  0.00     0.167 HD
BRANCH  19  23
HETATM   23  N1  UNL     1       9.726   0.602   0.674  1.00  0.00    -0.384 N 
ATOM     24  H12 UNL     1      10.184   1.234   0.017  1.00  0.00     0.157 HD
ATOM     25  H11 UNL     1      10.354  -0.007   1.198  1.00  0.00     0.157 HD
ENDBRANCH  19  23
ENDBRANCH  12  15
ENDBRANCH   7   8
ENDBRANCH   1   7
BRANCH   6  26
HETATM   26  S1  UNL     1      -2.315  -0.019  -1.024  1.00  0.00     0.184 S 
HETATM   27  O2  UNL     1      -2.240   1.349  -2.466  1.00  0.00    -0.224 OA
HETATM   28  O3  UNL     1      -2.631   1.655  -0.172  1.00  0.00    -0.224 OA
BRANCH  26  29
HETATM   29  C11 UNL     1      -4.013  -0.601  -0.569  1.00  0.00     0.264 C 
BRANCH  29  30
HETATM   30  N6  UNL     1      -5.137   0.277  -0.895  1.00  0.00    -0.357 N 
ATOM     31  H6  UNL     1      -4.978   1.118  -1.450  1.00  0.00     0.162 HD
BRANCH  30  32
HETATM   32  C12 UNL     1      -6.320  -0.003  -0.488  1.00  0.00     0.186 A 
HETATM   33  N7  UNL     1      -6.589  -1.093   0.245  1.00  0.00    -0.280 N 
HETATM   34  N8  UNL     1      -7.820  -1.380   0.665  1.00  0.00    -0.294 N 
ATOM     35  H7  UNL     1      -5.825  -1.724   0.489  1.00  0.00     0.188 HD
HETATM   36  C13 UNL     1      -8.846  -0.570   0.361  1.00  0.00     0.200 A 
ATOM     37  H8  UNL     1      -7.984  -2.220   1.220  1.00  0.00     0.187 HD
HETATM   38  N9  UNL     1      -8.619   0.524  -0.366  1.00  0.00    -0.315 N 
HETATM   39  C14 UNL     1      -7.374   0.829  -0.800  1.00  0.00     0.291 A 
ATOM     40  H9  UNL     1      -9.397   1.142  -0.599  1.00  0.00     0.170 HD
HETATM   41  O4  UNL     1      -7.187   1.882  -1.494  1.00  0.00    -0.264 OA
ENDBRANCH  30  32
ENDBRANCH  29  30
ENDBRANCH  26  29
ENDBRANCH   6  26
TORSDOF 8
