REMARK  2 active torsions:
REMARK  status: ('A' for Active; 'I' for Inactive)
REMARK    1  A    between atoms: C5_5  and  C7_7 
REMARK    2  A    between atoms: C7_7  and  N1_8 
ROOT
HETATM    1  C1  UNL     1       3.370   0.395  -0.361  1.00  0.00     0.044 C 
HETATM    2  C2  UNL     1       1.954   0.316   0.072  1.00  0.00    -0.067 C 
HETATM    3  C3  UNL     1       1.243   1.419   0.256  1.00  0.00    -0.022 C 
HETATM    4  C4  UNL     1      -0.153   1.257   0.686  1.00  0.00     0.044 C 
HETATM    5  C5  UNL     1      -0.928   0.213  -0.088  1.00  0.00     0.050 C 
HETATM    6  C6  UNL     1      -1.421   0.927  -1.357  1.00  0.00     0.023 C 
HETATM    7  C8  UNL     1      -0.041  -0.892  -0.483  1.00  0.00     0.269 C 
HETATM    8  F1  UNL     1      -0.625  -2.141  -0.463  1.00  0.00    -0.204 F 
HETATM    9  F2  UNL     1       0.385  -0.696  -1.797  1.00  0.00    -0.204 F 
HETATM   10  C9  UNL     1       1.265  -0.980   0.318  1.00  0.00     0.160 C 
HETATM   11  S1  UNL     1       0.993  -1.340   2.044  1.00  0.00    -0.081 SA
ENDROOT
BRANCH   5  12
HETATM   12  C7  UNL     1      -2.152  -0.174   0.680  1.00  0.00     0.245 C 
BRANCH  12  13
HETATM   13  N1  UNL     1      -2.984  -1.137   0.099  1.00  0.00    -0.078 N 
ATOM     14  H13 UNL     1      -3.250  -0.837  -0.839  1.00  0.00     0.274 HD
ATOM     15  H12 UNL     1      -2.440  -1.972  -0.119  1.00  0.00     0.274 HD
ATOM     16  H11 UNL     1      -3.819  -1.401   0.623  1.00  0.00     0.274 HD
ENDBRANCH  12  13
ENDBRANCH   5  12
TORSDOF 2
