REMARK  2 active torsions:
REMARK  status: ('A' for Active; 'I' for Inactive)
REMARK    1  A    between atoms: C5_5  and  O1_6 
REMARK    2  A    between atoms: C13_18  and  O4_19 
ROOT
HETATM    1  C1  UNL     1       4.021  -0.293  -0.199  1.00  0.00     0.046 C 
HETATM    2  C2  UNL     1       2.567  -0.552  -0.289  1.00  0.00    -0.056 C 
HETATM    3  C3  UNL     1       1.993  -0.780  -1.471  1.00  0.00    -0.019 C 
HETATM    4  C4  UNL     1       0.523  -1.029  -1.445  1.00  0.00     0.071 C 
HETATM    5  C5  UNL     1      -0.129   0.092  -0.729  1.00  0.00     0.128 C 
HETATM    6  C6  UNL     1       0.521   0.355   0.634  1.00  0.00     0.121 C 
HETATM    7  C7  UNL     1       1.061   1.773   0.680  1.00  0.00     0.052 C 
HETATM    8  O2  UNL     1      -0.526   0.203   1.584  1.00  0.00    -0.365 OA
HETATM    9  C8  UNL     1      -1.531   0.777   0.929  1.00  0.00     0.176 C 
HETATM   10  C9  UNL     1      -2.925   0.713   1.286  1.00  0.00     0.114 C 
HETATM   11 BR1  UNL     1      -3.451   2.411   2.106  1.00  0.00    -0.086 Br
HETATM   12  C10 UNL     1      -3.564   0.622  -0.114  1.00  0.00     0.187 C 
HETATM   13  O3  UNL     1      -2.491   0.658  -1.019  1.00  0.00    -0.373 OA
HETATM   14  C11 UNL     1      -1.540  -0.070  -0.369  1.00  0.00     0.118 C 
HETATM   15  C12 UNL     1      -2.038  -1.443  -0.150  1.00  0.00     0.052 C 
HETATM   16  C13 UNL     1       1.666  -0.571   0.898  1.00  0.00     0.184 C 
ENDROOT
BRANCH   5  17
HETATM   17  O1  UNL     1       0.014   1.237  -1.547  1.00  0.00    -0.383 OA
ATOM     18  H1  UNL     1      -0.404   1.956  -1.088  1.00  0.00     0.210 HD
ENDBRANCH   5  17
BRANCH  16  19
HETATM   19  O4  UNL     1       1.307  -1.833   1.298  1.00  0.00    -0.388 OA
ATOM     20  H4  UNL     1       0.733  -1.845   2.055  1.00  0.00     0.210 HD
ENDBRANCH  16  19
TORSDOF 2
