REMARK  7 active torsions:
REMARK  status: ('A' for Active; 'I' for Inactive)
REMARK    1  A    between atoms: C2_2  and  C3_3 
REMARK    2  A    between atoms: C3_3  and  C4_4 
REMARK    3  A    between atoms: C4_4  and  O1_5 
REMARK    4  A    between atoms: O1_5  and  C5_6 
REMARK    5  A    between atoms: C5_6  and  C6_7 
REMARK    6  A    between atoms: C6_7  and  N1_8 
REMARK    7  A    between atoms: N1_8  and  C7_11 
ROOT
HETATM    1  C5  UNL     1       0.999   1.534  -0.104  1.00  0.00     0.195 C 
ENDROOT
BRANCH   1   2
HETATM    2  O1  UNL     1      -0.343   1.332  -0.014  1.00  0.00    -0.389 OA
BRANCH   2   3
HETATM    3  C4  UNL     1      -0.732   0.009  -0.152  1.00  0.00     0.177 C 
BRANCH   3   4
HETATM    4  C3  UNL     1      -2.262  -0.101  -0.078  1.00  0.00    -0.019 A 
HETATM    5  C10 UNL     1      -2.868   0.829   0.940  1.00  0.00     0.012 A 
HETATM    6  C11 UNL     1      -3.098   1.010  -0.514  1.00  0.00     0.012 A 
BRANCH   4   7
HETATM    7  C2  UNL     1      -2.752  -1.496  -0.215  1.00  0.00     0.007 C 
HETATM    8  C1  UNL     1      -4.224  -1.698  -0.153  1.00  0.00     0.006 C 
ENDBRANCH   4   7
ENDBRANCH   3   4
ENDBRANCH   2   3
ENDBRANCH   1   2
BRANCH   1   9
HETATM    9  C6  UNL     1       1.727   0.757   0.960  1.00  0.00     0.258 C 
BRANCH   9  10
HETATM   10  N1  UNL     1       3.161   1.010   0.830  1.00  0.00    -0.069 N 
ATOM     11  H12 UNL     1       3.390   2.003   0.881  1.00  0.00     0.277 HD
ATOM     12  H11 UNL     1       3.689   0.703   1.647  1.00  0.00     0.277 HD
BRANCH  10  13
HETATM   13  C7  UNL     1       3.618   0.402  -0.380  1.00  0.00     0.186 A 
HETATM   14  C8  UNL     1       3.551  -1.054  -0.530  1.00  0.00     0.035 A 
HETATM   15  C9  UNL     1       4.891  -0.391  -0.339  1.00  0.00     0.035 A 
ENDBRANCH  10  13
ENDBRANCH   9  10
ENDBRANCH   1   9
TORSDOF 7
