REMARK  7 active torsions:
REMARK  status: ('A' for Active; 'I' for Inactive)
REMARK    1  A    between atoms: C2_2  and  C3_3 
REMARK    2  A    between atoms: C3_3  and  C4_4 
REMARK    3  A    between atoms: C3_3  and  C7_10 
REMARK    4  A    between atoms: C4_4  and  C5_5 
REMARK    5  A    between atoms: C5_5  and  N1_6 
REMARK    6  A    between atoms: C7_10  and  O1_11 
REMARK    7  A    between atoms: O1_11  and  C8_12 
ROOT
HETATM    1  C3  UNL     1       0.378  -1.145  -0.374  1.00  0.00     0.010 C 
ENDROOT
BRANCH   1   2
HETATM    2  C2  UNL     1       0.999  -2.561  -0.209  1.00  0.00     0.002 C 
HETATM    3  C1  UNL     1       1.840  -2.700   1.002  1.00  0.00     0.005 C 
ENDBRANCH   1   2
BRANCH   1   4
HETATM    4  C4  UNL     1       1.529  -0.184  -0.454  1.00  0.00     0.034 C 
BRANCH   4   5
HETATM    5  C5  UNL     1       1.183   1.237  -0.629  1.00  0.00     0.232 C 
BRANCH   5   6
HETATM    6  N1  UNL     1       2.441   1.980  -0.715  1.00  0.00    -0.079 N 
HETATM    7  C6  UNL     1       3.140   1.972   0.551  1.00  0.00     0.266 C 
ATOM      8  H12 UNL     1       3.031   1.633  -1.471  1.00  0.00     0.276 HD
ATOM      9  H11 UNL     1       2.293   2.930  -1.056  1.00  0.00     0.276 HD
ENDBRANCH   5   6
ENDBRANCH   4   5
ENDBRANCH   1   4
BRANCH   1  10
HETATM   10  C7  UNL     1      -0.508  -0.888   0.789  1.00  0.00     0.172 C 
BRANCH  10  11
HETATM   11  O1  UNL     1      -1.243   0.256   0.814  1.00  0.00    -0.386 OA
BRANCH  11  12
HETATM   12  C8  UNL     1      -2.203   0.226  -0.195  1.00  0.00     0.121 A 
HETATM   13  C9  UNL     1      -3.611   0.306   0.454  1.00  0.00     0.032 A 
HETATM   14  C10 UNL     1      -3.833   1.640  -0.202  1.00  0.00     0.005 A 
HETATM   15  C11 UNL     1      -2.516   1.487  -0.890  1.00  0.00     0.032 A 
ENDBRANCH  11  12
ENDBRANCH  10  11
ENDBRANCH   1  10
TORSDOF 7
