REMARK  6 active torsions:
REMARK  status: ('A' for Active; 'I' for Inactive)
REMARK    1  A    between atoms: C2_2  and  C4_4 
REMARK    2  A    between atoms: C4_4  and  N1_5 
REMARK       I    between atoms: N1_5  and  C5_7 
REMARK    3  A    between atoms: C5_7  and  C6_9 
REMARK    4  A    between atoms: C7_10  and  C8_11 
REMARK    5  A    between atoms: C14_19  and  C15_20 
REMARK    6  A    between atoms: C18_25  and  N3_26 
ROOT
HETATM    1  C6  UNL     1      -0.249  -0.365   0.211  1.00  0.00     0.100 C 
HETATM    2  C7  UNL     1      -0.171  -1.871   0.216  1.00  0.00     0.101 C 
HETATM    3  C9  UNL     1      -1.342  -2.357  -0.618  1.00  0.00     0.025 C 
HETATM    4  C10 UNL     1      -2.662  -1.983  -0.071  1.00  0.00    -0.046 C 
HETATM    5  C11 UNL     1      -3.679  -2.130  -1.211  1.00  0.00     0.015 C 
HETATM    6  C12 UNL     1      -3.071  -3.036   0.951  1.00  0.00     0.015 C 
HETATM    7  C13 UNL     1      -2.758  -0.616   0.505  1.00  0.00     0.019 C 
HETATM    8  C14 UNL     1      -1.502   0.009   0.965  1.00  0.00     0.034 C 
ENDROOT
BRANCH   8   9
HETATM    9  C15 UNL     1      -1.668   1.511   1.000  1.00  0.00    -0.035 A 
HETATM   10  C16 UNL     1      -1.753   2.230   2.171  1.00  0.00     0.095 A 
HETATM   11  N2  UNL     1      -1.901   3.562   2.203  1.00  0.00    -0.372 N 
HETATM   12  C17 UNL     1      -1.972   4.263   1.075  1.00  0.00     0.123 A 
ATOM     13  H2  UNL     1      -1.960   4.042   3.101  1.00  0.00     0.164 HD
HETATM   14  C18 UNL     1      -1.895   3.621  -0.136  1.00  0.00     0.118 A 
HETATM   15  C19 UNL     1      -1.743   2.247  -0.164  1.00  0.00     0.046 A 
BRANCH  14  16
HETATM   16  N3  UNL     1      -1.966   4.322  -1.361  1.00  0.00    -0.114 N 
HETATM   17  O4  UNL     1      -1.894   3.720  -2.433  1.00  0.00    -0.532 OA
HETATM   18  O5  UNL     1      -2.115   5.676  -1.347  1.00  0.00    -0.532 OA
ENDBRANCH  14  16
ENDBRANCH   8   9
BRANCH   1  19
HETATM   19  C5  UNL     1       0.927   0.139   0.952  1.00  0.00     0.223 C 
HETATM   20  N1  UNL     1       2.191   0.195   0.353  1.00  0.00    -0.360 N 
ATOM     21  H1  UNL     1       2.321  -0.107  -0.612  1.00  0.00     0.162 HD
HETATM   22  O1  UNL     1       0.785   0.516   2.129  1.00  0.00    -0.273 OA
BRANCH  20  23
HETATM   23  C4  UNL     1       3.321   0.694   1.135  1.00  0.00     0.126 C 
BRANCH  23  24
HETATM   24  C2  UNL     1       4.596   0.694   0.363  1.00  0.00    -0.005 C 
HETATM   25  C1  UNL     1       4.487   1.575  -0.875  1.00  0.00     0.011 C 
HETATM   26  C3  UNL     1       5.034  -0.673  -0.077  1.00  0.00     0.011 C 
ENDBRANCH  23  24
ENDBRANCH  20  23
ENDBRANCH   1  19
BRANCH   2  27
HETATM   27  C8  UNL     1       1.074  -2.422  -0.364  1.00  0.00     0.177 C 
HETATM   28  O2  UNL     1       1.973  -2.941   0.343  1.00  0.00    -0.648 OA
HETATM   29  O3  UNL     1       1.308  -2.388  -1.745  1.00  0.00    -0.648 OA
ENDBRANCH   2  27
TORSDOF 6
