REMARK  6 active torsions:
REMARK  status: ('A' for Active; 'I' for Inactive)
REMARK    1  A    between atoms: C2_2  and  C4_4 
REMARK    2  A    between atoms: C4_4  and  C5_5 
REMARK    3  A    between atoms: C9_9  and  O1_10 
REMARK    4  A    between atoms: N3_19  and  S2_20 
REMARK    5  A    between atoms: S2_20  and  C13_23 
REMARK    6  A    between atoms: C13_23  and  C14_24 
ROOT
HETATM    1  C5  UNL     1      -0.327   0.891  -0.376  1.00  0.00     0.079 C 
HETATM    2  C6  UNL     1      -1.657   0.203  -0.585  1.00  0.00     0.058 C 
HETATM    3  C7  UNL     1      -1.374  -1.202  -0.107  1.00  0.00    -0.033 C 
HETATM    4  C8  UNL     1      -2.375  -2.201  -0.274  1.00  0.00     0.091 A 
HETATM    5  C9  UNL     1      -2.446  -3.199  -1.270  1.00  0.00     0.170 A 
HETATM    6  N1  UNL     1      -3.469  -4.040  -1.011  1.00  0.00    -0.312 N 
ATOM      7  H1  UNL     1      -3.744  -4.847  -1.571  1.00  0.00     0.170 HD
HETATM    8  C10 UNL     1      -4.052  -3.622   0.108  1.00  0.00     0.180 A 
HETATM    9  S1  UNL     1      -5.337  -4.358   0.814  1.00  0.00    -0.040 SA
HETATM   10  N2  UNL     1      -3.410  -2.521   0.561  1.00  0.00    -0.324 N 
HETATM   11  C11 UNL     1      -3.745  -1.851   1.806  1.00  0.00     0.159 C 
HETATM   12  C12 UNL     1       0.056  -1.396  -0.199  1.00  0.00     0.144 C 
HETATM   13  N3  UNL     1       0.645  -0.046  -0.044  1.00  0.00    -0.202 NA
ENDROOT
BRANCH   1  14
HETATM   14  C4  UNL     1      -0.457   2.122   0.507  1.00  0.00     0.025 C 
BRANCH  14  15
HETATM   15  C2  UNL     1      -1.360   3.153  -0.206  1.00  0.00    -0.021 C 
HETATM   16  C1  UNL     1      -0.732   3.576  -1.508  1.00  0.00     0.009 C 
HETATM   17  C3  UNL     1      -1.562   4.303   0.742  1.00  0.00     0.009 C 
ENDBRANCH  14  15
ENDBRANCH   1  14
BRANCH   5  18
HETATM   18  O1  UNL     1      -1.596  -3.285  -2.353  1.00  0.00    -0.344 OA
ATOM     19  H1  UNL     1      -1.644  -3.957  -3.023  1.00  0.00     0.219 HD
ENDBRANCH   5  18
BRANCH  13  20
HETATM   20  S2  UNL     1       1.994   0.069  -1.113  1.00  0.00     0.212 S 
HETATM   21  O2  UNL     1       1.750   1.119  -2.200  1.00  0.00    -0.211 OA
HETATM   22  O3  UNL     1       2.270  -1.251  -1.774  1.00  0.00    -0.211 OA
BRANCH  20  23
HETATM   23  C13 UNL     1       3.396   0.603  -0.209  1.00  0.00     0.161 C 
BRANCH  23  24
HETATM   24  C14 UNL     1       3.860  -0.316   0.881  1.00  0.00    -0.007 C 
HETATM   25  C15 UNL     1       5.046   0.424   1.540  1.00  0.00     0.010 C 
HETATM   26  C16 UNL     1       4.495  -1.595   0.326  1.00  0.00     0.010 C 
ENDBRANCH  23  24
ENDBRANCH  20  23
ENDBRANCH  13  20
TORSDOF 6
