REMARK  2 active torsions:
REMARK  status: ('A' for Active; 'I' for Inactive)
REMARK    1  A    between atoms: N1_2  and  C3_4 
REMARK    2  A    between atoms: C5_11  and  N4_12 
ROOT
HETATM    1  C3  UNL     1       0.993   0.020  -0.615  1.00  0.00     0.143 A 
HETATM    2  N2  UNL     1       1.100  -0.059  -1.955  1.00  0.00    -0.242 N 
ATOM      3  H2  UNL     1       1.979  -0.040  -2.473  1.00  0.00     0.196 HD
HETATM    4  O1  UNL     1      -0.084  -0.164  -2.496  1.00  0.00    -0.216 OA
HETATM    5  C4  UNL     1      -1.027  -0.163  -1.599  1.00  0.00     0.204 A 
HETATM    6  N3  UNL     1      -2.363  -0.248  -1.689  1.00  0.00    -0.167 N 
ATOM      7  H3  UNL     1      -2.822  -0.333  -2.596  1.00  0.00     0.186 HD
HETATM    8  C5  UNL     1      -3.083  -0.218  -0.550  1.00  0.00     0.680 A 
HETATM    9  N5  UNL     1      -2.474  -0.105   0.654  1.00  0.00    -0.155 N 
ATOM     10  H5  UNL     1      -3.036  -0.084   1.505  1.00  0.00     0.187 HD
HETATM   11  C6  UNL     1      -1.135  -0.020   0.739  1.00  0.00     0.278 A 
HETATM   12  O2  UNL     1      -0.558   0.086   1.860  1.00  0.00    -0.266 OA
HETATM   13  C7  UNL     1      -0.367  -0.046  -0.380  1.00  0.00     0.132 A 
ENDROOT
BRANCH   1  14
HETATM   14  N1  UNL     1       2.061   0.140   0.314  1.00  0.00    -0.374 N 
HETATM   15  C1  UNL     1       2.336  -0.865   1.347  1.00  0.00     0.150 C 
HETATM   16  C2  UNL     1       2.971   1.280   0.309  1.00  0.00     0.150 C 
ENDBRANCH   1  14
BRANCH   8  17
HETATM   17  N4  UNL     1      -4.378  -0.297  -0.586  1.00  0.00    -0.234 N 
ATOM     18  H42 UNL     1      -4.837  -0.382  -1.493  1.00  0.00     0.174 HD
ATOM     19  H41 UNL     1      -4.923  -0.274   0.276  1.00  0.00     0.174 HD
ENDBRANCH   8  17
TORSDOF 2
