REMARK  5 active torsions:
REMARK  status: ('A' for Active; 'I' for Inactive)
REMARK    1  A    between atoms: C3_3  and  O1_4 
REMARK    2  A    between atoms: O1_4  and  C4_5 
REMARK    3  A    between atoms: C4_5  and  C5_6 
REMARK    4  A    between atoms: C4_5  and  C9_10 
REMARK    5  A    between atoms: C5_6  and  C6_7 
ROOT
HETATM    1  C1  UNL     1      -1.330   5.046   0.705  1.00  0.00     0.014 C 
HETATM    2  C2  UNL     1      -1.287   3.974   0.136  1.00  0.00    -0.091 C 
HETATM    3  C3  UNL     1      -1.233   2.671  -0.531  1.00  0.00     0.260 C 
ENDROOT
BRANCH   3   4
HETATM    4  O1  UNL     1      -0.711   1.762   0.372  1.00  0.00    -0.374 OA
BRANCH   4   5
HETATM    5  C4  UNL     1      -0.630   0.457  -0.220  1.00  0.00     0.127 C 
BRANCH   5   6
HETATM    6  C5  UNL     1      -1.444  -0.408   0.655  1.00  0.00     0.037 C 
BRANCH   6   7
HETATM    7  C6  UNL     1      -1.589  -1.841   0.318  1.00  0.00    -0.012 A 
HETATM    8  C7  UNL     1      -2.477  -2.590   1.346  1.00  0.00     0.005 A 
HETATM    9  C8  UNL     1      -3.013  -2.370  -0.005  1.00  0.00     0.005 A 
ENDBRANCH   6   7
ENDBRANCH   5   6
BRANCH   5  10
HETATM   10  C9  UNL     1       0.842   0.217  -0.258  1.00  0.00     0.018 C 
HETATM   11  C10 UNL     1       1.319  -1.061  -0.833  1.00  0.00     0.026 C 
HETATM   12  C11 UNL     1       2.761  -0.808  -1.318  1.00  0.00     0.114 C 
HETATM   13  N1  UNL     1       3.479  -0.240  -0.257  1.00  0.00    -0.421 N 
HETATM   14  C12 UNL     1       2.876  -0.205   1.019  1.00  0.00     0.114 C 
ATOM     15  H1  UNL     1       4.415   0.139  -0.403  1.00  0.00     0.153 HD
HETATM   16  C13 UNL     1       1.517   0.417   1.078  1.00  0.00     0.026 C 
ENDBRANCH   5  10
ENDBRANCH   4   5
ENDBRANCH   3   4
TORSDOF 5
