REMARK  16 active torsions:
REMARK  status: ('A' for Active; 'I' for Inactive)
REMARK    1  A    between atoms: C1_2  and  C2_3 
REMARK       I    between atoms: C1_2  and  N3_26 
REMARK    2  A    between atoms: C2_3  and  N1_4 
REMARK    3  A    between atoms: C18_23  and  O3_24 
REMARK    4  A    between atoms: N3_26  and  C19_28 
REMARK    5  A    between atoms: C19_28  and  C20_29 
REMARK    6  A    between atoms: C20_29  and  C21_30 
REMARK    7  A    between atoms: C21_30  and  N4_31 
REMARK    8  A    between atoms: N4_31  and  C22_34 
REMARK    9  A    between atoms: C22_34  and  C23_35 
REMARK   10  A    between atoms: C23_35  and  C24_36 
REMARK   11  A    between atoms: C24_36  and  C25_37 
REMARK   12  A    between atoms: C25_37  and  N5_38 
REMARK   13  A    between atoms: N5_38  and  C26_41 
REMARK   14  A    between atoms: C26_41  and  C27_42 
REMARK   15  A    between atoms: C27_42  and  C28_43 
REMARK   16  A    between atoms: C28_43  and  N6_44 
ROOT
HETATM    1  O1  UNL     1      -2.165   1.216  -2.251  1.00  0.00    -0.271 OA
HETATM    2  C1  UNL     1      -3.235   0.876  -1.696  1.00  0.00     0.239 C 
HETATM    3  N3  UNL     1      -3.495   1.141  -0.358  1.00  0.00    -0.339 N 
ATOM      4  H3  UNL     1      -4.416   0.855  -0.026  1.00  0.00     0.167 HD
ENDROOT
BRANCH   3   5
HETATM    5  C19 UNL     1      -2.668   1.748   0.603  1.00  0.00     0.065 C 
BRANCH   5   6
HETATM    6  C20 UNL     1      -1.481   1.035   1.101  1.00  0.00     0.072 C 
BRANCH   6   7
HETATM    7  C21 UNL     1      -0.398   0.612   0.185  1.00  0.00     0.237 C 
BRANCH   7   8
HETATM    8  N4  UNL     1       0.648  -0.092   0.990  1.00  0.00    -0.075 N 
ATOM      9  H42 UNL     1       0.876   0.397   1.856  1.00  0.00     0.277 HD
ATOM     10  H41 UNL     1       0.308  -0.958   1.408  1.00  0.00     0.277 HD
BRANCH   8  11
HETATM   11  C22 UNL     1       1.805  -0.296   0.140  1.00  0.00     0.232 C 
BRANCH  11  12
HETATM   12  C23 UNL     1       2.785  -1.249   0.736  1.00  0.00     0.029 C 
BRANCH  12  13
HETATM   13  C24 UNL     1       3.265  -0.873   2.104  1.00  0.00     0.029 C 
BRANCH  13  14
HETATM   14  C25 UNL     1       4.266  -1.901   2.623  1.00  0.00     0.232 C 
BRANCH  14  15
HETATM   15  N5  UNL     1       5.476  -1.942   1.812  1.00  0.00    -0.075 N 
ATOM     16  H52 UNL     1       6.015  -2.794   1.967  1.00  0.00     0.277 HD
ATOM     17  H51 UNL     1       5.272  -2.077   0.822  1.00  0.00     0.277 HD
BRANCH  15  18
HETATM   18  C26 UNL     1       6.254  -0.756   2.050  1.00  0.00     0.234 C 
BRANCH  18  19
HETATM   19  C27 UNL     1       7.521  -0.669   1.251  1.00  0.00     0.048 C 
BRANCH  19  20
HETATM   20  C28 UNL     1       8.300   0.594   1.639  1.00  0.00     0.137 C 
BRANCH  20  21
HETATM   21  N6  UNL     1       9.508   0.646   0.848  1.00  0.00    -0.280 N 
HETATM   22  C29 UNL     1      10.786   0.063   1.133  1.00  0.00     0.261 A 
HETATM   23  O4  UNL     1      11.016  -0.631   2.160  1.00  0.00    -0.267 OA
HETATM   24  C30 UNL     1      11.690   0.425   0.053  1.00  0.00     0.048 A 
HETATM   25  C31 UNL     1      13.021   0.134  -0.165  1.00  0.00     0.018 A 
HETATM   26  C35 UNL     1      11.023   1.206  -0.886  1.00  0.00     0.048 A 
HETATM   27  C32 UNL     1      13.687   0.595  -1.268  1.00  0.00     0.001 A 
HETATM   28  C33 UNL     1      13.017   1.379  -2.205  1.00  0.00     0.001 A 
HETATM   29  C34 UNL     1      11.668   1.679  -1.996  1.00  0.00     0.018 A 
HETATM   30  C36 UNL     1       9.658   1.351  -0.402  1.00  0.00     0.261 A 
HETATM   31  O5  UNL     1       8.744   1.992  -0.980  1.00  0.00    -0.267 OA
ENDBRANCH  20  21
ENDBRANCH  19  20
ENDBRANCH  18  19
ENDBRANCH  15  18
ENDBRANCH  14  15
ENDBRANCH  13  14
ENDBRANCH  12  13
ENDBRANCH  11  12
ENDBRANCH   8  11
ENDBRANCH   7   8
ENDBRANCH   6   7
ENDBRANCH   5   6
ENDBRANCH   3   5
BRANCH   2  32
HETATM   32  C2  UNL     1      -4.181   0.153  -2.600  1.00  0.00     0.229 C 
BRANCH  32  33
HETATM   33  N1  UNL     1      -5.445  -0.158  -2.025  1.00  0.00    -0.341 N 
HETATM   34  C3  UNL     1      -5.663  -1.416  -1.381  1.00  0.00     0.045 A 
HETATM   35  C4  UNL     1      -4.629  -2.367  -1.438  1.00  0.00     0.030 A 
HETATM   36  C8  UNL     1      -6.805  -1.742  -0.680  1.00  0.00     0.018 A 
HETATM   37  C5  UNL     1      -4.826  -3.571  -0.783  1.00  0.00     0.002 A 
HETATM   38  C6  UNL     1      -5.962  -3.880  -0.093  1.00  0.00     0.001 A 
HETATM   39  C7  UNL     1      -7.003  -2.936  -0.031  1.00  0.00     0.016 A 
HETATM   40  C9  UNL     1      -7.870  -0.708  -0.635  1.00  0.00     0.060 A 
HETATM   41  N2  UNL     1      -9.016  -0.943   0.026  1.00  0.00    -0.354 N 
HETATM   42  C17 UNL     1      -7.689   0.494  -1.269  1.00  0.00     0.069 A 
HETATM   43  C10 UNL     1      -9.968   0.031   0.041  1.00  0.00     0.046 A 
ATOM     44  H2  UNL     1      -9.169  -1.830   0.505  1.00  0.00     0.166 HD
HETATM   45  C11 UNL     1     -11.156  -0.207   0.722  1.00  0.00     0.030 A 
HETATM   46  C15 UNL     1      -9.829   1.242  -0.578  1.00  0.00     0.041 A 
HETATM   47  C12 UNL     1     -12.162   0.735   0.779  1.00  0.00     0.002 A 
HETATM   48  C13 UNL     1     -12.020   1.951   0.157  1.00  0.00     0.001 A 
HETATM   49  C14 UNL     1     -10.846   2.198  -0.523  1.00  0.00     0.018 A 
HETATM   50  C16 UNL     1      -8.657   1.482  -1.252  1.00  0.00     0.197 A 
HETATM   51  O2  UNL     1      -8.495   2.596  -1.839  1.00  0.00    -0.287 OA
HETATM   52  C18 UNL     1      -6.464   0.840  -2.033  1.00  0.00     0.261 A 
BRANCH  52  53
HETATM   53  O3  UNL     1      -6.105   2.126  -1.738  1.00  0.00    -0.372 OA
ATOM     54  H3  UNL     1      -6.784   2.791  -1.743  1.00  0.00     0.212 HD
ENDBRANCH  52  53
ENDBRANCH  32  33
ENDBRANCH   2  32
TORSDOF 16
