REMARK  3 active torsions:
REMARK  status: ('A' for Active; 'I' for Inactive)
REMARK    1  A    between atoms: O1_2  and  C2_3 
REMARK    2  A    between atoms: N1_8  and  C6_9 
REMARK    3  A    between atoms: C10_16  and  O3_17 
ROOT
HETATM    1  C6  UNL     1       0.629   0.204  -0.289  1.00  0.00     0.453 C 
HETATM    2  N2  UNL     1       1.084  -0.750   0.666  1.00  0.00    -0.041 N 
ATOM      3  H21 UNL     1       1.094  -1.689   0.268  1.00  0.00     0.279 HD
ATOM      4  H22 UNL     1       0.391  -0.890   1.402  1.00  0.00     0.279 HD
HETATM    5  C7  UNL     1       2.355  -0.415   1.218  1.00  0.00     0.235 C 
HETATM    6  C8  UNL     1       3.378  -0.032   0.175  1.00  0.00     0.030 C 
HETATM    7  C9  UNL     1       2.876   0.958  -0.821  1.00  0.00     0.037 C 
HETATM    8  C10 UNL     1       1.590   0.425  -1.443  1.00  0.00     0.179 C 
ENDROOT
BRANCH   1   9
HETATM    9  N1  UNL     1      -0.735   0.108  -0.690  1.00  0.00     0.179 N 
HETATM   10  C2  UNL     1      -1.598   0.786   0.283  1.00  0.00     0.510 C 
HETATM   11  O2  UNL     1      -2.313  -0.159   0.924  1.00  0.00    -0.330 OA
HETATM   12  C3  UNL     1      -2.098  -1.396   0.345  1.00  0.00     0.151 C 
HETATM   13  C4  UNL     1      -3.360  -2.118  -0.070  1.00  0.00     0.041 C 
HETATM   14  C5  UNL     1      -1.280  -1.173  -0.909  1.00  0.00     0.313 C 
BRANCH  10  15
HETATM   15  O1  UNL     1      -2.432   1.622  -0.455  1.00  0.00    -0.342 OA
HETATM   16  C1  UNL     1      -2.086   2.963  -0.182  1.00  0.00     0.206 C 
ENDBRANCH  10  15
ENDBRANCH   1   9
BRANCH   8  17
HETATM   17  O3  UNL     1       1.899  -0.743  -2.097  1.00  0.00    -0.392 OA
ATOM     18  H3  UNL     1       2.500  -0.605  -2.819  1.00  0.00     0.210 HD
ENDBRANCH   8  17
TORSDOF 3
