REMARK  4 active torsions:
REMARK  status: ('A' for Active; 'I' for Inactive)
REMARK    1  A    between atoms: O1_2  and  C2_3 
REMARK    2  A    between atoms: C2_3  and  C3_4 
REMARK    3  A    between atoms: C8_12  and  O5_13 
REMARK    4  A    between atoms: C9_15  and  O6_16 
ROOT
HETATM    1  C3  UNL     1       1.563  -0.362   0.272  1.00  0.00     0.182 C 
HETATM    2  O2  UNL     1       0.495   0.296   0.848  1.00  0.00    -0.320 OA
HETATM    3  C4  UNL     1      -0.633  -0.073   0.156  1.00  0.00     0.318 C 
HETATM    4  O3  UNL     1      -1.285   0.898  -0.566  1.00  0.00    -0.294 OA
HETATM    5  C5  UNL     1      -2.469   0.583   0.058  1.00  0.00     0.168 C 
HETATM    6  C6  UNL     1      -3.221   1.733   0.678  1.00  0.00     0.079 C 
HETATM    7  C7  UNL     1      -3.425  -0.289  -0.727  1.00  0.00     0.079 C 
HETATM    8  O4  UNL     1      -1.731  -0.117   1.019  1.00  0.00    -0.294 OA
HETATM    9  C8  UNL     1      -0.351  -1.369  -0.551  1.00  0.00     0.242 C 
HETATM   10  C9  UNL     1       0.977  -1.772   0.106  1.00  0.00     0.186 C 
ENDROOT
BRANCH   9  11
HETATM   11  O5  UNL     1      -0.033  -1.103  -1.891  1.00  0.00    -0.385 OA
ATOM     12  H5  UNL     1       0.145  -1.922  -2.338  1.00  0.00     0.210 HD
ENDBRANCH   9  11
BRANCH   1  13
HETATM   13  C2  UNL     1       2.785  -0.381   1.133  1.00  0.00     0.201 C 
BRANCH  13  14
HETATM   14  O1  UNL     1       3.187   0.904   1.390  1.00  0.00    -0.393 OA
HETATM   15  C1  UNL     1       3.505   1.650   0.278  1.00  0.00     0.201 C 
ENDBRANCH  13  14
ENDBRANCH   1  13
BRANCH  10  16
HETATM   16  O6  UNL     1       1.779  -2.494  -0.739  1.00  0.00    -0.390 OA
ATOM     17  H6  UNL     1       1.417  -3.366  -0.842  1.00  0.00     0.210 HD
ENDBRANCH  10  16
TORSDOF 4
