REMARK  12 active torsions:
REMARK  status: ('A' for Active; 'I' for Inactive)
REMARK    1  A    between atoms: O1_2  and  C2_3 
REMARK    2  A    between atoms: C2_3  and  C3_4 
REMARK    3  A    between atoms: C3_4  and  C4_5 
REMARK    4  A    between atoms: C4_5  and  C5_6 
REMARK    5  A    between atoms: C4_5  and  N2_13 
REMARK    6  A    between atoms: C5_6  and  N1_7 
REMARK    7  A    between atoms: N1_7  and  C6_9 
REMARK    8  A    between atoms: N2_13  and  C10_15 
REMARK    9  A    between atoms: C10_15  and  C11_16 
REMARK   10  A    between atoms: C12_17  and  C13_18 
REMARK   11  A    between atoms: N4_21  and  C14_22 
REMARK   12  A    between atoms: C17_25  and  O2_26 
ROOT
HETATM    1  C10 UNL     1      -0.207   2.106  -1.170  1.00  0.00     0.153 C 
ENDROOT
BRANCH   1   2
HETATM    2  N2  UNL     1      -1.216   2.024  -0.241  1.00  0.00    -0.361 N 
ATOM      3  H2  UNL     1      -1.425   2.851   0.318  1.00  0.00     0.165 HD
BRANCH   2   4
HETATM    4  C4  UNL     1      -1.984   0.851  -0.017  1.00  0.00     0.026 C 
BRANCH   4   5
HETATM    5  C3  UNL     1      -1.269  -0.333   0.429  1.00  0.00     0.084 C 
BRANCH   5   6
HETATM    6  C2  UNL     1      -1.989  -1.482   1.008  1.00  0.00     0.173 C 
BRANCH   6   7
HETATM    7  O1  UNL     1      -2.881  -2.164   0.229  1.00  0.00    -0.396 OA
HETATM    8  C1  UNL     1      -3.434  -3.180   0.997  1.00  0.00     0.201 C 
ENDBRANCH   6   7
ENDBRANCH   5   6
ENDBRANCH   4   5
BRANCH   4   9
HETATM    9  C5  UNL     1      -3.009   0.749  -1.089  1.00  0.00     0.108 C 
BRANCH   9  10
HETATM   10  N1  UNL     1      -4.183   0.045  -0.925  1.00  0.00    -0.389 N 
ATOM     11  H1  UNL     1      -4.273  -0.855  -1.397  1.00  0.00     0.159 HD
BRANCH  10  12
HETATM   12  C6  UNL     1      -5.258   0.493  -0.149  1.00  0.00     0.018 C 
HETATM   13  C7  UNL     1      -5.835   1.830  -0.682  1.00  0.00     0.037 C 
HETATM   14  C8  UNL     1      -5.204   0.532   1.318  1.00  0.00     0.037 C 
HETATM   15  C9  UNL     1      -6.424  -0.497  -0.479  1.00  0.00     0.037 C 
ENDBRANCH  10  12
ENDBRANCH   9  10
ENDBRANCH   4   9
ENDBRANCH   2   4
ENDBRANCH   1   2
BRANCH   1  16
HETATM   16  C11 UNL     1       1.012   1.370  -0.805  1.00  0.00    -0.054 C 
HETATM   17  C12 UNL     1       2.051   0.800  -0.495  1.00  0.00    -0.040 C 
BRANCH  17  18
HETATM   18  C13 UNL     1       3.294   0.169  -0.116  1.00  0.00     0.120 A 
HETATM   19  N3  UNL     1       4.520   0.770  -0.108  1.00  0.00    -0.289 N 
HETATM   20  N4  UNL     1       5.457  -0.061   0.297  1.00  0.00    -0.294 N 
ATOM     21  H3  UNL     1       4.688   1.738  -0.381  1.00  0.00     0.188 HD
HETATM   22  C18 UNL     1       4.886  -1.263   0.578  1.00  0.00     0.133 A 
HETATM   23  C19 UNL     1       3.532  -1.117   0.318  1.00  0.00     0.064 A 
HETATM   24 BR1  UNL     1       2.183  -2.436   0.516  1.00  0.00    -0.046 Br
BRANCH  20  25
HETATM   25  C14 UNL     1       6.857   0.280   0.427  1.00  0.00     0.136 C 
HETATM   26  C15 UNL     1       7.727  -0.915   0.744  1.00  0.00     0.032 C 
HETATM   27  C16 UNL     1       8.751  -0.351  -0.196  1.00  0.00     0.036 C 
HETATM   28  C17 UNL     1       7.626   0.470  -0.838  1.00  0.00     0.143 C 
BRANCH  28  29
HETATM   29  O2  UNL     1       8.132   1.742  -1.090  1.00  0.00    -0.393 OA
ATOM     30  H2  UNL     1       8.621   1.863  -1.895  1.00  0.00     0.210 HD
ENDBRANCH  28  29
ENDBRANCH  20  25
ENDBRANCH  17  18
ENDBRANCH   1  16
TORSDOF 12
