REMARK  4 active torsions:
REMARK  status: ('A' for Active; 'I' for Inactive)
REMARK    1  A    between atoms: O1_2  and  C2_3 
REMARK       I    between atoms: C2_3  and  N1_5 
REMARK    2  A    between atoms: N1_5  and  C3_7 
REMARK    3  A    between atoms: C10_14  and  O3_15 
REMARK    4  A    between atoms: C12_18  and  O4_19 
ROOT
HETATM    1  C3  UNL     1       0.465   0.135   0.129  1.00  0.00     0.099 C 
HETATM    2  C4  UNL     1      -0.399   0.074   1.370  1.00  0.00     0.038 C 
HETATM    3  C5  UNL     1      -1.353   1.214   1.280  1.00  0.00     0.013 C 
HETATM    4  C6  UNL     1      -2.105   1.374   0.026  1.00  0.00    -0.018 C 
HETATM    5  C7  UNL     1      -2.333   2.881  -0.178  1.00  0.00     0.010 C 
HETATM    6  C8  UNL     1      -1.501   0.850  -1.220  1.00  0.00     0.013 C 
HETATM    7  C9  UNL     1      -0.406  -0.156  -1.041  1.00  0.00     0.038 C 
HETATM    8  C10 UNL     1      -0.978  -1.543  -0.971  1.00  0.00     0.126 C 
HETATM    9  C11 UNL     1      -1.728  -1.759   0.297  1.00  0.00     0.064 C 
HETATM   10  C12 UNL     1      -1.066  -1.265   1.538  1.00  0.00     0.126 C 
ENDROOT
BRANCH   1  11
HETATM   11  N1  UNL     1       1.661  -0.618   0.201  1.00  0.00    -0.331 N 
HETATM   12  C2  UNL     1       2.944  -0.012   0.108  1.00  0.00     0.360 C 
HETATM   13  O2  UNL     1       3.030   1.252  -0.045  1.00  0.00    -0.239 OA
ATOM     14  H1  UNL     1       1.601  -1.629   0.324  1.00  0.00     0.165 HD
BRANCH  12  15
HETATM   15  O1  UNL     1       4.127  -0.703   0.173  1.00  0.00    -0.309 OA
HETATM   16  C1  UNL     1       5.382  -0.037   0.074  1.00  0.00     0.215 C 
ENDBRANCH  12  15
ENDBRANCH   1  11
BRANCH  10  17
HETATM   17  O4  UNL     1      -0.216  -2.211   2.105  1.00  0.00    -0.395 OA
ATOM     18  H4  UNL     1      -0.637  -3.056   2.211  1.00  0.00     0.210 HD
ENDBRANCH  10  17
BRANCH   8  19
HETATM   19  O3  UNL     1      -0.010  -2.506  -1.243  1.00  0.00    -0.395 OA
ATOM     20  H3  UNL     1      -0.372  -3.383  -1.199  1.00  0.00     0.210 HD
ENDBRANCH   8  19
TORSDOF 4
