REMARK  13 active torsions:
REMARK  status: ('A' for Active; 'I' for Inactive)
REMARK    1  A    between atoms: N1_2  and  C3_4 
REMARK    2  A    between atoms: C3_4  and  C4_6 
REMARK    3  A    between atoms: C4_6  and  C5_7 
REMARK       I    between atoms: C5_7  and  N2_9 
REMARK    4  A    between atoms: C7_16  and  C8_17 
REMARK    5  A    between atoms: C8_17  and  C9_18 
REMARK    6  A    between atoms: C9_18  and  C10_19 
REMARK    7  A    between atoms: C10_19  and  C11_20 
REMARK    8  A    between atoms: C11_20  and  C12_21 
REMARK       I    between atoms: N7_27  and  C14_29 
REMARK    9  A    between atoms: C14_29  and  C15_31 
REMARK   10  A    between atoms: C15_31  and  C16_32 
REMARK   11  A    between atoms: C16_32  and  C17_33 
REMARK   12  A    between atoms: C17_33  and  C18_34 
REMARK   13  A    between atoms: C18_34  and  C19_35 
ROOT
HETATM    1  C12 UNL     1      -0.327  -0.548  -0.873  1.00  0.00     0.069 A 
HETATM    2  N5  UNL     1       0.174  -0.019   0.229  1.00  0.00    -0.296 N 
ATOM      3  H5  UNL     1      -0.424   0.106   1.046  1.00  0.00     0.187 HD
HETATM    4  N6  UNL     1       1.390   0.335   0.281  1.00  0.00    -0.279 N 
ATOM      5  H6  UNL     1       1.767   0.742   1.137  1.00  0.00     0.189 HD
HETATM    6  C13 UNL     1       2.174   0.176  -0.781  1.00  0.00     0.167 A 
HETATM    7  N7  UNL     1       3.407   0.427  -1.022  1.00  0.00    -0.306 N 
ATOM      8  H7  UNL     1       3.750   0.193  -1.954  1.00  0.00     0.171 HD
HETATM    9  C14 UNL     1       4.315   0.981  -0.149  1.00  0.00     0.223 C 
HETATM   10  O2  UNL     1       5.164   1.803  -0.648  1.00  0.00    -0.273 OA
HETATM   11  S2  UNL     1       1.030  -0.537  -1.901  1.00  0.00    -0.038 SA
ENDROOT
BRANCH   1  12
HETATM   12  C11 UNL     1      -1.734  -1.030  -1.128  1.00  0.00     0.066 C 
BRANCH  12  13
HETATM   13  C10 UNL     1      -2.541   0.101  -1.658  1.00  0.00     0.007 C 
BRANCH  13  14
HETATM   14  C9  UNL     1      -2.635   1.278  -0.731  1.00  0.00     0.007 C 
BRANCH  14  15
HETATM   15  C8  UNL     1      -3.262   0.951   0.588  1.00  0.00     0.066 C 
BRANCH  15  16
HETATM   16  C7  UNL     1      -4.666   0.439   0.394  1.00  0.00     0.069 A 
HETATM   17  N4  UNL     1      -5.799   1.122   0.356  1.00  0.00    -0.296 N 
HETATM   18  N3  UNL     1      -6.905   0.525   0.184  1.00  0.00    -0.279 N 
ATOM     19  H4  UNL     1      -5.783   2.136   0.466  1.00  0.00     0.187 HD
HETATM   20  C6  UNL     1      -6.920  -0.797   0.040  1.00  0.00     0.167 A 
ATOM     21  H3  UNL     1      -7.776   1.055   0.156  1.00  0.00     0.189 HD
HETATM   22  N2  UNL     1      -7.898  -1.613  -0.143  1.00  0.00    -0.306 N 
HETATM   23  S3  UNL     1      -5.229  -1.157   0.167  1.00  0.00    -0.038 SA
HETATM   24  C5  UNL     1      -9.252  -1.352  -0.247  1.00  0.00     0.230 C 
ATOM     25  H2  UNL     1      -7.636  -2.596  -0.223  1.00  0.00     0.171 HD
HETATM   26  O1  UNL     1     -10.006  -1.720   0.685  1.00  0.00    -0.273 OA
BRANCH  24  27
HETATM   27  C4  UNL     1      -9.853  -0.661  -1.408  1.00  0.00     0.172 C 
BRANCH  27  28
HETATM   28  C3  UNL     1     -11.316  -0.551  -1.328  1.00  0.00     0.083 C 
HETATM   29  S1  UNL     1     -12.256  -1.397  -2.372  1.00  0.00    -0.065 SA
BRANCH  28  30
HETATM   30  N1  UNL     1     -11.947   0.266  -0.373  1.00  0.00    -0.384 N 
HETATM   31  C1  UNL     1     -13.408   0.338  -0.330  1.00  0.00     0.149 C 
HETATM   32  C2  UNL     1     -11.259   1.084   0.602  1.00  0.00     0.149 C 
ENDBRANCH  28  30
ENDBRANCH  27  28
ENDBRANCH  24  27
ENDBRANCH  15  16
ENDBRANCH  14  15
ENDBRANCH  13  14
ENDBRANCH  12  13
ENDBRANCH   1  12
BRANCH   9  33
HETATM   33  C15 UNL     1       4.452   0.762   1.306  1.00  0.00     0.103 C 
BRANCH  33  34
HETATM   34  C16 UNL     1       5.896   0.947   1.735  1.00  0.00     0.009 C 
BRANCH  34  35
HETATM   35  C17 UNL     1       6.760  -0.069   1.043  1.00  0.00     0.001 C 
BRANCH  35  36
HETATM   36  C18 UNL     1       8.186   0.116   1.468  1.00  0.00     0.005 C 
BRANCH  36  37
HETATM   37  C19 UNL     1       9.138  -0.862   0.842  1.00  0.00    -0.011 C 
HETATM   38  C20 UNL     1       9.187  -0.807  -0.648  1.00  0.00     0.032 C 
HETATM   39  C21 UNL     1       9.943   0.397  -1.158  1.00  0.00     0.232 C 
HETATM   40  N8  UNL     1      11.202   0.567  -0.480  1.00  0.00    -0.075 N 
HETATM   41  C22 UNL     1      11.512  -0.624   0.291  1.00  0.00     0.232 C 
ATOM     42  H82 UNL     1      11.954   0.813  -1.124  1.00  0.00     0.277 HD
ATOM     43  H81 UNL     1      11.217   1.410   0.094  1.00  0.00     0.277 HD
HETATM   44  C23 UNL     1      10.529  -0.745   1.420  1.00  0.00     0.032 C 
ENDBRANCH  36  37
ENDBRANCH  35  36
ENDBRANCH  34  35
ENDBRANCH  33  34
ENDBRANCH   9  33
TORSDOF 13
