REMARK  11 active torsions:
REMARK  status: ('A' for Active; 'I' for Inactive)
REMARK    1  A    between atoms: N1_1  and  C1_4 
REMARK    2  A    between atoms: C2_9  and  C3_10 
REMARK    3  A    between atoms: C3_10  and  S1_11 
REMARK    4  A    between atoms: S1_11  and  C4_12 
REMARK    5  A    between atoms: N5_16  and  C6_18 
REMARK    6  A    between atoms: C6_18  and  O1_19 
REMARK    7  A    between atoms: C6_18  and  N6_21 
REMARK    8  A    between atoms: N6_21  and  N7_22 
REMARK    9  A    between atoms: C9_25  and  O2_26 
REMARK   10  A    between atoms: C10_28  and  O3_29 
REMARK   11  A    between atoms: N8_33  and  N9_34 
ROOT
HETATM    1  C4  UNL     1      -0.200  -0.634  -1.213  1.00  0.00     0.170 C 
HETATM    2  N4  UNL     1       0.934   0.044  -1.011  1.00  0.00    -0.319 N 
ATOM      3  H4  UNL     1       1.078   0.849  -1.620  1.00  0.00     0.169 HD
HETATM    4  C5  UNL     1       1.912  -0.188  -0.116  1.00  0.00     0.143 C 
HETATM    5  N5  UNL     1       2.841   0.641  -0.122  1.00  0.00    -0.333 N 
ATOM      6  H5  UNL     1       3.577   0.467   0.562  1.00  0.00     0.165 HD
HETATM    7  C9  UNL     1       2.040  -1.249   0.787  1.00  0.00     0.149 C 
HETATM    8  C10 UNL     1       1.184  -2.333   0.866  1.00  0.00     0.173 C 
HETATM    9  C11 UNL     1       0.309  -2.779  -0.163  1.00  0.00     0.304 C 
HETATM   10  O4  UNL     1       0.159  -4.000  -0.234  1.00  0.00    -0.263 OA
HETATM   11  N8  UNL     1      -0.363  -1.955  -1.035  1.00  0.00    -0.201 N 
ENDROOT
BRANCH   1  12
HETATM   12  S1  UNL     1      -1.709   0.312  -1.565  1.00  0.00    -0.086 SA
BRANCH  12  13
HETATM   13  C3  UNL     1      -2.575   0.211   0.082  1.00  0.00     0.146 C 
BRANCH  13  14
HETATM   14  C2  UNL     1      -3.972   0.608  -0.059  1.00  0.00     0.104 A 
HETATM   15  N3  UNL     1      -4.412   1.848  -0.246  1.00  0.00    -0.284 N 
HETATM   16  N2  UNL     1      -5.706   2.114  -0.261  1.00  0.00    -0.132 N 
ATOM     17  H3  UNL     1      -3.741   2.605  -0.380  1.00  0.00     0.187 HD
HETATM   18  C1  UNL     1      -6.627   1.167  -0.105  1.00  0.00     0.693 A 
ATOM     19  H2  UNL     1      -6.009   3.078  -0.397  1.00  0.00     0.205 HD
HETATM   20  N10 UNL     1      -6.188  -0.128   0.092  1.00  0.00    -0.153 N 
HETATM   21  C12 UNL     1      -4.895  -0.420   0.119  1.00  0.00     0.284 A 
ATOM     22  H10 UNL     1      -6.872  -0.874   0.219  1.00  0.00     0.187 HD
HETATM   23  O5  UNL     1      -4.488  -1.606   0.300  1.00  0.00    -0.265 OA
BRANCH  18  24
HETATM   24  N1  UNL     1      -7.887   1.334  -0.124  1.00  0.00    -0.233 N 
ATOM     25  H12 UNL     1      -8.211   2.290  -0.269  1.00  0.00     0.174 HD
ATOM     26  H11 UNL     1      -8.593   0.608  -0.004  1.00  0.00     0.174 HD
ENDBRANCH  18  24
ENDBRANCH  13  14
ENDBRANCH  12  13
ENDBRANCH   1  12
BRANCH  11  27
HETATM   27  N9  UNL     1      -1.347  -2.558  -1.771  1.00  0.00    -0.334 N 
ATOM     28  H92 UNL     1      -1.845  -1.947  -2.418  1.00  0.00     0.177 HD
ATOM     29  H91 UNL     1      -1.471  -3.561  -1.636  1.00  0.00     0.177 HD
ENDBRANCH  11  27
BRANCH   5  30
HETATM   30  C6  UNL     1       3.039   1.806  -0.942  1.00  0.00     0.333 C 
BRANCH  30  31
HETATM   31  O1  UNL     1       2.966   2.933  -0.137  1.00  0.00    -0.362 OA
ATOM     32  H1  UNL     1       3.097   3.702  -0.679  1.00  0.00     0.213 HD
ENDBRANCH  30  31
BRANCH  30  33
HETATM   33  N6  UNL     1       4.523   1.688  -1.245  1.00  0.00    -0.112 NA
BRANCH  33  34
HETATM   34  N7  UNL     1       5.073   1.796   0.045  1.00  0.00    -0.228 NA
HETATM   35  C7  UNL     1       6.484   2.182   0.137  1.00  0.00     0.125 A 
HETATM   36  C8  UNL     1       5.963   0.834   0.578  1.00  0.00     0.125 A 
ENDBRANCH  33  34
ENDBRANCH  30  33
ENDBRANCH   5  30
BRANCH   7  37
HETATM   37  O2  UNL     1       3.072  -1.213   1.653  1.00  0.00    -0.355 OA
ATOM     38  H2  UNL     1       3.159  -1.933   2.266  1.00  0.00     0.218 HD
ENDBRANCH   7  37
BRANCH   8  39
HETATM   39  O3  UNL     1       1.143  -3.066   2.020  1.00  0.00    -0.353 OA
ATOM     40  H3  UNL     1       0.555  -3.810   2.074  1.00  0.00     0.218 HD
ENDBRANCH   8  39
TORSDOF 11
