REMARK  12 active torsions:
REMARK  status: ('A' for Active; 'I' for Inactive)
REMARK    1  A    between atoms: N1_1  and  N2_4 
REMARK    2  A    between atoms: N2_4  and  N3_5 
REMARK    3  A    between atoms: N3_5  and  C1_7 
REMARK    4  A    between atoms: C1_7  and  C2_8 
REMARK    5  A    between atoms: C2_8  and  C3_9 
REMARK    6  A    between atoms: C2_8  and  N7_19 
REMARK    7  A    between atoms: C4_10  and  N4_11 
REMARK    8  A    between atoms: C5_13  and  N5_14 
REMARK    9  A    between atoms: N5_14  and  N6_16 
REMARK   10  A    between atoms: C6_22  and  C7_23 
REMARK       I    between atoms: C7_23  and  N9_25 
REMARK   11  A    between atoms: N9_25  and  N10_27 
REMARK   12  A    between atoms: C9_31  and  N11_32 
ROOT
HETATM    1  N7  UNL     1      -0.520   0.795   0.575  1.00  0.00    -0.257 N 
HETATM    2  N8  UNL     1      -0.656  -0.460   0.257  1.00  0.00    -0.289 N 
ATOM      3  H8  UNL     1       0.119  -1.113   0.143  1.00  0.00     0.187 HD
HETATM    4  C6  UNL     1      -1.969  -0.787   0.096  1.00  0.00     0.135 A 
HETATM    5  C8  UNL     1      -2.710   0.335   0.327  1.00  0.00     0.087 A 
HETATM    6  C9  UNL     1      -4.048   0.668   0.327  1.00  0.00     0.116 A 
HETATM    7  N12 UNL     1      -4.411   1.931   0.616  1.00  0.00    -0.338 N 
ATOM      8  H12 UNL     1      -5.402   2.171   0.614  1.00  0.00     0.168 HD
HETATM    9  C10 UNL     1      -3.513   2.888   0.907  1.00  0.00     0.183 A 
HETATM   10  N13 UNL     1      -2.215   2.548   0.903  1.00  0.00    -0.336 N 
ATOM     11  H13 UNL     1      -1.533   3.274   1.124  1.00  0.00     0.168 HD
HETATM   12  C11 UNL     1      -1.754   1.325   0.630  1.00  0.00     0.141 A 
ENDROOT
BRANCH   1  13
HETATM   13  C2  UNL     1       0.708   1.532   0.832  1.00  0.00     0.210 C 
BRANCH  13  14
HETATM   14  C1  UNL     1       0.985   2.526  -0.259  1.00  0.00     0.195 C 
BRANCH  14  15
HETATM   15  N3  UNL     1       1.107   1.933  -1.553  1.00  0.00    -0.250 N 
ATOM     16  H3  UNL     1       1.508   1.002  -1.663  1.00  0.00     0.197 HD
BRANCH  15  17
HETATM   17  N2  UNL     1       0.713   2.578  -2.545  1.00  0.00    -0.248 NA
BRANCH  17  18
HETATM   18  N1  UNL     1       0.061   3.140  -3.447  1.00  0.00    -0.261 N 
ATOM     19  H12 UNL     1      -0.821   2.803  -3.061  1.00  0.00     0.193 HD
ATOM     20  H11 UNL     1      -0.261   3.668  -4.258  1.00  0.00     0.193 HD
ENDBRANCH  17  18
ENDBRANCH  15  17
ENDBRANCH  14  15
ENDBRANCH  13  14
BRANCH  13  21
HETATM   21  C3  UNL     1       1.810   0.569   0.885  1.00  0.00    -0.054 C 
HETATM   22  C4  UNL     1       2.720  -0.220   0.948  1.00  0.00     0.013 C 
BRANCH  22  23
HETATM   23  N4  UNL     1       3.792  -1.144   1.047  1.00  0.00    -0.310 N 
HETATM   24  C5  UNL     1       5.000  -0.746   1.256  1.00  0.00     0.205 C 
ATOM     25  H4  UNL     1       3.603  -2.142   0.951  1.00  0.00     0.177 HD
BRANCH  24  26
HETATM   26  N5  UNL     1       6.006  -1.741   1.340  1.00  0.00    -0.302 N 
ATOM     27  H5  UNL     1       6.145  -2.273   2.199  1.00  0.00     0.187 HD
BRANCH  26  28
HETATM   28  N6  UNL     1       6.802  -1.975   0.217  1.00  0.00    -0.344 N 
ATOM     29  H62 UNL     1       6.650  -1.435  -0.635  1.00  0.00     0.176 HD
ATOM     30  H61 UNL     1       7.526  -2.691   0.277  1.00  0.00     0.176 HD
ENDBRANCH  26  28
ENDBRANCH  24  26
ENDBRANCH  22  23
ENDBRANCH  13  21
ENDBRANCH   1  13
BRANCH   4  31
HETATM   31  C7  UNL     1      -2.454  -2.114  -0.261  1.00  0.00     0.288 C 
HETATM   32  O1  UNL     1      -3.627  -2.433  -0.412  1.00  0.00    -0.264 OA
HETATM   33  N9  UNL     1      -1.492  -3.178  -0.465  1.00  0.00    -0.271 N 
ATOM     34  H9  UNL     1      -0.494  -2.997  -0.360  1.00  0.00     0.189 HD
BRANCH  33  35
HETATM   35  N10 UNL     1      -1.936  -4.428  -0.800  1.00  0.00    -0.342 N 
ATOM     36 2H10 UNL     1      -2.938  -4.593  -0.901  1.00  0.00     0.176 HD
ATOM     37 1H10 UNL     1      -1.259  -5.177  -0.944  1.00  0.00     0.176 HD
ENDBRANCH  33  35
ENDBRANCH   4  31
BRANCH   6  38
HETATM   38  N11 UNL     1      -4.942  -0.202   0.057  1.00  0.00    -0.385 N 
ATOM     39 2H11 UNL     1      -4.667  -1.159  -0.162  1.00  0.00     0.157 HD
ATOM     40 1H11 UNL     1      -5.932   0.044   0.057  1.00  0.00     0.157 HD
ENDBRANCH   6  38
TORSDOF 12
