REMARK  12 active torsions:
REMARK  status: ('A' for Active; 'I' for Inactive)
REMARK    1  A    between atoms: C6_8  and  C7_9 
REMARK    2  A    between atoms: C7_9  and  O2_10 
REMARK    3  A    between atoms: O2_10  and  C8_11 
REMARK    4  A    between atoms: C9_12  and  N2_13 
REMARK    5  A    between atoms: N4_23  and  C17_25 
REMARK    6  A    between atoms: C17_25  and  C18_26 
REMARK    7  A    between atoms: C17_25  and  C25_33 
REMARK    8  A    between atoms: C18_26  and  C19_27 
REMARK       I    between atoms: C25_33  and  N5_35 
REMARK    9  A    between atoms: N5_35  and  C26_37 
REMARK   10  A    between atoms: C26_37  and  C27_38 
REMARK   11  A    between atoms: C27_38  and  C28_39 
REMARK   12  A    between atoms: C28_39  and  N6_40 
ROOT
HETATM    1  N1  UNL     1      -3.502  -3.971  -2.294  1.00  0.00    -0.197 NA
HETATM    2  C1  UNL     1      -3.533  -2.845  -2.512  1.00  0.00     0.066 C 
HETATM    3  C2  UNL     1      -3.575  -1.405  -2.813  1.00  0.00     0.122 C 
HETATM    4  C3  UNL     1      -4.840  -1.053  -3.570  1.00  0.00     0.187 C 
HETATM    5  O1  UNL     1      -4.790   0.301  -3.883  1.00  0.00    -0.390 OA
HETATM    6  C4  UNL     1      -4.853   1.072  -2.722  1.00  0.00     0.168 C 
HETATM    7  C5  UNL     1      -3.634   0.838  -1.850  1.00  0.00     0.034 C 
HETATM    8  C6  UNL     1      -3.558  -0.619  -1.521  1.00  0.00     0.032 C 
ENDROOT
BRANCH   8   9
HETATM    9  C7  UNL     1      -2.335  -0.952  -0.698  1.00  0.00     0.182 C 
BRANCH   9  10
HETATM   10  O2  UNL     1      -2.413  -0.166   0.486  1.00  0.00    -0.345 OA
BRANCH  10  11
HETATM   11  C8  UNL     1      -1.430  -0.236   1.469  1.00  0.00     0.139 A 
HETATM   12  C9  UNL     1      -1.590  -1.116   2.501  1.00  0.00     0.069 A 
HETATM   13  C14 UNL     1      -0.562  -1.143   3.453  1.00  0.00     0.049 A 
HETATM   14  C15 UNL     1       0.521  -0.340   3.347  1.00  0.00     0.092 A 
HETATM   15  N3  UNL     1       0.639   0.511   2.319  1.00  0.00    -0.350 N 
HETATM   16  C16 UNL     1      -0.298   0.586   1.384  1.00  0.00     0.138 A 
ATOM     17  H3  UNL     1       1.462   1.110   2.255  1.00  0.00     0.166 HD
HETATM   18  N4  UNL     1      -0.249   1.360   0.402  1.00  0.00    -0.361 N 
ATOM     19  H4  UNL     1      -1.066   1.268  -0.201  1.00  0.00     0.162 HD
BRANCH  12  20
HETATM   20  N2  UNL     1      -2.703  -1.949   2.728  1.00  0.00    -0.379 N 
HETATM   21  C10 UNL     1      -2.675  -3.147   3.589  1.00  0.00     0.123 C 
HETATM   22  C11 UNL     1      -3.475  -4.128   2.750  1.00  0.00     0.021 C 
HETATM   23  C12 UNL     1      -4.265  -3.296   1.747  1.00  0.00     0.021 C 
HETATM   24  C13 UNL     1      -4.078  -1.891   2.294  1.00  0.00     0.123 C 
ENDBRANCH  12  20
BRANCH  18  25
HETATM   25  C17 UNL     1       0.649   2.319  -0.071  1.00  0.00     0.175 C 
BRANCH  25  26
HETATM   26  C18 UNL     1       0.787   3.553   0.825  1.00  0.00     0.039 C 
BRANCH  26  27
HETATM   27  C19 UNL     1      -0.577   4.198   0.935  1.00  0.00    -0.012 C 
HETATM   28  C20 UNL     1      -1.028   4.587  -0.438  1.00  0.00     0.005 C 
HETATM   29  C21 UNL     1      -1.978   5.766  -0.424  1.00  0.00     0.000 C 
HETATM   30  C22 UNL     1      -1.417   6.980   0.249  1.00  0.00     0.000 C 
HETATM   31  C23 UNL     1      -0.156   6.597   0.998  1.00  0.00     0.000 C 
HETATM   32  C24 UNL     1      -0.508   5.395   1.867  1.00  0.00     0.005 C 
ENDBRANCH  26  27
ENDBRANCH  25  26
BRANCH  25  33
HETATM   33  C25 UNL     1       1.968   1.838  -0.544  1.00  0.00     0.240 C 
HETATM   34  O3  UNL     1       2.853   2.697  -0.890  1.00  0.00    -0.271 OA
HETATM   35  N5  UNL     1       2.351   0.484  -0.650  1.00  0.00    -0.359 N 
ATOM     36  H5  UNL     1       1.681  -0.239  -0.388  1.00  0.00     0.162 HD
BRANCH  35  37
HETATM   37  C26 UNL     1       3.656   0.088  -1.115  1.00  0.00     0.124 C 
BRANCH  37  38
HETATM   38  C27 UNL     1       3.813  -1.422  -1.128  1.00  0.00     0.050 C 
BRANCH  38  39
HETATM   39  C28 UNL     1       5.186  -1.821  -1.617  1.00  0.00     0.274 C 
BRANCH  39  40
HETATM   40  N6  UNL     1       5.329  -3.272  -1.621  1.00  0.00     0.092 N 
HETATM   41  C29 UNL     1       6.628  -3.667  -2.087  1.00  0.00     0.298 C 
HETATM   42  C30 UNL     1       7.668  -3.705  -0.984  1.00  0.00     0.198 C 
HETATM   43  O4  UNL     1       7.355  -4.707  -0.059  1.00  0.00    -0.388 OA
HETATM   44  C31 UNL     1       5.987  -5.014  -0.108  1.00  0.00     0.198 C 
HETATM   45  C32 UNL     1       5.169  -3.753  -0.258  1.00  0.00     0.298 C 
ENDBRANCH  39  40
ENDBRANCH  38  39
ENDBRANCH  37  38
ENDBRANCH  35  37
ENDBRANCH  25  33
ENDBRANCH  18  25
ENDBRANCH  10  11
ENDBRANCH   9  10
ENDBRANCH   8   9
TORSDOF 12
