REMARK  13 active torsions:
REMARK  status: ('A' for Active; 'I' for Inactive)
REMARK    1  A    between atoms: C2_2  and  O1_3 
REMARK    2  A    between atoms: O1_3  and  C3_4 
REMARK       I    between atoms: C3_4  and  N1_6 
REMARK    3  A    between atoms: C6_9  and  N2_10 
REMARK       I    between atoms: N2_10  and  C7_11 
REMARK    4  A    between atoms: C7_11  and  C8_13 
REMARK    5  A    between atoms: C8_13  and  C9_15 
REMARK    6  A    between atoms: C9_15  and  C10_16 
REMARK    7  A    between atoms: C9_15  and  N3_18 
REMARK       I    between atoms: N3_18  and  C12_20 
REMARK    8  A    between atoms: C12_20  and  C13_22 
REMARK    9  A    between atoms: C13_22  and  C14_23 
REMARK   10  A    between atoms: C14_23  and  C15_24 
REMARK   11  A    between atoms: C15_24  and  C16_25 
REMARK   12  A    between atoms: C16_25  and  N4_26 
REMARK   13  A    between atoms: C17_31  and  C18_32 
ROOT
HETATM    1  N3  UNL     1       1.270   0.022  -1.162  1.00  0.00    -0.349 N 
ATOM      2  H3  UNL     1       1.698   0.938  -1.027  1.00  0.00     0.163 HD
HETATM    3  C12 UNL     1       0.133  -0.125  -1.937  1.00  0.00     0.218 C 
HETATM    4  O5  UNL     1      -0.395  -1.302  -2.021  1.00  0.00    -0.274 OA
ENDROOT
BRANCH   3   5
HETATM    5  C13 UNL     1      -0.522   0.920  -2.682  1.00  0.00     0.103 C 
BRANCH   5   6
HETATM    6  C14 UNL     1      -1.892   1.319  -2.238  1.00  0.00     0.014 C 
BRANCH   6   7
HETATM    7  C15 UNL     1      -1.775   2.070  -0.918  1.00  0.00     0.047 C 
BRANCH   7   8
HETATM    8  C16 UNL     1      -3.025   2.635  -0.457  1.00  0.00     0.090 C 
BRANCH   8   9
HETATM    9  N4  UNL     1      -4.126   1.908   0.050  1.00  0.00    -0.260 N 
HETATM   10  N5  UNL     1      -4.333   1.832   1.424  1.00  0.00    -0.236 N 
HETATM   11  N6  UNL     1      -5.451   1.225   1.641  1.00  0.00    -0.287 N 
ATOM     12  H5  UNL     1      -3.705   2.196   2.141  1.00  0.00     0.209 HD
HETATM   13  C17 UNL     1      -6.066   0.860   0.454  1.00  0.00     0.060 A 
ATOM     14  H6  UNL     1      -5.833   1.038   2.568  1.00  0.00     0.188 HD
HETATM   15  C28 UNL     1      -5.171   1.321  -0.477  1.00  0.00     0.055 A 
HETATM   16  C29 UNL     1      -5.408   1.097  -1.942  1.00  0.00     0.072 C 
BRANCH  13  17
HETATM   17  C18 UNL     1      -7.388   0.212   0.434  1.00  0.00     0.007 C 
HETATM   18  C19 UNL     1      -7.733   0.024   1.932  1.00  0.00     0.020 C 
HETATM   19  C20 UNL     1      -9.068  -0.533   2.194  1.00  0.00    -0.013 C 
HETATM   20  C21 UNL     1      -9.142  -1.907   1.544  1.00  0.00     0.009 C 
HETATM   21  C25 UNL     1     -10.079   0.429   1.595  1.00  0.00     0.009 C 
HETATM   22  C22 UNL     1      -8.775  -1.767   0.078  1.00  0.00    -0.013 C 
HETATM   23  C23 UNL     1      -9.885  -0.923  -0.528  1.00  0.00     0.009 C 
HETATM   24  C27 UNL     1      -7.407  -1.180  -0.139  1.00  0.00     0.020 C 
HETATM   25  C24 UNL     1      -9.839   0.449   0.130  1.00  0.00    -0.013 C 
HETATM   26  C26 UNL     1      -8.463   1.015  -0.245  1.00  0.00     0.020 C 
ENDBRANCH  13  17
ENDBRANCH   8   9
ENDBRANCH   7   8
ENDBRANCH   6   7
ENDBRANCH   5   6
ENDBRANCH   3   5
BRANCH   1  27
HETATM   27  C9  UNL     1       1.862  -1.219  -0.518  1.00  0.00     0.165 C 
BRANCH  27  28
HETATM   28  C8  UNL     1       3.238  -0.906  -0.220  1.00  0.00     0.253 C 
HETATM   29  O4  UNL     1       3.575   0.211   0.322  1.00  0.00    -0.284 OA
BRANCH  28  30
HETATM   30  C7  UNL     1       4.416  -1.819  -0.513  1.00  0.00     0.359 C 
HETATM   31  N2  UNL     1       5.641  -1.364  -0.153  1.00  0.00    -0.403 NA
HETATM   32  O3  UNL     1       4.090  -2.885  -1.062  1.00  0.00    -0.248 OA
BRANCH  31  33
HETATM   33  C6  UNL     1       6.896  -0.903   0.213  1.00  0.00     0.170 C 
HETATM   34  C5  UNL     1       7.649  -0.268  -0.950  1.00  0.00     0.059 C 
HETATM   35  C4  UNL     1       8.687   0.621  -0.319  1.00  0.00     0.131 C 
HETATM   36  N1  UNL     1       9.601  -0.297   0.387  1.00  0.00    -0.328 N 
HETATM   37  C3  UNL     1      10.814   0.192   0.829  1.00  0.00     0.362 C 
HETATM   38  C31 UNL     1       9.235  -1.683   0.620  1.00  0.00     0.131 C 
HETATM   39  O2  UNL     1      11.780  -0.276   1.383  1.00  0.00    -0.238 OA
HETATM   40  C30 UNL     1       7.765  -1.861   0.962  1.00  0.00     0.059 C 
BRANCH  37  41
HETATM   41  O1  UNL     1      11.005   1.650   0.576  1.00  0.00    -0.304 OA
BRANCH  41  42
HETATM   42  C2  UNL     1      12.264   2.157   1.008  1.00  0.00     0.176 C 
HETATM   43  C1  UNL     1      13.301   1.398   0.185  1.00  0.00     0.034 C 
ENDBRANCH  41  42
ENDBRANCH  37  41
ENDBRANCH  31  33
ENDBRANCH  28  30
ENDBRANCH  27  28
BRANCH  27  44
HETATM   44  C10 UNL     1       0.977  -1.351   0.746  1.00  0.00     0.029 C 
HETATM   45  C11 UNL     1       1.528  -2.419   1.626  1.00  0.00     0.007 C 
ENDBRANCH  27  44
ENDBRANCH   1  27
TORSDOF 13
