REMARK  4 active torsions:
REMARK  status: ('A' for Active; 'I' for Inactive)
REMARK    1  A    between atoms: C2_2  and  O1_5 
REMARK    2  A    between atoms: O1_5  and  C5_6 
REMARK    3  A    between atoms: C5_6  and  N1_8 
REMARK    4  A    between atoms: N1_8  and  C6_10 
ROOT
HETATM    1  C5  UNL     1       0.395  -0.372   0.078  1.00  0.00     0.211 C 
HETATM    2  S1  UNL     1       0.262  -1.491   1.249  1.00  0.00    -0.033 SA
ENDROOT
BRANCH   1   3
HETATM    3  O1  UNL     1       1.542  -0.247  -0.644  1.00  0.00    -0.317 OA
BRANCH   3   4
HETATM    4  C2  UNL     1       2.837  -0.123  -0.127  1.00  0.00     0.059 C 
HETATM    5  C1  UNL     1       3.026   1.083   0.751  1.00  0.00     0.045 C 
HETATM    6  C3  UNL     1       3.779   0.051  -1.320  1.00  0.00     0.045 C 
HETATM    7  C4  UNL     1       3.231  -1.396   0.594  1.00  0.00     0.045 C 
ENDBRANCH   3   4
ENDBRANCH   1   3
BRANCH   1   8
HETATM    8  N1  UNL     1      -0.702   0.480  -0.189  1.00  0.00    -0.357 N 
ATOM      9  H1  UNL     1      -0.627   1.185  -0.923  1.00  0.00     0.162 HD
BRANCH   8  10
HETATM   10  C6  UNL     1      -1.943   0.360   0.577  1.00  0.00     0.084 C 
HETATM   11  C7  UNL     1      -2.920   1.387   0.084  1.00  0.00     0.025 C 
HETATM   12  C8  UNL     1      -3.921   0.551  -0.727  1.00  0.00     0.002 C 
HETATM   13  C9  UNL     1      -4.040  -0.665   0.168  1.00  0.00     0.002 C 
HETATM   14  C10 UNL     1      -2.582  -0.988   0.419  1.00  0.00     0.025 C 
ENDBRANCH   8  10
ENDBRANCH   1   8
TORSDOF 4
