REMARK  1 active torsions:
REMARK  status: ('A' for Active; 'I' for Inactive)
REMARK    1  A    between atoms: N1_1  and  C1_4 
ROOT
HETATM    1  C1  UNL     1       1.554  -0.046  -0.002  1.00  0.00     0.183 A 
HETATM    2  N2  UNL     1       0.742   1.022   0.086  1.00  0.00    -0.279 N 
ATOM      3  H2  UNL     1       1.150   1.954   0.162  1.00  0.00     0.189 HD
HETATM    4  N3  UNL     1      -0.589   0.891   0.076  1.00  0.00    -0.272 N 
ATOM      5  H3  UNL     1      -1.174   1.724   0.143  1.00  0.00     0.189 HD
HETATM    6  C2  UNL     1      -1.177  -0.328  -0.022  1.00  0.00     0.210 A 
HETATM    7  N4  UNL     1      -2.591  -0.450  -0.031  1.00  0.00    -0.062 NA
HETATM    8  N5  UNL     1      -0.352  -1.387  -0.109  1.00  0.00    -0.293 N 
ATOM      9  H5  UNL     1      -0.766  -2.316  -0.184  1.00  0.00     0.172 HD
HETATM   10  C3  UNL     1       0.982  -1.288  -0.103  1.00  0.00     0.292 A 
HETATM   11  O1  UNL     1       1.712  -2.291  -0.185  1.00  0.00    -0.264 OA
ENDROOT
BRANCH   1  12
HETATM   12  N1  UNL     1       2.830   0.138   0.012  1.00  0.00    -0.380 N 
ATOM     13  H12 UNL     1       3.256   1.062   0.087  1.00  0.00     0.158 HD
ATOM     14  H11 UNL     1       3.446  -0.672  -0.055  1.00  0.00     0.158 HD
ENDBRANCH   1  12
TORSDOF 1
