REMARK  1 active torsions:
REMARK  status: ('A' for Active; 'I' for Inactive)
REMARK    1  A    between atoms: N1_1  and  N2_4 
ROOT
HETATM    1  N2  UNL     1       1.690   0.184  -0.588  1.00  0.00    -0.031 NA
HETATM    2  N3  UNL     1       0.918  -0.854  -1.055  1.00  0.00    -0.016 NA
HETATM    3  N4  UNL     1       0.094  -1.409  -0.053  1.00  0.00    -0.127 NA
HETATM    4  C1  UNL     1      -1.291  -1.171  -0.319  1.00  0.00     0.151 C 
HETATM    5  C2  UNL     1      -1.902  -0.130   0.559  1.00  0.00     0.142 C 
HETATM    6  N5  UNL     1      -1.340   1.164   0.469  1.00  0.00    -0.341 N 
ATOM      7  H5  UNL     1      -2.016   1.845   0.814  1.00  0.00     0.164 HD
HETATM    8  C3  UNL     1      -0.154   1.848   0.062  1.00  0.00     0.333 C 
HETATM    9  O1  UNL     1      -0.145   3.087   0.285  1.00  0.00    -0.246 OA
HETATM   10  N6  UNL     1       1.051   1.414  -0.559  1.00  0.00    -0.236 N 
ATOM     11  H6  UNL     1       1.535   2.145  -1.080  1.00  0.00     0.189 HD
ENDROOT
BRANCH   1  12
HETATM   12  N1  UNL     1       2.399  -0.152   0.506  1.00  0.00    -0.329 NA
ATOM     13  H12 UNL     1       2.869  -1.057   0.485  1.00  0.00     0.174 HD
ATOM     14  H11 UNL     1       2.972   0.618   0.852  1.00  0.00     0.174 HD
ENDBRANCH   1  12
TORSDOF 1
