REMARK  3 active torsions:
REMARK  status: ('A' for Active; 'I' for Inactive)
REMARK    1  A    between atoms: C1_4  and  N2_5 
REMARK    2  A    between atoms: C1_4  and  C3_15 
REMARK    3  A    between atoms: N2_5  and  C2_7 
ROOT
HETATM    1  N2  UNL     1       0.311  -0.686  -1.076  1.00  0.00    -0.170 N 
ATOM      2  H2  UNL     1       0.408  -1.055  -2.022  1.00  0.00     0.186 HD
ENDROOT
BRANCH   1   3
HETATM    3  C1  UNL     1      -0.991  -0.583  -0.523  1.00  0.00     0.180 C 
HETATM    4  N1  UNL     1      -1.638  -1.672  -0.320  1.00  0.00    -0.381 N 
ATOM      5  H12 UNL     1      -1.201  -2.562  -0.559  1.00  0.00     0.157 HD
ATOM      6  H11 UNL     1      -2.574  -1.598   0.078  1.00  0.00     0.157 HD
BRANCH   3   7
HETATM    7  C3  UNL     1      -1.614   0.687  -0.182  1.00  0.00     0.298 C 
HETATM    8  N7  UNL     1      -2.914   0.725   0.365  1.00  0.00    -0.054 NA
HETATM    9  O1  UNL     1      -1.033   1.795  -0.356  1.00  0.00    -0.268 OA
ENDBRANCH   3   7
ENDBRANCH   1   3
BRANCH   1  10
HETATM   10  C2  UNL     1       1.378  -0.336  -0.443  1.00  0.00     0.712 A 
HETATM   11  N3  UNL     1       2.606  -0.445  -0.992  1.00  0.00    -0.113 N 
HETATM   12  N4  UNL     1       3.470  -0.005  -0.091  1.00  0.00     0.009 NA
ATOM     13  H3  UNL     1       2.826  -0.799  -1.923  1.00  0.00     0.203 HD
HETATM   14  N5  UNL     1       2.834   0.377   1.005  1.00  0.00    -0.212 N 
HETATM   15  N6  UNL     1       1.551   0.170   0.778  1.00  0.00    -0.118 N 
ATOM     16  H5  UNL     1       3.252   0.756   1.855  1.00  0.00     0.206 HD
ATOM     17  H6  UNL     1       0.801   0.368   1.440  1.00  0.00     0.207 HD
ENDBRANCH   1  10
TORSDOF 3
