REMARK  6 active torsions:
REMARK  status: ('A' for Active; 'I' for Inactive)
REMARK    1  A    between atoms: N1_1  and  C1_4 
REMARK    2  A    between atoms: C3_9  and  C4_10 
REMARK    3  A    between atoms: C5_12  and  N4_13 
REMARK       I    between atoms: N4_13  and  C6_15 
REMARK    4  A    between atoms: C6_15  and  O3_17 
REMARK    5  A    between atoms: O3_17  and  C7_18 
REMARK    6  A    between atoms: C7_18  and  C8_19 
ROOT
HETATM    1  C1  UNL     1      -1.434  -1.646  -0.534  1.00  0.00     0.678 A 
HETATM    2  N2  UNL     1      -2.597  -0.979  -0.636  1.00  0.00    -0.178 N 
ATOM      3  H2  UNL     1      -3.387  -1.442  -1.085  1.00  0.00     0.185 HD
HETATM    4  C2  UNL     1      -2.765   0.271  -0.172  1.00  0.00     0.148 A 
HETATM    5  N3  UNL     1      -4.005   0.978  -0.282  1.00  0.00    -0.081 NA
HETATM    6  C3  UNL     1      -1.661   0.878   0.440  1.00  0.00     0.088 A 
HETATM    7  C5  UNL     1      -0.460   0.209   0.554  1.00  0.00     0.142 A 
HETATM    8  N5  UNL     1      -0.389  -1.037   0.059  1.00  0.00    -0.176 N 
ATOM      9  H5  UNL     1       0.493  -1.544   0.135  1.00  0.00     0.186 HD
ENDROOT
BRANCH   7  10
HETATM   10  N4  UNL     1       0.512   0.808   1.119  1.00  0.00    -0.287 N 
HETATM   11  C6  UNL     1       1.803   0.243   1.305  1.00  0.00     0.366 C 
HETATM   12  O2  UNL     1       2.015  -0.813   1.926  1.00  0.00    -0.238 OA
ATOM     13  H4  UNL     1       0.353   1.756   1.461  1.00  0.00     0.172 HD
BRANCH  11  14
HETATM   14  O3  UNL     1       2.876   0.921   0.755  1.00  0.00    -0.297 OA
BRANCH  14  15
HETATM   15  C7  UNL     1       4.221   0.539   0.813  1.00  0.00     0.249 C 
BRANCH  15  16
HETATM   16  C8  UNL     1       4.394  -0.748   0.110  1.00  0.00     0.257 C 
HETATM   17  O4  UNL     1       3.468  -1.288  -0.444  1.00  0.00    -0.305 OA
ENDBRANCH  15  16
ENDBRANCH  14  15
ENDBRANCH  11  14
ENDBRANCH   7  10
BRANCH   6  18
HETATM   18  C4  UNL     1      -1.778   2.220   0.959  1.00  0.00     0.277 C 
HETATM   19  O1  UNL     1      -2.864   2.837   0.862  1.00  0.00    -0.301 OA
ENDBRANCH   6  18
BRANCH   1  20
HETATM   20  N1  UNL     1      -1.308  -2.866  -0.999  1.00  0.00    -0.234 N 
ATOM     21  H12 UNL     1      -2.099  -3.327  -1.448  1.00  0.00     0.174 HD
ATOM     22  H11 UNL     1      -0.426  -3.372  -0.922  1.00  0.00     0.174 HD
ENDBRANCH   1  20
TORSDOF 6
