REMARK  3 active torsions:
REMARK  status: ('A' for Active; 'I' for Inactive)
REMARK       I    between atoms: C1_4  and  N3_6 
REMARK    1  A    between atoms: N3_6  and  N4_8 
REMARK    2  A    between atoms: N4_8  and  C2_10 
REMARK    3  A    between atoms: C3_11  and  C4_12 
ROOT
HETATM    1  C4  UNL     1      -1.273  -0.340   0.125  1.00  0.00     0.085 A 
HETATM    2  N5  UNL     1      -2.075  -0.693   1.105  1.00  0.00    -0.337 N 
ATOM      3  H5  UNL     1      -1.695  -1.272   1.854  1.00  0.00     0.167 HD
HETATM    4  C5  UNL     1      -3.436  -0.314   1.179  1.00  0.00     0.134 A 
HETATM    5  N6  UNL     1      -4.387  -0.546   2.039  1.00  0.00    -0.337 N 
ATOM      6  H6  UNL     1      -4.279  -1.102   2.888  1.00  0.00     0.168 HD
HETATM    7  C6  UNL     1      -5.591   0.079   1.634  1.00  0.00     0.182 A 
HETATM    8  N7  UNL     1      -5.414   0.708   0.521  1.00  0.00    -0.349 N 
ATOM      9  H7  UNL     1      -6.115   1.242   0.007  1.00  0.00     0.166 HD
HETATM   10  C7  UNL     1      -4.048   0.513   0.147  1.00  0.00     0.081 A 
HETATM   11  C8  UNL     1      -3.281   0.884  -0.846  1.00  0.00     0.090 A 
HETATM   12  C9  UNL     1      -1.856   0.480  -0.911  1.00  0.00     0.200 A 
HETATM   13  O1  UNL     1      -1.171   0.867  -1.887  1.00  0.00    -0.286 OA
ENDROOT
BRANCH   1  14
HETATM   14  C3  UNL     1       0.117  -0.799   0.166  1.00  0.00     0.052 C 
HETATM   15  C2  UNL     1       1.054  -0.563  -0.692  1.00  0.00     0.109 C 
BRANCH  15  16
HETATM   16  N4  UNL     1       2.375  -1.102  -0.486  1.00  0.00    -0.309 N 
ATOM     17  H4  UNL     1       2.491  -1.930   0.098  1.00  0.00     0.186 HD
BRANCH  16  18
HETATM   18  N3  UNL     1       3.498  -0.514  -1.070  1.00  0.00    -0.274 N 
HETATM   19  C1  UNL     1       4.463   0.204  -0.300  1.00  0.00     0.200 C 
HETATM   20  N1  UNL     1       5.728   0.039  -0.423  1.00  0.00    -0.372 N 
HETATM   21  N2  UNL     1       4.039   1.170   0.674  1.00  0.00    -0.062 NA
ATOM     22  H12 UNL     1       6.417   0.552   0.127  1.00  0.00     0.158 HD
ATOM     23  H11 UNL     1       6.029  -0.647  -1.115  1.00  0.00     0.158 HD
ATOM     24  H3  UNL     1       3.634  -0.600  -2.077  1.00  0.00     0.189 HD
ENDBRANCH  16  18
ENDBRANCH  15  16
ENDBRANCH   1  14
TORSDOF 3
