REMARK  13 active torsions:
REMARK  status: ('A' for Active; 'I' for Inactive)
REMARK    1  A    between atoms: N2_4  and  N3_6 
REMARK       I    between atoms: N3_6  and  C1_8 
REMARK       I    between atoms: C1_8  and  N5_13 
REMARK    2  A    between atoms: N4_9  and  O1_11 
REMARK    3  A    between atoms: N5_13  and  C2_15 
REMARK    4  A    between atoms: C2_15  and  C3_16 
REMARK    5  A    between atoms: C5_19  and  C6_20 
REMARK    6  A    between atoms: C6_20  and  N6_21 
REMARK    7  A    between atoms: N6_21  and  C7_24 
REMARK    8  A    between atoms: C7_24  and  C8_25 
REMARK    9  A    between atoms: C8_25  and  O3_26 
REMARK   10  A    between atoms: O3_26  and  C9_27 
REMARK   11  A    between atoms: C9_27  and  C10_28 
REMARK   12  A    between atoms: C10_28  and  N7_29 
REMARK   13  A    between atoms: C11_36  and  O4_37 
ROOT
HETATM    1  C3  UNL     1      -2.507  -0.944   0.268  1.00  0.00     0.216 C 
HETATM    2  O2  UNL     1      -1.710  -0.372   1.263  1.00  0.00    -0.374 OA
HETATM    3  C4  UNL     1      -0.431  -0.089   0.787  1.00  0.00     0.203 C 
HETATM    4  C5  UNL     1       0.082  -1.279  -0.035  1.00  0.00     0.238 C 
HETATM    5  N8  UNL     1      -0.626  -1.242  -1.283  1.00  0.00    -0.038 N 
ATOM      6  H81 UNL     1      -0.604  -2.148  -1.750  1.00  0.00     0.281 HD
ATOM      7  H82 UNL     1      -0.124  -0.692  -1.980  1.00  0.00     0.281 HD
HETATM    8  C11 UNL     1      -1.994  -0.764  -1.112  1.00  0.00     0.353 C 
ENDROOT
BRANCH   1   9
HETATM    9  C2  UNL     1      -3.876  -0.351   0.489  1.00  0.00     0.115 C 
BRANCH   9  10
HETATM   10  N5  UNL     1      -4.897  -0.760  -0.385  1.00  0.00    -0.200 N 
HETATM   11  C1  UNL     1      -6.225  -0.341  -0.271  1.00  0.00     0.717 C 
HETATM   12  N3  UNL     1      -6.605   0.995  -0.114  1.00  0.00    -0.116 N 
HETATM   13  N4  UNL     1      -7.172  -1.228  -0.315  1.00  0.00    -0.097 N 
ATOM     14  H3  UNL     1      -7.534   1.243  -0.455  1.00  0.00     0.207 HD
ATOM     15  H4  UNL     1      -8.148  -0.942  -0.236  1.00  0.00     0.213 HD
ATOM     16  H5  UNL     1      -4.656  -1.397  -1.144  1.00  0.00     0.183 HD
BRANCH  12  17
HETATM   17  N2  UNL     1      -5.863   2.026   0.454  1.00  0.00    -0.235 N 
HETATM   18  N1  UNL     1      -5.813   3.167  -0.048  1.00  0.00    -0.330 N 
ATOM     19  H12 UNL     1      -6.340   3.333  -0.905  1.00  0.00     0.178 HD
ATOM     20  H11 UNL     1      -5.269   3.923   0.368  1.00  0.00     0.178 HD
ATOM     21  H2  UNL     1      -5.341   1.842   1.311  1.00  0.00     0.208 HD
ENDBRANCH  12  17
BRANCH  13  22
HETATM   22  O1  UNL     1      -6.855  -2.534  -0.467  1.00  0.00    -0.276 OA
ATOM     23  H1  UNL     1      -7.548  -3.183  -0.499  1.00  0.00     0.245 HD
ENDBRANCH  13  22
ENDBRANCH   9  10
ENDBRANCH   1   9
BRANCH   8  24
HETATM   24  O4  UNL     1      -2.033   0.542  -1.582  1.00  0.00    -0.367 OA
ATOM     25  H4  UNL     1      -1.704   0.657  -2.466  1.00  0.00     0.212 HD
ENDBRANCH   8  24
BRANCH   4  26
HETATM   26  C6  UNL     1       1.568  -1.126  -0.089  1.00  0.00     0.267 C 
BRANCH  26  27
HETATM   27  N6  UNL     1       2.047   0.047  -0.712  1.00  0.00    -0.071 N 
ATOM     28  H62 UNL     1       1.797   0.082  -1.700  1.00  0.00     0.277 HD
ATOM     29  H61 UNL     1       1.543   0.877  -0.399  1.00  0.00     0.277 HD
BRANCH  27  30
HETATM   30  C7  UNL     1       3.503   0.177  -0.508  1.00  0.00     0.258 C 
BRANCH  30  31
HETATM   31  C8  UNL     1       3.823   0.590   0.893  1.00  0.00     0.195 C 
BRANCH  31  32
HETATM   32  O3  UNL     1       5.097   0.724   1.239  1.00  0.00    -0.388 OA
BRANCH  32  33
HETATM   33  C9  UNL     1       6.022   1.446   0.618  1.00  0.00     0.195 C 
BRANCH  33  34
HETATM   34  C10 UNL     1       6.605   0.915  -0.670  1.00  0.00     0.255 C 
BRANCH  34  35
HETATM   35  N7  UNL     1       7.237  -0.374  -0.360  1.00  0.00    -0.077 N 
ATOM     36  H73 UNL     1       7.922  -0.313   0.394  1.00  0.00     0.274 HD
ATOM     37  H72 UNL     1       6.602  -1.032   0.093  1.00  0.00     0.274 HD
ATOM     38  H71 UNL     1       7.631  -0.733  -1.230  1.00  0.00     0.274 HD
ENDBRANCH  34  35
ENDBRANCH  33  34
ENDBRANCH  32  33
ENDBRANCH  31  32
ENDBRANCH  30  31
ENDBRANCH  27  30
ENDBRANCH  26  27
ENDBRANCH   4  26
TORSDOF 13
