REMARK  15 active torsions:
REMARK  status: ('A' for Active; 'I' for Inactive)
REMARK    1  A    between atoms: N1_1  and  C1_5 
REMARK    2  A    between atoms: C1_5  and  C2_6 
REMARK    3  A    between atoms: C2_6  and  C3_7 
REMARK    4  A    between atoms: C3_7  and  C4_8 
REMARK    5  A    between atoms: C4_8  and  C5_9 
REMARK    6  A    between atoms: C5_9  and  N2_10 
REMARK    7  A    between atoms: N2_10  and  C6_12 
REMARK    8  A    between atoms: C7_15  and  O1_16 
REMARK    9  A    between atoms: O1_16  and  C8_17 
REMARK   10  A    between atoms: C8_17  and  O2_18 
REMARK   11  A    between atoms: O2_18  and  N5_19 
REMARK   12  A    between atoms: C9_22  and  O3_23 
REMARK   13  A    between atoms: C10_25  and  O4_26 
REMARK   14  A    between atoms: C11_28  and  C12_29 
REMARK   15  A    between atoms: C12_29  and  O5_30 
ROOT
HETATM    1  C6  UNL     1       0.120  -0.131   0.664  1.00  0.00     0.196 C 
HETATM    2  N3  UNL     1       1.040  -0.645   1.697  1.00  0.00    -0.120 NA
HETATM    3  N4  UNL     1       2.100  -1.334   1.076  1.00  0.00    -0.111 NA
HETATM    4  C7  UNL     1       3.281  -0.482   1.013  1.00  0.00     0.264 C 
HETATM    5  C9  UNL     1       2.834   0.952   1.153  1.00  0.00     0.193 C 
HETATM    6  C10 UNL     1       1.988   1.403   0.026  1.00  0.00     0.160 C 
HETATM    7  C11 UNL     1       0.920   0.425  -0.449  1.00  0.00     0.080 C 
ENDROOT
BRANCH   1   8
HETATM    8  N2  UNL     1      -0.902   0.582   1.270  1.00  0.00    -0.403 N 
ATOM      9  H2  UNL     1      -0.746   0.930   2.216  1.00  0.00     0.154 HD
BRANCH   8  10
HETATM   10  C5  UNL     1      -2.136   0.856   0.667  1.00  0.00     0.115 C 
BRANCH  10  11
HETATM   11  C4  UNL     1      -3.021  -0.387   0.536  1.00  0.00     0.019 C 
BRANCH  11  12
HETATM   12  C3  UNL     1      -4.342   0.038  -0.114  1.00  0.00     0.003 C 
BRANCH  12  13
HETATM   13  C2  UNL     1      -5.271  -1.155  -0.224  1.00  0.00     0.027 C 
BRANCH  13  14
HETATM   14  C1  UNL     1      -6.584  -0.772  -0.875  1.00  0.00     0.229 C 
BRANCH  14  15
HETATM   15  N1  UNL     1      -7.297   0.247  -0.172  1.00  0.00    -0.079 N 
ATOM     16  H13 UNL     1      -7.442  -0.021   0.801  1.00  0.00     0.274 HD
ATOM     17  H12 UNL     1      -6.709   1.069  -0.036  1.00  0.00     0.274 HD
ATOM     18  H11 UNL     1      -8.181   0.505  -0.610  1.00  0.00     0.274 HD
ENDBRANCH  14  15
ENDBRANCH  13  14
ENDBRANCH  12  13
ENDBRANCH  11  12
ENDBRANCH  10  11
ENDBRANCH   8  10
ENDBRANCH   1   8
BRANCH   7  19
HETATM   19  C12 UNL     1       0.166   1.131  -1.534  1.00  0.00     0.174 C 
BRANCH  19  20
HETATM   20  O5  UNL     1       1.036   1.569  -2.563  1.00  0.00    -0.400 OA
ATOM     21  H5  UNL     1       0.558   2.017  -3.251  1.00  0.00     0.209 HD
ENDBRANCH  19  20
ENDBRANCH   7  19
BRANCH   6  22
HETATM   22  O4  UNL     1       2.835   1.673  -1.047  1.00  0.00    -0.392 OA
ATOM     23  H4  UNL     1       2.292   1.963  -1.771  1.00  0.00     0.210 HD
ENDBRANCH   6  22
BRANCH   4  24
HETATM   24  O1  UNL     1       3.988  -0.592  -0.156  1.00  0.00    -0.339 OA
BRANCH  24  25
HETATM   25  C8  UNL     1       5.304  -1.019   0.080  1.00  0.00     0.371 C 
BRANCH  25  26
HETATM   26  O2  UNL     1       5.999  -1.121  -1.125  1.00  0.00    -0.261 OA
BRANCH  26  27
HETATM   27  N5  UNL     1       7.269  -1.533  -0.966  1.00  0.00    -0.309 N 
ATOM     28  H52 UNL     1       7.668  -1.745  -0.052  1.00  0.00     0.184 HD
ATOM     29  H51 UNL     1       7.777  -1.608  -1.847  1.00  0.00     0.184 HD
ENDBRANCH  26  27
ENDBRANCH  25  26
ENDBRANCH  24  25
ENDBRANCH   4  24
BRANCH   5  30
HETATM   30  O3  UNL     1       2.347   1.271   2.417  1.00  0.00    -0.389 OA
ATOM     31  H3  UNL     1       2.066   2.174   2.505  1.00  0.00     0.210 HD
ENDBRANCH   5  30
TORSDOF 15
