REMARK  11 active torsions:
REMARK  status: ('A' for Active; 'I' for Inactive)
REMARK    1  A    between atoms: C2_2  and  C3_3 
REMARK    2  A    between atoms: C3_3  and  C4_4 
REMARK    3  A    between atoms: C6_6  and  C7_7 
REMARK    4  A    between atoms: C7_7  and  O2_9 
REMARK    5  A    between atoms: O2_9  and  C8_10 
REMARK    6  A    between atoms: C12_14  and  O3_15 
REMARK    7  A    between atoms: C13_17  and  C14_18 
REMARK    8  A    between atoms: C15_21  and  O6_22 
REMARK    9  A    between atoms: C17_25  and  C18_26 
REMARK   10  A    between atoms: C18_26  and  C19_27 
REMARK   11  A    between atoms: C25_34  and  O8_35 
ROOT
HETATM    1  C8  UNL     1       0.461  -0.487  -1.380  1.00  0.00     0.162 C 
HETATM    2  C9  UNL     1       0.497  -1.729  -2.236  1.00  0.00     0.008 C 
HETATM    3  C10 UNL     1       1.622  -2.662  -1.854  1.00  0.00     0.020 C 
HETATM    4  C11 UNL     1       0.678  -1.380  -3.718  1.00  0.00     0.020 C 
HETATM    5  C12 UNL     1      -0.859  -2.393  -2.118  1.00  0.00     0.151 C 
HETATM    6  C13 UNL     1      -1.280  -1.996  -0.718  1.00  0.00     0.120 C 
HETATM    7  C15 UNL     1      -2.772  -2.049  -0.525  1.00  0.00     0.142 C 
HETATM    8  C16 UNL     1      -3.245  -0.952   0.429  1.00  0.00     0.053 C 
HETATM    9  C17 UNL     1      -2.498   0.292   0.114  1.00  0.00     0.054 C 
HETATM   10  C23 UNL     1      -1.061   0.140   0.550  1.00  0.00     0.153 C 
HETATM   11  O7  UNL     1      -0.519   0.526   1.577  1.00  0.00    -0.296 OA
HETATM   12  C24 UNL     1      -0.838  -0.560  -0.702  1.00  0.00     0.098 C 
HETATM   13  C25 UNL     1      -1.955   0.290  -1.321  1.00  0.00     0.154 C 
ENDROOT
BRANCH   1  14
HETATM   14  O2  UNL     1       1.576  -0.389  -0.526  1.00  0.00    -0.310 OA
BRANCH  14  15
HETATM   15  C7  UNL     1       2.460   0.705  -0.655  1.00  0.00     0.283 C 
HETATM   16  O1  UNL     1       2.188   1.540  -1.545  1.00  0.00    -0.260 OA
BRANCH  15  17
HETATM   17  C6  UNL     1       3.615   0.847   0.198  1.00  0.00     0.084 C 
HETATM   18  C4  UNL     1       4.456   1.836   0.116  1.00  0.00    -0.078 C 
HETATM   19  C5  UNL     1       4.286   2.916  -0.883  1.00  0.00     0.043 C 
BRANCH  18  20
HETATM   20  C3  UNL     1       5.614   1.921   1.016  1.00  0.00     0.033 C 
BRANCH  20  21
HETATM   21  C2  UNL     1       5.633   0.754   1.956  1.00  0.00    -0.000 C 
HETATM   22  C1  UNL     1       6.831   0.824   2.903  1.00  0.00     0.005 C 
ENDBRANCH  20  21
ENDBRANCH  18  20
ENDBRANCH  15  17
ENDBRANCH  14  15
ENDBRANCH   1  14
BRANCH   5  23
HETATM   23  O3  UNL     1      -0.765  -3.774  -2.257  1.00  0.00    -0.393 OA
ATOM     24  H3  UNL     1      -1.616  -4.191  -2.183  1.00  0.00     0.210 HD
ENDBRANCH   5  23
BRANCH   6  25
HETATM   25  C14 UNL     1      -0.629  -2.809   0.326  1.00  0.00     0.188 C 
HETATM   26  O4  UNL     1       0.109  -2.348   1.232  1.00  0.00    -0.647 OA
HETATM   27  O5  UNL     1      -0.847  -4.180   0.306  1.00  0.00    -0.647 OA
ENDBRANCH   6  25
BRANCH  13  28
HETATM   28  O8  UNL     1      -1.472   1.534  -1.662  1.00  0.00    -0.393 OA
ATOM     29  H8  UNL     1      -1.136   1.533  -2.551  1.00  0.00     0.210 HD
ENDBRANCH  13  28
BRANCH   7  30
HETATM   30  O6  UNL     1      -3.124  -3.265   0.101  1.00  0.00    -0.394 OA
ATOM     31  H6  UNL     1      -4.066  -3.298   0.223  1.00  0.00     0.210 HD
ENDBRANCH   7  30
BRANCH   9  32
HETATM   32  C18 UNL     1      -3.131   1.594   0.431  1.00  0.00     0.047 C 
BRANCH  32  33
HETATM   33  C19 UNL     1      -3.448   1.793   1.849  1.00  0.00    -0.023 C 
HETATM   34  C20 UNL     1      -4.687   2.005   2.274  1.00  0.00    -0.091 C 
HETATM   35  C21 UNL     1      -4.977   2.205   3.731  1.00  0.00     0.042 C 
HETATM   36  C22 UNL     1      -5.847   2.058   1.340  1.00  0.00     0.042 C 
ENDBRANCH  32  33
ENDBRANCH   9  32
TORSDOF 11
