REMARK  13 active torsions:
REMARK  status: ('A' for Active; 'I' for Inactive)
REMARK    1  A    between atoms: C5_5  and  S1_6 
REMARK    2  A    between atoms: S1_6  and  N1_9 
REMARK    3  A    between atoms: N1_9  and  N2_11 
REMARK       I    between atoms: N2_11  and  C7_14 
REMARK    4  A    between atoms: C7_14  and  C8_16 
REMARK    5  A    between atoms: C8_16  and  C9_17 
REMARK    6  A    between atoms: C8_16  and  C17_28 
REMARK    7  A    between atoms: C9_17  and  N4_18 
REMARK    8  A    between atoms: C22_33  and  C23_34 
REMARK    9  A    between atoms: C23_34  and  O5_36 
REMARK   10  A    between atoms: O5_36  and  C24_37 
REMARK   11  A    between atoms: C24_37  and  C25_38 
REMARK       I    between atoms: C25_38  and  N6_40 
REMARK   12  A    between atoms: N6_40  and  N7_42 
REMARK   13  A    between atoms: C26_44  and  C27_45 
ROOT
HETATM    1  N2  UNL     1      -2.413  -1.083  -1.287  1.00  0.00    -0.145 N 
HETATM    2  C6  UNL     1      -3.194  -0.156  -2.028  1.00  0.00     0.208 C 
HETATM    3  N3  UNL     1      -3.822   0.612  -2.664  1.00  0.00    -0.170 NA
HETATM    4  C7  UNL     1      -1.193  -1.501  -1.862  1.00  0.00     0.262 C 
HETATM    5  O3  UNL     1      -0.872  -0.929  -2.981  1.00  0.00    -0.270 OA
ENDROOT
BRANCH   1   6
HETATM    6  N1  UNL     1      -2.831  -1.560  -0.072  1.00  0.00    -0.204 N 
ATOM      7  H1  UNL     1      -2.510  -2.451   0.305  1.00  0.00     0.201 HD
BRANCH   6   8
HETATM    8  S1  UNL     1      -3.914  -0.567   0.753  1.00  0.00     0.277 S 
HETATM    9  O1  UNL     1      -4.519  -1.404   1.881  1.00  0.00    -0.199 OA
HETATM   10  O2  UNL     1      -5.060  -0.148  -0.094  1.00  0.00    -0.199 OA
BRANCH   8  11
HETATM   11  C5  UNL     1      -3.110   0.797   1.513  1.00  0.00     0.081 A 
HETATM   12  C4  UNL     1      -2.463   0.673   2.724  1.00  0.00     0.026 A 
HETATM   13  C3  UNL     1      -1.827   1.740   3.352  1.00  0.00     0.008 A 
HETATM   14  C2  UNL     1      -1.838   2.978   2.748  1.00  0.00    -0.062 A 
HETATM   15  C1  UNL     1      -1.161   4.116   3.418  1.00  0.00     0.048 C 
HETATM   16  C31 UNL     1      -2.478   3.124   1.539  1.00  0.00     0.008 A 
HETATM   17  C30 UNL     1      -3.113   2.039   0.921  1.00  0.00     0.026 A 
ENDBRANCH   8  11
ENDBRANCH   6   8
ENDBRANCH   1   6
BRANCH   4  18
HETATM   18  C8  UNL     1      -0.224  -2.487  -1.383  1.00  0.00     0.133 C 
BRANCH  18  19
HETATM   19  C9  UNL     1      -0.526  -3.885  -1.970  1.00  0.00     0.149 C 
BRANCH  19  20
HETATM   20  N4  UNL     1      -1.772  -4.464  -1.634  1.00  0.00    -0.340 N 
HETATM   21  C10 UNL     1      -2.048  -5.152  -0.503  1.00  0.00     0.183 A 
HETATM   22  N5  UNL     1      -3.330  -5.555  -0.518  1.00  0.00    -0.350 N 
HETATM   23  C11 UNL     1      -3.894  -5.127  -1.669  1.00  0.00     0.060 A 
ATOM     24  H5  UNL     1      -3.797  -6.091   0.213  1.00  0.00     0.166 HD
HETATM   25  C12 UNL     1      -5.128  -5.229  -2.251  1.00  0.00     0.032 A 
HETATM   26  C16 UNL     1      -2.900  -4.449  -2.348  1.00  0.00     0.062 A 
HETATM   27  C13 UNL     1      -5.407  -4.671  -3.504  1.00  0.00     0.002 A 
HETATM   28  C14 UNL     1      -4.418  -3.995  -4.185  1.00  0.00     0.002 A 
HETATM   29  C15 UNL     1      -3.163  -3.898  -3.579  1.00  0.00     0.032 A 
ENDBRANCH  19  20
ENDBRANCH  18  19
BRANCH  18  30
HETATM   30  C17 UNL     1       1.156  -2.162  -1.907  1.00  0.00    -0.027 A 
HETATM   31  C18 UNL     1       1.713  -2.878  -2.975  1.00  0.00     0.009 A 
HETATM   32  C19 UNL     1       2.962  -2.525  -3.472  1.00  0.00     0.001 A 
HETATM   33  C20 UNL     1       3.641  -1.474  -2.907  1.00  0.00     0.001 A 
HETATM   34  C21 UNL     1       3.121  -0.762  -1.865  1.00  0.00     0.018 A 
HETATM   35  C22 UNL     1       1.852  -1.121  -1.359  1.00  0.00     0.046 A 
BRANCH  35  36
HETATM   36  C23 UNL     1       1.435  -0.356  -0.217  1.00  0.00     0.294 C 
HETATM   37  O4  UNL     1       0.469  -0.597   0.518  1.00  0.00    -0.259 OA
BRANCH  36  38
HETATM   38  O5  UNL     1       2.142   0.812   0.186  1.00  0.00    -0.308 OA
BRANCH  38  39
HETATM   39  C24 UNL     1       1.764   1.581   1.294  1.00  0.00     0.283 C 
BRANCH  39  40
HETATM   40  C25 UNL     1       2.734   2.693   1.441  1.00  0.00     0.260 C 
HETATM   41  O6  UNL     1       2.571   3.496   2.389  1.00  0.00    -0.269 OA
HETATM   42  N6  UNL     1       3.824   2.881   0.565  1.00  0.00    -0.269 N 
ATOM     43  H6  UNL     1       3.959   2.230  -0.209  1.00  0.00     0.190 HD
BRANCH  42  44
HETATM   44  N7  UNL     1       4.713   3.926   0.731  1.00  0.00    -0.306 N 
HETATM   45  C26 UNL     1       5.175   4.372   1.839  1.00  0.00     0.146 C 
ATOM     46  H7  UNL     1       5.035   4.391  -0.118  1.00  0.00     0.186 HD
BRANCH  45  47
HETATM   47  C27 UNL     1       6.120   5.505   1.768  1.00  0.00     0.117 A 
HETATM   48  C28 UNL     1       6.720   6.127   2.839  1.00  0.00     0.059 A 
HETATM   49  C29 UNL     1       7.510   7.116   2.294  1.00  0.00     0.117 A 
HETATM   50  N8  UNL     1       7.341   7.028   0.980  1.00  0.00    -0.272 N 
HETATM   51  O7  UNL     1       6.525   6.083   0.673  1.00  0.00    -0.237 OA
ATOM     52  H8  UNL     1       7.801   7.634   0.300  1.00  0.00     0.194 HD
ENDBRANCH  45  47
ENDBRANCH  42  44
ENDBRANCH  39  40
ENDBRANCH  38  39
ENDBRANCH  36  38
ENDBRANCH  35  36
ENDBRANCH  18  30
ENDBRANCH   4  18
TORSDOF 13
