REMARK  6 active torsions:
REMARK  status: ('A' for Active; 'I' for Inactive)
REMARK    1  A    between atoms: C2_2  and  C3_3 
REMARK    2  A    between atoms: C3_3  and  C4_4 
REMARK    3  A    between atoms: C4_4  and  O1_5 
REMARK    4  A    between atoms: C9_11  and  C10_12 
REMARK    5  A    between atoms: C10_12  and  O3_14 
REMARK    6  A    between atoms: O3_14  and  C11_15 
ROOT
HETATM    1  C10 UNL     1      -0.754   0.027  -0.322  1.00  0.00     0.266 C 
HETATM    2  O2  UNL     1      -1.051   0.600  -1.372  1.00  0.00    -0.265 OA
ENDROOT
BRANCH   1   3
HETATM    3  C9  UNL     1      -1.649  -0.466   0.705  1.00  0.00     0.123 C 
HETATM    4  C4  UNL     1      -3.099  -0.193   0.566  1.00  0.00     0.071 C 
HETATM    5  C5  UNL     1      -3.653  -1.286  -0.324  1.00  0.00     0.039 C 
HETATM    6  C6  UNL     1      -2.559  -2.330  -0.392  1.00  0.00     0.008 C 
HETATM    7  C7  UNL     1      -1.674  -1.997   0.763  1.00  0.00    -0.002 C 
HETATM    8  C8  UNL     1      -0.320  -2.612   0.715  1.00  0.00     0.011 C 
BRANCH   4   9
HETATM    9  C3  UNL     1      -3.533   1.131   0.085  1.00  0.00     0.038 C 
BRANCH   9  10
HETATM   10  C2  UNL     1      -5.074   1.053   0.001  1.00  0.00    -0.002 C 
HETATM   11  C1  UNL     1      -5.653   2.340  -0.478  1.00  0.00     0.005 C 
ENDBRANCH   9  10
ENDBRANCH   4   9
BRANCH   4  12
HETATM   12  O1  UNL     1      -3.729  -0.376   1.835  1.00  0.00    -0.389 OA
ATOM     13  H1  UNL     1      -3.449  -1.229   2.145  1.00  0.00     0.210 HD
ENDBRANCH   4  12
ENDBRANCH   1   3
BRANCH   1  14
HETATM   14  O3  UNL     1       0.629  -0.162  -0.118  1.00  0.00    -0.315 OA
BRANCH  14  15
HETATM   15  C11 UNL     1       1.596   0.279  -1.054  1.00  0.00     0.140 C 
HETATM   16  C12 UNL     1       2.386  -0.833  -1.615  1.00  0.00     0.045 C 
HETATM   17  C13 UNL     1       3.728  -1.082  -1.015  1.00  0.00     0.058 C 
HETATM   18  C14 UNL     1       4.468   0.167  -0.616  1.00  0.00     0.017 C 
HETATM   19  C18 UNL     1       3.643  -1.943   0.200  1.00  0.00     0.131 C 
HETATM   20  C15 UNL     1       3.579   0.907   0.352  1.00  0.00    -0.003 C 
HETATM   21  C16 UNL     1       3.288   0.099   1.569  1.00  0.00     0.013 C 
HETATM   22  C19 UNL     1       2.374   1.375  -0.393  1.00  0.00    -0.017 C 
HETATM   23  C17 UNL     1       3.918  -1.288   1.512  1.00  0.00     0.079 C 
HETATM   24  C20 UNL     1       1.500   2.129   0.614  1.00  0.00     0.018 C 
HETATM   25  C21 UNL     1       2.815   2.416  -1.408  1.00  0.00     0.018 C 
HETATM   26  O4  UNL     1       3.372  -3.110   0.184  1.00  0.00    -0.298 OA
ENDBRANCH  14  15
ENDBRANCH   1  14
TORSDOF 6
