REMARK  11 active torsions:
REMARK  status: ('A' for Active; 'I' for Inactive)
REMARK    1  A    between atoms: C2_2  and  C3_3 
REMARK    2  A    between atoms: C4_4  and  C5_5 
REMARK    3  A    between atoms: C5_5  and  C6_6 
REMARK    4  A    between atoms: C7_7  and  O1_8 
REMARK    5  A    between atoms: C12_15  and  C13_16 
REMARK    6  A    between atoms: C14_17  and  C15_18 
REMARK    7  A    between atoms: C15_18  and  O3_19 
REMARK    8  A    between atoms: C15_18  and  C16_21 
REMARK    9  A    between atoms: C16_21  and  C17_22 
REMARK   10  A    between atoms: C17_22  and  C18_23 
REMARK   11  A    between atoms: N1_28  and  C23_29 
ROOT
HETATM    1  C6  UNL     1       3.156  -0.550   0.375  1.00  0.00     0.033 C 
HETATM    2  C7  UNL     1       4.588  -0.838   0.135  1.00  0.00     0.124 C 
HETATM    3  C8  UNL     1       5.001  -2.262   0.053  1.00  0.00     0.044 C 
HETATM    4  C9  UNL     1       4.084  -3.100  -0.811  1.00  0.00     0.054 C 
HETATM    5  C10 UNL     1       4.444  -4.553  -0.596  1.00  0.00     0.018 C 
HETATM    6  C11 UNL     1       2.714  -2.832  -0.341  1.00  0.00     0.139 C 
HETATM    7  O2  UNL     1       2.014  -3.734   0.039  1.00  0.00    -0.297 OA
HETATM    8  C12 UNL     1       2.220  -1.445  -0.347  1.00  0.00     0.085 C 
ENDROOT
BRANCH   8   9
HETATM    9  C13 UNL     1       0.805  -1.353   0.095  1.00  0.00    -0.016 C 
HETATM   10  C14 UNL     1       0.359  -0.687   1.135  1.00  0.00     0.001 C 
BRANCH  10  11
HETATM   11  C15 UNL     1      -1.080  -0.650   1.504  1.00  0.00     0.140 C 
BRANCH  11  12
HETATM   12  O3  UNL     1      -1.282  -0.202   2.792  1.00  0.00    -0.392 OA
ATOM     13  H3  UNL     1      -2.202  -0.178   3.028  1.00  0.00     0.210 HD
ENDBRANCH  11  12
BRANCH  11  14
HETATM   14  C16 UNL     1      -1.859   0.279   0.570  1.00  0.00     0.037 C 
BRANCH  14  15
HETATM   15  C17 UNL     1      -3.314   0.223   1.059  1.00  0.00     0.028 C 
BRANCH  15  16
HETATM   16  C18 UNL     1      -4.165   1.109   0.201  1.00  0.00     0.083 C 
HETATM   17  C19 UNL     1      -4.078   0.616  -1.216  1.00  0.00     0.025 C 
HETATM   18  C20 UNL     1      -5.406   0.554  -1.913  1.00  0.00     0.007 C 
HETATM   19  C21 UNL     1      -6.326   1.677  -1.571  1.00  0.00     0.044 C 
HETATM   20  C22 UNL     1      -6.343   2.022  -0.114  1.00  0.00     0.058 C 
HETATM   21  N1  UNL     1      -5.478   1.265   0.702  1.00  0.00    -0.389 N 
BRANCH  21  22
HETATM   22  C23 UNL     1      -6.045   0.069   1.268  1.00  0.00     0.118 C 
HETATM   23  C24 UNL     1      -7.427   0.293   1.779  1.00  0.00     0.026 C 
ENDBRANCH  21  22
ENDBRANCH  15  16
ENDBRANCH  14  15
ENDBRANCH  11  14
ENDBRANCH  10  11
ENDBRANCH   8   9
BRANCH   1  24
HETATM   24  C5  UNL     1       2.942   0.916  -0.066  1.00  0.00     0.035 C 
BRANCH  24  25
HETATM   25  C4  UNL     1       3.812   1.787   0.751  1.00  0.00    -0.030 C 
HETATM   26  C3  UNL     1       4.749   2.595   0.337  1.00  0.00    -0.031 C 
BRANCH  26  27
HETATM   27  C2  UNL     1       5.167   2.834  -1.056  1.00  0.00     0.022 C 
HETATM   28  C1  UNL     1       6.633   2.451  -1.157  1.00  0.00     0.009 C 
ENDBRANCH  26  27
ENDBRANCH  24  25
ENDBRANCH   1  24
BRANCH   2  29
HETATM   29  O1  UNL     1       5.308  -0.290   1.229  1.00  0.00    -0.395 OA
ATOM     30  H1  UNL     1       6.227  -0.475   1.075  1.00  0.00     0.210 HD
ENDBRANCH   2  29
TORSDOF 11
