REMARK  11 active torsions:
REMARK  status: ('A' for Active; 'I' for Inactive)
REMARK    1  A    between atoms: C4_5  and  N1_6 
REMARK    2  A    between atoms: N1_6  and  C5_8 
REMARK    3  A    between atoms: C5_8  and  C6_9 
REMARK    4  A    between atoms: C6_9  and  C7_10 
REMARK    5  A    between atoms: C7_10  and  C8_11 
REMARK    6  A    between atoms: C8_11  and  C9_12 
REMARK    7  A    between atoms: C9_12  and  C10_13 
REMARK    8  A    between atoms: C10_13  and  C11_14 
REMARK    9  A    between atoms: C11_14  and  C12_15 
REMARK   10  A    between atoms: C12_15  and  N2_16 
REMARK   11  A    between atoms: N2_16  and  C13_18 
ROOT
HETATM    1  C11 UNL     1      -1.213   1.577  -0.011  1.00  0.00     0.020 C 
ENDROOT
BRANCH   1   2
HETATM    2  C10 UNL     1      -0.395   0.394   0.400  1.00  0.00     0.002 C 
BRANCH   2   3
HETATM    3  C9  UNL     1       1.084   0.648   0.295  1.00  0.00     0.000 C 
BRANCH   3   4
HETATM    4  C8  UNL     1       1.925  -0.528   0.703  1.00  0.00     0.000 C 
BRANCH   4   5
HETATM    5  C7  UNL     1       3.373  -0.115   0.539  1.00  0.00     0.002 C 
BRANCH   5   6
HETATM    6  C6  UNL     1       4.328  -1.225   0.924  1.00  0.00     0.020 C 
BRANCH   6   7
HETATM    7  C5  UNL     1       5.765  -0.780   0.748  1.00  0.00     0.121 C 
BRANCH   7   8
HETATM    8  N1  UNL     1       6.696  -1.819   1.109  1.00  0.00    -0.370 N 
ATOM      9  H1  UNL     1       6.374  -2.710   1.487  1.00  0.00     0.161 HD
BRANCH   8  10
HETATM   10  C4  UNL     1       7.978  -1.574   0.932  1.00  0.00     0.144 A 
HETATM   11  S1  UNL     1       9.320  -2.574   1.253  1.00  0.00    -0.064 SA
HETATM   12  C3  UNL     1      10.552  -1.515   0.750  1.00  0.00     0.077 A 
HETATM   13  C2  UNL     1       9.843  -0.414   0.350  1.00  0.00     0.014 A 
HETATM   14  C1  UNL     1      10.575   0.813  -0.192  1.00  0.00     0.068 C 
HETATM   15  N5  UNL     1       8.535  -0.463   0.449  1.00  0.00    -0.340 N 
ATOM     16  H5  UNL     1       7.959   0.329   0.164  1.00  0.00     0.167 HD
ENDBRANCH   8  10
ENDBRANCH   7   8
ENDBRANCH   6   7
ENDBRANCH   5   6
ENDBRANCH   4   5
ENDBRANCH   3   4
ENDBRANCH   2   3
ENDBRANCH   1   2
BRANCH   1  17
HETATM   17  C12 UNL     1      -2.715   1.275   0.108  1.00  0.00     0.121 C 
BRANCH  17  18
HETATM   18  N2  UNL     1      -3.124   0.219  -0.677  1.00  0.00    -0.376 N 
ATOM     19  H2  UNL     1      -2.304  -0.120  -1.181  1.00  0.00     0.161 HD
BRANCH  18  20
HETATM   20  C13 UNL     1      -4.087  -0.488  -1.020  1.00  0.00     0.110 A 
HETATM   21  N3  UNL     1      -3.731  -1.467  -1.941  1.00  0.00    -0.338 N 
HETATM   22  C14 UNL     1      -4.670  -2.291  -2.386  1.00  0.00     0.182 A 
ATOM     23  H3  UNL     1      -2.768  -1.550  -2.267  1.00  0.00     0.168 HD
HETATM   24  N4  UNL     1      -5.965  -2.231  -1.991  1.00  0.00    -0.355 N 
HETATM   25  C15 UNL     1      -6.320  -1.285  -1.098  1.00  0.00     0.020 A 
ATOM     26  H4  UNL     1      -6.655  -2.886  -2.360  1.00  0.00     0.166 HD
HETATM   27  C16 UNL     1      -5.381  -0.403  -0.605  1.00  0.00     0.009 A 
HETATM   28  C21 UNL     1      -7.722  -1.160  -0.612  1.00  0.00     0.058 C 
HETATM   29  C17 UNL     1      -5.871   0.582   0.351  1.00  0.00     0.048 C 
HETATM   30  C18 UNL     1      -7.083   1.229  -0.373  1.00  0.00    -0.014 C 
HETATM   31  C19 UNL     1      -7.433   2.537   0.287  1.00  0.00     0.010 C 
HETATM   32  C20 UNL     1      -8.182   0.228  -0.367  1.00  0.00     0.010 C 
ENDBRANCH  18  20
ENDBRANCH  17  18
ENDBRANCH   1  17
TORSDOF 11
