REMARK  8 active torsions:
REMARK  status: ('A' for Active; 'I' for Inactive)
REMARK    1  A    between atoms: C2_2  and  N1_3 
REMARK    2  A    between atoms: C2_2  and  C9_13 
REMARK       I    between atoms: N1_3  and  C3_5 
REMARK    3  A    between atoms: C3_5  and  C4_7 
REMARK    4  A    between atoms: C4_7  and  C5_8 
REMARK    5  A    between atoms: C5_8  and  C6_9 
REMARK    6  A    between atoms: C6_9  and  C7_10 
REMARK       I    between atoms: C9_13  and  N3_15 
REMARK    7  A    between atoms: N3_15  and  C10_17 
REMARK    8  A    between atoms: C10_17  and  C12_19 
ROOT
HETATM    1  C7  UNL     1       7.343  -1.744  -1.346  1.00  0.00     0.124 C 
HETATM    2  C8  UNL     1       8.359  -0.981  -2.030  1.00  0.00     0.059 C 
HETATM    3  N2  UNL     1       9.162  -0.385  -2.586  1.00  0.00    -0.197 NA
ENDROOT
BRANCH   1   4
HETATM    4  C6  UNL     1       7.324  -1.468   0.145  1.00  0.00     0.014 C 
BRANCH   4   5
HETATM    5  C5  UNL     1       7.057  -0.038   0.459  1.00  0.00     0.010 C 
BRANCH   5   6
HETATM    6  C4  UNL     1       5.754   0.424  -0.072  1.00  0.00     0.103 C 
BRANCH   6   7
HETATM    7  C3  UNL     1       4.552  -0.249   0.446  1.00  0.00     0.218 C 
HETATM    8  N1  UNL     1       3.295   0.132  -0.125  1.00  0.00    -0.348 N 
ATOM      9  H1  UNL     1       3.272   0.842  -0.857  1.00  0.00     0.163 HD
HETATM   10  O1  UNL     1       4.640  -1.113   1.344  1.00  0.00    -0.274 OA
BRANCH   8  11
HETATM   11  C2  UNL     1       2.060  -0.472   0.317  1.00  0.00     0.172 C 
HETATM   12  C1  UNL     1       1.381  -1.243  -0.792  1.00  0.00     0.042 C 
BRANCH  11  13
HETATM   13  C9  UNL     1       1.211   0.579   0.907  1.00  0.00     0.240 C 
HETATM   14  O2  UNL     1       1.639   1.755   0.942  1.00  0.00    -0.271 OA
HETATM   15  N3  UNL     1      -0.084   0.334   1.448  1.00  0.00    -0.355 N 
ATOM     16  H3  UNL     1      -0.450  -0.618   1.428  1.00  0.00     0.162 HD
BRANCH  15  17
HETATM   17  C10 UNL     1      -0.898   1.375   2.023  1.00  0.00     0.085 C 
HETATM   18  C11 UNL     1      -0.981   1.077   3.527  1.00  0.00     0.032 C 
BRANCH  17  19
HETATM   19  C12 UNL     1      -2.287   1.454   1.498  1.00  0.00     0.017 C 
HETATM   20  C13 UNL     1      -2.413   1.708   0.031  1.00  0.00     0.007 C 
HETATM   21  C14 UNL     1      -2.447   0.535  -0.859  1.00  0.00     0.002 C 
HETATM   22  C15 UNL     1      -3.623  -0.331  -0.882  1.00  0.00     0.020 C 
HETATM   23  C16 UNL     1      -4.902   0.140  -0.318  1.00  0.00     0.008 C 
HETATM   24  C17 UNL     1      -5.855  -1.071  -0.346  1.00  0.00     0.020 C 
HETATM   25  C20 UNL     1      -5.677   1.120  -1.129  1.00  0.00     0.020 C 
HETATM   26  S1  UNL     1      -4.806   0.623   1.419  1.00  0.00    -0.159 SA
HETATM   27  C18 UNL     1      -6.364  -1.092  -1.770  1.00  0.00     0.002 C 
HETATM   28  C19 UNL     1      -6.447   0.344  -2.178  1.00  0.00     0.002 C 
HETATM   29  C21 UNL     1      -3.089   0.228   1.947  1.00  0.00     0.081 C 
ENDBRANCH  17  19
ENDBRANCH  15  17
ENDBRANCH  11  13
ENDBRANCH   8  11
ENDBRANCH   6   7
ENDBRANCH   5   6
ENDBRANCH   4   5
ENDBRANCH   1   4
TORSDOF 8
