REMARK  6 active torsions:
REMARK  status: ('A' for Active; 'I' for Inactive)
REMARK    1  A    between atoms: C2_3  and  C3_4 
REMARK    2  A    between atoms: C3_4  and  C4_5 
REMARK    3  A    between atoms: C5_6  and  O2_7 
REMARK    4  A    between atoms: C13_20  and  O3_21 
REMARK    5  A    between atoms: N3_23  and  C14_24 
REMARK    6  A    between atoms: C14_24  and  C15_25 
ROOT
HETATM    1  O1  UNL     1       1.478   2.140  -1.292  1.00  0.00    -0.265 OA
HETATM    2  C1  UNL     1       1.184   0.985  -0.900  1.00  0.00     0.276 A 
HETATM    3  C2  UNL     1      -0.058   0.692  -0.342  1.00  0.00     0.103 A 
HETATM    4  N2  UNL     1       0.004  -0.608  -0.063  1.00  0.00    -0.336 N 
ATOM      5  H2  UNL     1      -0.749  -1.150   0.361  1.00  0.00     0.168 HD
HETATM    6  C12 UNL     1       1.208  -1.106  -0.422  1.00  0.00     0.133 A 
HETATM    7  C13 UNL     1       1.590  -2.371  -0.313  1.00  0.00     0.179 C 
HETATM    8  N3  UNL     1       1.968  -0.099  -0.955  1.00  0.00    -0.291 N 
ENDROOT
BRANCH   3   9
HETATM    9  C3  UNL     1      -1.080   1.544  -0.146  1.00  0.00     0.052 C 
BRANCH   9  10
HETATM   10  C4  UNL     1      -2.311   1.082   0.451  1.00  0.00     0.030 A 
HETATM   11  C5  UNL     1      -2.549   0.846   1.775  1.00  0.00     0.151 A 
HETATM   12  N1  UNL     1      -3.841   0.413   1.927  1.00  0.00    -0.336 N 
HETATM   13  C6  UNL     1      -4.436   0.367   0.713  1.00  0.00     0.045 A 
ATOM     14  H1  UNL     1      -4.282   0.165   2.813  1.00  0.00     0.168 HD
HETATM   15  C7  UNL     1      -5.697   0.013   0.281  1.00  0.00     0.030 A 
HETATM   16  C11 UNL     1      -3.483   0.783  -0.198  1.00  0.00     0.005 A 
HETATM   17  C8  UNL     1      -6.004   0.075  -1.068  1.00  0.00     0.002 A 
HETATM   18  C9  UNL     1      -5.068   0.488  -2.000  1.00  0.00     0.001 A 
HETATM   19  C10 UNL     1      -3.836   0.829  -1.528  1.00  0.00     0.014 A 
BRANCH  11  20
HETATM   20  O2  UNL     1      -1.634   1.018   2.802  1.00  0.00    -0.345 OA
ATOM     21  H2  UNL     1      -1.800   0.854   3.723  1.00  0.00     0.219 HD
ENDBRANCH  11  20
ENDBRANCH   9  10
ENDBRANCH   3   9
BRANCH   8  22
HETATM   22  C14 UNL     1       3.314  -0.286  -1.447  1.00  0.00     0.192 C 
BRANCH  22  23
HETATM   23  C15 UNL     1       4.414  -0.105  -0.515  1.00  0.00     0.045 A 
HETATM   24  N4  UNL     1       4.956  -1.164   0.166  1.00  0.00    -0.367 N 
HETATM   25  C16 UNL     1       5.932  -0.752   0.985  1.00  0.00     0.089 A 
ATOM     26  H4  UNL     1       4.657  -2.134   0.063  1.00  0.00     0.165 HD
HETATM   27  C17 UNL     1       6.037   0.597   0.840  1.00  0.00     0.038 A 
HETATM   28  C18 UNL     1       5.089   1.001  -0.098  1.00  0.00     0.036 A 
HETATM   29 BR1  UNL     1       4.898   2.833  -0.695  1.00  0.00    -0.049 Br
ENDBRANCH  22  23
ENDBRANCH   8  22
BRANCH   7  30
HETATM   30  O3  UNL     1       0.659  -3.283   0.230  1.00  0.00    -0.369 OA
ATOM     31  H3  UNL     1       0.933  -4.189   0.308  1.00  0.00     0.216 HD
ENDBRANCH   7  30
TORSDOF 6
