REMARK  5 active torsions:
REMARK  status: ('A' for Active; 'I' for Inactive)
REMARK    1  A    between atoms: O1_2  and  C2_3 
REMARK    2  A    between atoms: C2_3  and  C5_6 
REMARK    3  A    between atoms: C8_12  and  C9_13 
REMARK    4  A    between atoms: C9_13  and  C10_14 
REMARK    5  A    between atoms: C12_21  and  O4_22 
ROOT
HETATM    1  C5  UNL     1      -2.018   1.100  -0.097  1.00  0.00     0.040 C 
HETATM    2  C6  UNL     1      -0.741   1.017  -0.078  1.00  0.00     0.040 A 
HETATM    3  N1  UNL     1      -0.047   2.223  -0.120  1.00  0.00    -0.323 N 
ATOM      4  H1  UNL     1      -0.579   3.092  -0.161  1.00  0.00     0.169 HD
HETATM    5  C7  UNL     1       1.289   2.290  -0.109  1.00  0.00     0.256 A 
HETATM    6  O2  UNL     1       1.888   3.408  -0.148  1.00  0.00    -0.267 OA
HETATM    7  C8  UNL     1       2.066   1.157  -0.053  1.00  0.00     0.035 A 
HETATM    8  C13 UNL     1       1.436  -0.060  -0.010  1.00  0.00     0.026 A 
HETATM    9  C14 UNL     1       0.028  -0.095  -0.024  1.00  0.00    -0.034 A 
HETATM   10  C15 UNL     1      -0.536  -1.441   0.018  1.00  0.00     0.050 C 
ENDROOT
BRANCH   7  11
HETATM   11  C9  UNL     1       3.384   1.209  -0.041  1.00  0.00     0.051 C 
BRANCH  11  12
HETATM   12  C10 UNL     1       4.198   0.016   0.018  1.00  0.00     0.088 A 
HETATM   13  N2  UNL     1       4.371  -0.710   1.147  1.00  0.00    -0.305 N 
HETATM   14  C11 UNL     1       5.176  -1.740   0.850  1.00  0.00     0.326 A 
ATOM     15  H2  UNL     1       3.962  -0.510   2.060  1.00  0.00     0.171 HD
HETATM   16  O3  UNL     1       5.542  -2.619   1.685  1.00  0.00    -0.247 OA
HETATM   17  N3  UNL     1       5.529  -1.687  -0.465  1.00  0.00    -0.287 N 
HETATM   18  C12 UNL     1       4.928  -0.611  -0.971  1.00  0.00     0.171 A 
ATOM     19  H3  UNL     1       6.133  -2.341  -0.963  1.00  0.00     0.172 HD
BRANCH  18  20
HETATM   20  O4  UNL     1       5.022  -0.187  -2.288  1.00  0.00    -0.344 OA
ATOM     21  H4  UNL     1       5.525  -0.619  -2.969  1.00  0.00     0.219 HD
ENDBRANCH  18  20
ENDBRANCH  11  12
ENDBRANCH   7  11
BRANCH   1  22
HETATM   22  C2  UNL     1      -3.211   0.270  -0.074  1.00  0.00     0.073 C 
HETATM   23  C3  UNL     1      -3.546  -0.160  -1.489  1.00  0.00     0.050 C 
HETATM   24  C4  UNL     1      -4.460   1.226   0.237  1.00  0.00     0.050 C 
BRANCH  22  25
HETATM   25  O1  UNL     1      -3.278  -0.714   0.865  1.00  0.00    -0.382 OA
HETATM   26  C1  UNL     1      -4.505  -1.308   1.004  1.00  0.00     0.202 C 
ENDBRANCH  22  25
ENDBRANCH   1  22
TORSDOF 5
