REMARK  3 active torsions:
REMARK  status: ('A' for Active; 'I' for Inactive)
REMARK    1  A    between atoms: C2_2  and  C3_3 
REMARK    2  A    between atoms: C3_3  and  N1_4 
REMARK       I    between atoms: N1_4  and  C5_6 
REMARK       I    between atoms: C5_6  and  N2_8 
REMARK       I    between atoms: N2_8  and  C6_10 
REMARK       I    between atoms: N4_12  and  C7_14 
REMARK       I    between atoms: C7_14  and  N5_16 
REMARK    3  A    between atoms: N5_16  and  N6_17 
ROOT
HETATM    1  N1  UNL     1       5.193  -0.587   0.378  1.00  0.00    -0.335 N 
HETATM    2  C4  UNL     1       5.030   0.328   1.508  1.00  0.00     0.154 C 
HETATM    3  C5  UNL     1       4.031  -0.895  -0.372  1.00  0.00     0.324 C 
HETATM    4  O1  UNL     1       4.128  -1.626  -1.365  1.00  0.00    -0.247 OA
HETATM    5  N2  UNL     1       2.763  -0.378  -0.000  1.00  0.00    -0.282 N 
ATOM      6  H2  UNL     1       2.698   0.216   0.826  1.00  0.00     0.173 HD
HETATM    7  C6  UNL     1       1.599  -0.653  -0.724  1.00  0.00     0.201 C 
HETATM    8  N3  UNL     1       1.772  -1.503  -1.903  1.00  0.00    -0.063 NA
HETATM    9  N4  UNL     1       0.422  -0.285  -0.517  1.00  0.00    -0.269 N 
ATOM     10  H4  UNL     1      -0.263  -0.620  -1.195  1.00  0.00     0.174 HD
HETATM   11  C7  UNL     1      -0.112   0.542   0.537  1.00  0.00     0.418 C 
HETATM   12  O2  UNL     1       0.749   1.205   1.190  1.00  0.00    -0.228 OA
HETATM   13  N5  UNL     1      -1.483   0.517   0.711  1.00  0.00    -0.262 NA
ENDROOT
BRANCH  13  14
HETATM   14  N6  UNL     1      -2.730   0.495   0.869  1.00  0.00    -0.193 N 
HETATM   15  C8  UNL     1      -3.808   0.088   0.376  1.00  0.00     0.245 C 
HETATM   16  N7  UNL     1      -5.069   0.377   1.032  1.00  0.00    -0.344 N 
HETATM   17  O3  UNL     1      -4.147  -0.641  -0.746  1.00  0.00    -0.318 OA
HETATM   18  C9  UNL     1      -6.091   0.395   0.000  1.00  0.00     0.048 C 
ATOM     19  H7  UNL     1      -5.211   0.537   2.029  1.00  0.00     0.164 HD
HETATM   20  C10 UNL     1      -7.363  -0.124   0.639  1.00  0.00     0.040 C 
HETATM   21  C11 UNL     1      -6.242   1.758  -0.594  1.00  0.00     0.040 C 
HETATM   22  C12 UNL     1      -5.528  -0.562  -1.021  1.00  0.00     0.209 C 
ATOM     23  H6  UNL     1      -2.948   1.003   1.727  1.00  0.00     0.206 HD
ENDBRANCH  13  14
BRANCH   1  24
HETATM   24  C3  UNL     1       6.445  -1.151   0.011  1.00  0.00     0.153 C 
BRANCH  24  25
HETATM   25  C2  UNL     1       7.231  -0.376  -0.966  1.00  0.00    -0.017 C 
HETATM   26  C1  UNL     1       6.920   0.754  -1.528  1.00  0.00     0.008 C 
ENDBRANCH  24  25
ENDBRANCH   1  24
TORSDOF 3
