REMARK  15 active torsions:
REMARK  status: ('A' for Active; 'I' for Inactive)
REMARK    1  A    between atoms: C3_3  and  C4_4 
REMARK    2  A    between atoms: C4_4  and  N1_5 
REMARK    3  A    between atoms: N1_5  and  C5_6 
REMARK    4  A    between atoms: N1_5  and  C8_9 
REMARK    5  A    between atoms: C10_13  and  C11_14 
REMARK    6  A    between atoms: C13_16  and  C14_17 
REMARK    7  A    between atoms: C14_17  and  O1_18 
REMARK    8  A    between atoms: C14_17  and  N3_20 
REMARK    9  A    between atoms: N3_20  and  C15_21 
REMARK   10  A    between atoms: N3_20  and  C19_26 
REMARK   11  A    between atoms: C15_21  and  C16_22 
REMARK   12  A    between atoms: C16_22  and  N4_23 
REMARK   13  A    between atoms: C19_26  and  C20_27 
REMARK   14  A    between atoms: C28_39  and  N7_40 
REMARK   15  A    between atoms: N7_40  and  N8_42 
ROOT
HETATM    1  C1  UNL     1      11.153   1.351   1.854  1.00  0.00     0.097 C 
HETATM    2  C2  UNL     1      10.195   0.701   1.450  1.00  0.00    -0.182 C 
HETATM    3  C3  UNL     1       9.099  -0.106   0.963  1.00  0.00     0.125 C 
ENDROOT
BRANCH   3   4
HETATM    4  C4  UNL     1       8.244   0.428  -0.094  1.00  0.00     0.099 C 
BRANCH   4   5
HETATM    5  N1  UNL     1       7.370   1.512   0.036  1.00  0.00    -0.164 N 
BRANCH   5   6
HETATM    6  C5  UNL     1       7.595   2.895   0.267  1.00  0.00     0.177 C 
HETATM    7  C6  UNL     1       7.936   3.278   1.618  1.00  0.00    -0.071 C 
HETATM    8  C7  UNL     1       8.188   3.627   2.759  1.00  0.00     0.018 C 
ENDBRANCH   5   6
BRANCH   5   9
HETATM    9  C8  UNL     1       5.938   1.168  -0.103  1.00  0.00     0.688 A 
HETATM   10  N2  UNL     1       5.222   1.604  -1.132  1.00  0.00    -0.200 N 
HETATM   11  C9  UNL     1       3.909   1.286  -1.273  1.00  0.00     0.121 A 
ATOM     12  H2  UNL     1       5.669   2.193  -1.835  1.00  0.00     0.183 HD
HETATM   13  C10 UNL     1       3.321   0.495  -0.324  1.00  0.00     0.022 A 
HETATM   14  C30 UNL     1       4.057   0.039   0.746  1.00  0.00     0.121 A 
HETATM   15  N10 UNL     1       5.377   0.400   0.827  1.00  0.00    -0.200 N 
ATOM     16  H10 UNL     1       5.939   0.074   1.614  1.00  0.00     0.183 HD
BRANCH  13  17
HETATM   17  C11 UNL     1       1.905   0.109  -0.426  1.00  0.00     0.046 A 
HETATM   18  C12 UNL     1       1.172  -0.653   0.422  1.00  0.00     0.047 A 
HETATM   19  C13 UNL     1      -0.151  -0.792  -0.045  1.00  0.00     0.032 A 
HETATM   20  C29 UNL     1      -0.153  -0.075  -1.204  1.00  0.00     0.104 A 
HETATM   21  N9  UNL     1       1.096   0.466  -1.425  1.00  0.00    -0.364 N 
ATOM     22  H9  UNL     1       1.359   1.045  -2.223  1.00  0.00     0.165 HD
BRANCH  19  23
HETATM   23  C14 UNL     1      -1.175  -1.535   0.649  1.00  0.00     0.150 C 
BRANCH  23  24
HETATM   24  O1  UNL     1      -0.830  -2.010   1.830  1.00  0.00    -0.345 OA
ATOM     25  H1  UNL     1      -1.504  -2.499   2.287  1.00  0.00     0.219 HD
ENDBRANCH  23  24
BRANCH  23  26
HETATM   26  N3  UNL     1      -2.487  -1.854   0.295  1.00  0.00    -0.354 N 
BRANCH  26  27
HETATM   27  C15 UNL     1      -3.240  -2.631   1.307  1.00  0.00     0.155 C 
BRANCH  27  28
HETATM   28  C16 UNL     1      -3.076  -4.094   1.200  1.00  0.00     0.291 C 
BRANCH  28  29
HETATM   29  N4  UNL     1      -3.593  -4.680   0.015  1.00  0.00     0.081 N 
HETATM   30  C17 UNL     1      -5.054  -4.700   0.033  1.00  0.00     0.309 C 
HETATM   31  C18 UNL     1      -3.014  -5.980  -0.216  1.00  0.00     0.309 C 
ENDBRANCH  28  29
ENDBRANCH  27  28
ENDBRANCH  26  27
BRANCH  26  32
HETATM   32  C19 UNL     1      -3.132  -1.497  -0.920  1.00  0.00     0.186 C 
BRANCH  32  33
HETATM   33  C20 UNL     1      -3.830  -0.184  -0.833  1.00  0.00     0.073 A 
HETATM   34  N5  UNL     1      -3.799   0.522   0.314  1.00  0.00    -0.353 N 
HETATM   35  C21 UNL     1      -4.390   1.699   0.503  1.00  0.00     0.059 A 
ATOM     36  H5  UNL     1      -3.283   0.123   1.098  1.00  0.00     0.166 HD
HETATM   37  C22 UNL     1      -4.369   2.427   1.665  1.00  0.00     0.032 A 
HETATM   38  C27 UNL     1      -5.086   2.213  -0.589  1.00  0.00     0.061 A 
HETATM   39  C23 UNL     1      -5.004   3.628   1.780  1.00  0.00     0.009 A 
HETATM   40  C24 UNL     1      -5.701   4.171   0.730  1.00  0.00    -0.060 A 
HETATM   41  C25 UNL     1      -6.399   5.486   0.861  1.00  0.00     0.048 C 
HETATM   42  C26 UNL     1      -5.728   3.450  -0.439  1.00  0.00     0.038 A 
HETATM   43  N6  UNL     1      -5.139   1.547  -1.734  1.00  0.00    -0.338 N 
HETATM   44  C28 UNL     1      -4.514   0.322  -1.904  1.00  0.00     0.144 A 
ATOM     45  H6  UNL     1      -5.657   1.949  -2.515  1.00  0.00     0.167 HD
BRANCH  44  46
HETATM   46  N7  UNL     1      -4.632  -0.231  -3.039  1.00  0.00    -0.290 N 
ATOM     47  H7  UNL     1      -5.183   0.306  -3.708  1.00  0.00     0.188 HD
BRANCH  46  48
HETATM   48  N8  UNL     1      -4.168  -1.385  -3.518  1.00  0.00    -0.344 N 
ATOM     49  H82 UNL     1      -3.620  -1.906  -2.833  1.00  0.00     0.176 HD
ATOM     50  H81 UNL     1      -4.263  -1.830  -4.431  1.00  0.00     0.176 HD
ENDBRANCH  46  48
ENDBRANCH  44  46
ENDBRANCH  32  33
ENDBRANCH  26  32
ENDBRANCH  23  26
ENDBRANCH  19  23
ENDBRANCH  13  17
ENDBRANCH   5   9
ENDBRANCH   4   5
ENDBRANCH   3   4
TORSDOF 15
