REMARK  12 active torsions:
REMARK  status: ('A' for Active; 'I' for Inactive)
REMARK    1  A    between atoms: C2_2  and  C3_3 
REMARK    2  A    between atoms: C3_3  and  C5_5 
REMARK    3  A    between atoms: C7_10  and  C8_11 
REMARK    4  A    between atoms: C8_11  and  C9_12 
REMARK    5  A    between atoms: C9_12  and  C10_13 
REMARK    6  A    between atoms: C10_13  and  C11_14 
REMARK    7  A    between atoms: C11_14  and  N2_15 
REMARK    8  A    between atoms: N3_19  and  C12_20 
REMARK    9  A    between atoms: C12_20  and  O2_22 
REMARK   10  A    between atoms: C17_30  and  C18_31 
REMARK   11  A    between atoms: C24_40  and  C25_41 
REMARK   12  A    between atoms: C25_41  and  C26_42 
ROOT
HETATM    1  C5  UNL     1      -0.460  -2.973   0.008  1.00  0.00     0.084 C 
HETATM    2  N1  UNL     1       0.385  -2.084   0.717  1.00  0.00    -0.320 N 
ATOM      3  H1  UNL     1       0.223  -2.163   1.721  1.00  0.00     0.169 HD
HETATM    4  C6  UNL     1       1.357  -1.148   0.460  1.00  0.00     0.272 C 
HETATM    5  O1  UNL     1       1.214  -0.060   1.090  1.00  0.00    -0.266 OA
HETATM    6  C7  UNL     1       2.539  -1.204  -0.426  1.00  0.00     0.102 C 
HETATM    7  N3  UNL     1       3.004   0.061  -0.927  1.00  0.00    -0.314 N 
HETATM    8  C14 UNL     1       2.095   1.187  -1.124  1.00  0.00     0.180 C 
HETATM    9  C15 UNL     1       2.010   1.634  -2.575  1.00  0.00     0.043 C 
HETATM   10  C16 UNL     1       2.363   2.370  -0.297  1.00  0.00     0.240 C 
HETATM   11  O3  UNL     1       3.294   2.450   0.547  1.00  0.00    -0.271 OA
HETATM   12  N4  UNL     1       1.567   3.566  -0.382  1.00  0.00    -0.354 N 
ATOM     13  H4  UNL     1       2.040   4.463  -0.273  1.00  0.00     0.162 HD
HETATM   14  C17 UNL     1       0.154   3.577  -0.610  1.00  0.00     0.089 C 
HETATM   15  C21 UNL     1      -0.600   3.282   0.656  1.00  0.00     0.045 C 
HETATM   16  C22 UNL     1      -1.599   2.162   0.488  1.00  0.00     0.125 C 
HETATM   17  N5  UNL     1      -2.049   1.657   1.760  1.00  0.00    -0.356 N 
ATOM     18  H5  UNL     1      -2.052   2.301   2.551  1.00  0.00     0.162 HD
HETATM   19  C23 UNL     1      -2.487   0.330   1.990  1.00  0.00     0.268 C 
HETATM   20  O4  UNL     1      -2.698   0.029   3.174  1.00  0.00    -0.266 OA
HETATM   21  C24 UNL     1      -2.693  -0.667   0.931  1.00  0.00     0.102 C 
HETATM   22  N6  UNL     1      -2.541  -2.052   1.337  1.00  0.00    -0.313 N 
HETATM   23  C29 UNL     1      -3.108  -2.554   2.593  1.00  0.00     0.160 C 
HETATM   24  C30 UNL     1      -1.841  -3.056   0.584  1.00  0.00     0.271 C 
HETATM   25  O5  UNL     1      -2.478  -4.132   0.396  1.00  0.00    -0.266 OA
ENDROOT
BRANCH   6  26
HETATM   26  C8  UNL     1       3.578  -2.151   0.027  1.00  0.00     0.009 C 
BRANCH  26  27
HETATM   27  C9  UNL     1       4.244  -2.028   1.330  1.00  0.00     0.031 C 
BRANCH  27  28
HETATM   28  C10 UNL     1       3.450  -2.229   2.575  1.00  0.00     0.031 C 
BRANCH  28  29
HETATM   29  C11 UNL     1       4.448  -2.054   3.737  1.00  0.00     0.230 C 
BRANCH  29  30
HETATM   30  N2  UNL     1       5.473  -3.058   3.571  1.00  0.00    -0.079 N 
ATOM     31  H23 UNL     1       5.099  -4.005   3.504  1.00  0.00     0.274 HD
ATOM     32  H22 UNL     1       5.918  -3.028   2.654  1.00  0.00     0.274 HD
ATOM     33  H21 UNL     1       6.133  -2.942   4.340  1.00  0.00     0.274 HD
ENDBRANCH  29  30
ENDBRANCH  28  29
ENDBRANCH  27  28
ENDBRANCH  26  27
ENDBRANCH   6  26
BRANCH   7  34
HETATM   34  C12 UNL     1       4.340   0.222  -1.310  1.00  0.00     0.114 C 
HETATM   35  C13 UNL     1       4.993   1.482  -1.782  1.00  0.00     0.097 C 
BRANCH  34  36
HETATM   36  O2  UNL     1       5.198  -0.757  -1.295  1.00  0.00    -0.349 OA
ATOM     37  H2  UNL     1       6.105  -0.648  -1.555  1.00  0.00     0.219 HD
ENDBRANCH  34  36
ENDBRANCH   7  34
BRANCH   1  38
HETATM   38  C3  UNL     1      -0.429  -3.083  -1.445  1.00  0.00     0.037 C 
HETATM   39  C4  UNL     1      -1.315  -4.181  -2.009  1.00  0.00     0.016 C 
BRANCH  38  40
HETATM   40  C2  UNL     1      -0.757  -1.849  -2.257  1.00  0.00     0.006 C 
HETATM   41  C1  UNL     1      -0.438  -2.125  -3.739  1.00  0.00     0.006 C 
ENDBRANCH  38  40
ENDBRANCH   1  38
BRANCH  14  42
HETATM   42  C18 UNL     1      -0.228   4.925  -1.151  1.00  0.00     0.000 C 
HETATM   43  C19 UNL     1      -1.700   5.055  -1.426  1.00  0.00     0.011 C 
HETATM   44  C20 UNL     1       0.179   6.073  -0.255  1.00  0.00     0.011 C 
ENDBRANCH  14  42
BRANCH  21  45
HETATM   45  C25 UNL     1      -3.696  -0.368  -0.091  1.00  0.00     0.012 C 
BRANCH  45  46
HETATM   46  C26 UNL     1      -5.104  -0.133   0.140  1.00  0.00     0.002 C 
HETATM   47  C27 UNL     1      -5.885  -1.266   0.765  1.00  0.00     0.013 C 
HETATM   48  C28 UNL     1      -5.496   1.123   0.875  1.00  0.00     0.013 C 
ENDBRANCH  45  46
ENDBRANCH  21  45
TORSDOF 12
