REMARK  15 active torsions:
REMARK  status: ('A' for Active; 'I' for Inactive)
REMARK    1  A    between atoms: C2_2  and  C3_3 
REMARK    2  A    between atoms: C3_3  and  C4_4 
REMARK    3  A    between atoms: C4_4  and  C5_5 
REMARK    4  A    between atoms: C9_14  and  O2_15 
REMARK    5  A    between atoms: C10_17  and  C11_18 
REMARK    6  A    between atoms: C14_21  and  C15_22 
REMARK    7  A    between atoms: C15_22  and  C16_23 
REMARK       I    between atoms: C16_23  and  N3_25 
REMARK    8  A    between atoms: N3_25  and  C17_27 
REMARK    9  A    between atoms: C17_27  and  C18_28 
REMARK   10  A    between atoms: C23_36  and  O4_37 
REMARK   11  A    between atoms: C24_39  and  C25_40 
REMARK   12  A    between atoms: C25_40  and  C26_41 
REMARK   13  A    between atoms: C29_46  and  O5_47 
REMARK   14  A    between atoms: C30_49  and  C31_50 
REMARK   15  A    between atoms: C31_50  and  C32_51 
ROOT
HETATM    1  C5  UNL     1      -3.323   1.719   0.805  1.00  0.00     0.176 C 
HETATM    2  N1  UNL     1      -2.036   2.360   0.958  1.00  0.00    -0.346 N 
ATOM      3  H1  UNL     1      -1.620   2.293   1.887  1.00  0.00     0.163 HD
HETATM    4  C6  UNL     1      -1.290   3.051   0.020  1.00  0.00     0.240 C 
HETATM    5  O1  UNL     1      -0.861   4.215   0.392  1.00  0.00    -0.271 OA
HETATM    6  C7  UNL     1      -0.889   2.693  -1.350  1.00  0.00     0.171 C 
HETATM    7  C8  UNL     1      -1.733   1.737  -2.082  1.00  0.00     0.042 C 
HETATM    8  N2  UNL     1       0.536   2.470  -1.370  1.00  0.00    -0.361 N 
ATOM      9  H2  UNL     1       1.022   3.180  -0.823  1.00  0.00     0.162 HD
HETATM   10  C9  UNL     1       1.412   1.591  -1.905  1.00  0.00     0.118 C 
HETATM   11  C10 UNL     1       1.849   0.168  -1.616  1.00  0.00     0.090 C 
HETATM   12  C14 UNL     1       1.793  -0.188  -0.197  1.00  0.00     0.123 C 
HETATM   13  N5  UNL     1       1.365  -1.499   0.212  1.00  0.00    -0.364 N 
ATOM     14  H5  UNL     1       1.963  -2.219  -0.194  1.00  0.00     0.162 HD
HETATM   15  C23 UNL     1       0.385  -2.061   0.991  1.00  0.00     0.135 C 
HETATM   16  C24 UNL     1      -1.058  -2.352   0.886  1.00  0.00     0.158 C 
HETATM   17  N6  UNL     1      -1.766  -1.857  -0.213  1.00  0.00    -0.361 N 
ATOM     18  H6  UNL     1      -1.224  -1.689  -1.060  1.00  0.00     0.162 HD
HETATM   19  C29 UNL     1      -3.134  -1.565  -0.285  1.00  0.00     0.135 C 
HETATM   20  C30 UNL     1      -4.161  -1.330   0.705  1.00  0.00     0.159 C 
HETATM   21  N7  UNL     1      -3.717  -0.571   1.890  1.00  0.00    -0.347 N 
ATOM     22  H7  UNL     1      -3.493  -1.104   2.730  1.00  0.00     0.163 HD
HETATM   23  C35 UNL     1      -3.577   0.823   1.957  1.00  0.00     0.241 C 
HETATM   24  O6  UNL     1      -3.666   1.424   3.089  1.00  0.00    -0.271 OA
ENDROOT
BRANCH  12  25
HETATM   25  C15 UNL     1       3.224  -0.155   0.407  1.00  0.00     0.073 C 
BRANCH  25  26
HETATM   26  C16 UNL     1       3.970   1.042   0.414  1.00  0.00     0.239 C 
HETATM   27  O3  UNL     1       3.567   2.167   0.086  1.00  0.00    -0.269 OA
HETATM   28  N3  UNL     1       5.339   0.984   0.838  1.00  0.00    -0.356 N 
ATOM     29  H3  UNL     1       5.740   0.091   1.126  1.00  0.00     0.162 HD
BRANCH  28  30
HETATM   30  C17 UNL     1       6.153   2.168   0.862  1.00  0.00     0.158 C 
BRANCH  30  31
HETATM   31  C18 UNL     1       7.560   1.866   1.333  1.00  0.00     0.240 C 
HETATM   32  C19 UNL     1       8.249   0.869   0.433  1.00  0.00     0.039 C 
HETATM   33  C20 UNL     1       9.708   1.084   0.777  1.00  0.00     0.032 C 
HETATM   34  C21 UNL     1       9.746   2.589   0.936  1.00  0.00     0.272 C 
HETATM   35  N4  UNL     1       8.415   3.006   1.293  1.00  0.00     0.090 N 
HETATM   36  C22 UNL     1       7.998   4.038   0.380  1.00  0.00     0.310 C 
ENDBRANCH  30  31
ENDBRANCH  28  30
ENDBRANCH  25  26
ENDBRANCH  12  25
BRANCH  11  37
HETATM   37  C11 UNL     1       1.263  -0.703  -2.680  1.00  0.00    -0.009 C 
HETATM   38  C12 UNL     1       1.606  -2.167  -2.639  1.00  0.00     0.010 C 
HETATM   39  C13 UNL     1       1.778  -0.225  -4.055  1.00  0.00     0.010 C 
ENDBRANCH  11  37
BRANCH  10  40
HETATM   40  O2  UNL     1       2.087   2.042  -2.943  1.00  0.00    -0.349 OA
ATOM     41  H2  UNL     1       2.703   1.424  -3.319  1.00  0.00     0.219 HD
ENDBRANCH  10  40
BRANCH  15  42
HETATM   42  O4  UNL     1       0.778  -2.493   2.194  1.00  0.00    -0.348 OA
ATOM     43  H4  UNL     1       0.100  -2.882   2.733  1.00  0.00     0.219 HD
ENDBRANCH  15  42
BRANCH  16  44
HETATM   44  C25 UNL     1      -1.298  -3.810   1.246  1.00  0.00     0.037 C 
BRANCH  44  45
HETATM   45  C26 UNL     1      -0.601  -4.814   0.413  1.00  0.00    -0.020 C 
HETATM   46  C27 UNL     1      -1.004  -6.186   1.016  1.00  0.00     0.009 C 
HETATM   47  C28 UNL     1      -1.090  -4.908  -1.020  1.00  0.00     0.009 C 
ENDBRANCH  44  45
ENDBRANCH  16  44
BRANCH  19  48
HETATM   48  O5  UNL     1      -3.587  -1.481  -1.521  1.00  0.00    -0.348 OA
ATOM     49  H5  UNL     1      -4.515  -1.283  -1.570  1.00  0.00     0.219 HD
ENDBRANCH  19  48
BRANCH  20  50
HETATM   50  C31 UNL     1      -4.995  -2.442   1.209  1.00  0.00     0.037 C 
BRANCH  50  51
HETATM   51  C32 UNL     1      -5.835  -3.228   0.293  1.00  0.00    -0.020 C 
HETATM   52  C33 UNL     1      -5.171  -3.995  -0.796  1.00  0.00     0.009 C 
HETATM   53  C34 UNL     1      -6.999  -2.415  -0.277  1.00  0.00     0.009 C 
ENDBRANCH  50  51
ENDBRANCH  20  50
BRANCH   1  54
HETATM   54  C4  UNL     1      -4.451   2.640   0.487  1.00  0.00     0.035 C 
BRANCH  54  55
HETATM   55  C3  UNL     1      -4.752   3.710   1.463  1.00  0.00     0.002 C 
BRANCH  55  56
HETATM   56  C2  UNL     1      -5.941   4.503   0.896  1.00  0.00    -0.004 C 
HETATM   57  C1  UNL     1      -6.345   5.620   1.800  1.00  0.00     0.005 C 
ENDBRANCH  55  56
ENDBRANCH  54  55
ENDBRANCH   1  54
TORSDOF 15
