REMARK  9 active torsions:
REMARK  status: ('A' for Active; 'I' for Inactive)
REMARK    1  A    between atoms: C5_6  and  C6_7 
REMARK    2  A    between atoms: C6_7  and  N2_8 
REMARK    3  A    between atoms: C11_15  and  N4_16 
REMARK    4  A    between atoms: N4_16  and  C12_18 
REMARK    5  A    between atoms: C15_21  and  N5_22 
REMARK    6  A    between atoms: N5_22  and  C16_24 
REMARK    7  A    between atoms: C16_24  and  C17_25 
REMARK    8  A    between atoms: C16_24  and  C24_33 
REMARK    9  A    between atoms: C17_25  and  C18_26 
REMARK       I    between atoms: C24_33  and  N7_35 
ROOT
HETATM    1  C12 UNL     1       0.775  -0.321   0.056  1.00  0.00     0.032 A 
HETATM    2  C13 UNL     1      -0.033   0.101  -1.018  1.00  0.00     0.031 A 
HETATM    3  C14 UNL     1      -1.396   0.167  -0.943  1.00  0.00     0.031 A 
HETATM    4  C15 UNL     1      -2.069  -0.182   0.207  1.00  0.00     0.028 A 
HETATM    5  C29 UNL     1      -1.295  -0.599   1.273  1.00  0.00     0.031 A 
HETATM    6  C30 UNL     1       0.092  -0.668   1.202  1.00  0.00     0.031 A 
ENDROOT
BRANCH   4   7
HETATM    7  N5  UNL     1      -3.472  -0.132   0.341  1.00  0.00    -0.376 N 
ATOM      8  H5  UNL     1      -3.908  -0.474   1.197  1.00  0.00     0.160 HD
BRANCH   7   9
HETATM    9  C16 UNL     1      -4.296   0.394  -0.711  1.00  0.00     0.178 C 
BRANCH   9  10
HETATM   10  C17 UNL     1      -5.780   0.239  -0.449  1.00  0.00     0.073 C 
BRANCH  10  11
HETATM   11  C18 UNL     1      -6.230  -1.145  -0.289  1.00  0.00    -0.056 A 
HETATM   12  C19 UNL     1      -6.294  -1.719   0.954  1.00  0.00     0.009 A 
HETATM   13  C20 UNL     1      -6.722  -3.037   1.021  1.00  0.00     0.027 A 
HETATM   14  C21 UNL     1      -7.074  -3.764  -0.104  1.00  0.00     0.046 A 
HETATM   15  N6  UNL     1      -7.506  -5.110  -0.002  1.00  0.00    -0.102 NA
HETATM   16  C22 UNL     1      -7.005  -3.177  -1.350  1.00  0.00     0.027 A 
HETATM   17  C23 UNL     1      -6.580  -1.862  -1.425  1.00  0.00     0.009 A 
ENDBRANCH  10  11
ENDBRANCH   9  10
BRANCH   9  18
HETATM   18  C24 UNL     1      -4.097   1.883  -0.844  1.00  0.00     0.245 C 
HETATM   19  O1  UNL     1      -3.298   2.424  -0.050  1.00  0.00    -0.271 OA
HETATM   20  N7  UNL     1      -4.758   2.669  -1.803  1.00  0.00    -0.324 N 
HETATM   21  C25 UNL     1      -5.523   3.661  -1.525  1.00  0.00     0.081 C 
ATOM     22  H7  UNL     1      -4.620   2.435  -2.786  1.00  0.00     0.169 HD
HETATM   23  C26 UNL     1      -5.899   4.219  -0.205  1.00  0.00     0.082 C 
HETATM   24  C28 UNL     1      -6.208   4.471  -2.518  1.00  0.00     0.264 C 
HETATM   25  C27 UNL     1      -7.109   5.052  -0.463  1.00  0.00     0.129 C 
HETATM   26  N8  UNL     1      -7.093   5.363  -1.865  1.00  0.00    -0.356 N 
ATOM     27  H8  UNL     1      -7.630   6.104  -2.316  1.00  0.00     0.162 HD
HETATM   28  O2  UNL     1      -6.027   4.378  -3.758  1.00  0.00    -0.266 OA
ENDBRANCH   9  18
ENDBRANCH   7   9
ENDBRANCH   4   7
BRANCH   1  29
HETATM   29  N4  UNL     1       2.162  -0.406  -0.091  1.00  0.00    -0.355 N 
ATOM     30  H4  UNL     1       2.536  -0.547  -1.029  1.00  0.00     0.166 HD
BRANCH  29  31
HETATM   31  C11 UNL     1       3.073  -0.309   0.975  1.00  0.00     0.050 A 
HETATM   32  C10 UNL     1       2.854   0.372   2.142  1.00  0.00     0.117 A 
HETATM   33  N3  UNL     1       3.736   0.435   3.171  1.00  0.00    -0.362 N 
HETATM   34  C9  UNL     1       4.920  -0.187   3.106  1.00  0.00     0.060 A 
ATOM     35  H3  UNL     1       3.493   0.965   4.008  1.00  0.00     0.165 HD
HETATM   36  C8  UNL     1       6.009  -0.325   3.940  1.00  0.00     0.049 A 
HETATM   37  C32 UNL     1       5.190  -0.925   1.870  1.00  0.00     0.063 A 
HETATM   38  C7  UNL     1       6.906  -1.109   3.249  1.00  0.00     0.094 A 
HETATM   39  N2  UNL     1       6.424  -1.457   2.042  1.00  0.00    -0.351 N 
HETATM   40  C31 UNL     1       4.295  -0.984   0.838  1.00  0.00     0.063 A 
BRANCH  39  41
HETATM   41  C6  UNL     1       7.126  -2.274   1.078  1.00  0.00     0.168 C 
BRANCH  41  42
HETATM   42  C5  UNL     1       7.940  -1.383   0.218  1.00  0.00    -0.024 A 
HETATM   43  C4  UNL     1       9.217  -1.036   0.638  1.00  0.00     0.011 A 
HETATM   44  C3  UNL     1      10.002  -0.208  -0.143  1.00  0.00     0.018 A 
HETATM   45  C2  UNL     1       9.509   0.268  -1.338  1.00  0.00     0.090 A 
HETATM   46  N1  UNL     1       8.275  -0.067  -1.745  1.00  0.00    -0.370 N 
HETATM   47  C1  UNL     1       7.814   0.466  -3.010  1.00  0.00     0.154 C 
HETATM   48  C33 UNL     1       7.512  -0.882  -0.969  1.00  0.00     0.098 A 
ENDBRANCH  41  42
ENDBRANCH  39  41
ENDBRANCH  29  31
ENDBRANCH   1  29
TORSDOF 9
