REMARK  8 active torsions:
REMARK  status: ('A' for Active; 'I' for Inactive)
REMARK    1  A    between atoms: C2_2  and  C3_3 
REMARK    2  A    between atoms: C2_2  and  C4_6 
REMARK    3  A    between atoms: C3_3  and  O1_4 
REMARK    4  A    between atoms: C4_6  and  C5_7 
REMARK    5  A    between atoms: C5_7  and  C6_8 
REMARK    6  A    between atoms: C6_8  and  C7_9 
REMARK    7  A    between atoms: C7_9  and  C9_11 
REMARK    8  A    between atoms: C15_17  and  O2_18 
ROOT
HETATM    1  C9  UNL     1       1.320  -0.257   0.130  1.00  0.00    -0.002 C 
HETATM    2  C10 UNL     1       1.715  -0.976   1.417  1.00  0.00     0.006 C 
HETATM    3  C11 UNL     1       0.463  -1.727   1.899  1.00  0.00     0.006 C 
HETATM    4  C12 UNL     1      -0.590  -1.014   1.089  1.00  0.00    -0.001 C 
HETATM    5  C13 UNL     1      -1.964  -1.469   1.201  1.00  0.00     0.001 C 
HETATM    6  C14 UNL     1      -2.645  -0.645   2.307  1.00  0.00     0.038 C 
HETATM    7  C15 UNL     1      -3.271   0.613   1.852  1.00  0.00     0.123 C 
HETATM    8  C16 UNL     1      -4.223   0.473   0.715  1.00  0.00     0.025 C 
HETATM    9  C17 UNL     1      -4.142   1.628  -0.250  1.00  0.00     0.011 C 
HETATM   10  C18 UNL     1      -4.603   2.903   0.416  1.00  0.00     0.013 C 
HETATM   11  C19 UNL     1      -6.102   3.000   0.224  1.00  0.00     0.079 C 
HETATM   12  C20 UNL     1      -6.453   2.022  -0.807  1.00  0.00     0.138 C 
HETATM   13  O3  UNL     1      -7.545   1.686  -1.166  1.00  0.00    -0.297 OA
HETATM   14  C21 UNL     1      -5.170   1.500  -1.347  1.00  0.00     0.129 C 
HETATM   15  C22 UNL     1      -5.397   0.118  -1.788  1.00  0.00     0.139 C 
HETATM   16  O4  UNL     1      -5.973  -0.036  -2.867  1.00  0.00    -0.297 OA
HETATM   17  C23 UNL     1      -5.007  -1.105  -1.074  1.00  0.00     0.085 C 
HETATM   18  C24 UNL     1      -4.180  -0.881   0.150  1.00  0.00     0.008 C 
HETATM   19  C25 UNL     1      -2.795  -1.517  -0.038  1.00  0.00    -0.035 C 
HETATM   20  C26 UNL     1      -3.187  -3.007  -0.244  1.00  0.00     0.016 C 
HETATM   21  C27 UNL     1      -2.128  -1.118  -1.295  1.00  0.00     0.011 C 
HETATM   22  C28 UNL     1      -0.827  -0.377  -1.197  1.00  0.00     0.011 C 
HETATM   23  C29 UNL     1       0.086  -1.053  -0.259  1.00  0.00    -0.036 C 
HETATM   24  C30 UNL     1       0.572  -2.395  -0.670  1.00  0.00     0.016 C 
ENDROOT
BRANCH   1  25
HETATM   25  C7  UNL     1       2.460  -0.358  -0.835  1.00  0.00    -0.014 C 
HETATM   26  C8  UNL     1       2.198   0.263  -2.158  1.00  0.00     0.010 C 
BRANCH  25  27
HETATM   27  C6  UNL     1       3.633   0.307  -0.161  1.00  0.00     0.005 C 
BRANCH  27  28
HETATM   28  C5  UNL     1       4.924   0.228  -0.892  1.00  0.00     0.001 C 
BRANCH  28  29
HETATM   29  C4  UNL     1       5.967   0.950  -0.017  1.00  0.00     0.006 C 
BRANCH  29  30
HETATM   30  C2  UNL     1       7.318   0.921  -0.684  1.00  0.00     0.005 C 
HETATM   31  C1  UNL     1       7.834  -0.467  -0.926  1.00  0.00     0.012 C 
BRANCH  30  32
HETATM   32  C3  UNL     1       8.343   1.726   0.046  1.00  0.00     0.168 C 
BRANCH  32  33
HETATM   33  O1  UNL     1       7.917   3.031   0.301  1.00  0.00    -0.400 OA
ATOM     34  H1  UNL     1       8.569   3.543   0.765  1.00  0.00     0.209 HD
ENDBRANCH  32  33
ENDBRANCH  30  32
ENDBRANCH  29  30
ENDBRANCH  28  29
ENDBRANCH  27  28
ENDBRANCH  25  27
ENDBRANCH   1  25
BRANCH   7  35
HETATM   35  O2  UNL     1      -2.359   1.641   1.533  1.00  0.00    -0.395 OA
ATOM     36  H2  UNL     1      -2.762   2.450   1.240  1.00  0.00     0.210 HD
ENDBRANCH   7  35
TORSDOF 8
