REMARK  10 active torsions:
REMARK  status: ('A' for Active; 'I' for Inactive)
REMARK    1  A    between atoms: O1_1  and  C1_3 
REMARK    2  A    between atoms: C2_4  and  N1_5 
REMARK    3  A    between atoms: N1_5  and  C3_8 
REMARK    4  A    between atoms: C3_8  and  C4_9 
REMARK    5  A    between atoms: C4_9  and  C5_10 
REMARK    6  A    between atoms: C5_10  and  N2_11 
REMARK    7  A    between atoms: N2_11  and  C6_13 
REMARK    8  A    between atoms: C6_13  and  C7_14 
REMARK    9  A    between atoms: C7_14  and  N3_15 
REMARK   10  A    between atoms: C16_26  and  O4_27 
ROOT
HETATM    1  N1  UNL     1       2.530   0.067  -0.214  1.00  0.00    -0.046 N 
ATOM      2  H11 UNL     1       3.138   0.885  -0.253  1.00  0.00     0.280 HD
ATOM      3  H12 UNL     1       1.953   0.327   0.586  1.00  0.00     0.280 HD
ENDROOT
BRANCH   1   4
HETATM    4  C2  UNL     1       3.292  -1.132   0.065  1.00  0.00     0.353 C 
HETATM    5  C1  UNL     1       2.527  -2.364   0.362  1.00  0.00     0.205 C 
HETATM    6  C16 UNL     1       2.276  -3.299  -0.764  1.00  0.00     0.182 C 
HETATM    7  C15 UNL     1       3.404  -3.343  -1.728  1.00  0.00     0.183 C 
HETATM    8  C13 UNL     1       4.465  -2.328  -1.596  1.00  0.00     0.179 C 
HETATM    9  O3  UNL     1       4.332  -4.361  -1.446  1.00  0.00    -0.378 OA
HETATM   10  O2  UNL     1       4.277  -1.228  -0.867  1.00  0.00    -0.347 OA
HETATM   11  C14 UNL     1       5.294  -3.448  -1.012  1.00  0.00     0.203 C 
BRANCH   5  12
HETATM   12  O1  UNL     1       1.320  -2.083   0.989  1.00  0.00    -0.388 OA
ATOM     13  H1  UNL     1       0.829  -2.874   1.180  1.00  0.00     0.210 HD
ENDBRANCH   5  12
BRANCH   6  14
HETATM   14  O4  UNL     1       2.155  -4.601  -0.183  1.00  0.00    -0.390 OA
ATOM     15  H4  UNL     1       1.994  -5.199  -0.903  1.00  0.00     0.210 HD
ENDBRANCH   6  14
ENDBRANCH   1   4
BRANCH   1  16
HETATM   16  C3  UNL     1       1.745  -0.041  -1.395  1.00  0.00     0.240 C 
BRANCH  16  17
HETATM   17  C4  UNL     1       1.125   1.214  -1.865  1.00  0.00     0.072 C 
BRANCH  17  18
HETATM   18  C5  UNL     1       0.195   1.972  -1.029  1.00  0.00     0.057 C 
BRANCH  18  19
HETATM   19  N2  UNL     1      -1.019   1.471  -0.593  1.00  0.00    -0.401 N 
ATOM     20  H2  UNL     1      -1.867   1.869  -0.996  1.00  0.00     0.158 HD
BRANCH  19  21
HETATM   21  C6  UNL     1      -1.166   0.463   0.355  1.00  0.00     0.138 C 
BRANCH  21  22
HETATM   22  C7  UNL     1      -2.675   0.246   0.609  1.00  0.00     0.141 C 
BRANCH  22  23
HETATM   23  N3  UNL     1      -3.306   1.406   1.045  1.00  0.00    -0.392 N 
HETATM   24  C8  UNL     1      -4.694   1.361   1.308  1.00  0.00     0.122 C 
HETATM   25  C9  UNL     1      -5.330   2.659   0.872  1.00  0.00     0.020 C 
HETATM   26  C10 UNL     1      -4.632   3.870   1.358  1.00  0.00     0.007 C 
HETATM   27  C11 UNL     1      -3.205   3.757   1.710  1.00  0.00     0.044 C 
HETATM   28  C12 UNL     1      -2.667   2.354   1.846  1.00  0.00     0.058 C 
ENDBRANCH  22  23
ENDBRANCH  21  22
ENDBRANCH  19  21
ENDBRANCH  18  19
ENDBRANCH  17  18
ENDBRANCH  16  17
ENDBRANCH   1  16
TORSDOF 10
