REMARK  1 active torsions:
REMARK  status: ('A' for Active; 'I' for Inactive)
REMARK    1  A    between atoms: C9_9  and  C10_10 
ROOT
HETATM    1  C1  UNL     1      -1.533  -1.853  -0.256  1.00  0.00     0.010 C 
HETATM    2  C2  UNL     1      -0.469  -0.752  -0.127  1.00  0.00    -0.014 C 
HETATM    3  C3  UNL     1       0.729  -1.250  -0.894  1.00  0.00     0.005 C 
HETATM    4  C4  UNL     1       1.973  -1.346  -0.068  1.00  0.00     0.000 C 
HETATM    5  C5  UNL     1       2.132  -0.265   0.947  1.00  0.00     0.000 C 
HETATM    6  C6  UNL     1       1.929   1.062   0.275  1.00  0.00     0.000 C 
HETATM    7  C7  UNL     1       0.645   1.647   0.788  1.00  0.00     0.000 C 
HETATM    8  C8  UNL     1      -0.420   1.766  -0.252  1.00  0.00     0.006 C 
HETATM    9  C9  UNL     1      -1.041   0.507  -0.700  1.00  0.00    -0.001 C 
ENDROOT
BRANCH   9  10
HETATM   10  C10 UNL     1      -2.548   0.625  -0.460  1.00  0.00     0.091 C 
HETATM   11  S1  UNL     1      -2.954   0.628   1.299  1.00  0.00    -0.097 SA
ENDBRANCH   9  10
TORSDOF 1
