REMARK  3 active torsions:
REMARK  status: ('A' for Active; 'I' for Inactive)
REMARK    1  A    between atoms: N1_2  and  C2_3 
REMARK    2  A    between atoms: C2_3  and  C3_4 
REMARK    3  A    between atoms: C7_12  and  N3_13 
ROOT
HETATM    1  C1  UNL     1       0.836  -0.360  -1.466  1.00  0.00     0.277 C 
HETATM    2  N1  UNL     1       0.399  -0.241  -0.086  1.00  0.00    -0.017 N 
HETATM    3  C4  UNL     1       0.127   1.164   0.140  1.00  0.00     0.243 C 
HETATM    4  C5  UNL     1      -1.057   1.669  -0.632  1.00  0.00     0.055 C 
HETATM    5  C6  UNL     1      -2.220   0.736  -0.375  1.00  0.00     0.238 C 
HETATM    6  N2  UNL     1      -1.805  -0.572  -0.883  1.00  0.00    -0.021 N 
ATOM      7  H21 UNL     1      -1.495  -0.552  -1.854  1.00  0.00     0.281 HD
ATOM      8  H22 UNL     1      -2.579  -1.223  -1.015  1.00  0.00     0.281 HD
HETATM    9  C7  UNL     1      -0.793  -1.054   0.040  1.00  0.00     0.582 C 
ENDROOT
BRANCH   2  10
HETATM   10  C2  UNL     1       1.438  -0.705   0.767  1.00  0.00     0.256 C 
BRANCH  10  11
HETATM   11  C3  UNL     1       2.584   0.218   0.993  1.00  0.00     0.142 C 
HETATM   12 CL1  UNL     1       3.431   0.627  -0.505  1.00  0.00    -0.129 Cl
ENDBRANCH  10  11
ENDBRANCH   2  10
BRANCH   9  13
HETATM   13  N3  UNL     1      -1.360  -1.061   1.344  1.00  0.00    -0.025 N 
ATOM     14  H33 UNL     1      -0.663  -1.341   2.034  1.00  0.00     0.278 HD
ATOM     15  H32 UNL     1      -1.543  -0.108   1.658  1.00  0.00     0.278 HD
ATOM     16  H31 UNL     1      -2.199  -1.634   1.433  1.00  0.00     0.278 HD
ENDBRANCH   9  13
TORSDOF 3
