REMARK  3 active torsions:
REMARK  status: ('A' for Active; 'I' for Inactive)
REMARK    1  A    between atoms: C1_2  and  C2_3 
REMARK    2  A    between atoms: C2_3  and  N1_4 
REMARK    3  A    between atoms: N1_4  and  C3_6 
ROOT
HETATM    1  C3  UNL     1      -0.828   0.613   0.337  1.00  0.00     0.127 C 
HETATM    2  C4  UNL     1      -1.538   0.082  -0.856  1.00  0.00     0.258 C 
HETATM    3  N2  UNL     1      -1.909  -1.091  -0.040  1.00  0.00    -0.071 N 
ATOM      4  H21 UNL     1      -1.337  -1.935  -0.006  1.00  0.00     0.277 HD
ATOM      5  H22 UNL     1      -2.696  -1.694  -0.278  1.00  0.00     0.277 HD
HETATM    6  C5  UNL     1      -1.962  -0.127   1.076  1.00  0.00     0.258 C 
ENDROOT
BRANCH   1   7
HETATM    7  N1  UNL     1       0.444   0.115   0.698  1.00  0.00    -0.413 N 
ATOM      8  H1  UNL     1       0.592  -0.352   1.593  1.00  0.00     0.153 HD
BRANCH   7   9
HETATM    9  C2  UNL     1       1.508   0.285  -0.222  1.00  0.00     0.125 C 
BRANCH   9  10
HETATM   10  C1  UNL     1       2.797  -0.226   0.393  1.00  0.00     0.104 C 
HETATM   11 BR1  UNL     1       2.735  -2.082   0.883  1.00  0.00    -0.095 Br
ENDBRANCH   9  10
ENDBRANCH   7   9
ENDBRANCH   1   7
TORSDOF 3
