REMARK  9 active torsions:
REMARK  status: ('A' for Active; 'I' for Inactive)
REMARK    1  A    between atoms: C1_2  and  C2_3 
REMARK       I    between atoms: C1_2  and  N1_20 
REMARK    2  A    between atoms: C2_3  and  C3_4 
REMARK    3  A    between atoms: C3_4  and  O2_5 
REMARK    4  A    between atoms: C3_4  and  C4_7 
REMARK    5  A    between atoms: C3_4  and  C10_13 
REMARK    6  A    between atoms: N1_20  and  C16_22 
REMARK    7  A    between atoms: C16_22  and  C17_23 
REMARK    8  A    between atoms: C17_23  and  C18_24 
REMARK    9  A    between atoms: N2_29  and  O3_30 
ROOT
HETATM    1  C3  UNL     1      -1.926   1.026  -0.311  1.00  0.00     0.121 C 
ENDROOT
BRANCH   1   2
HETATM    2  C2  UNL     1      -1.140   0.828   0.914  1.00  0.00     0.150 C 
BRANCH   2   3
HETATM    3  C1  UNL     1       0.302   0.536   0.711  1.00  0.00     0.221 C 
HETATM    4  O1  UNL     1       0.734   0.609  -0.477  1.00  0.00    -0.273 OA
HETATM    5  N1  UNL     1       1.183   0.192   1.740  1.00  0.00    -0.361 N 
ATOM      6  H1  UNL     1       0.821   0.138   2.692  1.00  0.00     0.162 HD
BRANCH   5   7
HETATM    7  C16 UNL     1       2.578  -0.090   1.518  1.00  0.00     0.128 C 
BRANCH   7   8
HETATM    8  C17 UNL     1       2.866  -1.236   0.617  1.00  0.00     0.079 C 
BRANCH   8   9
HETATM    9  C18 UNL     1       4.363  -1.368   0.520  1.00  0.00     0.041 A 
HETATM   10  C19 UNL     1       5.052  -2.163   1.407  1.00  0.00     0.027 A 
HETATM   11  C20 UNL     1       6.412  -2.313   1.358  1.00  0.00     0.003 A 
HETATM   12  C21 UNL     1       7.116  -1.634   0.372  1.00  0.00     0.020 A 
HETATM   13  C22 UNL     1       6.420  -0.842  -0.510  1.00  0.00     0.123 A 
HETATM   14  N2  UNL     1       5.074  -0.724  -0.423  1.00  0.00    -0.240 N 
BRANCH  14  15
HETATM   15  O3  UNL     1       4.420   0.071  -1.316  1.00  0.00    -0.283 OA
ATOM     16  H3  UNL     1       4.922   0.526  -1.982  1.00  0.00     0.245 HD
ENDBRANCH  14  15
ENDBRANCH   8   9
ENDBRANCH   7   8
ENDBRANCH   5   7
ENDBRANCH   2   3
ENDBRANCH   1   2
BRANCH   1  17
HETATM   17  O2  UNL     1      -1.308   2.118  -1.011  1.00  0.00    -0.380 OA
ATOM     18  H2  UNL     1      -1.816   2.246  -1.803  1.00  0.00     0.211 HD
ENDBRANCH   1  17
BRANCH   1  19
HETATM   19  C4  UNL     1      -2.040  -0.039  -1.274  1.00  0.00    -0.019 A 
HETATM   20  C5  UNL     1      -1.559  -1.318  -1.191  1.00  0.00     0.010 A 
HETATM   21  C6  UNL     1      -1.723  -2.248  -2.191  1.00  0.00     0.001 A 
HETATM   22  C7  UNL     1      -2.401  -1.910  -3.350  1.00  0.00     0.000 A 
HETATM   23  C8  UNL     1      -2.897  -0.639  -3.467  1.00  0.00     0.001 A 
HETATM   24  C9  UNL     1      -2.723   0.272  -2.462  1.00  0.00     0.010 A 
ENDBRANCH   1  19
BRANCH   1  25
HETATM   25  C10 UNL     1      -3.289   1.552   0.065  1.00  0.00    -0.002 A 
HETATM   26  C11 UNL     1      -3.604   2.894  -0.176  1.00  0.00     0.012 A 
HETATM   27  C12 UNL     1      -4.829   3.364   0.159  1.00  0.00     0.001 A 
HETATM   28  C13 UNL     1      -5.811   2.583   0.737  1.00  0.00     0.001 A 
HETATM   29  C14 UNL     1      -5.518   1.280   0.976  1.00  0.00     0.020 A 
HETATM   30  C15 UNL     1      -4.260   0.766   0.641  1.00  0.00     0.020 A 
HETATM   31 BR1  UNL     1      -3.993  -1.061   1.041  1.00  0.00    -0.050 Br
ENDBRANCH   1  25
TORSDOF 9
