REMARK  5 active torsions:
REMARK  status: ('A' for Active; 'I' for Inactive)
REMARK    1  A    between atoms: C2_3  and  C3_4 
REMARK    2  A    between atoms: C3_4  and  C4_5 
REMARK    3  A    between atoms: C4_5  and  N2_6 
REMARK    4  A    between atoms: N2_6  and  C5_8 
REMARK    5  A    between atoms: N3_9  and  N4_11 
ROOT
HETATM    1  N2  UNL     1       0.975  -0.025  -0.423  1.00  0.00    -0.385 N 
ATOM      2  H2  UNL     1       0.544   0.160  -1.329  1.00  0.00     0.160 HD
ENDROOT
BRANCH   1   3
HETATM    3  C4  UNL     1       0.527  -1.136   0.389  1.00  0.00     0.126 C 
BRANCH   3   4
HETATM    4  C3  UNL     1      -0.585  -1.901  -0.275  1.00  0.00     0.073 C 
BRANCH   4   5
HETATM    5  C2  UNL     1      -1.757  -1.030  -0.522  1.00  0.00     0.004 A 
HETATM    6  N1  UNL     1      -2.337   0.164  -0.438  1.00  0.00    -0.385 N 
HETATM    7  C1  UNL     1      -2.176   1.532  -0.002  1.00  0.00     0.149 C 
HETATM    8  C6  UNL     1      -3.140  -0.863  -1.047  1.00  0.00     0.174 A 
ENDBRANCH   4   5
ENDBRANCH   3   4
ENDBRANCH   1   3
BRANCH   1   9
HETATM    9  C5  UNL     1       2.018   0.801   0.055  1.00  0.00     0.194 C 
HETATM   10  N3  UNL     1       3.245   0.480  -0.153  1.00  0.00    -0.283 N 
ATOM     11  H3  UNL     1       3.436  -0.379  -0.668  1.00  0.00     0.189 HD
BRANCH  10  12
HETATM   12  N4  UNL     1       4.325   1.236   0.283  1.00  0.00    -0.248 N 
HETATM   13  N5  UNL     1       5.017   1.879  -0.551  1.00  0.00    -0.331 N 
ATOM     14  H52 UNL     1       4.771   1.834  -1.540  1.00  0.00     0.178 HD
ATOM     15  H51 UNL     1       5.810   2.434  -0.231  1.00  0.00     0.178 HD
ATOM     16  H4  UNL     1       4.558   1.271   1.276  1.00  0.00     0.207 HD
ENDBRANCH  10  12
ENDBRANCH   1   9
TORSDOF 5
