REMARK  11 active torsions:
REMARK  status: ('A' for Active; 'I' for Inactive)
REMARK    1  A    between atoms: C2_2  and  N1_3 
REMARK    2  A    between atoms: N1_3  and  C3_4 
REMARK    3  A    between atoms: C3_4  and  C4_5 
REMARK    4  A    between atoms: C4_5  and  C5_6 
REMARK    5  A    between atoms: C5_6  and  C6_7 
REMARK    6  A    between atoms: C7_10  and  C8_11 
REMARK    7  A    between atoms: C8_11  and  C9_12 
REMARK    8  A    between atoms: C9_12  and  C10_13 
REMARK    9  A    between atoms: C10_13  and  C11_14 
REMARK   10  A    between atoms: C12_15  and  C13_16 
REMARK   11  A    between atoms: C13_16  and  N3_17 
ROOT
HETATM    1  C6  UNL     1      -0.919   1.423  -0.008  1.00  0.00    -0.016 C 
HETATM    2  N2  UNL     1       0.157   1.180   0.599  1.00  0.00    -0.375 N 
ATOM      3  H2  UNL     1       0.112   1.373   1.600  1.00  0.00     0.161 HD
HETATM    4  C7  UNL     1       1.414   0.694   0.175  1.00  0.00     0.183 C 
HETATM    5  N4  UNL     1       2.381   1.816   0.214  1.00  0.00    -0.340 N 
ATOM      6  H4  UNL     1       2.927   1.965   1.063  1.00  0.00     0.164 HD
HETATM    7  C16 UNL     1       2.575   2.689  -0.884  1.00  0.00     0.219 C 
HETATM    8  O2  UNL     1       2.926   3.876  -0.640  1.00  0.00    -0.274 OA
HETATM    9  C17 UNL     1       2.382   2.260  -2.292  1.00  0.00     0.103 C 
HETATM   10  C18 UNL     1       1.385   3.165  -3.005  1.00  0.00     0.009 C 
HETATM   11  C19 UNL     1       0.127   2.379  -3.360  1.00  0.00     0.001 C 
HETATM   12  C20 UNL     1      -0.867   2.511  -2.229  1.00  0.00     0.006 C 
HETATM   13  C21 UNL     1      -1.012   1.191  -1.469  1.00  0.00     0.052 C 
ENDROOT
BRANCH   1  14
HETATM   14  C5  UNL     1      -2.028   1.934   0.829  1.00  0.00     0.054 C 
BRANCH  14  15
HETATM   15  C4  UNL     1      -3.153   1.049   1.151  1.00  0.00     0.033 C 
BRANCH  15  16
HETATM   16  C3  UNL     1      -3.949   0.467   0.056  1.00  0.00     0.238 C 
BRANCH  16  17
HETATM   17  N1  UNL     1      -5.084  -0.362   0.581  1.00  0.00    -0.065 N 
HETATM   18  C22 UNL     1      -5.810   0.529   1.428  1.00  0.00     0.257 C 
HETATM   19  C23 UNL     1      -7.296   0.300   1.490  1.00  0.00     0.150 C 
HETATM   20  N5  UNL     1      -7.687  -1.075   1.478  1.00  0.00    -0.359 N 
HETATM   21  C24 UNL     1      -7.468  -2.070   0.480  1.00  0.00     0.219 C 
ATOM     22  H5  UNL     1      -8.197  -1.390   2.303  1.00  0.00     0.162 HD
HETATM   23  O3  UNL     1      -8.043  -3.180   0.572  1.00  0.00    -0.274 OA
HETATM   24  C25 UNL     1      -6.584  -1.891  -0.700  1.00  0.00     0.130 C 
HETATM   25  C26 UNL     1      -5.771  -0.653  -0.667  1.00  0.00     0.246 C 
BRANCH  17  26
HETATM   26  C2  UNL     1      -4.454  -1.483   1.164  1.00  0.00     0.233 C 
HETATM   27  C1  UNL     1      -4.725  -1.904   2.536  1.00  0.00     0.035 C 
ENDBRANCH  17  26
ENDBRANCH  16  17
ENDBRANCH  15  16
ENDBRANCH  14  15
ENDBRANCH   1  14
BRANCH   4  28
HETATM   28  C8  UNL     1       1.853  -0.309   1.214  1.00  0.00     0.047 C 
BRANCH  28  29
HETATM   29  C9  UNL     1       3.119  -1.017   1.006  1.00  0.00     0.016 C 
BRANCH  29  30
HETATM   30  C10 UNL     1       4.382  -0.229   0.924  1.00  0.00     0.094 C 
BRANCH  30  31
HETATM   31  C11 UNL     1       5.499  -1.200   0.749  1.00  0.00    -0.104 C 
HETATM   32  C12 UNL     1       6.404  -1.982   0.629  1.00  0.00    -0.070 C 
BRANCH  32  33
HETATM   33  C13 UNL     1       7.529  -2.920   0.475  1.00  0.00     0.404 C 
BRANCH  33  34
HETATM   34  N3  UNL     1       8.721  -2.195   0.896  1.00  0.00     0.015 N 
HETATM   35  C14 UNL     1       8.487  -0.760   0.900  1.00  0.00     0.357 C 
HETATM   36  C15 UNL     1       9.760  -2.472  -0.056  1.00  0.00     0.357 C 
HETATM   37  O1  UNL     1       9.023  -2.581   2.143  1.00  0.00    -0.064 OA
ENDBRANCH  33  34
ENDBRANCH  32  33
ENDBRANCH  30  31
ENDBRANCH  29  30
ENDBRANCH  28  29
ENDBRANCH   4  28
TORSDOF 11
