REMARK  10 active torsions:
REMARK  status: ('A' for Active; 'I' for Inactive)
REMARK    1  A    between atoms: C2_2  and  C3_3 
REMARK    2  A    between atoms: C3_3  and  N1_4 
REMARK    3  A    between atoms: C5_6  and  C6_7 
REMARK    4  A    between atoms: C6_7  and  C7_8 
REMARK    5  A    between atoms: C7_8  and  C8_9 
REMARK    6  A    between atoms: C8_9  and  C9_10 
REMARK    7  A    between atoms: C12_16  and  N4_17 
REMARK    8  A    between atoms: N4_17  and  C13_19 
REMARK    9  A    between atoms: C13_19  and  C14_20 
REMARK       I    between atoms: N5_23  and  C17_24 
REMARK   10  A    between atoms: N8_31  and  O1_32 
ROOT
HETATM    1  C9  UNL     1      -1.377  -3.179  -0.406  1.00  0.00    -0.054 A 
HETATM    2  C10 UNL     1      -0.430  -4.065   0.150  1.00  0.00     0.026 A 
HETATM    3  C11 UNL     1       0.886  -3.695   0.225  1.00  0.00     0.118 A 
HETATM    4  N2  UNL     1       1.338  -2.495  -0.216  1.00  0.00    -0.252 N 
HETATM    5  N3  UNL     1       2.611  -2.166  -0.137  1.00  0.00    -0.123 N 
ATOM      6  H3  UNL     1       3.272  -2.827   0.271  1.00  0.00     0.206 HD
HETATM    7  C12 UNL     1       3.068  -0.957  -0.590  1.00  0.00     0.723 A 
HETATM    8  N8  UNL     1       2.201  -0.088  -1.124  1.00  0.00    -0.060 N 
HETATM    9  C20 UNL     1       0.893  -0.393  -1.218  1.00  0.00     0.173 A 
HETATM   10  C21 UNL     1       0.475  -1.620  -0.752  1.00  0.00     0.075 A 
HETATM   11  C22 UNL     1      -0.867  -1.999  -0.828  1.00  0.00     0.040 A 
ENDROOT
BRANCH   1  12
HETATM   12  C8  UNL     1      -2.796  -3.594  -0.506  1.00  0.00     0.039 C 
BRANCH  12  13
HETATM   13  C7  UNL     1      -3.632  -3.340   0.675  1.00  0.00     0.005 C 
BRANCH  13  14
HETATM   14  C6  UNL     1      -3.954  -1.984   1.102  1.00  0.00     0.012 C 
BRANCH  14  15
HETATM   15  C5  UNL     1      -4.868  -1.124   0.324  1.00  0.00    -0.012 C 
HETATM   16  C4  UNL     1      -4.951   0.207   1.119  1.00  0.00     0.136 C 
HETATM   17  N1  UNL     1      -5.054   1.247   0.124  1.00  0.00    -0.348 N 
HETATM   18  C28 UNL     1      -4.507   0.801  -1.096  1.00  0.00     0.225 C 
HETATM   19  C27 UNL     1      -4.595  -0.712  -1.044  1.00  0.00     0.088 C 
HETATM   20  O2  UNL     1      -4.044   1.499  -2.032  1.00  0.00    -0.273 OA
HETATM   21  C26 UNL     1      -5.752  -1.119  -2.004  1.00  0.00     0.015 C 
HETATM   22  C25 UNL     1      -7.027  -0.445  -1.589  1.00  0.00     0.001 C 
HETATM   23  C24 UNL     1      -7.314  -0.827  -0.163  1.00  0.00     0.001 C 
HETATM   24  C23 UNL     1      -6.286  -1.724   0.430  1.00  0.00     0.012 C 
BRANCH  17  25
HETATM   25  C3  UNL     1      -5.634   2.549   0.359  1.00  0.00     0.152 C 
BRANCH  25  26
HETATM   26  C2  UNL     1      -4.668   3.561   0.844  1.00  0.00    -0.017 C 
HETATM   27  C1  UNL     1      -4.434   4.668   0.137  1.00  0.00     0.008 C 
ENDBRANCH  25  26
ENDBRANCH  17  25
ENDBRANCH  14  15
ENDBRANCH  13  14
ENDBRANCH  12  13
ENDBRANCH   1  12
BRANCH   8  28
HETATM   28  O1  UNL     1       2.648   1.153  -1.594  1.00  0.00    -0.270 OA
ATOM     29  H1  UNL     1       2.033   1.770  -1.973  1.00  0.00     0.245 HD
ENDBRANCH   8  28
BRANCH   7  30
HETATM   30  N4  UNL     1       4.316  -0.699  -0.484  1.00  0.00    -0.202 N 
ATOM     31  H4  UNL     1       4.875  -1.438  -0.058  1.00  0.00     0.183 HD
BRANCH  30  32
HETATM   32  C13 UNL     1       5.036   0.447  -0.864  1.00  0.00     0.083 C 
BRANCH  32  33
HETATM   33  C14 UNL     1       6.533   0.326  -0.590  1.00  0.00     0.028 C 
HETATM   34  C15 UNL     1       7.193   1.599  -1.041  1.00  0.00     0.030 C 
HETATM   35  C16 UNL     1       7.009   2.690  -0.016  1.00  0.00     0.126 C 
HETATM   36  N5  UNL     1       7.825   2.279   1.132  1.00  0.00    -0.356 N 
HETATM   37  C17 UNL     1       8.523   3.279   1.842  1.00  0.00     0.183 C 
HETATM   38  C18 UNL     1       7.881   0.885   1.478  1.00  0.00     0.126 C 
HETATM   39  N6  UNL     1       9.267   2.942   2.830  1.00  0.00    -0.374 N 
HETATM   40  N7  UNL     1       8.434   4.650   1.499  1.00  0.00    -0.064 NA
ATOM     41  H62 UNL     1       9.331   1.954   3.077  1.00  0.00     0.158 HD
ATOM     42  H61 UNL     1       9.772   3.665   3.343  1.00  0.00     0.158 HD
HETATM   43  C19 UNL     1       6.791   0.081   0.848  1.00  0.00     0.030 C 
ENDBRANCH  32  33
ENDBRANCH  30  32
ENDBRANCH   7  30
TORSDOF 10
