REMARK  7 active torsions:
REMARK  status: ('A' for Active; 'I' for Inactive)
REMARK       I    between atoms: C2_4  and  N2_5 
REMARK       I    between atoms: C2_4  and  N4_9 
REMARK    1  A    between atoms: N4_9  and  C4_11 
REMARK    2  A    between atoms: C4_11  and  C5_12 
REMARK    3  A    between atoms: C5_12  and  S1_13 
REMARK    4  A    between atoms: S1_13  and  C6_14 
REMARK    5  A    between atoms: C6_14  and  C7_15 
REMARK    6  A    between atoms: C7_15  and  N5_16 
REMARK    7  A    between atoms: N5_16  and  C8_18 
ROOT
HETATM    1  C1  UNL     1       5.444  -2.087  -0.795  1.00  0.00     0.165 C 
HETATM    2  N1  UNL     1       4.697  -1.343   0.174  1.00  0.00    -0.230 N 
ATOM      3  H1  UNL     1       4.484  -1.818   1.051  1.00  0.00     0.177 HD
HETATM    4  C2  UNL     1       4.273  -0.153   0.052  1.00  0.00     0.682 C 
HETATM    5  N2  UNL     1       4.530   0.572  -1.143  1.00  0.00    -0.126 N 
ATOM      6  H2  UNL     1       3.800   0.681  -1.847  1.00  0.00     0.197 HD
HETATM    7  C3  UNL     1       5.798   1.136  -1.343  1.00  0.00     0.196 C 
HETATM    8  N3  UNL     1       6.858   1.587  -1.516  1.00  0.00    -0.171 NA
HETATM    9  N4  UNL     1       3.548   0.449   1.096  1.00  0.00    -0.225 N 
ATOM     10  H4  UNL     1       3.972   0.613   2.009  1.00  0.00     0.177 HD
ENDROOT
BRANCH   9  11
HETATM   11  C4  UNL     1       2.160   0.832   0.821  1.00  0.00     0.148 C 
BRANCH  11  12
HETATM   12  C5  UNL     1       1.510   1.454   2.004  1.00  0.00     0.094 C 
BRANCH  12  13
HETATM   13  S1  UNL     1      -0.153   1.946   1.706  1.00  0.00    -0.166 SA
BRANCH  13  14
HETATM   14  C6  UNL     1      -1.430   0.755   1.554  1.00  0.00     0.093 C 
BRANCH  14  15
HETATM   15  C7  UNL     1      -1.299  -0.114   0.329  1.00  0.00     0.130 C 
BRANCH  15  16
HETATM   16  N5  UNL     1      -2.419  -1.036   0.210  1.00  0.00    -0.389 N 
ATOM     17  H5  UNL     1      -2.229  -2.031   0.326  1.00  0.00     0.159 HD
BRANCH  16  18
HETATM   18  C8  UNL     1      -3.752  -0.647  -0.055  1.00  0.00     0.027 A 
HETATM   19  C9  UNL     1      -4.819  -1.511   0.085  1.00  0.00     0.029 A 
HETATM   20  C10 UNL     1      -6.124  -1.136  -0.190  1.00  0.00     0.002 A 
HETATM   21  C11 UNL     1      -6.385   0.150  -0.623  1.00  0.00     0.000 A 
HETATM   22  C12 UNL     1      -5.341   1.037  -0.773  1.00  0.00     0.002 A 
HETATM   23  C13 UNL     1      -4.034   0.628  -0.487  1.00  0.00     0.029 A 
ENDBRANCH  16  18
ENDBRANCH  15  16
ENDBRANCH  14  15
ENDBRANCH  13  14
ENDBRANCH  12  13
ENDBRANCH  11  12
ENDBRANCH   9  11
TORSDOF 7
