REMARK  8 active torsions:
REMARK  status: ('A' for Active; 'I' for Inactive)
REMARK    1  A    between atoms: C2_2  and  C3_3 
REMARK    2  A    between atoms: C3_3  and  C4_4 
REMARK    3  A    between atoms: C4_4  and  C5_5 
REMARK    4  A    between atoms: C5_5  and  C6_6 
REMARK    5  A    between atoms: C6_6  and  C7_7 
REMARK    6  A    between atoms: C7_7  and  C8_8 
REMARK    7  A    between atoms: C8_8  and  C9_9 
REMARK    8  A    between atoms: C15_16  and  O2_17 
ROOT
HETATM    1  C9  UNL     1      -1.830  -0.675   0.405  1.00  0.00     0.007 C 
HETATM    2  C10 UNL     1      -2.287   0.472   1.256  1.00  0.00     0.015 C 
HETATM    3  C11 UNL     1      -2.589   1.721   0.512  1.00  0.00     0.024 C 
HETATM    4  C12 UNL     1      -3.199   1.635  -0.823  1.00  0.00     0.102 C 
HETATM    5  C13 UNL     1      -4.434   0.770  -0.755  1.00  0.00     0.104 C 
HETATM    6  C14 UNL     1      -4.175  -0.653  -0.510  1.00  0.00     0.157 C 
HETATM    7  O1  UNL     1      -5.137  -1.335  -0.911  1.00  0.00    -0.295 OA
HETATM    8  C15 UNL     1      -3.124  -1.465   0.061  1.00  0.00     0.197 C 
HETATM    9  N1  UNL     1      -2.349   1.382  -1.938  1.00  0.00    -0.143 NA
HETATM   10  N2  UNL     1      -2.062   0.014  -1.950  1.00  0.00    -0.147 NA
HETATM   11  C16 UNL     1      -1.163  -0.217  -0.853  1.00  0.00     0.142 C 
ENDROOT
BRANCH   1  12
HETATM   12  C8  UNL     1      -0.964  -1.671   1.070  1.00  0.00     0.014 C 
BRANCH  12  13
HETATM   13  C7  UNL     1       0.317  -1.393   1.683  1.00  0.00     0.001 C 
BRANCH  13  14
HETATM   14  C6  UNL     1       1.450  -0.877   0.839  1.00  0.00     0.000 C 
BRANCH  14  15
HETATM   15  C5  UNL     1       2.663  -0.710   1.762  1.00  0.00     0.000 C 
BRANCH  15  16
HETATM   16  C4  UNL     1       3.870  -0.203   1.047  1.00  0.00     0.000 C 
BRANCH  16  17
HETATM   17  C3  UNL     1       3.694   1.137   0.398  1.00  0.00    -0.000 C 
BRANCH  17  18
HETATM   18  C2  UNL     1       4.949   1.602  -0.307  1.00  0.00    -0.005 C 
HETATM   19  C1  UNL     1       5.365   0.636  -1.397  1.00  0.00     0.005 C 
ENDBRANCH  17  18
ENDBRANCH  16  17
ENDBRANCH  15  16
ENDBRANCH  14  15
ENDBRANCH  13  14
ENDBRANCH  12  13
ENDBRANCH   1  12
BRANCH   8  20
HETATM   20  O2  UNL     1      -2.825  -2.545  -0.746  1.00  0.00    -0.387 OA
ATOM     21  H2  UNL     1      -3.616  -3.028  -0.956  1.00  0.00     0.210 HD
ENDBRANCH   8  20
TORSDOF 8
