REMARK  9 active torsions:
REMARK  status: ('A' for Active; 'I' for Inactive)
REMARK    1  A    between atoms: C3_5  and  C4_6 
REMARK    2  A    between atoms: C4_6  and  O1_9 
REMARK    3  A    between atoms: C7_12  and  N3_13 
REMARK       I    between atoms: N3_13  and  C8_15 
REMARK    4  A    between atoms: C8_15  and  C9_17 
REMARK    5  A    between atoms: N5_23  and  C12_24 
REMARK    6  A    between atoms: C13_27  and  N7_28 
REMARK    7  A    between atoms: N7_28  and  C14_30 
REMARK    8  A    between atoms: C18_36  and  N9_37 
REMARK    9  A    between atoms: N9_37  and  C19_39 
ROOT
HETATM    1  C9  UNL     1       1.389  -0.527  -0.333  1.00  0.00     0.393 C 
HETATM    2  N4  UNL     1       1.938   0.878  -0.511  1.00  0.00    -0.043 N 
ATOM      3  H41 UNL     1       2.905   1.070  -0.248  1.00  0.00     0.280 HD
ATOM      4  H42 UNL     1       1.604   1.623   0.101  1.00  0.00     0.280 HD
HETATM    5  C10 UNL     1       1.557   0.901  -1.968  1.00  0.00     0.255 C 
HETATM    6  C11 UNL     1       0.113   0.697  -1.731  1.00  0.00     0.171 C 
HETATM    7  N5  UNL     1       0.072  -0.230  -0.473  1.00  0.00    -0.176 N 
ENDROOT
BRANCH   7   8
HETATM    8  C12 UNL     1      -1.273  -0.461  -0.104  1.00  0.00     0.711 A 
HETATM    9  N6  UNL     1      -1.854  -1.623   0.106  1.00  0.00    -0.021 N 
HETATM   10  C13 UNL     1      -3.197  -1.819   0.351  1.00  0.00     0.707 A 
ATOM     11  H6  UNL     1      -1.259  -2.451   0.086  1.00  0.00     0.203 HD
HETATM   12  N8  UNL     1      -3.980  -0.731   0.364  1.00  0.00    -0.021 N 
HETATM   13  C18 UNL     1      -3.457   0.528   0.146  1.00  0.00     0.707 A 
ATOM     14  H8  UNL     1      -4.980  -0.835   0.538  1.00  0.00     0.203 HD
HETATM   15  N10 UNL     1      -2.134   0.619  -0.071  1.00  0.00    -0.021 N 
ATOM     16  H10 UNL     1      -1.739   1.547  -0.221  1.00  0.00     0.203 HD
BRANCH  10  17
HETATM   17  N7  UNL     1      -3.543  -2.994   0.420  1.00  0.00    -0.217 N 
ATOM     18  H7  UNL     1      -2.725  -3.586   0.276  1.00  0.00     0.178 HD
BRANCH  17  19
HETATM   19  C14 UNL     1      -4.645  -3.799   0.623  1.00  0.00     0.036 C 
HETATM   20  C15 UNL     1      -5.116  -4.359  -0.777  1.00  0.00     0.038 C 
HETATM   21  C16 UNL     1      -5.827  -3.161   1.266  1.00  0.00     0.038 C 
HETATM   22  C17 UNL     1      -4.285  -5.021   1.463  1.00  0.00     0.038 C 
ENDBRANCH  17  19
ENDBRANCH  10  17
BRANCH  13  23
HETATM   23  N9  UNL     1      -4.257   1.517   0.052  1.00  0.00    -0.220 N 
ATOM     24  H9  UNL     1      -5.217   1.202   0.189  1.00  0.00     0.178 HD
BRANCH  23  25
HETATM   25  C19 UNL     1      -4.237   2.840  -0.170  1.00  0.00     0.103 C 
HETATM   26  C20 UNL     1      -5.767   3.305  -0.001  1.00  0.00     0.052 C 
HETATM   27  C21 UNL     1      -5.903   4.600  -0.778  1.00  0.00     0.169 C 
HETATM   28  O3  UNL     1      -5.048   5.545  -0.251  1.00  0.00    -0.391 OA
HETATM   29  C22 UNL     1      -3.737   5.219  -0.147  1.00  0.00     0.169 C 
HETATM   30  C23 UNL     1      -3.491   3.878   0.539  1.00  0.00     0.052 C 
ENDBRANCH  23  25
ENDBRANCH  13  23
ENDBRANCH   7   8
BRANCH   1  31
HETATM   31  C8  UNL     1       1.877  -0.657   1.347  1.00  0.00     0.274 C 
HETATM   32  N3  UNL     1       2.701  -1.686   1.069  1.00  0.00    -0.304 N 
ATOM     33  H3  UNL     1       2.399  -2.660   1.092  1.00  0.00     0.171 HD
HETATM   34  O2  UNL     1       1.155   0.244   1.583  1.00  0.00    -0.269 OA
BRANCH  32  35
HETATM   35  C7  UNL     1       3.969  -1.314   0.755  1.00  0.00     0.155 A 
HETATM   36  N1  UNL     1       5.032  -1.990   0.386  1.00  0.00    -0.319 N 
HETATM   37  C1  UNL     1       4.908  -3.454   0.151  1.00  0.00     0.159 C 
HETATM   38  C2  UNL     1       6.168  -1.364   0.225  1.00  0.00     0.136 A 
HETATM   39  N2  UNL     1       7.364  -2.023  -0.319  1.00  0.00    -0.081 NA
HETATM   40  C3  UNL     1       6.208   0.015   0.456  1.00  0.00     0.061 A 
HETATM   41  S1  UNL     1       4.554   0.271   0.895  1.00  0.00    -0.052 SA
BRANCH  40  42
HETATM   42  C4  UNL     1       7.301   1.000   0.267  1.00  0.00     0.087 C 
HETATM   43  C5  UNL     1       6.757   2.249   1.102  1.00  0.00     0.051 C 
HETATM   44  C6  UNL     1       7.401   1.527  -1.103  1.00  0.00     0.051 C 
BRANCH  42  45
HETATM   45  O1  UNL     1       8.465   0.603   0.902  1.00  0.00    -0.385 OA
ATOM     46  H1  UNL     1       9.165   1.234   0.781  1.00  0.00     0.211 HD
ENDBRANCH  42  45
ENDBRANCH  40  42
ENDBRANCH  32  35
ENDBRANCH   1  31
TORSDOF 9
