REMARK  4 active torsions:
REMARK  status: ('A' for Active; 'I' for Inactive)
REMARK    1  A    between atoms: N1_1  and  N2_4 
REMARK       I    between atoms: C1_6  and  N4_8 
REMARK    2  A    between atoms: N4_8  and  C2_10 
REMARK    3  A    between atoms: C2_10  and  C3_11 
REMARK    4  A    between atoms: C3_11  and  N5_12 
ROOT
HETATM    1  N2  UNL     1      -4.193   0.444   0.039  1.00  0.00    -0.280 N 
ATOM      2  H2  UNL     1      -4.877   0.773  -0.643  1.00  0.00     0.189 HD
HETATM    3  C1  UNL     1      -3.184  -0.308  -0.339  1.00  0.00     0.202 C 
HETATM    4  N3  UNL     1      -3.072  -0.648  -1.687  1.00  0.00    -0.062 NA
HETATM    5  N4  UNL     1      -2.254  -0.745   0.606  1.00  0.00    -0.359 N 
ATOM      6  H4  UNL     1      -2.595  -0.935   1.549  1.00  0.00     0.162 HD
ENDROOT
BRANCH   5   7
HETATM    7  C2  UNL     1      -0.852  -0.948   0.353  1.00  0.00     0.166 C 
BRANCH   7   8
HETATM    8  C3  UNL     1      -0.125   0.345   0.075  1.00  0.00     0.077 C 
BRANCH   8   9
HETATM    9  N5  UNL     1       1.249   0.127  -0.154  1.00  0.00    -0.388 N 
HETATM   10  C4  UNL     1       1.986  -0.250   1.001  1.00  0.00     0.148 C 
HETATM   11  C5  UNL     1       3.345  -0.770   0.555  1.00  0.00     0.187 C 
HETATM   12  O1  UNL     1       4.014   0.268  -0.070  1.00  0.00    -0.388 OA
HETATM   13  C6  UNL     1       3.357   0.703  -1.221  1.00  0.00     0.187 C 
HETATM   14  C7  UNL     1       1.930   1.081  -0.956  1.00  0.00     0.148 C 
ENDBRANCH   8   9
ENDBRANCH   7   8
ENDBRANCH   5   7
BRANCH   1  15
HETATM   15  N1  UNL     1      -4.317   0.790   1.400  1.00  0.00    -0.343 N 
ATOM     16  H12 UNL     1      -3.625   0.453   2.069  1.00  0.00     0.176 HD
ATOM     17  H11 UNL     1      -5.100   1.374   1.693  1.00  0.00     0.176 HD
ENDBRANCH   1  15
TORSDOF 4
