REMARK  4 active torsions:
REMARK  status: ('A' for Active; 'I' for Inactive)
REMARK    1  A    between atoms: N1_2  and  C3_4 
REMARK    2  A    between atoms: C3_4  and  C4_5 
REMARK    3  A    between atoms: C6_7  and  C7_8 
REMARK    4  A    between atoms: C7_8  and  N2_9 
REMARK       I    between atoms: N3_14  and  C9_15 
ROOT
HETATM    1  C4  UNL     1       0.162   0.225  -0.391  1.00  0.00     0.115 C 
HETATM    2  C5  UNL     1      -0.497   1.572  -0.159  1.00  0.00     0.035 C 
HETATM    3  C6  UNL     1      -1.660   1.321   0.767  1.00  0.00     0.031 C 
HETATM    4  C8  UNL     1      -1.730  -0.170   0.996  1.00  0.00     0.132 C 
HETATM    5  N3  UNL     1      -0.767  -0.763   0.075  1.00  0.00    -0.349 N 
HETATM    6  C9  UNL     1      -0.766  -2.123  -0.293  1.00  0.00     0.184 C 
HETATM    7  N4  UNL     1      -0.362  -3.007   0.533  1.00  0.00    -0.374 N 
ATOM      8  H41 UNL     1      -0.361  -3.992   0.267  1.00  0.00     0.158 HD
ATOM      9  H42 UNL     1      -0.037  -2.741   1.463  1.00  0.00     0.158 HD
HETATM   10  N5  UNL     1      -1.215  -2.490  -1.577  1.00  0.00    -0.064 NA
ENDROOT
BRANCH   3  11
HETATM   11  C7  UNL     1      -2.907   1.831   0.043  1.00  0.00     0.236 C 
BRANCH  11  12
HETATM   12  N2  UNL     1      -2.689   3.240  -0.198  1.00  0.00    -0.079 N 
ATOM     13  H23 UNL     1      -2.468   3.766   0.647  1.00  0.00     0.274 HD
ATOM     14  H22 UNL     1      -1.822   3.436  -0.698  1.00  0.00     0.274 HD
ATOM     15  H21 UNL     1      -3.521   3.580  -0.681  1.00  0.00     0.274 HD
ENDBRANCH  11  12
ENDBRANCH   3  11
BRANCH   1  16
HETATM   16  C3  UNL     1       1.443   0.225   0.413  1.00  0.00     0.296 C 
BRANCH  16  17
HETATM   17  N1  UNL     1       2.179  -1.017   0.279  1.00  0.00     0.082 N 
HETATM   18  C1  UNL     1       3.379  -0.843   1.116  1.00  0.00     0.309 C 
HETATM   19  C2  UNL     1       2.697  -1.138  -1.092  1.00  0.00     0.309 C 
ENDBRANCH  16  17
ENDBRANCH   1  16
TORSDOF 4
