REMARK  4 active torsions:
REMARK  status: ('A' for Active; 'I' for Inactive)
REMARK    1  A    between atoms: N1_1  and  C1_4 
REMARK    2  A    between atoms: C3_6  and  C4_7 
REMARK    3  A    between atoms: C4_7  and  N2_8 
REMARK    4  A    between atoms: N2_8  and  C5_10 
ROOT
HETATM    1  C1  UNL     1      -2.183  -0.024  -0.583  1.00  0.00     0.115 A 
HETATM    2  C2  UNL     1      -1.111  -0.428   0.190  1.00  0.00     0.077 A 
HETATM    3  C3  UNL     1      -0.552   0.736   0.694  1.00  0.00     0.047 A 
HETATM    4  N5  UNL     1      -1.289   1.750   0.216  1.00  0.00    -0.302 N 
ATOM      5  H5  UNL     1      -1.110   2.733   0.422  1.00  0.00     0.186 HD
HETATM    6  N6  UNL     1      -2.274   1.323  -0.553  1.00  0.00    -0.286 N 
ATOM      7  H6  UNL     1      -2.968   1.898  -1.031  1.00  0.00     0.188 HD
ENDROOT
BRANCH   3   8
HETATM    8  C4  UNL     1       0.640   0.799   1.590  1.00  0.00     0.180 C 
BRANCH   8   9
HETATM    9  N2  UNL     1       1.320  -0.475   1.627  1.00  0.00    -0.362 N 
ATOM     10  H2  UNL     1       1.355  -0.983   2.511  1.00  0.00     0.162 HD
BRANCH   9  11
HETATM   11  C5  UNL     1       1.942  -1.053   0.489  1.00  0.00     0.185 A 
HETATM   12  C6  UNL     1       2.041  -0.553  -0.792  1.00  0.00     0.167 A 
HETATM   13  N3  UNL     1       2.719  -1.435  -1.568  1.00  0.00    -0.288 N 
HETATM   14  N4  UNL     1       3.011  -2.432  -0.755  1.00  0.00    -0.200 N 
ATOM     15  H3  UNL     1       2.951  -1.347  -2.557  1.00  0.00     0.188 HD
HETATM   16  O1  UNL     1       2.567  -2.221   0.432  1.00  0.00    -0.203 OA
ATOM     17  H4  UNL     1       3.526  -3.267  -1.034  1.00  0.00     0.216 HD
ENDBRANCH   9  11
ENDBRANCH   8   9
ENDBRANCH   3   8
BRANCH   1  18
HETATM   18  N1  UNL     1      -2.958  -0.856  -1.224  1.00  0.00    -0.384 N 
ATOM     19  H12 UNL     1      -2.889  -1.873  -1.247  1.00  0.00     0.157 HD
ATOM     20  H11 UNL     1      -3.749  -0.558  -1.795  1.00  0.00     0.157 HD
ENDBRANCH   1  18
TORSDOF 4
