REMARK  8 active torsions:
REMARK  status: ('A' for Active; 'I' for Inactive)
REMARK    1  A    between atoms: C2_2  and  C3_3 
REMARK    2  A    between atoms: C3_3  and  N1_4 
REMARK    3  A    between atoms: C4_7  and  N3_8 
REMARK    4  A    between atoms: N4_11  and  N5_12 
REMARK    5  A    between atoms: C5_15  and  N6_16 
REMARK    6  A    between atoms: N6_16  and  C6_18 
REMARK    7  A    between atoms: C6_18  and  C7_19 
REMARK    8  A    between atoms: C7_19  and  N7_20 
ROOT
HETATM    1  N1  UNL     1      -1.243   0.685   0.222  1.00  0.00    -0.107 N 
HETATM    2  N2  UNL     1      -1.423   1.889   0.704  1.00  0.00    -0.114 N 
ATOM      3  H2  UNL     1      -2.330   2.317   0.889  1.00  0.00     0.206 HD
HETATM    4  C4  UNL     1      -0.237   2.474   0.918  1.00  0.00     0.727 A 
HETATM    5  N4  UNL     1       0.739   1.597   0.555  1.00  0.00     0.085 N 
HETATM    6  C5  UNL     1       0.120   0.493   0.125  1.00  0.00     0.731 A 
ENDROOT
BRANCH   6   7
HETATM    7  N6  UNL     1       0.573  -0.605  -0.319  1.00  0.00    -0.221 N 
ATOM      8  H6  UNL     1      -0.119  -1.305  -0.587  1.00  0.00     0.177 HD
BRANCH   7   9
HETATM    9  C6  UNL     1       1.926  -0.969  -0.485  1.00  0.00     0.165 C 
BRANCH   9  10
HETATM   10  C7  UNL     1       2.468  -0.609  -1.867  1.00  0.00     0.249 C 
BRANCH  10  11
HETATM   11  N7  UNL     1       3.852  -1.022  -1.914  1.00  0.00    -0.078 N 
ATOM     12  H73 UNL     1       4.409  -0.631  -1.155  1.00  0.00     0.274 HD
ATOM     13  H72 UNL     1       3.981  -2.007  -1.681  1.00  0.00     0.274 HD
ATOM     14  H71 UNL     1       4.214  -0.782  -2.837  1.00  0.00     0.274 HD
ENDBRANCH  10  11
ENDBRANCH   9  10
ENDBRANCH   7   9
ENDBRANCH   6   7
BRANCH   1  15
HETATM   15  C3  UNL     1      -2.255  -0.295  -0.152  1.00  0.00     0.168 C 
BRANCH  15  16
HETATM   16  C2  UNL     1      -2.623  -1.187   1.004  1.00  0.00     0.018 C 
HETATM   17  C1  UNL     1      -3.674  -2.158   0.508  1.00  0.00     0.007 C 
ENDBRANCH  15  16
ENDBRANCH   1  15
BRANCH   5  18
HETATM   18  N5  UNL     1       2.113   1.839   0.630  1.00  0.00    -0.309 N 
ATOM     19  H52 UNL     1       2.585   2.681   0.958  1.00  0.00     0.178 HD
ATOM     20  H51 UNL     1       2.844   1.182   0.358  1.00  0.00     0.178 HD
ENDBRANCH   5  18
BRANCH   4  21
HETATM   21  N3  UNL     1      -0.009   3.663   1.388  1.00  0.00    -0.231 N 
ATOM     22  H32 UNL     1      -0.740   4.320   1.660  1.00  0.00     0.174 HD
ATOM     23  H31 UNL     1       0.894   4.108   1.551  1.00  0.00     0.174 HD
ENDBRANCH   4  21
TORSDOF 8
