REMARK  2 active torsions:
REMARK  status: ('A' for Active; 'I' for Inactive)
REMARK    1  A    between atoms: C2_2  and  C5_6 
REMARK    2  A    between atoms: C9_17  and  N4_18 
ROOT
HETATM    1  C1  UNL     1       3.078  -0.764   0.466  1.00  0.00     0.035 C 
HETATM    2  C2  UNL     1       2.440   0.312  -0.405  1.00  0.00     0.061 C 
HETATM    3  C3  UNL     1       2.290   1.569   0.381  1.00  0.00     0.035 C 
HETATM    4  C4  UNL     1       3.393   0.568  -1.489  1.00  0.00     0.072 C 
HETATM    5  N1  UNL     1       4.135   0.765  -2.361  1.00  0.00    -0.196 NA
ENDROOT
BRANCH   2   6
HETATM    6  C5  UNL     1       1.195  -0.227  -0.955  1.00  0.00     0.020 C 
HETATM    7  C6  UNL     1       0.072  -0.408  -0.297  1.00  0.00     0.054 C 
HETATM    8  S1  UNL     1       0.102   0.054   1.424  1.00  0.00    -0.051 SA
HETATM    9  C10 UNL     1      -1.078  -0.957  -1.000  1.00  0.00     0.203 C 
HETATM   10  C7  UNL     1      -1.487   0.732   1.883  1.00  0.00     0.143 C 
HETATM   11  N2  UNL     1      -1.538   1.312   3.045  1.00  0.00    -0.380 N 
HETATM   12  N3  UNL     1      -2.722   0.743   1.179  1.00  0.00    -0.329 N 
ATOM     13  H22 UNL     1      -0.652   1.304   3.550  1.00  0.00     0.158 HD
ATOM     14  H21 UNL     1      -2.445   1.699   3.307  1.00  0.00     0.158 HD
HETATM   15  C8  UNL     1      -3.070   0.034   0.003  1.00  0.00     0.118 C 
ATOM     16  H3  UNL     1      -3.452   1.338   1.571  1.00  0.00     0.168 HD
HETATM   17  S2  UNL     1      -4.263   0.687  -0.903  1.00  0.00    -0.062 SA
HETATM   18  C9  UNL     1      -2.471  -1.234  -0.495  1.00  0.00     0.319 C 
HETATM   19  O1  UNL     1      -0.850  -1.231  -2.198  1.00  0.00    -0.289 OA
BRANCH  18  20
HETATM   20  N4  UNL     1      -3.247  -1.808  -1.565  1.00  0.00    -0.062 N 
ATOM     21  H43 UNL     1      -4.220  -1.940  -1.289  1.00  0.00     0.275 HD
ATOM     22  H42 UNL     1      -3.386  -1.140  -2.323  1.00  0.00     0.275 HD
ATOM     23  H41 UNL     1      -2.836  -2.677  -1.906  1.00  0.00     0.275 HD
ENDBRANCH  18  20
ENDBRANCH   2   6
TORSDOF 2
