REMARK  6 active torsions:
REMARK  status: ('A' for Active; 'I' for Inactive)
REMARK    1  A    between atoms: N1_3  and  S1_5 
REMARK    2  A    between atoms: S1_5  and  C3_8 
REMARK    3  A    between atoms: C3_8  and  C4_9 
REMARK    4  A    between atoms: C5_12  and  N3_13 
REMARK    5  A    between atoms: C7_19  and  C8_20 
REMARK    6  A    between atoms: N5_21  and  N6_23 
ROOT
HETATM    1  C1  UNL     1       4.080   2.133   1.544  1.00  0.00     0.124 C 
HETATM    2  C2  UNL     1       3.974   1.287   0.669  1.00  0.00    -0.065 C 
HETATM    3  N1  UNL     1       3.855   0.303  -0.316  1.00  0.00    -0.253 N 
ATOM      4  H1  UNL     1       4.431  -0.536  -0.249  1.00  0.00     0.188 HD
ENDROOT
BRANCH   3   5
HETATM    5  S1  UNL     1       2.763   0.465  -1.641  1.00  0.00     0.242 S 
HETATM    6  O1  UNL     1       2.994   1.792  -2.350  1.00  0.00    -0.205 OA
HETATM    7  O2  UNL     1       2.874  -0.677  -2.576  1.00  0.00    -0.205 OA
BRANCH   5   8
HETATM    8  C3  UNL     1       1.120   0.563  -0.950  1.00  0.00     0.222 C 
BRANCH   8   9
HETATM    9  C4  UNL     1       0.817  -0.666  -0.176  1.00  0.00     0.055 A 
HETATM   10  N2  UNL     1       1.758  -1.641  -0.076  1.00  0.00    -0.194 N 
HETATM   11  C5  UNL     1       1.557  -2.773   0.612  1.00  0.00     0.675 A 
ATOM     12  H2  UNL     1       2.654  -1.506  -0.544  1.00  0.00     0.184 HD
HETATM   13  N4  UNL     1       0.379  -2.964   1.234  1.00  0.00    -0.201 N 
HETATM   14  C6  UNL     1      -0.549  -2.023   1.146  1.00  0.00     0.121 A 
ATOM     15  H4  UNL     1       0.204  -3.818   1.764  1.00  0.00     0.183 HD
HETATM   16  C7  UNL     1      -0.393  -0.823   0.441  1.00  0.00     0.021 A 
BRANCH  11  17
HETATM   17  N3  UNL     1       2.477  -3.696   0.694  1.00  0.00    -0.234 N 
ATOM     18  H32 UNL     1       3.370  -3.551   0.223  1.00  0.00     0.174 HD
ATOM     19  H31 UNL     1       2.324  -4.558   1.218  1.00  0.00     0.174 HD
ENDBRANCH  11  17
BRANCH  16  20
HETATM   20  C8  UNL     1      -1.463   0.156   0.386  1.00  0.00     0.122 C 
HETATM   21  N5  UNL     1      -1.453   1.265  -0.220  1.00  0.00    -0.309 N 
ATOM     22  H5  UNL     1      -0.618   1.538  -0.738  1.00  0.00     0.186 HD
BRANCH  21  23
HETATM   23  N6  UNL     1      -2.542   2.120  -0.201  1.00  0.00    -0.276 N 
HETATM   24  C9  UNL     1      -3.738   1.811  -0.529  1.00  0.00     0.215 C 
HETATM   25  N7  UNL     1      -4.039   0.491  -0.958  1.00  0.00    -0.065 NA
HETATM   26  N8  UNL     1      -4.733   2.808  -0.451  1.00  0.00    -0.065 NA
ATOM     27  H6  UNL     1      -2.375   3.080   0.101  1.00  0.00     0.189 HD
ENDBRANCH  21  23
ENDBRANCH  16  20
ENDBRANCH   8   9
ENDBRANCH   5   8
ENDBRANCH   3   5
TORSDOF 6
