REMARK  9 active torsions:
REMARK  status: ('A' for Active; 'I' for Inactive)
REMARK    1  A    between atoms: N1_2  and  N2_3 
REMARK       I    between atoms: N1_2  and  C9_26 
REMARK    2  A    between atoms: N2_3  and  C2_5 
REMARK    3  A    between atoms: C3_8  and  N4_9 
REMARK    4  A    between atoms: N4_9  and  C4_11 
REMARK    5  A    between atoms: C4_11  and  C5_12 
REMARK    6  A    between atoms: C5_12  and  C6_13 
REMARK    7  A    between atoms: C6_13  and  N5_14 
REMARK    8  A    between atoms: N5_14  and  C7_16 
REMARK    9  A    between atoms: C8_20  and  N7_21 
ROOT
HETATM    1  C2  UNL     1       1.462   0.321   0.392  1.00  0.00     0.726 A 
HETATM    2  N3  UNL     1       0.231   0.839   0.549  1.00  0.00    -0.020 N 
ATOM      3  H3  UNL     1       0.118   1.672   1.127  1.00  0.00     0.203 HD
HETATM    4  C3  UNL     1      -0.871   0.291  -0.036  1.00  0.00     0.707 A 
HETATM    5  N6  UNL     1      -0.656  -0.811  -0.791  1.00  0.00    -0.022 N 
ATOM      6  H6  UNL     1      -1.459  -1.247  -1.245  1.00  0.00     0.203 HD
HETATM    7  C8  UNL     1       0.544  -1.360  -0.976  1.00  0.00     0.705 A 
HETATM    8  N8  UNL     1       1.595  -0.777  -0.374  1.00  0.00    -0.020 N 
ATOM      9  H8  UNL     1       2.523  -1.180  -0.502  1.00  0.00     0.203 HD
ENDROOT
BRANCH   1  10
HETATM   10  N2  UNL     1       2.500   0.857   0.958  1.00  0.00    -0.127 N 
ATOM     11  H2  UNL     1       2.374   1.690   1.534  1.00  0.00     0.206 HD
BRANCH  10  12
HETATM   12  N1  UNL     1       3.784   0.330   0.804  1.00  0.00    -0.255 N 
HETATM   13  C1  UNL     1       4.298  -0.634   1.775  1.00  0.00     0.181 C 
HETATM   14  C9  UNL     1       4.649   0.679  -0.262  1.00  0.00     0.203 C 
HETATM   15  N9  UNL     1       4.704   1.909  -0.630  1.00  0.00    -0.372 N 
HETATM   16  N10 UNL     1       5.464  -0.249  -0.954  1.00  0.00    -0.062 NA
ATOM     17  H92 UNL     1       4.117   2.578  -0.131  1.00  0.00     0.158 HD
ATOM     18  H91 UNL     1       5.327   2.160  -1.398  1.00  0.00     0.158 HD
ENDBRANCH  10  12
ENDBRANCH   1  10
BRANCH   4  19
HETATM   19  N4  UNL     1      -2.042   0.790   0.117  1.00  0.00    -0.225 N 
ATOM     20  H4  UNL     1      -2.181   1.623   0.690  1.00  0.00     0.177 HD
BRANCH  19  21
HETATM   21  C4  UNL     1      -3.151   0.158  -0.530  1.00  0.00     0.139 C 
BRANCH  21  22
HETATM   22  C5  UNL     1      -4.481   0.753  -0.119  1.00  0.00     0.040 C 
BRANCH  22  23
HETATM   23  C6  UNL     1      -4.705   0.616   1.369  1.00  0.00     0.121 C 
BRANCH  23  24
HETATM   24  N5  UNL     1      -5.981   1.195   1.714  1.00  0.00    -0.390 N 
ATOM     25  H5  UNL     1      -6.065   1.708   2.592  1.00  0.00     0.159 HD
BRANCH  24  26
HETATM   26  C7  UNL     1      -7.006   1.091   0.966  1.00  0.00     0.165 C 
HETATM   27  S1  UNL     1      -8.070   1.006  -0.261  1.00  0.00    -0.075 SA
ENDBRANCH  24  26
ENDBRANCH  23  24
ENDBRANCH  22  23
ENDBRANCH  21  22
ENDBRANCH  19  21
ENDBRANCH   4  19
BRANCH   7  28
HETATM   28  N7  UNL     1       0.687  -2.409  -1.705  1.00  0.00    -0.234 N 
ATOM     29  H72 UNL     1      -0.111  -2.851  -2.162  1.00  0.00     0.174 HD
ATOM     30  H71 UNL     1       1.606  -2.829  -1.847  1.00  0.00     0.174 HD
ENDBRANCH   7  28
TORSDOF 9
