REMARK  8 active torsions:
REMARK  status: ('A' for Active; 'I' for Inactive)
REMARK    1  A    between atoms: O1_2  and  C2_3 
REMARK    2  A    between atoms: C2_3  and  C3_4 
REMARK    3  A    between atoms: C3_4  and  O2_5 
REMARK    4  A    between atoms: O2_5  and  C4_6 
REMARK    5  A    between atoms: C10_12  and  N1_13 
REMARK    6  A    between atoms: C11_18  and  N3_19 
REMARK    7  A    between atoms: N3_19  and  N4_21 
REMARK    8  A    between atoms: N6_26  and  O3_27 
ROOT
HETATM    1  C4  UNL     1       1.381  -0.400  -1.105  1.00  0.00     0.069 A 
HETATM    2  C5  UNL     1       0.994  -0.254  -2.448  1.00  0.00     0.039 A 
HETATM    3  C6  UNL     1      -0.309  -0.009  -2.798  1.00  0.00     0.037 A 
HETATM    4  C7  UNL     1      -1.311   0.108  -1.866  1.00  0.00     0.096 A 
HETATM    5  C8  UNL     1      -0.962  -0.031  -0.544  1.00  0.00     0.042 A 
HETATM    6  C9  UNL     1       0.361  -0.280  -0.186  1.00  0.00     0.054 A 
HETATM    7  C10 UNL     1      -1.820   0.053   0.529  1.00  0.00     0.127 C 
HETATM    8  N2  UNL     1      -3.164   0.267   0.567  1.00  0.00    -0.173 N 
ATOM      9  H2  UNL     1      -3.589   0.386   1.486  1.00  0.00     0.186 HD
HETATM   10  C11 UNL     1      -3.981   0.335  -0.499  1.00  0.00     0.714 C 
HETATM   11  N5  UNL     1      -3.691   0.510  -1.796  1.00  0.00    -0.104 N 
ATOM     12  H5  UNL     1      -4.468   0.805  -2.387  1.00  0.00     0.208 HD
HETATM   13  N6  UNL     1      -2.513   0.348  -2.420  1.00  0.00    -0.148 N 
ENDROOT
BRANCH   1  14
HETATM   14  O2  UNL     1       2.691  -0.644  -0.836  1.00  0.00    -0.349 OA
BRANCH  14  15
HETATM   15  C3  UNL     1       3.353  -0.794   0.349  1.00  0.00     0.201 C 
BRANCH  15  16
HETATM   16  C2  UNL     1       3.352   0.459   1.157  1.00  0.00     0.193 C 
BRANCH  16  17
HETATM   17  O1  UNL     1       3.990   0.377   2.372  1.00  0.00    -0.394 OA
HETATM   18  C1  UNL     1       5.316   0.049   2.247  1.00  0.00     0.201 C 
ENDBRANCH  16  17
ENDBRANCH  15  16
ENDBRANCH  14  15
ENDBRANCH   1  14
BRANCH   7  19
HETATM   19  N1  UNL     1      -1.247  -0.095   1.668  1.00  0.00    -0.384 N 
ATOM     20  H12 UNL     1      -0.240  -0.255   1.640  1.00  0.00     0.157 HD
ATOM     21  H11 UNL     1      -1.883  -0.033   2.463  1.00  0.00     0.157 HD
ENDBRANCH   7  19
BRANCH  13  22
HETATM   22  O3  UNL     1      -2.498   0.423  -3.663  1.00  0.00    -0.267 OA
ATOM     23  H3  UNL     1      -3.347   0.593  -4.054  1.00  0.00     0.247 HD
ENDBRANCH  13  22
BRANCH  10  24
HETATM   24  N3  UNL     1      -5.249   0.208  -0.189  1.00  0.00    -0.137 N 
ATOM     25  H3  UNL     1      -5.948   0.246  -0.931  1.00  0.00     0.205 HD
BRANCH  24  26
HETATM   26  N4  UNL     1      -5.663   0.023   1.120  1.00  0.00    -0.331 N 
ATOM     27  H42 UNL     1      -4.951  -0.013   1.849  1.00  0.00     0.177 HD
ATOM     28  H41 UNL     1      -6.649  -0.076   1.361  1.00  0.00     0.177 HD
ENDBRANCH  24  26
ENDBRANCH  10  24
TORSDOF 8
