REMARK  4 active torsions:
REMARK  status: ('A' for Active; 'I' for Inactive)
REMARK       I    between atoms: C1_2  and  N1_3 
REMARK    1  A    between atoms: C1_2  and  C7_18 
REMARK    2  A    between atoms: N1_3  and  C2_5 
REMARK    3  A    between atoms: N6_20  and  C9_21 
REMARK    4  A    between atoms: C9_21  and  C10_22 
ROOT
HETATM    1  O1  UNL     1      -1.873  -2.917  -0.595  1.00  0.00    -0.267 OA
HETATM    2  C1  UNL     1      -1.273  -1.821  -0.459  1.00  0.00     0.262 C 
HETATM    3  N1  UNL     1      -1.860  -0.689  -1.080  1.00  0.00    -0.308 N 
ATOM      4  H1  UNL     1      -1.434  -0.299  -1.921  1.00  0.00     0.170 HD
ENDROOT
BRANCH   2   5
HETATM    5  C7  UNL     1      -0.036  -1.750   0.305  1.00  0.00     0.097 A 
HETATM    6  C8  UNL     1       0.667  -0.583   0.489  1.00  0.00     0.112 A 
HETATM    7  N6  UNL     1       1.825  -0.548   1.211  1.00  0.00    -0.359 N 
HETATM    8  C14 UNL     1       2.309  -1.675   1.765  1.00  0.00     0.095 A 
HETATM    9  C15 UNL     1       1.646  -2.883   1.615  1.00  0.00     0.073 A 
HETATM   10  C16 UNL     1       0.470  -2.898   0.877  1.00  0.00     0.190 A 
HETATM   11  O3  UNL     1      -0.139  -3.989   0.735  1.00  0.00    -0.287 OA
BRANCH   7  12
HETATM   12  C9  UNL     1       2.520   0.688   1.375  1.00  0.00     0.192 C 
BRANCH  12  13
HETATM   13  C10 UNL     1       3.515   0.978   0.343  1.00  0.00     0.070 A 
HETATM   14  C11 UNL     1       4.843   0.640   0.342  1.00  0.00     0.036 A 
HETATM   15  C12 UNL     1       5.375   1.124  -0.832  1.00  0.00     0.027 A 
HETATM   16  C13 UNL     1       4.345   1.735  -1.492  1.00  0.00     0.142 A 
HETATM   17  O2  UNL     1       3.289   1.621  -0.766  1.00  0.00    -0.325 OA
ENDBRANCH  12  13
ENDBRANCH   7  12
ENDBRANCH   2   5
BRANCH   3  18
HETATM   18  C2  UNL     1      -2.929  -0.145  -0.594  1.00  0.00     0.124 A 
HETATM   19  N2  UNL     1      -3.538  -0.607   0.506  1.00  0.00    -0.338 N 
HETATM   20  C3  UNL     1      -4.646  -0.002   0.966  1.00  0.00     0.183 A 
ATOM     21  H2  UNL     1      -3.160  -1.419   0.995  1.00  0.00     0.168 HD
HETATM   22  N3  UNL     1      -5.174   1.067   0.353  1.00  0.00    -0.337 N 
HETATM   23  C4  UNL     1      -4.572   1.540  -0.751  1.00  0.00     0.136 A 
ATOM     24  H3  UNL     1      -6.016   1.512   0.718  1.00  0.00     0.168 HD
HETATM   25  N4  UNL     1      -4.852   2.579  -1.578  1.00  0.00    -0.285 N 
HETATM   26  C6  UNL     1      -3.435   0.950  -1.257  1.00  0.00     0.070 A 
HETATM   27  N5  UNL     1      -3.953   2.639  -2.539  1.00  0.00    -0.309 N 
ATOM     28  H4  UNL     1      -5.640   3.218  -1.471  1.00  0.00     0.188 HD
HETATM   29  C5  UNL     1      -3.040   1.650  -2.396  1.00  0.00     0.126 A 
ATOM     30  H5  UNL     1      -3.946   3.333  -3.286  1.00  0.00     0.186 HD
ENDBRANCH   3  18
TORSDOF 4
