REMARK  3 active torsions:
REMARK  status: ('A' for Active; 'I' for Inactive)
REMARK    1  A    between atoms: C4_4  and  C5_5 
REMARK    2  A    between atoms: N1_7  and  C7_8 
REMARK    3  A    between atoms: C10_13  and  N3_14 
ROOT
HETATM    1  C7  UNL     1       0.396  -0.584   1.177  1.00  0.00     0.120 A 
HETATM    2  C8  UNL     1       0.675  -0.868   2.490  1.00  0.00     0.066 A 
HETATM    3  C9  UNL     1       1.995  -1.080   2.874  1.00  0.00     0.110 A 
HETATM    4  N2  UNL     1       2.946  -0.999   1.948  1.00  0.00    -0.202 N 
ATOM      5  H2  UNL     1       3.912  -1.156   2.236  1.00  0.00     0.183 HD
HETATM    6  C10 UNL     1       2.709  -0.723   0.655  1.00  0.00     0.681 A 
HETATM    7  N5  UNL     1       1.424  -0.523   0.313  1.00  0.00    -0.177 N 
ATOM      8  H5  UNL     1       1.216  -0.312  -0.663  1.00  0.00     0.186 HD
ENDROOT
BRANCH   1   9
HETATM    9  N1  UNL     1      -0.942  -0.357   0.713  1.00  0.00    -0.363 N 
HETATM   10  C6  UNL     1      -2.078  -0.452   1.612  1.00  0.00     0.162 C 
HETATM   11  C5  UNL     1      -3.341  -0.638   0.858  1.00  0.00     0.236 C 
HETATM   12  N6  UNL     1      -3.076  -1.472  -0.307  1.00  0.00    -0.064 N 
HETATM   13  C16 UNL     1      -2.264  -0.801  -1.280  1.00  0.00     0.253 C 
ATOM     14  H62 UNL     1      -2.665  -2.365  -0.036  1.00  0.00     0.278 HD
ATOM     15  H61 UNL     1      -3.943  -1.813  -0.722  1.00  0.00     0.278 HD
HETATM   16  C15 UNL     1      -1.154  -0.026  -0.665  1.00  0.00     0.152 C 
BRANCH  11  17
HETATM   17  C4  UNL     1      -4.116   0.553   0.540  1.00  0.00    -0.026 A 
HETATM   18  C3  UNL     1      -5.234   0.455  -0.304  1.00  0.00     0.009 A 
HETATM   19  C2  UNL     1      -6.000   1.547  -0.633  1.00  0.00     0.001 A 
HETATM   20  C1  UNL     1      -5.696   2.797  -0.140  1.00  0.00     0.000 A 
HETATM   21  C18 UNL     1      -4.607   2.931   0.690  1.00  0.00     0.001 A 
HETATM   22  C17 UNL     1      -3.839   1.804   1.013  1.00  0.00     0.009 A 
ENDBRANCH  11  17
ENDBRANCH   1   9
BRANCH   6  23
HETATM   23  N3  UNL     1       3.770  -0.650  -0.285  1.00  0.00    -0.214 N 
HETATM   24  C11 UNL     1       5.110  -0.881   0.175  1.00  0.00     0.168 C 
HETATM   25  C12 UNL     1       6.155  -0.430  -0.814  1.00  0.00     0.252 C 
HETATM   26  N4  UNL     1       5.678   0.657  -1.647  1.00  0.00    -0.072 N 
HETATM   27  C13 UNL     1       4.585   0.159  -2.456  1.00  0.00     0.252 C 
ATOM     28  H42 UNL     1       5.423   1.484  -1.107  1.00  0.00     0.277 HD
ATOM     29  H41 UNL     1       6.420   1.080  -2.205  1.00  0.00     0.277 HD
HETATM   30  C14 UNL     1       3.432  -0.345  -1.658  1.00  0.00     0.168 C 
ENDBRANCH   6  23
TORSDOF 3
