REMARK  19 active torsions:
REMARK  status: ('A' for Active; 'I' for Inactive)
REMARK    1  A    between atoms: S1_2  and  C2_3 
REMARK    2  A    between atoms: C2_3  and  C3_8 
REMARK    3  A    between atoms: N1_4  and  O1_6 
REMARK       I    between atoms: C3_8  and  N2_10 
REMARK    4  A    between atoms: N2_10  and  C4_12 
REMARK    5  A    between atoms: C7_15  and  S2_16 
REMARK    6  A    between atoms: S2_16  and  N3_19 
REMARK    7  A    between atoms: N3_19  and  C8_21 
REMARK    8  A    between atoms: C8_21  and  C9_25 
REMARK    9  A    between atoms: C9_25  and  N5_26 
REMARK   10  A    between atoms: C9_25  and  C10_30 
REMARK   11  A    between atoms: C10_30  and  S3_31 
REMARK   12  A    between atoms: S3_31  and  S4_32 
REMARK   13  A    between atoms: S4_32  and  C11_33 
REMARK   14  A    between atoms: C11_33  and  C12_34 
REMARK   15  A    between atoms: C15_42  and  C16_43 
REMARK   16  A    between atoms: C16_43  and  O5_44 
REMARK   17  A    between atoms: C16_43  and  N8_46 
REMARK   18  A    between atoms: N8_46  and  O6_48 
REMARK   19  A    between atoms: C18_53  and  N10_54 
ROOT
HETATM    1  C8  UNL     1       0.192   0.818  -0.007  1.00  0.00     0.116 C 
HETATM    2  N4  UNL     1       0.885  -0.255   0.098  1.00  0.00    -0.387 N 
ATOM      3  H41 UNL     1       0.587  -1.003   0.723  1.00  0.00     0.157 HD
ATOM      4  H42 UNL     1       1.749  -0.398  -0.424  1.00  0.00     0.157 HD
ENDROOT
BRANCH   1   5
HETATM    5  N3  UNL     1       0.600   1.841  -0.862  1.00  0.00    -0.268 N 
ATOM      6  H3  UNL     1       0.065   1.964  -1.722  1.00  0.00     0.180 HD
BRANCH   5   7
HETATM    7  S2  UNL     1       1.919   2.917  -0.608  1.00  0.00     0.264 S 
HETATM    8  O3  UNL     1       2.065   3.880  -1.746  1.00  0.00    -0.200 OA
HETATM    9  O4  UNL     1       1.734   3.617   0.714  1.00  0.00    -0.200 OA
BRANCH   7  10
HETATM   10  C7  UNL     1       3.403   1.968  -0.528  1.00  0.00     0.082 A 
HETATM   11  C6  UNL     1       4.018   1.664  -1.693  1.00  0.00     0.028 A 
HETATM   12  C5  UNL     1       5.190   0.927  -1.720  1.00  0.00     0.034 A 
HETATM   13  C4  UNL     1       5.770   0.476  -0.547  1.00  0.00     0.068 A 
HETATM   14  C18 UNL     1       5.110   0.809   0.647  1.00  0.00     0.131 A 
HETATM   15  C17 UNL     1       3.939   1.546   0.650  1.00  0.00     0.063 A 
BRANCH  13  16
HETATM   16  N2  UNL     1       6.922  -0.363  -0.512  1.00  0.00    -0.319 N 
HETATM   17  C3  UNL     1       7.856  -0.596  -1.530  1.00  0.00     0.281 C 
HETATM   18  O2  UNL     1       7.719   0.011  -2.650  1.00  0.00    -0.265 OA
ATOM     19  H2  UNL     1       7.087  -0.856   0.365  1.00  0.00     0.169 HD
BRANCH  17  20
HETATM   20  C2  UNL     1       8.979  -1.476  -1.418  1.00  0.00     0.158 C 
HETATM   21  N1  UNL     1       9.778  -1.544  -2.493  1.00  0.00    -0.257 N 
ATOM     22  H1  UNL     1      10.576  -2.178  -2.464  1.00  0.00     0.195 HD
BRANCH  20  23
HETATM   23  S1  UNL     1       9.493  -2.537  -0.131  1.00  0.00    -0.109 SA
HETATM   24  C1  UNL     1       8.478  -2.754   1.286  1.00  0.00     0.097 C 
ENDBRANCH  20  23
BRANCH  21  25
HETATM   25  O1  UNL     1       9.579  -0.817  -3.609  1.00  0.00    -0.289 OA
ATOM     26  H1  UNL     1      10.145  -0.865  -4.370  1.00  0.00     0.244 HD
ENDBRANCH  21  25
ENDBRANCH  17  20
ENDBRANCH  13  16
BRANCH  14  27
HETATM   27  N10 UNL     1       5.602   0.435   1.916  1.00  0.00    -0.113 N 
HETATM   28  O7  UNL     1       6.806   0.391   2.221  1.00  0.00    -0.532 OA
HETATM   29  O8  UNL     1       4.650   0.149   2.909  1.00  0.00    -0.532 OA
ENDBRANCH  14  27
ENDBRANCH   7  10
ENDBRANCH   5   7
ENDBRANCH   1   5
BRANCH   1  30
HETATM   30  C9  UNL     1      -1.081   1.029   0.762  1.00  0.00     0.260 C 
BRANCH  30  31
HETATM   31  N5  UNL     1      -1.268  -0.152   1.565  1.00  0.00    -0.067 N 
ATOM     32  H53 UNL     1      -1.261  -1.016   1.023  1.00  0.00     0.275 HD
ATOM     33  H52 UNL     1      -0.467  -0.369   2.158  1.00  0.00     0.275 HD
ATOM     34  H51 UNL     1      -2.132  -0.009   2.087  1.00  0.00     0.275 HD
ENDBRANCH  30  31
BRANCH  30  35
HETATM   35  C10 UNL     1      -2.230   1.248  -0.190  1.00  0.00     0.127 C 
BRANCH  35  36
HETATM   36  S3  UNL     1      -3.753   1.501   0.703  1.00  0.00    -0.095 SA
BRANCH  36  37
HETATM   37  S4  UNL     1      -4.296  -0.300   1.690  1.00  0.00    -0.091 SA
BRANCH  37  38
HETATM   38  C11 UNL     1      -5.316  -1.269   0.582  1.00  0.00     0.143 C 
BRANCH  38  39
HETATM   39  C12 UNL     1      -6.622  -0.687   0.269  1.00  0.00     0.024 A 
HETATM   40  C13 UNL     1      -6.736   0.161  -0.787  1.00  0.00     0.073 A 
HETATM   41  C14 UNL     1      -7.958   0.704  -1.089  1.00  0.00     0.102 A 
HETATM   42  N6  UNL     1      -8.096   1.508  -2.076  1.00  0.00    -0.385 N 
HETATM   43  N7  UNL     1      -9.021   0.397  -0.348  1.00  0.00    -0.325 N 
ATOM     44  H62 UNL     1      -7.282   1.743  -2.644  1.00  0.00     0.157 HD
ATOM     45  H61 UNL     1      -9.005   1.912  -2.301  1.00  0.00     0.157 HD
HETATM   46  C15 UNL     1      -8.927  -0.439   0.699  1.00  0.00     0.161 A 
ATOM     47  H7  UNL     1      -9.926   0.806  -0.581  1.00  0.00     0.169 HD
HETATM   48  N9  UNL     1      -7.733  -0.978   1.006  1.00  0.00    -0.342 N 
ATOM     49  H9  UNL     1      -7.657  -1.613   1.801  1.00  0.00     0.167 HD
BRANCH  46  50
HETATM   50  C16 UNL     1     -10.091  -0.755   1.480  1.00  0.00     0.205 C 
BRANCH  50  51
HETATM   51  O5  UNL     1     -11.319  -0.207   1.154  1.00  0.00    -0.342 OA
ATOM     52  H5  UNL     1     -12.089  -0.416   1.670  1.00  0.00     0.219 HD
ENDBRANCH  50  51
BRANCH  50  53
HETATM   53  N8  UNL     1     -10.050  -1.541   2.489  1.00  0.00    -0.244 N 
ATOM     54  H8  UNL     1     -10.905  -1.735   3.011  1.00  0.00     0.196 HD
BRANCH  53  55
HETATM   55  O6  UNL     1      -8.872  -2.127   2.879  1.00  0.00    -0.288 OA
ATOM     56  H6  UNL     1      -8.842  -2.711   3.628  1.00  0.00     0.244 HD
ENDBRANCH  53  55
ENDBRANCH  50  53
ENDBRANCH  46  50
ENDBRANCH  38  39
ENDBRANCH  37  38
ENDBRANCH  36  37
ENDBRANCH  35  36
ENDBRANCH  30  35
ENDBRANCH   1  30
TORSDOF 19
