REMARK  4 active torsions:
REMARK  status: ('A' for Active; 'I' for Inactive)
REMARK    1  A    between atoms: C1_2  and  N1_3 
REMARK    2  A    between atoms: C1_2  and  N2_12 
REMARK    3  A    between atoms: N1_3  and  C2_5 
REMARK    4  A    between atoms: N2_12  and  C8_14 
ROOT
HETATM    1  N2  UNL     1      -0.003  -0.487   0.699  1.00  0.00    -0.362 N 
ATOM      2  H2  UNL     1       0.021  -1.426   1.096  1.00  0.00     0.162 HD
ENDROOT
BRANCH   1   3
HETATM    3  C1  UNL     1       1.220   0.074   0.198  1.00  0.00     0.172 C 
HETATM    4  S1  UNL     1       1.122   1.583  -0.379  1.00  0.00    -0.041 SA
BRANCH   3   5
HETATM    5  N1  UNL     1       2.417  -0.639   0.247  1.00  0.00    -0.333 N 
ATOM      6  H1  UNL     1       2.346  -1.563   0.673  1.00  0.00     0.168 HD
BRANCH   5   7
HETATM    7  C2  UNL     1       3.711  -0.291  -0.196  1.00  0.00     0.034 A 
HETATM    8  C3  UNL     1       3.973   0.584  -1.207  1.00  0.00     0.031 A 
HETATM    9  C4  UNL     1       5.279   0.919  -1.587  1.00  0.00     0.026 A 
HETATM   10  C5  UNL     1       6.334   0.353  -0.925  1.00  0.00     0.034 A 
HETATM   11 CL1  UNL     1       7.966   0.783  -1.411  1.00  0.00    -0.084 Cl
HETATM   12  C6  UNL     1       6.109  -0.536   0.102  1.00  0.00     0.026 A 
HETATM   13  C7  UNL     1       4.829  -0.842   0.448  1.00  0.00     0.031 A 
ENDBRANCH   5   7
ENDBRANCH   3   5
ENDBRANCH   1   3
BRANCH   1  14
HETATM   14  C8  UNL     1      -1.272   0.216   0.668  1.00  0.00     0.084 C 
HETATM   15  C9  UNL     1      -2.359  -0.617   1.311  1.00  0.00     0.032 C 
HETATM   16  C10 UNL     1      -3.345  -0.955   0.239  1.00  0.00     0.019 C 
HETATM   17  C11 UNL     1      -4.780  -0.818   0.713  1.00  0.00     0.237 C 
HETATM   18  C13 UNL     1      -3.224   0.274  -0.656  1.00  0.00     0.019 C 
HETATM   19  N3  UNL     1      -5.133   0.568   0.609  1.00  0.00    -0.074 N 
HETATM   20  C12 UNL     1      -3.978   1.291   0.128  1.00  0.00     0.237 C 
ATOM     21  H32 UNL     1      -5.961   0.721   0.034  1.00  0.00     0.277 HD
ATOM     22  H31 UNL     1      -5.500   0.948   1.482  1.00  0.00     0.277 HD
HETATM   23  C14 UNL     1      -1.759   0.498  -0.722  1.00  0.00     0.032 C 
ENDBRANCH   1  14
TORSDOF 4
