REMARK  5 active torsions:
REMARK  status: ('A' for Active; 'I' for Inactive)
REMARK    1  A    between atoms: C2_2  and  N1_5 
REMARK    2  A    between atoms: N1_5  and  C5_7 
REMARK    3  A    between atoms: C5_7  and  N2_9 
REMARK    4  A    between atoms: N2_9  and  C6_11 
REMARK    5  A    between atoms: C6_11  and  C7_12 
ROOT
HETATM    1  N2  UNL     1       1.160  -1.489   0.358  1.00  0.00    -0.360 N 
ATOM      2  H2  UNL     1       1.090  -2.110   1.164  1.00  0.00     0.162 HD
ENDROOT
BRANCH   1   3
HETATM    3  C5  UNL     1      -0.006  -0.786  -0.016  1.00  0.00     0.168 C 
HETATM    4  S1  UNL     1       0.054   0.206  -1.304  1.00  0.00    -0.041 SA
BRANCH   3   5
HETATM    5  N1  UNL     1      -1.237  -0.907   0.675  1.00  0.00    -0.359 N 
ATOM      6  H1  UNL     1      -1.282  -1.531   1.481  1.00  0.00     0.162 HD
BRANCH   5   7
HETATM    7  C2  UNL     1      -2.431  -0.189   0.293  1.00  0.00     0.021 C 
HETATM    8  C1  UNL     1      -3.558  -0.539   1.243  1.00  0.00     0.037 C 
HETATM    9  C3  UNL     1      -2.819  -0.679  -1.081  1.00  0.00     0.037 C 
HETATM   10  C4  UNL     1      -2.257   1.287   0.271  1.00  0.00     0.037 C 
ENDBRANCH   5   7
ENDBRANCH   3   5
ENDBRANCH   1   3
BRANCH   1  11
HETATM   11  C6  UNL     1       2.424  -1.408  -0.291  1.00  0.00     0.198 C 
BRANCH  11  12
HETATM   12  C7  UNL     1       3.030  -0.031  -0.211  1.00  0.00     0.100 A 
HETATM   13  N3  UNL     1       2.608   1.006   0.533  1.00  0.00    -0.338 N 
HETATM   14  C8  UNL     1       3.377   2.078   0.363  1.00  0.00     0.096 A 
ATOM     15  H3  UNL     1       1.798   0.975   1.152  1.00  0.00     0.168 HD
HETATM   16 BR1  UNL     1       3.104   3.745   1.244  1.00  0.00    -0.030 Br
HETATM   17  C9  UNL     1       4.344   1.705  -0.539  1.00  0.00     0.127 A 
HETATM   18  N4  UNL     1       4.108   0.422  -0.869  1.00  0.00    -0.352 N 
ATOM     19  H4  UNL     1       4.667  -0.126  -1.523  1.00  0.00     0.166 HD
ENDBRANCH  11  12
ENDBRANCH   1  11
TORSDOF 5
