REMARK  1 active torsions:
REMARK  status: ('A' for Active; 'I' for Inactive)
REMARK    1  A    between atoms: C9_17  and  C10_18 
ROOT
HETATM    1  C1  UNL     1       3.956   0.560  -0.596  1.00  0.00     0.043 C 
HETATM    2  C2  UNL     1       2.555   0.263  -0.267  1.00  0.00    -0.082 C 
HETATM    3  C3  UNL     1       2.121  -0.981  -0.340  1.00  0.00     0.030 C 
HETATM    4  C4  UNL     1       0.691  -1.197   0.009  1.00  0.00     0.041 C 
HETATM    5  N1  UNL     1       0.412  -2.275   0.649  1.00  0.00    -0.301 N 
ATOM      6  H1  UNL     1       1.174  -2.914   0.877  1.00  0.00     0.186 HD
HETATM    7  N2  UNL     1      -0.875  -2.615   1.046  1.00  0.00    -0.267 N 
ATOM      8  H2  UNL     1      -1.074  -3.478   1.552  1.00  0.00     0.190 HD
HETATM    9  C5  UNL     1      -1.914  -1.676   0.700  1.00  0.00     0.272 C 
HETATM   10  O1  UNL     1      -3.086  -2.037   0.571  1.00  0.00    -0.268 OA
HETATM   11  C6  UNL     1      -1.522  -0.250   0.500  1.00  0.00     0.167 C 
HETATM   12  C7  UNL     1      -2.641   0.679   0.303  1.00  0.00     0.122 C 
HETATM   13  C8  UNL     1      -2.591   0.929   1.815  1.00  0.00     0.220 C 
HETATM   14 CL1  UNL     1      -3.802   0.034   2.751  1.00  0.00    -0.070 Cl
HETATM   15 CL2  UNL     1      -2.606   2.625   2.295  1.00  0.00    -0.070 Cl
HETATM   16  O2  UNL     1      -1.325   0.335   1.771  1.00  0.00    -0.329 OA
HETATM   17  C9  UNL     1      -0.312  -0.172  -0.414  1.00  0.00     0.074 C 
HETATM   18  C11 UNL     1       0.250   1.186  -0.358  1.00  0.00     0.027 C 
HETATM   19  C12 UNL     1       1.657   1.336   0.136  1.00  0.00     0.035 C 
ENDROOT
BRANCH  17  20
HETATM   20  C10 UNL     1      -0.701  -0.582  -1.836  1.00  0.00     0.196 C 
HETATM   21 CL3  UNL     1       0.723  -0.579  -2.902  1.00  0.00    -0.107 Cl
HETATM   22 CL4  UNL     1      -1.877   0.535  -2.559  1.00  0.00    -0.107 Cl
ENDBRANCH  17  20
TORSDOF 1
