REMARK  9 active torsions:
REMARK  status: ('A' for Active; 'I' for Inactive)
REMARK    1  A    between atoms: N1_1  and  C1_4 
REMARK    2  A    between atoms: C4_13  and  N5_14 
REMARK    3  A    between atoms: N5_14  and  C5_16 
REMARK    4  A    between atoms: C5_16  and  N6_17 
REMARK    5  A    between atoms: C5_16  and  C6_21 
REMARK    6  A    between atoms: C6_21  and  C7_22 
REMARK       I    between atoms: C7_22  and  N7_24 
REMARK    7  A    between atoms: N7_24  and  N8_25 
REMARK    8  A    between atoms: N7_24  and  N9_28 
REMARK    9  A    between atoms: C8_33  and  N11_34 
ROOT
HETATM    1  C1  UNL     1       4.663  -0.541  -0.308  1.00  0.00     0.117 A 
HETATM    2  N2  UNL     1       5.145  -0.349  -1.573  1.00  0.00    -0.338 N 
ATOM      3  H2  UNL     1       6.144  -0.488  -1.725  1.00  0.00     0.168 HD
HETATM    4  C2  UNL     1       4.416   0.000  -2.603  1.00  0.00     0.183 A 
HETATM    5  N3  UNL     1       3.101   0.198  -2.460  1.00  0.00    -0.337 N 
ATOM      6  H3  UNL     1       2.525   0.476  -3.254  1.00  0.00     0.168 HD
HETATM    7  C3  UNL     1       2.554   0.020  -1.235  1.00  0.00     0.140 A 
HETATM    8  N4  UNL     1       1.269   0.293  -1.086  1.00  0.00    -0.175 N 
ATOM      9  H4  UNL     1       0.736   0.568  -1.911  1.00  0.00     0.186 HD
HETATM   10  C4  UNL     1       0.607   0.227   0.127  1.00  0.00     0.683 A 
HETATM   11  N10 UNL     1       1.379  -0.146   1.104  1.00  0.00    -0.170 N 
ATOM     12  H10 UNL     1       0.925  -0.207   2.015  1.00  0.00     0.186 HD
HETATM   13  C8  UNL     1       2.700  -0.467   1.096  1.00  0.00     0.206 A 
HETATM   14  C9  UNL     1       3.294  -0.364  -0.126  1.00  0.00     0.103 A 
ENDROOT
BRANCH  10  15
HETATM   15  N5  UNL     1      -0.600   0.534   0.207  1.00  0.00    -0.196 N 
ATOM     16  H5  UNL     1      -0.943   0.804  -0.715  1.00  0.00     0.180 HD
BRANCH  15  17
HETATM   17  C5  UNL     1      -1.615   0.630   1.113  1.00  0.00     0.306 C 
BRANCH  17  18
HETATM   18  N6  UNL     1      -2.234  -0.635   1.447  1.00  0.00    -0.057 N 
ATOM     19  H63 UNL     1      -2.553  -1.110   0.603  1.00  0.00     0.276 HD
ATOM     20  H62 UNL     1      -1.532  -1.302   1.767  1.00  0.00     0.276 HD
ATOM     21  H61 UNL     1      -2.993  -0.563   2.125  1.00  0.00     0.276 HD
ENDBRANCH  17  18
BRANCH  17  22
HETATM   22  C6  UNL     1      -2.804   1.435   0.510  1.00  0.00     0.161 C 
BRANCH  22  23
HETATM   23  C7  UNL     1      -3.440   0.614  -0.564  1.00  0.00     0.260 C 
HETATM   24  O1  UNL     1      -2.739   0.339  -1.612  1.00  0.00    -0.270 OA
HETATM   25  N7  UNL     1      -4.747   0.156  -0.409  1.00  0.00    -0.174 N 
BRANCH  25  26
HETATM   26  N8  UNL     1      -5.420  -0.728  -1.251  1.00  0.00    -0.322 N 
ATOM     27  H82 UNL     1      -4.873  -1.043  -2.053  1.00  0.00     0.179 HD
ATOM     28  H81 UNL     1      -6.377  -1.063  -1.138  1.00  0.00     0.179 HD
ENDBRANCH  25  26
BRANCH  25  29
HETATM   29  N9  UNL     1      -5.523   0.603   0.729  1.00  0.00    -0.322 N 
ATOM     30  H92 UNL     1      -5.031   1.250   1.345  1.00  0.00     0.179 HD
ATOM     31  H91 UNL     1      -6.480   0.268   0.842  1.00  0.00     0.179 HD
ENDBRANCH  25  29
ENDBRANCH  22  23
ENDBRANCH  17  22
ENDBRANCH  15  17
ENDBRANCH  10  15
BRANCH  13  32
HETATM   32  N11 UNL     1       3.279  -0.879   2.353  1.00  0.00    -0.096 N 
HETATM   33  O2  UNL     1       2.947  -0.276   3.395  1.00  0.00    -0.530 OA
HETATM   34  O3  UNL     1       4.181  -1.877   2.554  1.00  0.00    -0.530 OA
ENDBRANCH  13  32
BRANCH   1  35
HETATM   35  N1  UNL     1       5.421  -0.640   0.636  1.00  0.00    -0.385 N 
ATOM     36  H12 UNL     1       6.424  -0.770   0.503  1.00  0.00     0.157 HD
ATOM     37  H11 UNL     1       5.061  -0.783   1.580  1.00  0.00     0.157 HD
ENDBRANCH   1  35
TORSDOF 9
