REMARK  9 active torsions:
REMARK  status: ('A' for Active; 'I' for Inactive)
REMARK    1  A    between atoms: N1_1  and  C1_4 
REMARK    2  A    between atoms: C2_7  and  S1_8 
REMARK    3  A    between atoms: S1_8  and  S2_9 
REMARK    4  A    between atoms: S2_9  and  C3_10 
REMARK    5  A    between atoms: C5_19  and  N6_20 
REMARK       I    between atoms: N6_20  and  C6_22 
REMARK    6  A    between atoms: C6_22  and  C7_24 
REMARK    7  A    between atoms: C7_24  and  N7_25 
REMARK    8  A    between atoms: C7_24  and  C8_29 
REMARK    9  A    between atoms: C8_29  and  O2_30 
ROOT
HETATM    1  C1  UNL     1       1.224   2.645   0.453  1.00  0.00     0.691 A 
HETATM    2  N2  UNL     1       1.685   1.392   0.622  1.00  0.00    -0.180 N 
ATOM      3  H2  UNL     1       2.663   1.240   0.867  1.00  0.00     0.185 HD
HETATM    4  C2  UNL     1       0.865   0.344   0.470  1.00  0.00     0.142 A 
HETATM    5  C5  UNL     1      -0.464   0.627   0.135  1.00  0.00     0.158 A 
HETATM    6  N8  UNL     1      -0.892   1.884  -0.025  1.00  0.00    -0.269 N 
ATOM      7  H8  UNL     1      -1.866   2.066  -0.269  1.00  0.00     0.189 HD
HETATM    8  N9  UNL     1      -0.060   2.877   0.132  1.00  0.00    -0.131 N 
ATOM      9  H9  UNL     1      -0.387   3.836   0.010  1.00  0.00     0.205 HD
ENDROOT
BRANCH   5  10
HETATM   10  N6  UNL     1      -1.273  -0.356  -0.017  1.00  0.00    -0.308 N 
HETATM   11  C6  UNL     1      -2.626  -0.100  -0.357  1.00  0.00     0.256 C 
HETATM   12  O1  UNL     1      -2.972   0.289  -1.502  1.00  0.00    -0.271 OA
ATOM     13  H6  UNL     1      -0.946  -1.314   0.106  1.00  0.00     0.170 HD
BRANCH  11  14
HETATM   14  C7  UNL     1      -3.651  -0.307   0.695  1.00  0.00     0.298 C 
BRANCH  14  15
HETATM   15  N7  UNL     1      -4.941   0.002   0.156  1.00  0.00    -0.064 N 
ATOM     16  H73 UNL     1      -4.980   0.939  -0.245  1.00  0.00     0.275 HD
ATOM     17  H72 UNL     1      -5.144  -0.526  -0.693  1.00  0.00     0.275 HD
ATOM     18  H71 UNL     1      -5.646  -0.140   0.879  1.00  0.00     0.275 HD
ENDBRANCH  14  15
BRANCH  14  19
HETATM   19  C8  UNL     1      -3.595  -1.766   1.171  1.00  0.00     0.206 C 
BRANCH  19  20
HETATM   20  O2  UNL     1      -2.341  -2.012   1.678  1.00  0.00    -0.398 OA
ATOM     21  H2  UNL     1      -2.306  -2.915   1.972  1.00  0.00     0.209 HD
ENDBRANCH  19  20
ENDBRANCH  14  19
ENDBRANCH  11  14
ENDBRANCH   5  10
BRANCH   4  22
HETATM   22  S1  UNL     1       1.348  -1.359   0.665  1.00  0.00    -0.027 SA
BRANCH  22  23
HETATM   23  S2  UNL     1       2.009  -2.040  -1.238  1.00  0.00    -0.013 SA
BRANCH  23  24
HETATM   24  C3  UNL     1       3.762  -1.717  -1.307  1.00  0.00     0.173 A 
HETATM   25  N3  UNL     1       4.422  -0.634  -1.730  1.00  0.00    -0.276 N 
HETATM   26  N4  UNL     1       5.717  -0.857  -1.590  1.00  0.00    -0.259 N 
ATOM     27  H3  UNL     1       3.999   0.218  -2.098  1.00  0.00     0.189 HD
HETATM   28  C4  UNL     1       5.885  -2.087  -1.076  1.00  0.00     0.282 A 
ATOM     29  H4  UNL     1       6.463  -0.205  -1.831  1.00  0.00     0.191 HD
HETATM   30  F1  UNL     1       7.102  -2.649  -0.799  1.00  0.00    -0.164 F 
HETATM   31  N5  UNL     1       4.681  -2.600  -0.908  1.00  0.00    -0.296 N 
ATOM     32  H5  UNL     1       4.483  -3.527  -0.532  1.00  0.00     0.172 HD
ENDBRANCH  23  24
ENDBRANCH  22  23
ENDBRANCH   4  22
BRANCH   1  33
HETATM   33  N1  UNL     1       2.041   3.648   0.606  1.00  0.00    -0.233 N 
ATOM     34  H12 UNL     1       3.016   3.472   0.850  1.00  0.00     0.174 HD
ATOM     35  H11 UNL     1       1.692   4.598   0.478  1.00  0.00     0.174 HD
ENDBRANCH   1  33
TORSDOF 9
