REMARK  5 active torsions:
REMARK  status: ('A' for Active; 'I' for Inactive)
REMARK    1  A    between atoms: C2_2  and  C3_4 
REMARK    2  A    between atoms: C6_8  and  C7_9 
REMARK    3  A    between atoms: C7_9  and  O4_11 
REMARK    4  A    between atoms: O4_11  and  C8_12 
REMARK    5  A    between atoms: C12_16  and  O5_17 
ROOT
HETATM    1  C7  UNL     1       0.364   0.816   0.417  1.00  0.00     0.266 C 
HETATM    2  O3  UNL     1       0.094   1.443   1.460  1.00  0.00    -0.265 OA
ENDROOT
BRANCH   1   3
HETATM    3  C6  UNL     1       1.744   0.796  -0.092  1.00  0.00     0.122 C 
HETATM    4  C3  UNL     1       2.281  -0.615  -0.156  1.00  0.00     0.094 C 
HETATM    5  C4  UNL     1       2.918  -0.706  -1.499  1.00  0.00     0.180 C 
HETATM    6  O2  UNL     1       2.807   0.498  -2.137  1.00  0.00    -0.389 OA
HETATM    7  C5  UNL     1       1.841   1.254  -1.527  1.00  0.00     0.183 C 
BRANCH   4   8
HETATM    8  C2  UNL     1       3.211  -0.826   0.973  1.00  0.00     0.130 C 
HETATM    9  C1  UNL     1       4.362   0.092   1.124  1.00  0.00     0.091 C 
HETATM   10  O1  UNL     1       3.056  -1.736   1.787  1.00  0.00    -0.298 OA
ENDBRANCH   4   8
ENDBRANCH   1   3
BRANCH   1  11
HETATM   11  O4  UNL     1      -0.695   0.159  -0.209  1.00  0.00    -0.313 OA
BRANCH  11  12
HETATM   12  C8  UNL     1      -2.007   0.200   0.310  1.00  0.00     0.160 C 
HETATM   13  C9  UNL     1      -2.405  -1.234   0.686  1.00  0.00     0.035 C 
HETATM   14  C10 UNL     1      -3.912  -1.034   0.876  1.00  0.00     0.005 C 
HETATM   15  C11 UNL     1      -4.256  -0.324  -0.418  1.00  0.00     0.034 C 
HETATM   16  C12 UNL     1      -3.043   0.567  -0.695  1.00  0.00     0.147 C 
BRANCH  16  17
HETATM   17  O5  UNL     1      -3.472   1.877  -0.480  1.00  0.00    -0.393 OA
ATOM     18  H5  UNL     1      -4.133   2.111  -1.121  1.00  0.00     0.210 HD
ENDBRANCH  16  17
ENDBRANCH  11  12
ENDBRANCH   1  11
TORSDOF 5
