REMARK  5 active torsions:
REMARK  status: ('A' for Active; 'I' for Inactive)
REMARK    1  A    between atoms: C2_2  and  N1_4 
REMARK       I    between atoms: N1_4  and  C4_6 
REMARK    2  A    between atoms: C4_6  and  O2_8 
REMARK    3  A    between atoms: O2_8  and  C5_9 
REMARK    4  A    between atoms: C5_9  and  C6_11 
REMARK    5  A    between atoms: C6_11  and  C7_12 
ROOT
HETATM    1  C6  UNL     1      -1.268  -0.358  -0.892  1.00  0.00     0.136 C 
ENDROOT
BRANCH   1   2
HETATM    2  C5  UNL     1       0.076  -0.474  -0.279  1.00  0.00     0.268 C 
HETATM    3  O3  UNL     1       0.313  -0.134   0.909  1.00  0.00    -0.265 OA
BRANCH   2   4
HETATM    4  O2  UNL     1       1.171  -0.972  -0.991  1.00  0.00    -0.227 OA
BRANCH   4   5
HETATM    5  C4  UNL     1       2.442  -1.095  -0.451  1.00  0.00     0.368 C 
HETATM    6  N1  UNL     1       3.552  -1.599  -1.168  1.00  0.00    -0.333 N 
ATOM      7  H1  UNL     1       3.447  -1.897  -2.138  1.00  0.00     0.165 HD
HETATM    8  O1  UNL     1       2.552  -0.715   0.766  1.00  0.00    -0.238 OA
BRANCH   6   9
HETATM    9  C2  UNL     1       4.832  -1.687  -0.514  1.00  0.00     0.078 C 
HETATM   10  C1  UNL     1       5.892  -0.843  -1.216  1.00  0.00     0.032 C 
HETATM   11  C3  UNL     1       5.319  -3.119  -0.406  1.00  0.00     0.032 C 
ENDBRANCH   6   9
ENDBRANCH   4   5
ENDBRANCH   2   4
ENDBRANCH   1   2
BRANCH   1  12
HETATM   12  C7  UNL     1      -2.246   0.303   0.013  1.00  0.00     0.194 C 
HETATM   13  C8  UNL     1      -3.592   0.346  -0.659  1.00  0.00     0.275 C 
HETATM   14  O4  UNL     1      -3.847  -0.468  -1.534  1.00  0.00    -0.264 OA
HETATM   15  O5  UNL     1      -4.426   1.354  -0.185  1.00  0.00    -0.283 OA
HETATM   16  C9  UNL     1      -4.162   2.025   1.035  1.00  0.00     0.175 C 
HETATM   17  C10 UNL     1      -4.589   1.087   2.152  1.00  0.00     0.079 C 
HETATM   18  C11 UNL     1      -4.933   3.331   1.073  1.00  0.00     0.079 C 
HETATM   19  O6  UNL     1      -2.782   2.358   1.193  1.00  0.00    -0.283 OA
HETATM   20  C12 UNL     1      -1.885   1.712   0.370  1.00  0.00     0.275 C 
HETATM   21  O7  UNL     1      -0.850   2.210  -0.068  1.00  0.00    -0.264 OA
ENDBRANCH   1  12
TORSDOF 5
