REMARK  10 active torsions:
REMARK  status: ('A' for Active; 'I' for Inactive)
REMARK    1  A    between atoms: C2_2  and  C3_3 
REMARK    2  A    between atoms: C3_3  and  O1_4 
REMARK    3  A    between atoms: C5_8  and  O3_9 
REMARK    4  A    between atoms: O3_9  and  C6_10 
REMARK    5  A    between atoms: C6_10  and  C7_11 
REMARK    6  A    between atoms: C9_13  and  O4_14 
REMARK    7  A    between atoms: C10_16  and  O5_17 
REMARK    8  A    between atoms: C12_21  and  O6_22 
REMARK    9  A    between atoms: O6_22  and  C13_23 
REMARK   10  A    between atoms: C13_23  and  C14_24 
ROOT
HETATM    1  C7  UNL     1       1.264  -0.103   0.856  1.00  0.00     0.024 A 
HETATM    2  C8  UNL     1       1.728   1.017   1.480  1.00  0.00     0.055 A 
HETATM    3  C9  UNL     1       1.238   1.399   2.722  1.00  0.00     0.101 A 
HETATM    4  C10 UNL     1       0.269   0.623   3.318  1.00  0.00     0.123 A 
HETATM    5  C11 UNL     1      -0.210  -0.500   2.709  1.00  0.00     0.104 A 
HETATM    6 CL1  UNL     1      -1.457  -1.481   3.499  1.00  0.00    -0.078 Cl
HETATM    7  C12 UNL     1       0.279  -0.879   1.469  1.00  0.00     0.105 A 
ENDROOT
BRANCH   7   8
HETATM    8  O6  UNL     1      -0.248  -2.000   0.917  1.00  0.00    -0.346 OA
BRANCH   8   9
HETATM    9  C13 UNL     1      -1.378  -2.350   0.263  1.00  0.00     0.209 C 
BRANCH   9  10
HETATM   10  C14 UNL     1      -1.787  -1.667  -0.981  1.00  0.00     0.169 C 
HETATM   11  C15 UNL     1      -2.094  -0.210  -0.677  1.00  0.00     0.203 C 
HETATM   12  O7  UNL     1      -3.133   0.187  -1.506  1.00  0.00    -0.378 OA
HETATM   13  C16 UNL     1      -4.372   0.101  -0.903  1.00  0.00     0.063 C 
HETATM   14  C17 UNL     1      -4.523   1.276   0.037  1.00  0.00     0.038 C 
HETATM   15  C21 UNL     1      -5.417   0.266  -1.991  1.00  0.00     0.038 C 
HETATM   16  C22 UNL     1      -4.571  -1.154  -0.111  1.00  0.00     0.064 C 
HETATM   17  C18 UNL     1      -5.867   1.169   0.727  1.00  0.00     0.003 C 
HETATM   18  C19 UNL     1      -6.933   1.337  -0.309  1.00  0.00     0.000 C 
HETATM   19  C20 UNL     1      -6.808   0.350  -1.443  1.00  0.00     0.003 C 
HETATM   20  C23 UNL     1      -4.004  -2.381  -0.759  1.00  0.00     0.171 C 
HETATM   21  O8  UNL     1      -2.931  -2.202  -1.563  1.00  0.00    -0.381 OA
ENDBRANCH   9  10
ENDBRANCH   8   9
ENDBRANCH   7   8
BRANCH   1  22
HETATM   22  C6  UNL     1       1.821  -0.525  -0.443  1.00  0.00     0.149 C 
BRANCH  22  23
HETATM   23  O3  UNL     1       2.804   0.130  -1.046  1.00  0.00    -0.353 OA
BRANCH  23  24
HETATM   24  C5  UNL     1       4.057   0.243  -0.526  1.00  0.00     0.175 C 
HETATM   25  C4  UNL     1       4.664   1.585  -0.829  1.00  0.00     0.206 C 
HETATM   26  O2  UNL     1       5.939   1.614  -0.203  1.00  0.00    -0.351 OA
HETATM   27  C2  UNL     1       6.713   0.602  -0.793  1.00  0.00     0.181 C 
HETATM   28  C1  UNL     1       7.946   1.331  -1.374  1.00  0.00     0.081 C 
HETATM   29  O9  UNL     1       6.040  -0.037  -1.802  1.00  0.00    -0.351 OA
HETATM   30  C24 UNL     1       4.969  -0.751  -1.347  1.00  0.00     0.206 C 
BRANCH  27  31
HETATM   31  C3  UNL     1       7.234  -0.385   0.207  1.00  0.00     0.232 C 
BRANCH  31  32
HETATM   32  O1  UNL     1       7.970  -1.358  -0.470  1.00  0.00    -0.396 OA
ATOM     33  H1  UNL     1       8.300  -1.984   0.164  1.00  0.00     0.209 HD
ENDBRANCH  31  32
ENDBRANCH  27  31
ENDBRANCH  23  24
ENDBRANCH  22  23
ENDBRANCH   1  22
BRANCH   4  34
HETATM   34  O5  UNL     1      -0.229   1.006   4.576  1.00  0.00    -0.356 OA
ATOM     35  H5  UNL     1      -0.897   0.471   4.987  1.00  0.00     0.218 HD
ENDBRANCH   4  34
BRANCH   3  36
HETATM   36  O4  UNL     1       1.679   2.529   3.397  1.00  0.00    -0.358 OA
ATOM     37  H4  UNL     1       1.344   2.790   4.247  1.00  0.00     0.217 HD
ENDBRANCH   3  36
TORSDOF 10
