REMARK  10 active torsions:
REMARK  status: ('A' for Active; 'I' for Inactive)
REMARK    1  A    between atoms: C2_2  and  C3_3 
REMARK    2  A    between atoms: C3_3  and  N1_4 
REMARK    3  A    between atoms: N1_4  and  C4_6 
REMARK    4  A    between atoms: C4_6  and  C5_8 
REMARK    5  A    between atoms: C5_8  and  S2_9 
REMARK    6  A    between atoms: S2_9  and  C6_10 
REMARK    7  A    between atoms: C7_15  and  C8_16 
REMARK    8  A    between atoms: C8_16  and  S3_17 
REMARK    9  A    between atoms: S3_17  and  C9_18 
REMARK   10  A    between atoms: N4_25  and  C16_26 
ROOT
HETATM    1  C6  UNL     1       0.942   0.448   0.391  1.00  0.00     0.163 A 
HETATM    2  N2  UNL     1       0.556   1.692   0.075  1.00  0.00    -0.278 N 
ATOM      3  H2  UNL     1       0.986   2.568   0.373  1.00  0.00     0.189 HD
HETATM    4  N3  UNL     1      -0.483   1.545  -0.692  1.00  0.00    -0.286 N 
ATOM      5  H3  UNL     1      -1.006   2.321  -1.098  1.00  0.00     0.188 HD
HETATM    6  C7  UNL     1      -0.786   0.255  -0.886  1.00  0.00     0.110 A 
HETATM    7  N4  UNL     1       0.131  -0.451  -0.190  1.00  0.00    -0.309 N 
ENDROOT
BRANCH   1   8
HETATM    8  S2  UNL     1       2.353   0.030   1.446  1.00  0.00    -0.085 SA
BRANCH   8   9
HETATM    9  C5  UNL     1       3.186   1.498   2.027  1.00  0.00     0.151 C 
BRANCH   9  10
HETATM   10  C4  UNL     1       3.836   2.263   0.964  1.00  0.00     0.083 C 
HETATM   11  S1  UNL     1       3.313   3.777   0.642  1.00  0.00    -0.065 SA
BRANCH  10  12
HETATM   12  N1  UNL     1       4.911   1.742   0.194  1.00  0.00    -0.380 N 
ATOM     13  H1  UNL     1       5.314   2.335  -0.531  1.00  0.00     0.160 HD
BRANCH  12  14
HETATM   14  C3  UNL     1       5.459   0.438   0.376  1.00  0.00     0.147 C 
BRANCH  14  15
HETATM   15  C2  UNL     1       6.593   0.095  -0.499  1.00  0.00    -0.018 C 
HETATM   16  C1  UNL     1       7.137   0.856  -1.408  1.00  0.00     0.008 C 
ENDBRANCH  14  15
ENDBRANCH  12  14
ENDBRANCH  10  12
ENDBRANCH   9  10
ENDBRANCH   8   9
ENDBRANCH   1   8
BRANCH   7  17
HETATM   17  C16 UNL     1       0.264  -1.853  -0.077  1.00  0.00     0.093 C 
HETATM   18  C17 UNL     1      -0.934  -2.665   0.242  1.00  0.00     0.026 C 
HETATM   19  C18 UNL     1      -0.418  -4.003   0.803  1.00  0.00     0.002 C 
HETATM   20  C19 UNL     1       0.567  -4.666  -0.068  1.00  0.00     0.000 C 
HETATM   21  C20 UNL     1       1.492  -3.798  -0.832  1.00  0.00     0.002 C 
HETATM   22  C21 UNL     1       0.925  -2.497  -1.289  1.00  0.00     0.026 C 
ENDBRANCH   7  17
BRANCH   6  23
HETATM   23  C8  UNL     1      -1.894  -0.279  -1.709  1.00  0.00     0.157 C 
BRANCH  23  24
HETATM   24  S3  UNL     1      -3.394  -0.444  -0.797  1.00  0.00    -0.122 SA
BRANCH  24  25
HETATM   25  C9  UNL     1      -4.252   1.006  -0.344  1.00  0.00     0.001 A 
HETATM   26  C10 UNL     1      -5.348   0.824   0.512  1.00  0.00     0.019 A 
HETATM   27  C11 UNL     1      -6.142   1.847   0.950  1.00  0.00     0.008 A 
HETATM   28  C12 UNL     1      -5.865   3.137   0.539  1.00  0.00    -0.062 A 
HETATM   29  C13 UNL     1      -6.700   4.270   0.992  1.00  0.00     0.048 C 
HETATM   30  C14 UNL     1      -4.796   3.340  -0.299  1.00  0.00     0.008 A 
HETATM   31  C15 UNL     1      -4.001   2.282  -0.734  1.00  0.00     0.019 A 
ENDBRANCH  24  25
ENDBRANCH  23  24
ENDBRANCH   6  23
TORSDOF 10
