REMARK  9 active torsions:
REMARK  status: ('A' for Active; 'I' for Inactive)
REMARK    1  A    between atoms: N1_1  and  N2_4 
REMARK    2  A    between atoms: C1_6  and  C2_7 
REMARK    3  A    between atoms: C1_6  and  N9_26 
REMARK    4  A    between atoms: C2_7  and  C3_8 
REMARK    5  A    between atoms: C3_8  and  N3_9 
REMARK    6  A    between atoms: C5_11  and  C6_12 
REMARK    7  A    between atoms: C6_12  and  N4_13 
REMARK    8  A    between atoms: C6_12  and  N5_17 
REMARK       I    between atoms: N5_17  and  C7_19 
REMARK    9  A    between atoms: N9_26  and  N10_28 
ROOT
HETATM    1  N3  UNL     1      -0.334   0.625  -0.336  1.00  0.00    -0.287 N 
HETATM    2  C4  UNL     1       0.747   0.207   0.364  1.00  0.00     0.142 A 
HETATM    3  C5  UNL     1       1.897   0.546  -0.320  1.00  0.00     0.093 A 
HETATM    4  N7  UNL     1       1.466   1.171  -1.437  1.00  0.00    -0.285 N 
ATOM      5  H7  UNL     1       2.060   1.555  -2.172  1.00  0.00     0.188 HD
HETATM    6  N8  UNL     1       0.139   1.201  -1.416  1.00  0.00    -0.241 N 
ATOM      7  H8  UNL     1      -0.439   1.618  -2.146  1.00  0.00     0.208 HD
ENDROOT
BRANCH   1   8
HETATM    8  C3  UNL     1      -1.685   0.424   0.107  1.00  0.00     0.157 C 
BRANCH   8   9
HETATM    9  C2  UNL     1      -2.261  -0.886  -0.391  1.00  0.00     0.101 C 
BRANCH   9  10
HETATM   10  C1  UNL     1      -3.637  -0.987   0.119  1.00  0.00     0.111 C 
HETATM   11  N2  UNL     1      -4.611  -1.080  -0.697  1.00  0.00    -0.294 N 
ATOM     12  H2  UNL     1      -4.379  -1.080  -1.690  1.00  0.00     0.187 HD
BRANCH  11  13
HETATM   13  N1  UNL     1      -5.946  -1.181  -0.373  1.00  0.00    -0.344 N 
ATOM     14  H12 UNL     1      -6.159  -1.180   0.625  1.00  0.00     0.176 HD
ATOM     15  H11 UNL     1      -6.726  -1.255  -1.026  1.00  0.00     0.176 HD
ENDBRANCH  11  13
BRANCH  10  16
HETATM   16  N9  UNL     1      -3.873  -0.982   1.504  1.00  0.00    -0.294 N 
ATOM     17  H9  UNL     1      -3.573  -1.781   2.063  1.00  0.00     0.187 HD
BRANCH  16  18
HETATM   18  N10 UNL     1      -4.500   0.075   2.125  1.00  0.00    -0.344 N 
ATOM     19 2H10 UNL     1      -4.794   0.865   1.551  1.00  0.00     0.176 HD
ATOM     20 1H10 UNL     1      -4.671   0.079   3.131  1.00  0.00     0.176 HD
ENDBRANCH  16  18
ENDBRANCH  10  16
ENDBRANCH   9  10
ENDBRANCH   8   9
ENDBRANCH   1   8
BRANCH   3  21
HETATM   21  C6  UNL     1       3.285   0.260   0.122  1.00  0.00     0.338 C 
BRANCH  21  22
HETATM   22  N4  UNL     1       3.316  -1.130   0.594  1.00  0.00    -0.052 N 
ATOM     23  H43 UNL     1       2.620  -1.322   1.315  1.00  0.00     0.277 HD
ATOM     24  H42 UNL     1       2.974  -1.794  -0.100  1.00  0.00     0.277 HD
ATOM     25  H41 UNL     1       4.270  -1.327   0.898  1.00  0.00     0.277 HD
ENDBRANCH  21  22
BRANCH  21  26
HETATM   26  N5  UNL     1       4.233   0.353  -0.950  1.00  0.00    -0.312 N 
HETATM   27  C7  UNL     1       5.295   1.276  -0.872  1.00  0.00     0.330 C 
HETATM   28  N6  UNL     1       6.247   1.382  -1.928  1.00  0.00    -0.040 NA
HETATM   29  O1  UNL     1       5.428   2.027   0.131  1.00  0.00    -0.251 OA
ATOM     30  H5  UNL     1       4.139  -0.249  -1.768  1.00  0.00     0.166 HD
ENDBRANCH  21  26
ENDBRANCH   3  21
TORSDOF 9
