REMARK  6 active torsions:
REMARK  status: ('A' for Active; 'I' for Inactive)
REMARK    1  A    between atoms: C2_2  and  N1_3 
REMARK    2  A    between atoms: N1_3  and  C3_5 
REMARK    3  A    between atoms: N5_15  and  S1_17 
REMARK    4  A    between atoms: S1_17  and  C6_20 
REMARK    5  A    between atoms: C6_20  and  C7_21 
REMARK    6  A    between atoms: C7_21  and  N6_22 
ROOT
HETATM    1  C3  UNL     1      -2.736  -0.032  -0.100  1.00  0.00     0.152 A 
HETATM    2  N2  UNL     1      -3.591  -0.953   0.370  1.00  0.00    -0.290 N 
ATOM      3  H2  UNL     1      -4.508  -1.075  -0.060  1.00  0.00     0.172 HD
HETATM    4  C4  UNL     1      -3.221  -1.712   1.415  1.00  0.00     0.340 A 
HETATM    5  O1  UNL     1      -4.005  -2.578   1.870  1.00  0.00    -0.245 OA
HETATM    6  N3  UNL     1      -2.028  -1.589   2.013  1.00  0.00    -0.250 N 
ATOM      7  H3  UNL     1      -1.784  -2.184   2.805  1.00  0.00     0.192 HD
HETATM    8  N4  UNL     1      -1.157  -0.673   1.558  1.00  0.00    -0.278 N 
ATOM      9  H4  UNL     1      -0.246  -0.572   2.006  1.00  0.00     0.189 HD
HETATM   10  C5  UNL     1      -1.479   0.108   0.518  1.00  0.00     0.174 A 
HETATM   11  N5  UNL     1      -0.705   0.993   0.037  1.00  0.00    -0.266 N 
ATOM     12  H5  UNL     1      -1.032   1.544  -0.757  1.00  0.00     0.180 HD
ENDROOT
BRANCH   1  13
HETATM   13  N1  UNL     1      -2.975   0.749  -1.090  1.00  0.00    -0.373 N 
ATOM     14  H1  UNL     1      -2.273   1.425  -1.391  1.00  0.00     0.161 HD
BRANCH  13  15
HETATM   15  C2  UNL     1      -4.247   0.665  -1.777  1.00  0.00     0.117 C 
HETATM   16  C1  UNL     1      -5.356   1.319  -0.990  1.00  0.00     0.026 C 
ENDBRANCH  13  15
ENDBRANCH   1  13
BRANCH  11  17
HETATM   17  S1  UNL     1       0.853   1.305   0.654  1.00  0.00     0.233 S 
HETATM   18  O2  UNL     1       0.868   1.524   2.137  1.00  0.00    -0.206 OA
HETATM   19  O3  UNL     1       1.390   2.626   0.071  1.00  0.00    -0.206 OA
BRANCH  17  20
HETATM   20  C6  UNL     1       2.029   0.017   0.270  1.00  0.00     0.183 C 
BRANCH  20  21
HETATM   21  C7  UNL     1       3.364   0.385   0.858  1.00  0.00     0.138 C 
BRANCH  21  22
HETATM   22  N6  UNL     1       4.378  -0.592   0.603  1.00  0.00    -0.366 N 
HETATM   23  C8  UNL     1       5.212  -0.547  -0.374  1.00  0.00     0.196 C 
HETATM   24  N7  UNL     1       5.239   0.484  -1.336  1.00  0.00    -0.067 NA
HETATM   25  N8  UNL     1       6.155  -1.599  -0.481  1.00  0.00    -0.067 NA
ATOM     26  H6  UNL     1       4.444  -1.383   1.244  1.00  0.00     0.161 HD
ENDBRANCH  21  22
ENDBRANCH  20  21
ENDBRANCH  17  20
ENDBRANCH  11  17
TORSDOF 6
