REMARK  7 active torsions:
REMARK  status: ('A' for Active; 'I' for Inactive)
REMARK    1  A    between atoms: C4_4  and  C5_5 
REMARK       I    between atoms: C5_5  and  N1_7 
REMARK    2  A    between atoms: N1_7  and  N2_9 
REMARK       I    between atoms: N2_9  and  C6_11 
REMARK       I    between atoms: C6_11  and  N3_13 
REMARK    3  A    between atoms: N3_13  and  C7_15 
REMARK    4  A    between atoms: C7_15  and  C8_16 
REMARK       I    between atoms: C8_16  and  N4_18 
REMARK    5  A    between atoms: N4_18  and  C9_20 
REMARK    6  A    between atoms: C9_20  and  C10_21 
REMARK       I    between atoms: C10_21  and  N5_23 
REMARK    7  A    between atoms: N5_23  and  C11_25 
ROOT
HETATM    1  C8  UNL     1      -0.124   1.793  -1.228  1.00  0.00     0.235 C 
HETATM    2  O3  UNL     1      -1.071   2.643  -1.078  1.00  0.00    -0.272 OA
HETATM    3  N4  UNL     1      -0.440   0.531  -1.750  1.00  0.00    -0.351 N 
ATOM      4  H4  UNL     1       0.311  -0.148  -1.878  1.00  0.00     0.163 HD
ENDROOT
BRANCH   1   5
HETATM    5  C7  UNL     1       1.213   2.205  -0.845  1.00  0.00     0.227 C 
BRANCH   5   6
HETATM    6  N3  UNL     1       2.240   1.226  -1.029  1.00  0.00    -0.333 N 
HETATM    7  C6  UNL     1       3.599   1.551  -0.673  1.00  0.00     0.335 C 
HETATM    8  N2  UNL     1       4.605   0.572  -0.861  1.00  0.00    -0.249 N 
HETATM    9  O2  UNL     1       3.875   2.682  -0.207  1.00  0.00    -0.246 OA
ATOM     10  H2  UNL     1       4.366  -0.344  -1.241  1.00  0.00     0.192 HD
ATOM     11  H3  UNL     1       2.013   0.307  -1.408  1.00  0.00     0.164 HD
BRANCH   8  12
HETATM   12  N1  UNL     1       5.912   0.865  -0.526  1.00  0.00    -0.263 N 
HETATM   13  C5  UNL     1       6.807  -0.150  -0.059  1.00  0.00     0.260 C 
HETATM   14  O1  UNL     1       6.358  -1.311   0.034  1.00  0.00    -0.267 OA
ATOM     15  H1  UNL     1       6.247   1.825  -0.613  1.00  0.00     0.190 HD
BRANCH  13  16
HETATM   16  C4  UNL     1       8.179   0.154   0.293  1.00  0.00     0.077 C 
HETATM   17  C2  UNL     1       9.012  -0.770   0.724  1.00  0.00    -0.082 C 
HETATM   18  C1  UNL     1       8.639  -2.193   0.891  1.00  0.00     0.043 C 
HETATM   19  C3  UNL     1      10.422  -0.322   1.060  1.00  0.00     0.043 C 
ENDBRANCH  13  16
ENDBRANCH   8  12
ENDBRANCH   5   6
ENDBRANCH   1   5
BRANCH   3  20
HETATM   20  C9  UNL     1      -1.796   0.150  -2.117  1.00  0.00     0.225 C 
BRANCH  20  21
HETATM   21  C10 UNL     1      -2.742   0.155  -0.988  1.00  0.00     0.235 C 
HETATM   22  O4  UNL     1      -2.344   0.454   0.157  1.00  0.00    -0.272 OA
HETATM   23  N5  UNL     1      -4.087  -0.173  -1.195  1.00  0.00    -0.355 N 
ATOM     24  H5  UNL     1      -4.395  -0.414  -2.137  1.00  0.00     0.162 HD
BRANCH  23  25
HETATM   25  C11 UNL     1      -5.073  -0.183  -0.103  1.00  0.00     0.084 C 
HETATM   26  C12 UNL     1      -6.100   0.862  -0.460  1.00  0.00     0.025 C 
HETATM   27  C13 UNL     1      -7.220   0.952   0.533  1.00  0.00     0.002 C 
HETATM   28  C14 UNL     1      -7.981  -0.335   0.684  1.00  0.00     0.000 C 
HETATM   29  C15 UNL     1      -7.353  -1.127   1.790  1.00  0.00     0.000 C 
HETATM   30  C16 UNL     1      -6.143  -1.897   1.388  1.00  0.00     0.002 C 
HETATM   31  C17 UNL     1      -5.639  -1.564   0.003  1.00  0.00     0.025 C 
ENDBRANCH  23  25
ENDBRANCH  20  21
ENDBRANCH   3  20
TORSDOF 7
