REMARK  8 active torsions:
REMARK  status: ('A' for Active; 'I' for Inactive)
REMARK    1  A    between atoms: C2_2  and  N1_4 
REMARK    2  A    between atoms: N1_4  and  C4_6 
REMARK    3  A    between atoms: C10_12  and  O1_13 
REMARK    4  A    between atoms: N2_15  and  C11_16 
REMARK    5  A    between atoms: C11_16  and  C12_17 
REMARK    6  A    between atoms: C12_17  and  C13_18 
REMARK    7  A    between atoms: C13_18  and  C14_21 
REMARK    8  A    between atoms: C20_29  and  O2_30 
ROOT
HETATM    1  C4  UNL     1      -3.631   1.158   0.381  1.00  0.00     0.026 C 
HETATM    2  C5  UNL     1      -4.566   1.955   1.311  1.00  0.00     0.038 C 
HETATM    3  C6  UNL     1      -3.113   2.253  -0.586  1.00  0.00     0.035 C 
HETATM    4  C7  UNL     1      -2.179   1.670  -1.591  1.00  0.00     0.046 C 
HETATM    5  C8  UNL     1      -1.163   0.792  -0.960  1.00  0.00     0.004 A 
HETATM    6  C9  UNL     1      -1.278   0.322   0.321  1.00  0.00     0.006 A 
HETATM    7  C10 UNL     1      -0.165  -0.465   0.600  1.00  0.00     0.151 A 
HETATM    8  N2  UNL     1       0.623  -0.484  -0.485  1.00  0.00    -0.307 N 
HETATM    9  C20 UNL     1       0.036   0.273  -1.441  1.00  0.00     0.151 A 
HETATM   10  C21 UNL     1      -2.473   0.690   1.166  1.00  0.00     0.073 C 
ENDROOT
BRANCH   8  11
HETATM   11  C11 UNL     1       1.889  -1.201  -0.589  1.00  0.00     0.138 C 
BRANCH  11  12
HETATM   12  C12 UNL     1       3.065  -0.345  -0.152  1.00  0.00     0.086 C 
BRANCH  12  13
HETATM   13  C13 UNL     1       4.292  -1.193  -0.316  1.00  0.00     0.207 C 
HETATM   14  F1  UNL     1       4.257  -2.333   0.442  1.00  0.00    -0.220 F 
HETATM   15 CL1  UNL     1       4.275  -1.745  -2.031  1.00  0.00    -0.077 Cl
BRANCH  13  16
HETATM   16  C14 UNL     1       5.562  -0.511  -0.105  1.00  0.00    -0.000 A 
HETATM   17  C15 UNL     1       6.725  -1.240  -0.242  1.00  0.00     0.035 A 
HETATM   18  C16 UNL     1       7.965  -0.689  -0.066  1.00  0.00     0.036 A 
HETATM   19 CL2  UNL     1       9.408  -1.690  -0.260  1.00  0.00    -0.084 Cl
HETATM   20  C17 UNL     1       8.104   0.640   0.262  1.00  0.00     0.047 A 
HETATM   21  C18 UNL     1       6.939   1.382   0.402  1.00  0.00     0.036 A 
HETATM   22 CL3  UNL     1       7.140   3.074   0.820  1.00  0.00    -0.084 Cl
HETATM   23  C19 UNL     1       5.687   0.831   0.225  1.00  0.00     0.035 A 
ENDBRANCH  13  16
ENDBRANCH  12  13
ENDBRANCH  11  12
ENDBRANCH   8  11
BRANCH   7  24
HETATM   24  O1  UNL     1       0.025  -1.094   1.820  1.00  0.00    -0.345 OA
ATOM     25  H1  UNL     1       0.785  -1.631   2.010  1.00  0.00     0.219 HD
ENDBRANCH   7  24
BRANCH   9  26
HETATM   26  O2  UNL     1       0.535   0.507  -2.710  1.00  0.00    -0.345 OA
ATOM     27  H2  UNL     1       1.353   0.153  -3.038  1.00  0.00     0.219 HD
ENDBRANCH   9  26
BRANCH   1  28
HETATM   28  N1  UNL     1      -4.344   0.238  -0.396  1.00  0.00    -0.409 N 
ATOM     29  H1  UNL     1      -4.311   0.322  -1.412  1.00  0.00     0.154 HD
BRANCH  28  30
HETATM   30  C2  UNL     1      -5.101  -0.793   0.171  1.00  0.00     0.069 C 
HETATM   31  C1  UNL     1      -4.383  -1.856   0.958  1.00  0.00     0.031 C 
HETATM   32  C3  UNL     1      -5.843  -1.535  -0.962  1.00  0.00     0.031 C 
ENDBRANCH  28  30
ENDBRANCH   1  28
TORSDOF 8
