REMARK  7 active torsions:
REMARK  status: ('A' for Active; 'I' for Inactive)
REMARK    1  A    between atoms: C11_11  and  C12_12 
REMARK    2  A    between atoms: C12_12  and  O1_14 
REMARK    3  A    between atoms: C12_12  and  C14_16 
REMARK    4  A    between atoms: C14_16  and  C15_17 
REMARK    5  A    between atoms: C16_18  and  C17_19 
REMARK    6  A    between atoms: C19_24  and  O3_25 
REMARK    7  A    between atoms: C28_35  and  O4_36 
ROOT
HETATM    1  C1  UNL     1      -4.400   3.828  -0.378  1.00  0.00     0.012 C 
HETATM    2  C2  UNL     1      -3.468   2.602  -0.396  1.00  0.00     0.010 C 
HETATM    3  C3  UNL     1      -2.192   3.016  -1.017  1.00  0.00     0.007 C 
HETATM    4  C4  UNL     1      -0.950   2.360  -0.547  1.00  0.00     0.006 C 
HETATM    5  C5  UNL     1      -0.995   0.879  -0.380  1.00  0.00    -0.006 C 
HETATM    6  C6  UNL     1      -1.715   0.258  -1.496  1.00  0.00     0.005 C 
HETATM    7  C7  UNL     1      -0.892  -0.872  -2.111  1.00  0.00     0.001 C 
HETATM    8  C8  UNL     1      -1.515  -2.161  -1.657  1.00  0.00     0.005 C 
HETATM    9  C9  UNL     1      -1.014  -2.702  -0.384  1.00  0.00    -0.002 C 
HETATM   10  C10 UNL     1       0.488  -2.735  -0.427  1.00  0.00     0.042 C 
HETATM   11  C11 UNL     1       1.114  -1.782   0.537  1.00  0.00    -0.049 C 
HETATM   12  C20 UNL     1       0.448  -0.985   1.339  1.00  0.00    -0.015 C 
HETATM   13  C21 UNL     1      -1.067  -0.913   1.403  1.00  0.00     0.025 C 
HETATM   14  C22 UNL     1      -1.575  -2.174   0.901  1.00  0.00    -0.036 C 
HETATM   15  C23 UNL     1      -3.068  -2.360   0.871  1.00  0.00     0.016 C 
HETATM   16  C24 UNL     1      -1.116  -3.238   1.940  1.00  0.00     0.016 C 
HETATM   17  C25 UNL     1      -1.454   0.442   1.010  1.00  0.00    -0.030 C 
HETATM   18  C26 UNL     1      -0.556   1.309   1.931  1.00  0.00     0.016 C 
HETATM   19  C27 UNL     1      -2.844   0.862   1.307  1.00  0.00     0.042 C 
HETATM   20  C28 UNL     1      -3.241   2.249   1.073  1.00  0.00     0.122 C 
ENDROOT
BRANCH  11  21
HETATM   21  C12 UNL     1       2.625  -1.755   0.574  1.00  0.00     0.080 C 
HETATM   22  C13 UNL     1       3.155  -3.100   0.942  1.00  0.00     0.051 C 
BRANCH  21  23
HETATM   23  O1  UNL     1       3.089  -0.837   1.511  1.00  0.00    -0.385 OA
ATOM     24  H1  UNL     1       4.039  -0.820   1.534  1.00  0.00     0.211 HD
ENDBRANCH  21  23
BRANCH  21  25
HETATM   25  C14 UNL     1       3.150  -1.288  -0.785  1.00  0.00     0.069 C 
BRANCH  25  26
HETATM   26  C15 UNL     1       4.597  -1.229  -0.837  1.00  0.00    -0.022 C 
HETATM   27  C16 UNL     1       5.516  -0.375  -0.927  1.00  0.00     0.020 C 
BRANCH  27  28
HETATM   28  C17 UNL     1       5.541   1.059  -1.021  1.00  0.00     0.066 A 
HETATM   29  S1  UNL     1       6.985   2.002  -1.411  1.00  0.00    -0.048 SA
HETATM   30  C18 UNL     1       6.300   3.551  -1.282  1.00  0.00     0.187 A 
HETATM   31  S2  UNL     1       7.020   5.029  -1.506  1.00  0.00    -0.044 SA
HETATM   32  O2  UNL     1       5.098   3.281  -0.971  1.00  0.00    -0.268 OA
HETATM   33  C19 UNL     1       4.682   2.093  -0.832  1.00  0.00     0.202 A 
BRANCH  33  34
HETATM   34  O3  UNL     1       3.315   1.898  -0.474  1.00  0.00    -0.340 OA
ATOM     35  H3  UNL     1       2.714   2.622  -0.342  1.00  0.00     0.220 HD
ENDBRANCH  33  34
ENDBRANCH  27  28
ENDBRANCH  25  26
ENDBRANCH  21  25
ENDBRANCH  11  21
BRANCH  20  36
HETATM   36  O4  UNL     1      -4.537   2.389   1.648  1.00  0.00    -0.395 OA
ATOM     37  H4  UNL     1      -4.396   2.169   2.561  1.00  0.00     0.210 HD
ENDBRANCH  20  36
TORSDOF 7
