REMARK  11 active torsions:
REMARK  status: ('A' for Active; 'I' for Inactive)
REMARK    1  A    between atoms: C2_2  and  C3_3 
REMARK    2  A    between atoms: C3_3  and  N1_4 
REMARK    3  A    between atoms: C3_3  and  C15_27 
REMARK    4  A    between atoms: N1_4  and  C4_6 
REMARK    5  A    between atoms: C4_6  and  N2_8 
REMARK    6  A    between atoms: N2_8  and  N3_10 
REMARK    7  A    between atoms: N3_10  and  C5_12 
REMARK    8  A    between atoms: C5_12  and  O1_13 
REMARK    9  A    between atoms: C5_12  and  C6_15 
REMARK   10  A    between atoms: C6_15  and  N4_16 
REMARK   11  A    between atoms: C6_15  and  C9_21 
REMARK       I    between atoms: N4_16  and  C7_18 
ROOT
HETATM    1  C5  UNL     1      -1.360   0.993  -1.102  1.00  0.00     0.183 C 
ENDROOT
BRANCH   1   2
HETATM    2  N3  UNL     1      -0.148   0.577  -0.550  1.00  0.00    -0.276 N 
ATOM      3  H3  UNL     1      -0.212   0.066   0.330  1.00  0.00     0.189 HD
BRANCH   2   4
HETATM    4  N2  UNL     1       1.119   0.768  -1.040  1.00  0.00    -0.274 N 
ATOM      5  H2  UNL     1       1.281   1.433  -1.796  1.00  0.00     0.189 HD
BRANCH   4   6
HETATM    6  C4  UNL     1       2.232   0.016  -0.474  1.00  0.00     0.187 C 
HETATM    7  S1  UNL     1       1.801  -1.007   0.751  1.00  0.00    -0.040 SA
BRANCH   6   8
HETATM    8  N1  UNL     1       3.528   0.151  -0.952  1.00  0.00    -0.351 N 
ATOM      9  H1  UNL     1       3.657   0.834  -1.699  1.00  0.00     0.162 HD
BRANCH   8  10
HETATM   10  C3  UNL     1       4.705  -0.542  -0.534  1.00  0.00     0.184 C 
BRANCH  10  11
HETATM   11  C2  UNL     1       4.956  -0.420   0.932  1.00  0.00     0.032 C 
HETATM   12  C1  UNL     1       5.060   1.040   1.322  1.00  0.00     0.007 C 
ENDBRANCH  10  11
BRANCH  10  13
HETATM   13  C15 UNL     1       4.638  -1.969  -0.977  1.00  0.00     0.196 C 
HETATM   14  O3  UNL     1       3.675  -2.349  -1.658  1.00  0.00    -0.646 OA
HETATM   15  O4  UNL     1       5.643  -2.811  -0.631  1.00  0.00    -0.646 OA
ENDBRANCH  10  13
ENDBRANCH   8  10
ENDBRANCH   6   8
ENDBRANCH   4   6
ENDBRANCH   2   4
ENDBRANCH   1   2
BRANCH   1  16
HETATM   16  O1  UNL     1      -1.244   1.734  -2.179  1.00  0.00    -0.344 OA
ATOM     17  H1  UNL     1      -2.069   2.017  -2.555  1.00  0.00     0.219 HD
ENDBRANCH   1  16
BRANCH   1  18
HETATM   18  C6  UNL     1      -2.722   0.733  -0.639  1.00  0.00     0.098 C 
BRANCH  18  19
HETATM   19  N4  UNL     1      -3.163   1.687   0.348  1.00  0.00    -0.323 N 
HETATM   20  C7  UNL     1      -3.657   2.964   0.179  1.00  0.00     0.218 C 
HETATM   21  C8  UNL     1      -4.040   3.737   1.451  1.00  0.00     0.117 C 
HETATM   22  O2  UNL     1      -3.817   3.523  -0.899  1.00  0.00    -0.274 OA
ATOM     23  H4  UNL     1      -3.100   1.371   1.316  1.00  0.00     0.169 HD
ENDBRANCH  18  19
BRANCH  18  24
HETATM   24  C9  UNL     1      -3.087  -0.655  -0.412  1.00  0.00    -0.005 A 
HETATM   25  C10 UNL     1      -2.273  -1.736  -0.191  1.00  0.00     0.014 A 
HETATM   26  C11 UNL     1      -2.726  -3.034   0.048  1.00  0.00     0.001 A 
HETATM   27  C12 UNL     1      -4.053  -3.329   0.082  1.00  0.00     0.000 A 
HETATM   28  C13 UNL     1      -4.906  -2.259  -0.145  1.00  0.00     0.001 A 
HETATM   29  C14 UNL     1      -4.473  -0.997  -0.381  1.00  0.00     0.014 A 
ENDBRANCH  18  24
ENDBRANCH   1  18
TORSDOF 11
