REMARK  7 active torsions:
REMARK  status: ('A' for Active; 'I' for Inactive)
REMARK    1  A    between atoms: C1_2  and  C2_4 
REMARK    2  A    between atoms: C2_4  and  C8_15 
REMARK       I    between atoms: N1_5  and  C3_7 
REMARK    3  A    between atoms: C3_7  and  C4_9 
REMARK       I    between atoms: C8_15  and  N3_17 
REMARK    4  A    between atoms: N3_17  and  C9_19 
REMARK    5  A    between atoms: C9_19  and  C10_20 
REMARK    6  A    between atoms: C9_19  and  C16_28 
REMARK    7  A    between atoms: C11_21  and  C12_22 
ROOT
HETATM    1  C8  UNL     1       1.392   0.417   1.105  1.00  0.00     0.276 C 
HETATM    2  O4  UNL     1       2.020  -0.543   0.496  1.00  0.00    -0.266 OA
HETATM    3  N3  UNL     1       0.098   0.066   1.495  1.00  0.00    -0.338 N 
ATOM      4  H3  UNL     1      -0.466   0.763   1.981  1.00  0.00     0.164 HD
ENDROOT
BRANCH   1   5
HETATM    5  C2  UNL     1       2.100   1.650   1.279  1.00  0.00     0.180 C 
HETATM    6  N1  UNL     1       3.324   1.808   0.846  1.00  0.00    -0.311 N 
HETATM    7  C3  UNL     1       4.111   0.882   0.185  1.00  0.00     0.273 C 
ATOM      8  H1  UNL     1       3.748   2.720   1.015  1.00  0.00     0.169 HD
HETATM    9  O3  UNL     1       4.809   0.068   0.822  1.00  0.00    -0.266 OA
BRANCH   5  10
HETATM   10  C1  UNL     1       1.536   2.797   1.931  1.00  0.00     0.232 C 
HETATM   11  O1  UNL     1       0.392   2.806   2.394  1.00  0.00    -0.643 OA
HETATM   12  O2  UNL     1       2.279   3.959   2.064  1.00  0.00    -0.643 OA
ENDBRANCH   5  10
BRANCH   7  13
HETATM   13  C4  UNL     1       4.143   0.836  -1.271  1.00  0.00     0.101 A 
HETATM   14  C5  UNL     1       4.889  -0.041  -2.068  1.00  0.00     0.036 A 
HETATM   15  C6  UNL     1       4.663   0.216  -3.401  1.00  0.00     0.019 A 
HETATM   16  C7  UNL     1       3.767   1.265  -3.402  1.00  0.00     0.088 A 
HETATM   17  N2  UNL     1       3.477   1.612  -2.142  1.00  0.00    -0.361 N 
ATOM     18  H2  UNL     1       2.838   2.363  -1.879  1.00  0.00     0.165 HD
ENDBRANCH   7  13
ENDBRANCH   1   5
BRANCH   3  19
HETATM   19  C9  UNL     1      -0.490  -1.249   1.243  1.00  0.00     0.209 C 
BRANCH  19  20
HETATM   20  C10 UNL     1      -1.680  -1.147   0.368  1.00  0.00     0.010 C 
HETATM   21  C11 UNL     1      -2.890  -1.130   0.895  1.00  0.00     0.011 C 
BRANCH  21  22
HETATM   22  C12 UNL     1      -4.087  -1.031   0.074  1.00  0.00    -0.020 A 
HETATM   23  C13 UNL     1      -4.153  -0.944  -1.301  1.00  0.00     0.029 A 
HETATM   24  C14 UNL     1      -5.492  -0.866  -1.675  1.00  0.00     0.088 A 
HETATM   25  N4  UNL     1      -6.219  -0.904  -0.554  1.00  0.00    -0.374 N 
HETATM   26  C15 UNL     1      -5.406  -1.003   0.510  1.00  0.00     0.099 A 
ATOM     27  H4  UNL     1      -7.237  -0.864  -0.513  1.00  0.00     0.164 HD
ENDBRANCH  21  22
ENDBRANCH  19  20
BRANCH  19  28
HETATM   28  C16 UNL     1      -0.877  -1.923   2.496  1.00  0.00     0.200 C 
HETATM   29  O5  UNL     1      -0.702  -1.393   3.615  1.00  0.00    -0.646 OA
HETATM   30  O6  UNL     1      -1.449  -3.178   2.440  1.00  0.00    -0.646 OA
ENDBRANCH  19  28
ENDBRANCH   3  19
TORSDOF 7
