REMARK  1 active torsions:
REMARK  status: ('A' for Active; 'I' for Inactive)
REMARK    1  A    between atoms: N1_2  and  C2_5 
ROOT
HETATM    1  C2  UNL     1       0.875   0.085  -0.045  1.00  0.00     0.187 C 
HETATM    2  C3  UNL     1       0.777  -1.320   0.526  1.00  0.00     0.034 C 
HETATM    3  C4  UNL     1      -0.464  -2.043   0.150  1.00  0.00     0.029 C 
HETATM    4  C5  UNL     1      -1.332  -1.361  -0.852  1.00  0.00     0.232 C 
HETATM    5  N2  UNL     1      -2.154  -0.312  -0.275  1.00  0.00    -0.071 N 
ATOM      6  H21 UNL     1      -2.404  -0.490   0.698  1.00  0.00     0.277 HD
ATOM      7  H22 UNL     1      -3.101  -0.293  -0.653  1.00  0.00     0.277 HD
HETATM    8  C6  UNL     1      -1.438   0.952  -0.460  1.00  0.00     0.183 C 
HETATM    9  C7  UNL     1      -2.319   2.119  -0.067  1.00  0.00     0.040 C 
HETATM   10  C8  UNL     1      -0.264   0.940   0.474  1.00  0.00     0.065 C 
ENDROOT
BRANCH   1  11
HETATM   11  N1  UNL     1       2.094   0.689   0.443  1.00  0.00    -0.075 N 
HETATM   12  C1  UNL     1       3.292   0.000   0.013  1.00  0.00     0.267 C 
ATOM     13  H12 UNL     1       2.072   0.776   1.459  1.00  0.00     0.277 HD
ATOM     14  H11 UNL     1       2.134   1.676   0.189  1.00  0.00     0.277 HD
ENDBRANCH   1  11
TORSDOF 1
