REMARK  12 active torsions:
REMARK  status: ('A' for Active; 'I' for Inactive)
REMARK    1  A    between atoms: O1_2  and  C2_3 
REMARK    2  A    between atoms: C4_5  and  C5_6 
REMARK    3  A    between atoms: C6_7  and  C7_8 
REMARK       I    between atoms: C7_8  and  N1_10 
REMARK    4  A    between atoms: N1_10  and  C8_12 
REMARK    5  A    between atoms: C8_12  and  C9_13 
REMARK    6  A    between atoms: C9_13  and  C10_14 
REMARK    7  A    between atoms: C10_14  and  N2_15 
REMARK    8  A    between atoms: N2_15  and  C11_17 
REMARK    9  A    between atoms: C14_20  and  N3_21 
REMARK   10  A    between atoms: C20_27  and  N4_28 
REMARK   11  A    between atoms: C26_39  and  O3_40 
REMARK   12  A    between atoms: C28_42  and  O4_43 
ROOT
HETATM    1  N2  UNL     1      -0.898   0.193  -1.284  1.00  0.00    -0.376 N 
ATOM      2  H2  UNL     1      -0.895  -0.737  -1.703  1.00  0.00     0.161 HD
ENDROOT
BRANCH   1   3
HETATM    3  C10 UNL     1       0.342   0.895  -1.326  1.00  0.00     0.123 C 
BRANCH   3   4
HETATM    4  C9  UNL     1       1.170   0.232  -2.438  1.00  0.00     0.039 C 
BRANCH   4   5
HETATM    5  C8  UNL     1       1.381  -1.220  -2.133  1.00  0.00     0.124 C 
BRANCH   5   6
HETATM    6  N1  UNL     1       2.068  -1.490  -0.908  1.00  0.00    -0.358 N 
HETATM    7  C7  UNL     1       3.428  -1.029  -0.633  1.00  0.00     0.241 C 
HETATM    8  O2  UNL     1       3.913  -0.389  -1.569  1.00  0.00    -0.269 OA
ATOM      9  H1  UNL     1       1.585  -2.031  -0.191  1.00  0.00     0.162 HD
BRANCH   7  10
HETATM   10  C6  UNL     1       3.998  -1.359   0.622  1.00  0.00     0.075 C 
HETATM   11  C5  UNL     1       5.117  -1.166   1.174  1.00  0.00     0.017 C 
BRANCH  11  12
HETATM   12  C4  UNL     1       6.345  -0.542   0.818  1.00  0.00    -0.031 A 
HETATM   13  C3  UNL     1       7.220  -0.194   1.893  1.00  0.00     0.051 A 
HETATM   14  C2  UNL     1       8.454   0.346   1.665  1.00  0.00     0.105 A 
HETATM   15  C28 UNL     1       8.911   0.579   0.385  1.00  0.00     0.135 A 
HETATM   16  C26 UNL     1       8.117   0.265  -0.678  1.00  0.00     0.105 A 
HETATM   17  C25 UNL     1       6.850  -0.291  -0.427  1.00  0.00     0.051 A 
BRANCH  14  18
HETATM   18  O1  UNL     1       9.327   0.695   2.700  1.00  0.00    -0.353 OA
HETATM   19  C1  UNL     1       8.880   0.465   4.027  1.00  0.00     0.210 C 
ENDBRANCH  14  18
BRANCH  15  20
HETATM   20  O4  UNL     1      10.162   1.127   0.170  1.00  0.00    -0.351 OA
HETATM   21  C29 UNL     1      11.244   0.192   0.041  1.00  0.00     0.210 C 
ENDBRANCH  15  20
BRANCH  16  22
HETATM   22  O3  UNL     1       8.558   0.491  -1.973  1.00  0.00    -0.353 OA
HETATM   23  C27 UNL     1       7.693   0.146  -3.033  1.00  0.00     0.210 C 
ENDBRANCH  16  22
ENDBRANCH  11  12
ENDBRANCH   7  10
ENDBRANCH   5   6
ENDBRANCH   4   5
ENDBRANCH   3   4
ENDBRANCH   1   3
BRANCH   1  24
HETATM   24  C11 UNL     1      -2.005   0.574  -0.794  1.00  0.00     0.102 A 
HETATM   25  C12 UNL     1      -2.211   1.787  -0.190  1.00  0.00     0.050 A 
HETATM   26  C13 UNL     1      -3.411   2.161   0.326  1.00  0.00     0.037 A 
HETATM   27  C14 UNL     1      -4.496   1.280   0.245  1.00  0.00     0.074 A 
HETATM   28  C20 UNL     1      -4.292   0.077  -0.353  1.00  0.00     0.132 A 
HETATM   29  N6  UNL     1      -3.062  -0.251  -0.857  1.00  0.00    -0.327 N 
ATOM     30  H6  UNL     1      -2.944  -1.162  -1.300  1.00  0.00     0.169 HD
BRANCH  27  31
HETATM   31  N3  UNL     1      -5.701   1.755   0.788  1.00  0.00    -0.378 N 
HETATM   32  C15 UNL     1      -6.786   2.167  -0.048  1.00  0.00     0.123 C 
HETATM   33  C16 UNL     1      -8.142   1.697   0.367  1.00  0.00     0.020 C 
HETATM   34  C17 UNL     1      -8.239   1.267   1.794  1.00  0.00     0.003 C 
HETATM   35  C18 UNL     1      -7.251   1.946   2.696  1.00  0.00     0.020 C 
HETATM   36  C19 UNL     1      -5.838   1.832   2.224  1.00  0.00     0.123 C 
ENDBRANCH  27  31
BRANCH  28  37
HETATM   37  N4  UNL     1      -5.343  -0.867  -0.454  1.00  0.00    -0.362 N 
HETATM   38  C21 UNL     1      -6.123  -1.068  -1.639  1.00  0.00     0.152 C 
HETATM   39  C22 UNL     1      -6.265  -2.556  -1.909  1.00  0.00     0.252 C 
HETATM   40  N5  UNL     1      -6.892  -3.139  -0.754  1.00  0.00    -0.072 N 
HETATM   41  C23 UNL     1      -6.043  -3.060   0.398  1.00  0.00     0.252 C 
ATOM     42  H52 UNL     1      -7.805  -2.722  -0.574  1.00  0.00     0.277 HD
ATOM     43  H51 UNL     1      -7.189  -4.098  -0.934  1.00  0.00     0.277 HD
HETATM   44  C24 UNL     1      -5.595  -1.669   0.747  1.00  0.00     0.152 C 
ENDBRANCH  28  37
ENDBRANCH   1  24
TORSDOF 12
