REMARK  11 active torsions:
REMARK  status: ('A' for Active; 'I' for Inactive)
REMARK    1  A    between atoms: O1_2  and  C2_3 
REMARK    2  A    between atoms: C2_3  and  O2_4 
REMARK    3  A    between atoms: O2_4  and  N1_5 
REMARK    4  A    between atoms: N1_5  and  C3_6 
REMARK    5  A    between atoms: C3_6  and  C4_7 
REMARK    6  A    between atoms: C4_7  and  N2_8 
REMARK    7  A    between atoms: C6_11  and  C7_12 
REMARK    8  A    between atoms: C10_22  and  C11_23 
REMARK    9  A    between atoms: C12_24  and  C13_25 
REMARK   10  A    between atoms: N10_36  and  C16_38 
REMARK   11  A    between atoms: C16_38  and  C18_40 
ROOT
HETATM    1  N2  UNL     1       0.123  -1.365   0.207  1.00  0.00    -0.318 N 
HETATM    2  C5  UNL     1       0.293  -1.736   1.473  1.00  0.00     0.136 A 
HETATM    3  N3  UNL     1       1.264  -2.759   1.708  1.00  0.00    -0.081 NA
HETATM    4  C6  UNL     1      -0.404  -1.195   2.518  1.00  0.00     0.077 A 
HETATM    5  C9  UNL     1      -1.318  -0.220   2.201  1.00  0.00     0.086 A 
HETATM    6  N6  UNL     1      -2.077   0.386   3.245  1.00  0.00    -0.100 NA
HETATM    7  C10 UNL     1      -1.514   0.181   0.912  1.00  0.00     0.087 A 
HETATM    8  C15 UNL     1      -0.807  -0.373  -0.123  1.00  0.00     0.126 A 
HETATM    9  N10 UNL     1      -0.925  -0.072  -1.285  1.00  0.00    -0.365 N 
ATOM     10  H10 UNL     1      -0.263  -0.662  -1.788  1.00  0.00     0.162 HD
ENDROOT
BRANCH   7  11
HETATM   11  C11 UNL     1      -2.489   1.207   0.678  1.00  0.00    -0.054 C 
HETATM   12  C12 UNL     1      -3.331   2.088   0.524  1.00  0.00    -0.037 C 
BRANCH  12  13
HETATM   13  C13 UNL     1      -4.323   3.111   0.371  1.00  0.00     0.155 A 
HETATM   14  N7  UNL     1      -4.719   4.013   1.282  1.00  0.00    -0.229 N 
HETATM   15  O5  UNL     1      -5.639   4.781   0.791  1.00  0.00    -0.154 OA
ATOM     16  H7  UNL     1      -4.347   4.084   2.229  1.00  0.00     0.197 HD
HETATM   17  N8  UNL     1      -5.909   4.459  -0.427  1.00  0.00    -0.223 N 
HETATM   18  C14 UNL     1      -5.105   3.397  -0.768  1.00  0.00     0.159 A 
ATOM     19  H8  UNL     1      -6.596   4.911  -1.030  1.00  0.00     0.198 HD
HETATM   20  N9  UNL     1      -5.074   2.813  -1.839  1.00  0.00    -0.382 N 
ATOM     21  H92 UNL     1      -4.478   2.025  -2.092  1.00  0.00     0.157 HD
ATOM     22  H91 UNL     1      -5.639   3.020  -2.662  1.00  0.00     0.157 HD
ENDBRANCH  12  13
ENDBRANCH   7  11
BRANCH   4  23
HETATM   23  C7  UNL     1      -0.249  -1.573   3.920  1.00  0.00     0.145 A 
HETATM   24  N4  UNL     1      -0.954  -1.022   4.956  1.00  0.00    -0.285 N 
HETATM   25  C8  UNL     1      -0.569  -1.596   6.107  1.00  0.00     0.388 A 
ATOM     26  H4  UNL     1      -1.660  -0.291   4.868  1.00  0.00     0.172 HD
HETATM   27  O3  UNL     1      -1.060  -1.275   7.225  1.00  0.00    -0.236 OA
HETATM   28  O4  UNL     1       0.338  -2.471   5.818  1.00  0.00    -0.179 OA
HETATM   29  N5  UNL     1       0.543  -2.471   4.510  1.00  0.00    -0.239 N 
ATOM     30  H5  UNL     1       1.210  -3.070   4.024  1.00  0.00     0.196 HD
ENDBRANCH   4  23
BRANCH   1  31
HETATM   31  C4  UNL     1       0.859  -1.939  -0.877  1.00  0.00     0.150 C 
BRANCH  31  32
HETATM   32  C3  UNL     1       2.156  -1.159  -1.130  1.00  0.00     0.163 C 
BRANCH  32  33
HETATM   33  N1  UNL     1       2.850  -1.799  -2.227  1.00  0.00    -0.097 NA
BRANCH  33  34
HETATM   34  O2  UNL     1       4.007  -1.213  -2.556  1.00  0.00    -0.261 OA
BRANCH  34  35
HETATM   35  C2  UNL     1       4.778  -0.846  -1.468  1.00  0.00     0.363 C 
BRANCH  35  36
HETATM   36  O1  UNL     1       5.982  -0.243  -1.902  1.00  0.00    -0.370 OA
HETATM   37  C1  UNL     1       6.744   0.116  -0.776  1.00  0.00     0.204 C 
ENDBRANCH  35  36
ENDBRANCH  34  35
ENDBRANCH  33  34
ENDBRANCH  32  33
ENDBRANCH  31  32
ENDBRANCH   1  31
BRANCH   9  38
HETATM   38  C16 UNL     1      -1.526   0.683  -2.231  1.00  0.00     0.138 C 
HETATM   39  C17 UNL     1      -0.910   2.081  -2.426  1.00  0.00     0.039 C 
BRANCH  38  40
HETATM   40  C18 UNL     1      -1.428   0.079  -3.631  1.00  0.00     0.113 C 
HETATM   41  N11 UNL     1      -0.197  -0.120  -4.277  1.00  0.00    -0.092 NA
HETATM   42  S1  UNL     1      -2.795  -0.351  -4.386  1.00  0.00    -0.067 SA
ENDBRANCH  38  40
ENDBRANCH   9  38
TORSDOF 11
