REMARK  3 active torsions:
REMARK  status: ('A' for Active; 'I' for Inactive)
REMARK    1  A    between atoms: C1_2  and  C2_3 
REMARK       I    between atoms: C1_2  and  N2_7 
REMARK    2  A    between atoms: C2_3  and  N1_4 
REMARK       I    between atoms: N2_7  and  C3_9 
REMARK    3  A    between atoms: C3_9  and  C4_11 
ROOT
HETATM    1  O1  UNL     1      -0.969   0.963   0.747  1.00  0.00    -0.271 OA
HETATM    2  C1  UNL     1      -1.462  -0.067   0.254  1.00  0.00     0.248 C 
HETATM    3  N2  UNL     1      -0.801  -1.089  -0.454  1.00  0.00    -0.290 N 
ATOM      4  H2  UNL     1      -1.414  -1.843  -0.765  1.00  0.00     0.172 HD
HETATM    5  C3  UNL     1       0.511  -1.258  -0.802  1.00  0.00     0.281 C 
HETATM    6  O4  UNL     1       0.853  -2.316  -1.469  1.00  0.00    -0.265 OA
ENDROOT
BRANCH   2   7
HETATM    7  C2  UNL     1      -2.961  -0.186   0.472  1.00  0.00     0.304 C 
BRANCH   7   8
HETATM    8  N1  UNL     1      -3.458   0.945   1.212  1.00  0.00    -0.147 N 
HETATM    9  O2  UNL     1      -4.017   0.773   2.306  1.00  0.00    -0.536 OA
HETATM   10  O3  UNL     1      -3.307   2.201   0.694  1.00  0.00    -0.536 OA
ENDBRANCH   7   8
ENDBRANCH   2   7
BRANCH   5  11
HETATM   11  C4  UNL     1       1.612  -0.363  -0.502  1.00  0.00     0.142 A 
HETATM   12  C5  UNL     1       2.954  -0.557  -0.868  1.00  0.00     0.045 A 
HETATM   13  C6  UNL     1       3.657   0.515  -0.392  1.00  0.00     0.027 A 
HETATM   14  C7  UNL     1       2.767   1.339   0.248  1.00  0.00     0.143 A 
HETATM   15  O5  UNL     1       1.616   0.761   0.138  1.00  0.00    -0.317 OA
ENDBRANCH   5  11
TORSDOF 3
