REMARK  8 active torsions:
REMARK  status: ('A' for Active; 'I' for Inactive)
REMARK    1  A    between atoms: C4_5  and  O1_6 
REMARK    2  A    between atoms: C7_10  and  O2_11 
REMARK    3  A    between atoms: C9_13  and  C11_15 
REMARK    4  A    between atoms: C15_22  and  S1_23 
REMARK    5  A    between atoms: S1_23  and  C16_24 
REMARK    6  A    between atoms: C16_24  and  C17_25 
REMARK    7  A    between atoms: C17_25  and  N3_26 
REMARK    8  A    between atoms: N3_26  and  N4_27 
ROOT
HETATM    1  C1  UNL     1      -4.708   1.672  -0.953  1.00  0.00     0.028 C 
HETATM    2  C2  UNL     1      -3.466   1.244  -0.934  1.00  0.00     0.016 A 
HETATM    3  C3  UNL     1      -2.769   1.198  -2.110  1.00  0.00     0.094 A 
HETATM    4  N1  UNL     1      -3.356   1.639  -3.353  1.00  0.00    -0.098 NA
HETATM    5  C4  UNL     1      -1.490   0.716  -2.061  1.00  0.00     0.118 A 
HETATM    6  C5  UNL     1      -0.898   0.282  -0.884  1.00  0.00     0.080 A 
HETATM    7  C6  UNL     1      -1.604   0.318   0.335  1.00  0.00     0.033 A 
HETATM    8  C7  UNL     1      -2.858   0.807   0.241  1.00  0.00     0.090 A 
HETATM    9  C9  UNL     1      -1.125  -0.243   1.548  1.00  0.00     0.061 C 
HETATM   10  C10 UNL     1      -1.748  -0.153   2.854  1.00  0.00     0.044 C 
HETATM   11  N2  UNL     1       0.314  -0.067   1.829  1.00  0.00    -0.343 N 
ATOM     12  H2  UNL     1       0.528   0.306   2.754  1.00  0.00     0.164 HD
HETATM   13  C13 UNL     1       1.440  -0.333   1.022  1.00  0.00     0.269 C 
HETATM   14  O3  UNL     1       2.593  -0.382   1.500  1.00  0.00    -0.266 OA
HETATM   15  C14 UNL     1       1.367  -0.572  -0.429  1.00  0.00     0.107 C 
HETATM   16  C15 UNL     1       2.324  -1.275  -0.973  1.00  0.00     0.080 C 
HETATM   17  N5  UNL     1       0.296  -0.057  -1.223  1.00  0.00    -0.349 N 
ATOM     18  H5  UNL     1       0.512   0.060  -2.213  1.00  0.00     0.166 HD
ENDROOT
BRANCH  16  19
HETATM   19  S1  UNL     1       3.635  -1.895   0.025  1.00  0.00    -0.138 SA
BRANCH  19  20
HETATM   20  C16 UNL     1       5.196  -2.016  -0.859  1.00  0.00     0.096 C 
BRANCH  20  21
HETATM   21  C17 UNL     1       5.751  -0.659  -1.260  1.00  0.00     0.144 C 
BRANCH  21  22
HETATM   22  N3  UNL     1       5.974   0.136  -0.094  1.00  0.00    -0.148 NA
BRANCH  22  23
HETATM   23  N4  UNL     1       6.481   1.376  -0.472  1.00  0.00    -0.348 N 
ATOM     24  H42 UNL     1       6.660   1.658  -1.436  1.00  0.00     0.172 HD
ATOM     25  H41 UNL     1       6.640   1.944   0.360  1.00  0.00     0.172 HD
ENDBRANCH  22  23
ENDBRANCH  21  22
ENDBRANCH  20  21
ENDBRANCH  19  20
ENDBRANCH  16  19
BRANCH   9  26
HETATM   26  C11 UNL     1      -1.161  -1.808   1.288  1.00  0.00     0.031 C 
HETATM   27  C12 UNL     1      -2.580  -2.236   0.989  1.00  0.00     0.008 C 
ENDBRANCH   9  26
BRANCH   5  28
HETATM   28  O1  UNL     1      -0.795   0.681  -3.275  1.00  0.00    -0.357 OA
ATOM     29  H1  UNL     1       0.093   0.346  -3.241  1.00  0.00     0.218 HD
ENDBRANCH   5  28
BRANCH   8  30
HETATM   30  O2  UNL     1      -3.656   0.922   1.354  1.00  0.00    -0.354 OA
HETATM   31  C8  UNL     1      -3.756   2.154   2.083  1.00  0.00     0.210 C 
ENDBRANCH   8  30
TORSDOF 8
