REMARK  8 active torsions:
REMARK  status: ('A' for Active; 'I' for Inactive)
REMARK    1  A    between atoms: N1_1  and  C1_4 
REMARK    2  A    between atoms: C2_7  and  N3_8 
REMARK    3  A    between atoms: N3_8  and  C3_9 
REMARK    4  A    between atoms: N3_8  and  C10_18 
REMARK    5  A    between atoms: C3_9  and  C4_10 
REMARK    6  A    between atoms: C4_10  and  C5_12 
REMARK    7  A    between atoms: C5_12  and  N4_13 
REMARK    8  A    between atoms: C16_27  and  N6_28 
ROOT
HETATM    1  C1  UNL     1      -3.327  -2.900  -1.087  1.00  0.00     0.679 A 
HETATM    2  N2  UNL     1      -2.527  -1.859  -1.200  1.00  0.00    -0.176 N 
ATOM      3  H2  UNL     1      -2.266  -1.552  -2.137  1.00  0.00     0.186 HD
HETATM    4  C2  UNL     1      -2.016  -1.152  -0.106  1.00  0.00     0.141 A 
HETATM    5  C15 UNL     1      -2.392  -1.594   1.090  1.00  0.00     0.097 A 
HETATM    6  C16 UNL     1      -1.956  -0.949   2.211  1.00  0.00     0.117 A 
HETATM    7  N7  UNL     1      -2.369  -1.417   3.418  1.00  0.00    -0.338 N 
ATOM      8  H7  UNL     1      -2.049  -0.945   4.264  1.00  0.00     0.168 HD
HETATM    9  C17 UNL     1      -3.181  -2.476   3.537  1.00  0.00     0.183 A 
HETATM   10  N8  UNL     1      -3.601  -3.096   2.434  1.00  0.00    -0.337 N 
ATOM     11  H8  UNL     1      -4.219  -3.903   2.523  1.00  0.00     0.168 HD
HETATM   12  C18 UNL     1      -3.234  -2.689   1.213  1.00  0.00     0.139 A 
HETATM   13  N9  UNL     1      -3.679  -3.314   0.128  1.00  0.00    -0.176 N 
ATOM     14  H9  UNL     1      -4.297  -4.119   0.227  1.00  0.00     0.186 HD
ENDROOT
BRANCH   4  15
HETATM   15  N3  UNL     1      -1.116  -0.111  -0.523  1.00  0.00    -0.333 N 
BRANCH  15  16
HETATM   16  C3  UNL     1       0.212  -0.519  -0.787  1.00  0.00     0.149 C 
BRANCH  16  17
HETATM   17  C4  UNL     1       1.398   0.049  -0.234  1.00  0.00     0.202 C 
HETATM   18  O1  UNL     1       1.486   1.042   0.422  1.00  0.00    -0.285 OA
BRANCH  17  19
HETATM   19  C5  UNL     1       2.732  -0.638  -0.469  1.00  0.00     0.146 C 
BRANCH  19  20
HETATM   20  N4  UNL     1       3.808   0.002   0.127  1.00  0.00    -0.366 N 
HETATM   21  C6  UNL     1       3.940   0.032   1.529  1.00  0.00     0.063 A 
HETATM   22  C7  UNL     1       5.407   0.225   1.854  1.00  0.00     0.046 A 
HETATM   23  C8  UNL     1       6.102   0.357   0.532  1.00  0.00     0.025 A 
HETATM   24  C9  UNL     1       5.019   0.173  -0.538  1.00  0.00     0.128 A 
ENDBRANCH  19  20
ENDBRANCH  17  19
ENDBRANCH  16  17
ENDBRANCH  15  16
BRANCH  15  25
HETATM   25  C10 UNL     1      -1.738   1.137  -0.832  1.00  0.00     0.094 C 
HETATM   26  C11 UNL     1      -1.066   2.418  -0.541  1.00  0.00     0.053 C 
HETATM   27  C12 UNL     1      -2.098   3.513  -0.912  1.00  0.00     0.234 C 
HETATM   28  N5  UNL     1      -2.057   3.643  -2.367  1.00  0.00    -0.075 N 
HETATM   29  C13 UNL     1      -1.646   2.394  -2.980  1.00  0.00     0.234 C 
ATOM     30  H52 UNL     1      -2.945   3.975  -2.743  1.00  0.00     0.277 HD
ATOM     31  H51 UNL     1      -1.467   4.421  -2.661  1.00  0.00     0.277 HD
HETATM   32  C14 UNL     1      -2.226   1.197  -2.269  1.00  0.00     0.053 C 
ENDBRANCH  15  25
ENDBRANCH   4  15
BRANCH   1  33
HETATM   33  N1  UNL     1      -3.779  -3.527  -2.114  1.00  0.00    -0.234 N 
ATOM     34  H12 UNL     1      -3.509  -3.210  -3.045  1.00  0.00     0.174 HD
ATOM     35  H11 UNL     1      -4.398  -4.333  -2.027  1.00  0.00     0.174 HD
ENDBRANCH   1  33
BRANCH   6  36
HETATM   36  N6  UNL     1      -1.224   0.062   2.176  1.00  0.00    -0.385 N 
ATOM     37  H62 UNL     1      -0.914   0.413   1.270  1.00  0.00     0.157 HD
ATOM     38  H61 UNL     1      -0.898   0.544   3.014  1.00  0.00     0.157 HD
ENDBRANCH   6  36
TORSDOF 8
