REMARK  12 active torsions:
REMARK  status: ('A' for Active; 'I' for Inactive)
REMARK       I    between atoms: C1_4  and  N3_6 
REMARK    1  A    between atoms: N3_6  and  C2_8 
REMARK    2  A    between atoms: C2_8  and  C3_9 
REMARK    3  A    between atoms: C3_9  and  C4_10 
REMARK    4  A    between atoms: C4_10  and  C5_11 
REMARK    5  A    between atoms: C5_11  and  O1_12 
REMARK    6  A    between atoms: O1_12  and  C6_13 
REMARK    7  A    between atoms: C6_13  and  C7_15 
REMARK    8  A    between atoms: C7_15  and  C8_16 
REMARK    9  A    between atoms: C7_15  and  N6_30 
REMARK   10  A    between atoms: C8_16  and  N4_17 
REMARK       I    between atoms: N4_17  and  C9_19 
REMARK       I    between atoms: C9_19  and  N5_21 
REMARK   11  A    between atoms: N5_21  and  C10_23 
REMARK       I    between atoms: N6_30  and  C17_32 
REMARK   12  A    between atoms: C17_32  and  C18_34 
ROOT
HETATM    1  C7  UNL     1      -0.294   1.397  -1.358  1.00  0.00     0.202 C 
ENDROOT
BRANCH   1   2
HETATM    2  C6  UNL     1      -1.319   0.339  -1.438  1.00  0.00     0.283 C 
HETATM    3  O2  UNL     1      -2.537   0.744  -1.335  1.00  0.00    -0.263 OA
BRANCH   2   4
HETATM    4  O1  UNL     1      -1.083  -1.006  -1.608  1.00  0.00    -0.320 OA
BRANCH   4   5
HETATM    5  C5  UNL     1      -2.176  -1.895  -1.666  1.00  0.00     0.178 C 
BRANCH   5   6
HETATM    6  C4  UNL     1      -1.597  -3.290  -1.831  1.00  0.00     0.028 C 
BRANCH   6   7
HETATM    7  C3  UNL     1      -0.703  -3.621  -0.655  1.00  0.00     0.022 C 
BRANCH   7   8
HETATM    8  C2  UNL     1      -1.478  -3.581   0.631  1.00  0.00     0.122 C 
BRANCH   8   9
HETATM    9  N3  UNL     1      -2.552  -4.574   0.588  1.00  0.00    -0.365 N 
HETATM   10  C1  UNL     1      -2.286  -5.961   0.606  1.00  0.00     0.181 C 
HETATM   11  N1  UNL     1      -2.383  -6.660  -0.449  1.00  0.00    -0.374 N 
HETATM   12  N2  UNL     1      -1.901  -6.577   1.825  1.00  0.00    -0.064 NA
ATOM     13  H12 UNL     1      -2.191  -7.662  -0.436  1.00  0.00     0.158 HD
ATOM     14  H11 UNL     1      -2.660  -6.217  -1.325  1.00  0.00     0.158 HD
ATOM     15  H3  UNL     1      -3.520  -4.256   0.544  1.00  0.00     0.162 HD
ENDBRANCH   8   9
ENDBRANCH   7   8
ENDBRANCH   6   7
ENDBRANCH   5   6
ENDBRANCH   4   5
ENDBRANCH   2   4
ENDBRANCH   1   2
BRANCH   1  16
HETATM   16  C8  UNL     1       0.671   1.097  -0.252  1.00  0.00     0.159 C 
BRANCH  16  17
HETATM   17  N4  UNL     1       1.370  -0.128  -0.450  1.00  0.00    -0.341 N 
HETATM   18  C9  UNL     1       2.313  -0.576   0.530  1.00  0.00     0.316 C 
HETATM   19  O3  UNL     1       2.506   0.119   1.557  1.00  0.00    -0.247 OA
HETATM   20  N5  UNL     1       3.021  -1.789   0.348  1.00  0.00    -0.338 N 
ATOM     21  H5  UNL     1       2.860  -2.347  -0.491  1.00  0.00     0.164 HD
ATOM     22  H4  UNL     1       1.199  -0.685  -1.288  1.00  0.00     0.164 HD
BRANCH  20  23
HETATM   23  C10 UNL     1       3.959  -2.239   1.328  1.00  0.00     0.090 C 
HETATM   24  C11 UNL     1       5.390  -2.256   0.757  1.00  0.00     0.030 C 
HETATM   25  C12 UNL     1       5.844  -3.633   1.101  1.00  0.00    -0.012 C 
HETATM   26  C13 UNL     1       5.885  -3.747   2.603  1.00  0.00     0.005 C 
HETATM   27  C16 UNL     1       4.562  -4.431   0.801  1.00  0.00     0.011 C 
HETATM   28  C14 UNL     1       4.430  -3.897   3.059  1.00  0.00     0.007 C 
HETATM   29  C15 UNL     1       3.682  -3.649   1.796  1.00  0.00     0.009 C 
ENDBRANCH  20  23
ENDBRANCH  16  17
ENDBRANCH   1  16
BRANCH   1  30
HETATM   30  N6  UNL     1      -0.894   2.700  -1.144  1.00  0.00    -0.344 N 
HETATM   31  C17 UNL     1      -0.732   3.724  -2.110  1.00  0.00     0.252 C 
HETATM   32  O4  UNL     1      -0.077   3.551  -3.167  1.00  0.00    -0.271 OA
ATOM     33  H6  UNL     1      -1.433   2.880  -0.297  1.00  0.00     0.163 HD
BRANCH  31  34
HETATM   34  C18 UNL     1      -1.358   5.042  -1.860  1.00  0.00     0.314 C 
HETATM   35  C19 UNL     1      -0.284   6.085  -1.520  1.00  0.00     0.048 C 
HETATM   36  C20 UNL     1      -1.046   7.055  -0.646  1.00  0.00     0.038 C 
HETATM   37  C21 UNL     1      -2.415   6.490  -0.500  1.00  0.00     0.224 C 
HETATM   38  C22 UNL     1      -3.020   6.668   0.869  1.00  0.00     0.036 C 
HETATM   39  N7  UNL     1      -2.169   5.063  -0.682  1.00  0.00     0.106 N 
HETATM   40  C23 UNL     1      -4.117   5.735   1.198  1.00  0.00     0.004 C 
HETATM   41  C24 UNL     1      -4.191   4.479   0.419  1.00  0.00     0.030 C 
HETATM   42  C25 UNL     1      -3.494   4.498  -0.897  1.00  0.00     0.274 C 
ENDBRANCH  31  34
ENDBRANCH   1  30
TORSDOF 12
