REMARK  9 active torsions:
REMARK  status: ('A' for Active; 'I' for Inactive)
REMARK    1  A    between atoms: N1_8  and  C8_9 
REMARK    2  A    between atoms: C8_9  and  C9_10 
REMARK    3  A    between atoms: C9_10  and  C10_11 
REMARK    4  A    between atoms: C10_11  and  C11_12 
REMARK    5  A    between atoms: C14_15  and  S1_16 
REMARK    6  A    between atoms: S1_16  and  N2_19 
REMARK    7  A    between atoms: N2_19  and  C15_21 
REMARK    8  A    between atoms: C22_29  and  N3_31 
REMARK       I    between atoms: N3_31  and  C24_33 
REMARK    9  A    between atoms: C24_33  and  C25_35 
ROOT
HETATM    1  C1  UNL     1      -1.283  -2.178  -4.179  1.00  0.00     0.048 C 
HETATM    2  C2  UNL     1      -1.883  -1.704  -2.909  1.00  0.00    -0.060 A 
HETATM    3  C3  UNL     1      -2.840  -2.487  -2.310  1.00  0.00     0.007 A 
HETATM    4  C4  UNL     1      -3.443  -2.116  -1.135  1.00  0.00     0.013 A 
HETATM    5  C5  UNL     1      -3.132  -0.946  -0.486  1.00  0.00     0.006 A 
HETATM    6  C6  UNL     1      -2.169  -0.142  -1.068  1.00  0.00     0.047 A 
HETATM    7  C7  UNL     1      -1.558  -0.532  -2.274  1.00  0.00     0.037 A 
HETATM    8  N1  UNL     1      -1.935   0.980  -0.235  1.00  0.00    -0.315 N 
HETATM    9  C21 UNL     1      -2.756   0.883   0.889  1.00  0.00     0.257 C 
HETATM   10  O3  UNL     1      -2.770   1.650   1.908  1.00  0.00    -0.270 OA
HETATM   11  C22 UNL     1      -3.660  -0.285   0.747  1.00  0.00     0.140 C 
HETATM   12  C23 UNL     1      -3.519  -1.129   1.967  1.00  0.00     0.055 C 
ENDROOT
BRANCH   8  13
HETATM   13  C8  UNL     1      -1.026   2.058  -0.503  1.00  0.00     0.132 C 
BRANCH  13  14
HETATM   14  C9  UNL     1       0.344   1.914   0.052  1.00  0.00     0.025 C 
BRANCH  14  15
HETATM   15  C10 UNL     1       1.132   0.731  -0.383  1.00  0.00     0.040 C 
BRANCH  15  16
HETATM   16  C11 UNL     1       2.460   0.815   0.284  1.00  0.00    -0.058 A 
HETATM   17  C12 UNL     1       3.492   1.477  -0.335  1.00  0.00     0.009 A 
HETATM   18  C13 UNL     1       4.738   1.590   0.225  1.00  0.00     0.026 A 
HETATM   19  C14 UNL     1       5.004   1.027   1.464  1.00  0.00     0.079 A 
HETATM   20  C19 UNL     1       3.980   0.357   2.105  1.00  0.00     0.026 A 
HETATM   21  C20 UNL     1       2.731   0.259   1.513  1.00  0.00     0.009 A 
BRANCH  19  22
HETATM   22  S1  UNL     1       6.590   1.203   2.165  1.00  0.00     0.259 S 
HETATM   23  O1  UNL     1       6.353   1.223   3.679  1.00  0.00    -0.201 OA
HETATM   24  O2  UNL     1       7.081   2.559   1.718  1.00  0.00    -0.201 OA
BRANCH  22  25
HETATM   25  N2  UNL     1       7.579  -0.064   1.781  1.00  0.00    -0.307 N 
ATOM     26  H2  UNL     1       7.933  -0.635   2.549  1.00  0.00     0.173 HD
BRANCH  25  27
HETATM   27  C15 UNL     1       7.964  -0.410   0.500  1.00  0.00     0.029 C 
HETATM   28  C16 UNL     1       9.103  -1.461   0.603  1.00  0.00     0.038 C 
HETATM   29  C17 UNL     1       8.487   0.680  -0.386  1.00  0.00     0.038 C 
HETATM   30  C18 UNL     1       6.867  -1.141  -0.247  1.00  0.00     0.038 C 
ENDBRANCH  25  27
ENDBRANCH  22  25
ENDBRANCH  19  22
ENDBRANCH  15  16
ENDBRANCH  14  15
ENDBRANCH  13  14
ENDBRANCH   8  13
BRANCH  11  31
HETATM   31  N3  UNL     1      -4.988   0.271   0.573  1.00  0.00    -0.339 N 
HETATM   32  C24 UNL     1      -6.202  -0.427   0.515  1.00  0.00     0.226 C 
HETATM   33  O4  UNL     1      -6.243  -1.662   0.626  1.00  0.00    -0.273 OA
ATOM     34  H3  UNL     1      -5.045   1.285   0.483  1.00  0.00     0.164 HD
BRANCH  32  35
HETATM   35  C25 UNL     1      -7.520   0.259   0.318  1.00  0.00     0.030 C 
HETATM   36  C26 UNL     1      -8.655  -0.736   0.295  1.00  0.00     0.024 C 
HETATM   37  C27 UNL     1      -7.545   1.054  -0.961  1.00  0.00     0.024 C 
HETATM   38  C28 UNL     1      -7.796   1.205   1.483  1.00  0.00     0.024 C 
ENDBRANCH  32  35
ENDBRANCH  11  31
TORSDOF 9
