REMARK  7 active torsions:
REMARK  status: ('A' for Active; 'I' for Inactive)
REMARK    1  A    between atoms: C2_2  and  C5_5 
REMARK    2  A    between atoms: C5_5  and  O1_7 
REMARK    3  A    between atoms: C5_5  and  C7_9 
REMARK    4  A    between atoms: C7_9  and  S1_10 
REMARK    5  A    between atoms: S1_10  and  C8_11 
REMARK    6  A    between atoms: C8_11  and  N1_13 
REMARK    7  A    between atoms: N1_13  and  N2_15 
ROOT
HETATM    1  C7  UNL     1       0.179   1.249  -1.082  1.00  0.00     0.119 C 
ENDROOT
BRANCH   1   2
HETATM    2  C5  UNL     1      -0.485  -0.086  -0.994  1.00  0.00     0.069 C 
HETATM    3  C6  UNL     1      -1.243  -0.266  -2.312  1.00  0.00     0.047 C 
BRANCH   2   4
HETATM    4  C2  UNL     1      -1.433  -0.227   0.175  1.00  0.00    -0.020 C 
HETATM    5  C1  UNL     1      -2.535   0.806   0.134  1.00  0.00     0.017 C 
HETATM    6  C3  UNL     1      -2.123  -1.593   0.055  1.00  0.00     0.017 C 
HETATM    7  C4  UNL     1      -0.774  -0.183   1.518  1.00  0.00     0.017 C 
ENDBRANCH   2   4
BRANCH   2   8
HETATM    8  O1  UNL     1       0.457  -1.085  -0.914  1.00  0.00    -0.389 OA
ATOM      9  H1  UNL     1       1.053  -0.996  -1.649  1.00  0.00     0.210 HD
ENDBRANCH   2   8
ENDBRANCH   1   2
BRANCH   1  10
HETATM   10  S1  UNL     1       1.182   1.709   0.302  1.00  0.00    -0.096 SA
BRANCH  10  11
HETATM   11  C8  UNL     1       2.710   0.861   0.492  1.00  0.00     0.152 C 
HETATM   12  S2  UNL     1       3.336  -0.191  -0.574  1.00  0.00    -0.051 SA
BRANCH  11  13
HETATM   13  N1  UNL     1       3.468   1.153   1.683  1.00  0.00    -0.291 N 
ATOM     14  H1  UNL     1       3.103   1.824   2.359  1.00  0.00     0.188 HD
BRANCH  13  15
HETATM   15  N2  UNL     1       4.697   0.529   1.924  1.00  0.00    -0.344 N 
ATOM     16  H22 UNL     1       5.047  -0.139   1.238  1.00  0.00     0.176 HD
ATOM     17  H21 UNL     1       5.233   0.736   2.767  1.00  0.00     0.176 HD
ENDBRANCH  13  15
ENDBRANCH  11  13
ENDBRANCH  10  11
ENDBRANCH   1  10
TORSDOF 7
