REMARK  2 active torsions:
REMARK  status: ('A' for Active; 'I' for Inactive)
REMARK    1  A    between atoms: C2_2  and  C4_5 
REMARK    2  A    between atoms: C4_5  and  C5_6 
ROOT
HETATM    1  C1  UNL     1       2.033   1.585  -0.089  1.00  0.00     0.025 C 
HETATM    2  C2  UNL     1       2.010   0.387   0.807  1.00  0.00     0.092 C 
HETATM    3  C3  UNL     1       3.433  -0.008   0.995  1.00  0.00     0.063 C 
HETATM    4  N1  UNL     1       4.534  -0.326   1.150  1.00  0.00    -0.197 NA
ENDROOT
BRANCH   2   5
HETATM    5  C4  UNL     1       1.274  -0.801   0.337  1.00  0.00     0.064 C 
BRANCH   5   6
HETATM    6  C5  UNL     1      -0.174  -0.696   0.068  1.00  0.00     0.116 C 
HETATM    7  C6  UNL     1      -0.613  -2.116  -0.378  1.00  0.00     0.055 C 
HETATM    8  O1  UNL     1      -0.910  -0.375   1.229  1.00  0.00    -0.371 OA
HETATM    9  C7  UNL     1      -2.248  -0.333   0.921  1.00  0.00     0.189 C 
HETATM   10  C8  UNL     1      -2.531   1.035   0.305  1.00  0.00     0.147 C 
HETATM   11  N2  UNL     1      -1.659   1.156  -0.837  1.00  0.00    -0.376 N 
HETATM   12  C9  UNL     1      -0.600   0.196  -1.019  1.00  0.00     0.105 C 
ATOM     13  H2  UNL     1      -1.790   1.913  -1.508  1.00  0.00     0.160 HD
HETATM   14  N3  UNL     1      -0.057   0.149  -2.184  1.00  0.00    -0.387 N 
ATOM     15  H32 UNL     1       0.693  -0.531  -2.313  1.00  0.00     0.157 HD
ATOM     16  H31 UNL     1      -0.353   0.768  -2.939  1.00  0.00     0.157 HD
ENDBRANCH   5   6
ENDBRANCH   2   5
TORSDOF 2
