REMARK  6 active torsions:
REMARK  status: ('A' for Active; 'I' for Inactive)
REMARK    1  A    between atoms: C2_2  and  C3_3 
REMARK    2  A    between atoms: C3_3  and  N1_4 
REMARK    3  A    between atoms: N1_4  and  C4_5 
REMARK    4  A    between atoms: C4_5  and  C5_6 
REMARK    5  A    between atoms: C5_6  and  N2_7 
REMARK       I    between atoms: N2_7  and  C6_9 
REMARK    6  A    between atoms: C6_9  and  C7_11 
ROOT
HETATM    1  C7  UNL     1       2.965  -0.071  -1.232  1.00  0.00     0.209 C 
HETATM    2  C8  UNL     1       3.432  -1.042  -0.158  1.00  0.00     0.155 C 
HETATM    3  N3  UNL     1       4.791  -1.443  -0.346  1.00  0.00    -0.383 N 
ATOM      4  H3  UNL     1       5.072  -2.150  -1.025  1.00  0.00     0.160 HD
HETATM    5  C9  UNL     1       5.725  -0.763   0.506  1.00  0.00     0.193 C 
HETATM    6  N4  UNL     1       5.461   0.620   0.697  1.00  0.00    -0.189 N 
ATOM      7  H4  UNL     1       5.822   1.022   1.562  1.00  0.00     0.184 HD
HETATM    8  C10 UNL     1       4.765   1.516  -0.150  1.00  0.00     0.673 C 
HETATM    9  N5  UNL     1       5.101   2.776  -0.085  1.00  0.00    -0.235 N 
ATOM     10  H51 UNL     1       4.600   3.421  -0.695  1.00  0.00     0.174 HD
ATOM     11  H52 UNL     1       5.840   3.038   0.567  1.00  0.00     0.174 HD
HETATM   12  N6  UNL     1       3.730   1.149  -1.063  1.00  0.00    -0.212 N 
ATOM     13  H6  UNL     1       3.481   1.886  -1.722  1.00  0.00     0.178 HD
ENDROOT
BRANCH   1  14
HETATM   14  C6  UNL     1       1.520   0.177  -1.156  1.00  0.00     0.242 C 
HETATM   15  N2  UNL     1       0.538  -0.836  -1.286  1.00  0.00    -0.358 N 
ATOM     16  H2  UNL     1       0.869  -1.788  -1.443  1.00  0.00     0.162 HD
HETATM   17  O1  UNL     1       1.132   1.356  -0.964  1.00  0.00    -0.271 OA
BRANCH  15  18
HETATM   18  C5  UNL     1      -0.884  -0.639  -1.216  1.00  0.00     0.150 C 
BRANCH  18  19
HETATM   19  C4  UNL     1      -1.357  -0.074   0.098  1.00  0.00     0.258 C 
BRANCH  19  20
HETATM   20  N1  UNL     1      -2.799   0.106   0.125  1.00  0.00    -0.055 N 
HETATM   21  C11 UNL     1      -3.566  -0.119  -1.080  1.00  0.00     0.271 A 
HETATM   22  C12 UNL     1      -3.367   1.234  -0.571  1.00  0.00     0.213 A 
HETATM   23  C13 UNL     1      -4.567   1.957  -0.032  1.00  0.00     0.042 C 
BRANCH  20  24
HETATM   24  C3  UNL     1      -3.391  -0.240   1.404  1.00  0.00     0.265 C 
BRANCH  24  25
HETATM   25  C2  UNL     1      -4.693  -0.906   1.314  1.00  0.00    -0.009 C 
HETATM   26  C1  UNL     1      -4.928  -2.121   1.792  1.00  0.00     0.008 C 
ENDBRANCH  24  25
ENDBRANCH  20  24
ENDBRANCH  19  20
ENDBRANCH  18  19
ENDBRANCH  15  18
ENDBRANCH   1  14
TORSDOF 6
