REMARK  10 active torsions:
REMARK  status: ('A' for Active; 'I' for Inactive)
REMARK    1  A    between atoms: C2_2  and  C3_3 
REMARK    2  A    between atoms: C3_3  and  C4_4 
REMARK    3  A    between atoms: C4_4  and  C5_5 
REMARK    4  A    between atoms: C5_5  and  N1_6 
REMARK    5  A    between atoms: C5_5  and  C9_17 
REMARK       I    between atoms: N1_6  and  C6_8 
REMARK    6  A    between atoms: C6_8  and  C7_10 
REMARK    7  A    between atoms: C7_10  and  C8_11 
REMARK    8  A    between atoms: N2_12  and  N3_14 
REMARK       I    between atoms: C9_17  and  N4_19 
REMARK    9  A    between atoms: N4_19  and  C10_21 
REMARK   10  A    between atoms: C10_21  and  C11_22 
REMARK       I    between atoms: C11_22  and  N5_24 
ROOT
HETATM    1  C5  UNL     1      -2.177   0.112  -0.120  1.00  0.00     0.177 C 
ENDROOT
BRANCH   1   2
HETATM    2  C4  UNL     1      -2.616   1.455   0.399  1.00  0.00     0.038 C 
BRANCH   2   3
HETATM    3  C3  UNL     1      -1.734   1.941   1.494  1.00  0.00     0.029 C 
BRANCH   3   4
HETATM    4  C2  UNL     1      -2.204   3.254   2.048  1.00  0.00    -0.037 C 
HETATM    5  C1  UNL     1      -3.255   3.831   1.550  1.00  0.00     0.007 C 
ENDBRANCH   3   4
ENDBRANCH   2   3
ENDBRANCH   1   2
BRANCH   1   6
HETATM    6  N1  UNL     1      -3.107  -0.284  -1.204  1.00  0.00    -0.348 N 
HETATM    7  C6  UNL     1      -3.852  -1.472  -1.025  1.00  0.00     0.223 C 
HETATM    8  O1  UNL     1      -3.745  -2.179   0.003  1.00  0.00    -0.273 OA
ATOM      9  H1  UNL     1      -3.206   0.280  -2.048  1.00  0.00     0.163 HD
BRANCH   7  10
HETATM   10  C7  UNL     1      -4.791  -1.894  -2.091  1.00  0.00     0.148 C 
BRANCH  10  11
HETATM   11  C8  UNL     1      -5.461  -3.164  -1.723  1.00  0.00     0.088 C 
HETATM   12  N2  UNL     1      -6.577  -3.208  -1.085  1.00  0.00    -0.322 N 
ATOM     13  H2  UNL     1      -7.003  -4.105  -0.853  1.00  0.00     0.185 HD
BRANCH  12  14
HETATM   14  N3  UNL     1      -7.206  -2.000  -0.709  1.00  0.00    -0.346 N 
ATOM     15  H32 UNL     1      -6.767  -1.111  -0.949  1.00  0.00     0.176 HD
ATOM     16  H31 UNL     1      -8.091  -2.035  -0.203  1.00  0.00     0.176 HD
ENDBRANCH  12  14
ENDBRANCH  10  11
ENDBRANCH   7  10
ENDBRANCH   1   6
BRANCH   1  17
HETATM   17  C9  UNL     1      -0.800   0.135  -0.639  1.00  0.00     0.240 C 
HETATM   18  O2  UNL     1      -0.556   0.234  -1.890  1.00  0.00    -0.271 OA
HETATM   19  N4  UNL     1       0.303   0.039   0.232  1.00  0.00    -0.351 N 
ATOM     20  H4  UNL     1       0.142  -0.046   1.236  1.00  0.00     0.163 HD
BRANCH  19  21
HETATM   21  C10 UNL     1       1.667   0.059  -0.272  1.00  0.00     0.225 C 
BRANCH  21  22
HETATM   22  C11 UNL     1       2.650  -0.060   0.824  1.00  0.00     0.237 C 
HETATM   23  O3  UNL     1       2.236  -0.163   1.996  1.00  0.00    -0.272 OA
HETATM   24  N5  UNL     1       4.035  -0.060   0.567  1.00  0.00    -0.351 N 
HETATM   25  C12 UNL     1       4.459   0.066  -0.808  1.00  0.00     0.126 C 
HETATM   26  C16 UNL     1       4.938  -0.185   1.684  1.00  0.00     0.126 C 
HETATM   27  C13 UNL     1       5.891  -0.150  -1.082  1.00  0.00     0.020 C 
HETATM   28  C14 UNL     1       6.811   0.139   0.076  1.00  0.00     0.003 C 
HETATM   29  C15 UNL     1       6.341  -0.525   1.350  1.00  0.00     0.020 C 
ENDBRANCH  21  22
ENDBRANCH  19  21
ENDBRANCH   1  17
TORSDOF 10
