REMARK  3 active torsions:
REMARK  status: ('A' for Active; 'I' for Inactive)
REMARK    1  A    between atoms: C4_6  and  N2_7 
REMARK    2  A    between atoms: N2_7  and  O1_8 
REMARK    3  A    between atoms: N3_10  and  O2_11 
ROOT
HETATM    1  N1  UNL     1       3.164   1.318   0.886  1.00  0.00    -0.190 NA
HETATM    2  C1  UNL     1       2.304   0.661   0.475  1.00  0.00     0.120 C 
HETATM    3  C2  UNL     1       1.216  -0.155  -0.057  1.00  0.00     0.146 C 
HETATM    4  C3  UNL     1       1.305  -0.716  -1.232  1.00  0.00     0.091 C 
HETATM    5  S1  UNL     1      -0.230  -1.600  -1.472  1.00  0.00    -0.092 SA
HETATM    6  C4  UNL     1      -1.121  -0.655  -0.152  1.00  0.00     0.301 C 
HETATM    7  N3  UNL     1       0.047  -0.377   0.672  1.00  0.00    -0.217 N 
ENDROOT
BRANCH   7   8
HETATM    8  O2  UNL     1      -0.102  -0.359   2.049  1.00  0.00    -0.284 OA
ATOM      9  H2  UNL     1      -0.898  -0.510   2.545  1.00  0.00     0.245 HD
ENDBRANCH   7   8
BRANCH   6  10
HETATM   10  N2  UNL     1      -1.624   0.531  -0.787  1.00  0.00    -0.064 NA
BRANCH  10  11
HETATM   11  O1  UNL     1      -2.301   1.313   0.080  1.00  0.00    -0.293 OA
ATOM     12  H1  UNL     1      -2.634   2.097  -0.340  1.00  0.00     0.238 HD
ENDBRANCH  10  11
ENDBRANCH   6  10
TORSDOF 3
