REMARK  3 active torsions:
REMARK  status: ('A' for Active; 'I' for Inactive)
REMARK    1  A    between atoms: C2_2  and  N1_5 
REMARK    2  A    between atoms: N1_5  and  C5_7 
REMARK    3  A    between atoms: N4_16  and  C9_17 
ROOT
HETATM    1  C5  UNL     1      -0.650   0.934   0.062  1.00  0.00     0.140 A 
HETATM    2  C6  UNL     1      -1.440   2.012  -0.168  1.00  0.00     0.158 A 
HETATM    3  N2  UNL     1      -2.878   1.995  -0.305  1.00  0.00    -0.092 NA
HETATM    4  C7  UNL     1      -0.919   3.312  -0.297  1.00  0.00     0.277 A 
HETATM    5  O1  UNL     1      -1.707   4.270  -0.510  1.00  0.00    -0.266 OA
HETATM    6  N3  UNL     1       0.400   3.470  -0.188  1.00  0.00    -0.274 N 
ATOM      7  H3  UNL     1       0.809   4.400  -0.278  1.00  0.00     0.173 HD
HETATM    8  C8  UNL     1       1.190   2.416   0.038  1.00  0.00     0.333 A 
HETATM    9  O2  UNL     1       2.442   2.633   0.133  1.00  0.00    -0.246 OA
HETATM   10  N4  UNL     1       0.699   1.174   0.162  1.00  0.00    -0.256 N 
ENDROOT
BRANCH  10  11
HETATM   11  C9  UNL     1       1.660   0.107   0.401  1.00  0.00     0.239 C 
HETATM   12  C10 UNL     1       2.010  -0.689  -0.807  1.00  0.00     0.133 C 
HETATM   13  C11 UNL     1       3.477  -0.759  -1.132  1.00  0.00     0.249 C 
HETATM   14  F1  UNL     1       3.937   0.312  -1.866  1.00  0.00    -0.206 F 
HETATM   15  F2  UNL     1       3.655  -1.873  -1.968  1.00  0.00    -0.206 F 
HETATM   16  C12 UNL     1       4.327  -1.025   0.109  1.00  0.00     0.105 C 
HETATM   17  C13 UNL     1       3.716  -0.314   1.308  1.00  0.00     0.176 C 
HETATM   18  O3  UNL     1       2.858   0.707   0.846  1.00  0.00    -0.366 OA
ENDBRANCH  10  11
BRANCH   1  19
HETATM   19  N1  UNL     1      -1.116  -0.365   0.194  1.00  0.00    -0.366 N 
ATOM     20  H1  UNL     1      -0.346  -1.009   0.374  1.00  0.00     0.162 HD
BRANCH  19  21
HETATM   21  C2  UNL     1      -2.350  -1.056   0.151  1.00  0.00     0.021 C 
HETATM   22  C1  UNL     1      -2.053  -2.600   0.397  1.00  0.00     0.037 C 
HETATM   23  C3  UNL     1      -3.355  -0.750   1.208  1.00  0.00     0.037 C 
HETATM   24  C4  UNL     1      -2.999  -1.075  -1.205  1.00  0.00     0.037 C 
ENDBRANCH  19  21
ENDBRANCH   1  19
TORSDOF 3
