REMARK  8 active torsions:
REMARK  status: ('A' for Active; 'I' for Inactive)
REMARK    1  A    between atoms: O1_2  and  C2_3 
REMARK    2  A    between atoms: C6_8  and  O3_9 
REMARK    3  A    between atoms: C7_11  and  O4_12 
REMARK    4  A    between atoms: C13_20  and  C14_21 
REMARK    5  A    between atoms: C14_21  and  C15_22 
REMARK    6  A    between atoms: C16_24  and  C17_25 
REMARK    7  A    between atoms: C18_27  and  O8_28 
REMARK    8  A    between atoms: C19_30  and  O9_31 
ROOT
HETATM    1  C2  UNL     1      -3.799   0.705   1.470  1.00  0.00     0.195 A 
HETATM    2  O2  UNL     1      -2.542   0.825   1.154  1.00  0.00    -0.286 OA
HETATM    3  C3  UNL     1      -2.041   0.212   0.077  1.00  0.00     0.104 A 
HETATM    4  C4  UNL     1      -0.707   0.376  -0.210  1.00  0.00     0.016 A 
HETATM    5  C5  UNL     1      -0.164  -0.237  -1.307  1.00  0.00     0.114 A 
HETATM    6  C6  UNL     1      -0.983  -1.010  -2.100  1.00  0.00     0.134 A 
HETATM    7  C7  UNL     1      -2.339  -1.196  -1.837  1.00  0.00     0.121 A 
HETATM    8  C9  UNL     1      -2.859  -0.567  -0.727  1.00  0.00     0.085 A 
HETATM    9  C10 UNL     1      -4.194  -0.701  -0.402  1.00  0.00     0.198 A 
HETATM   10  O5  UNL     1      -4.994  -1.394  -1.092  1.00  0.00    -0.287 OA
HETATM   11  C11 UNL     1      -4.678  -0.049   0.725  1.00  0.00     0.048 A 
HETATM   12  C12 UNL     1      -6.100  -0.174   1.097  1.00  0.00     0.058 C 
HETATM   13  O6  UNL     1       1.212   0.082  -1.387  1.00  0.00    -0.342 OA
HETATM   14  C13 UNL     1       1.354   1.284  -0.695  1.00  0.00     0.136 C 
HETATM   15  C20 UNL     1       0.406   1.133   0.448  1.00  0.00     0.077 C 
ENDROOT
BRANCH  14  16
HETATM   16  C14 UNL     1       2.730   1.685  -0.332  1.00  0.00     0.067 C 
BRANCH  16  17
HETATM   17  C15 UNL     1       3.493   0.758   0.541  1.00  0.00     0.155 C 
HETATM   18  O7  UNL     1       4.763   1.350   0.752  1.00  0.00    -0.374 OA
HETATM   19  C16 UNL     1       5.527   0.342   1.346  1.00  0.00     0.166 C 
HETATM   20  C18 UNL     1       5.261  -0.847   0.480  1.00  0.00     0.179 C 
HETATM   21  C19 UNL     1       3.913  -0.529  -0.153  1.00  0.00     0.178 C 
BRANCH  19  22
HETATM   22  C17 UNL     1       6.949   0.787   1.281  1.00  0.00     0.145 C 
HETATM   23  S1  UNL     1       7.361   1.588   0.189  1.00  0.00    -0.124 SA
ENDBRANCH  19  22
BRANCH  20  24
HETATM   24  O8  UNL     1       5.199  -2.012   1.216  1.00  0.00    -0.390 OA
ATOM     25  H8  UNL     1       5.030  -2.768   0.666  1.00  0.00     0.210 HD
ENDBRANCH  20  24
BRANCH  21  26
HETATM   26  O9  UNL     1       4.072  -0.244  -1.514  1.00  0.00    -0.390 OA
ATOM     27  H9  UNL     1       4.334  -1.048  -1.947  1.00  0.00     0.210 HD
ENDBRANCH  21  26
ENDBRANCH  16  17
ENDBRANCH  14  16
BRANCH   6  28
HETATM   28  O3  UNL     1      -0.485  -1.658  -3.230  1.00  0.00    -0.356 OA
ATOM     29  H3  UNL     1      -1.050  -2.191  -3.777  1.00  0.00     0.218 HD
ENDBRANCH   6  28
BRANCH   7  30
HETATM   30  O4  UNL     1      -3.116  -1.991  -2.677  1.00  0.00    -0.352 OA
HETATM   31  C8  UNL     1      -3.145  -3.392  -2.369  1.00  0.00     0.210 C 
ENDBRANCH   7  30
BRANCH   1  32
HETATM   32  O1  UNL     1      -4.333   1.344   2.598  1.00  0.00    -0.335 OA
HETATM   33  C1  UNL     1      -4.952   2.596   2.372  1.00  0.00     0.212 C 
ENDBRANCH   1  32
TORSDOF 8
