REMARK  8 active torsions:
REMARK  status: ('A' for Active; 'I' for Inactive)
REMARK    1  A    between atoms: N1_7  and  N2_8 
REMARK    2  A    between atoms: C6_9  and  N3_10 
REMARK    3  A    between atoms: N3_10  and  C7_12 
REMARK    4  A    between atoms: C7_12  and  C8_13 
REMARK    5  A    between atoms: C8_13  and  N4_14 
REMARK    6  A    between atoms: C11_17  and  O2_18 
REMARK    7  A    between atoms: C13_21  and  O3_22 
REMARK    8  A    between atoms: C16_26  and  O4_27 
ROOT
HETATM    1  N2  UNL     1      -0.755   0.884  -0.442  1.00  0.00    -0.188 N 
HETATM    2  C6  UNL     1       0.117  -0.174  -0.301  1.00  0.00     0.162 A 
HETATM    3  C11 UNL     1      -0.406  -1.429   0.038  1.00  0.00     0.125 A 
HETATM    4  C12 UNL     1      -1.805  -1.514   0.213  1.00  0.00     0.051 A 
HETATM    5  C13 UNL     1      -2.313  -2.770   0.560  1.00  0.00     0.088 A 
HETATM    6  C14 UNL     1      -3.709  -2.875   0.749  1.00  0.00     0.006 A 
HETATM    7  C15 UNL     1      -4.319  -4.200   1.124  1.00  0.00     0.054 C 
HETATM    8  C16 UNL     1      -4.484  -1.797   0.595  1.00  0.00     0.081 A 
HETATM    9  C17 UNL     1      -4.015  -0.529   0.250  1.00  0.00    -0.011 A 
HETATM   10  C18 UNL     1      -4.923   0.622   0.105  1.00  0.00     0.052 C 
HETATM   11  C19 UNL     1      -2.652  -0.453   0.070  1.00  0.00     0.058 A 
HETATM   12  C20 UNL     1      -2.067   0.747  -0.265  1.00  0.00     0.280 A 
HETATM   13  O5  UNL     1      -2.774   1.754  -0.412  1.00  0.00    -0.265 OA
ENDROOT
BRANCH   1  14
HETATM   14  N1  UNL     1      -0.215   2.120  -0.790  1.00  0.00    -0.171 N 
HETATM   15  C5  UNL     1       0.268   2.612  -2.046  1.00  0.00     0.276 A 
HETATM   16  C3  UNL     1       0.747   3.984  -1.889  1.00  0.00     0.019 A 
HETATM   17  O1  UNL     1       0.268   1.949  -3.092  1.00  0.00    -0.266 OA
HETATM   18  C2  UNL     1       0.569   4.315  -0.626  1.00  0.00     0.019 A 
HETATM   19  C4  UNL     1       1.336   4.863  -2.932  1.00  0.00     0.055 C 
HETATM   20  C1  UNL     1       0.911   5.624   0.030  1.00  0.00     0.055 C 
HETATM   21  C21 UNL     1      -0.017   3.224   0.114  1.00  0.00     0.276 A 
HETATM   22  O6  UNL     1      -0.320   3.189   1.328  1.00  0.00    -0.266 OA
ENDBRANCH   1  14
BRANCH   2  23
HETATM   23  N3  UNL     1       1.479   0.035  -0.496  1.00  0.00    -0.371 N 
ATOM     24  H3  UNL     1       1.728   0.989  -0.759  1.00  0.00     0.161 HD
BRANCH  23  25
HETATM   25  C7  UNL     1       2.581  -0.854  -0.391  1.00  0.00     0.141 C 
BRANCH  25  26
HETATM   26  C8  UNL     1       3.107  -1.065   1.012  1.00  0.00     0.135 C 
BRANCH  26  27
HETATM   27  N4  UNL     1       4.193  -1.992   0.916  1.00  0.00    -0.419 N 
HETATM   28  C9  UNL     1       4.876  -2.286   2.127  1.00  0.00     0.142 C 
HETATM   29  C10 UNL     1       4.993  -1.875  -0.260  1.00  0.00     0.142 C 
ENDBRANCH  26  27
ENDBRANCH  25  26
ENDBRANCH  23  25
ENDBRANCH   2  23
BRANCH   3  30
HETATM   30  O2  UNL     1       0.365  -2.479   0.184  1.00  0.00    -0.356 OA
ATOM     31  H2  UNL     1       0.010  -3.330   0.414  1.00  0.00     0.218 HD
ENDBRANCH   3  30
BRANCH   5  32
HETATM   32  O3  UNL     1      -1.617  -3.896   0.734  1.00  0.00    -0.359 OA
ATOM     33  H3  UNL     1      -1.962  -4.749   0.970  1.00  0.00     0.217 HD
ENDBRANCH   5  32
BRANCH   8  34
HETATM   34  O4  UNL     1      -5.874  -1.915   0.788  1.00  0.00    -0.359 OA
ATOM     35  H4  UNL     1      -6.425  -1.149   0.679  1.00  0.00     0.217 HD
ENDBRANCH   8  34
TORSDOF 8
