REMARK  15 active torsions:
REMARK  status: ('A' for Active; 'I' for Inactive)
REMARK    1  A    between atoms: C2_2  and  C3_3 
REMARK    2  A    between atoms: C3_3  and  N1_4 
REMARK       I    between atoms: N1_4  and  C4_6 
REMARK    3  A    between atoms: C4_6  and  C5_8 
REMARK       I    between atoms: N2_9  and  C6_10 
REMARK    4  A    between atoms: C6_10  and  C7_12 
REMARK    5  A    between atoms: C7_12  and  C8_13 
REMARK    6  A    between atoms: C7_12  and  C10_15 
REMARK    7  A    between atoms: C10_15  and  N3_16 
REMARK    8  A    between atoms: C10_15  and  C16_25 
REMARK       I    between atoms: N3_16  and  C11_18 
REMARK    9  A    between atoms: C11_18  and  O4_20 
REMARK   10  A    between atoms: O4_20  and  C12_21 
REMARK       I    between atoms: C16_25  and  N4_27 
REMARK       I    between atoms: N5_30  and  C19_31 
REMARK   11  A    between atoms: C19_31  and  O7_33 
REMARK   12  A    between atoms: O7_33  and  C20_34 
REMARK   13  A    between atoms: C20_34  and  C21_35 
REMARK   14  A    between atoms: C21_35  and  C22_36 
REMARK   15  A    between atoms: C22_36  and  C23_37 
ROOT
HETATM    1  C10 UNL     1      -0.497   1.410  -0.648  1.00  0.00     0.192 C 
ENDROOT
BRANCH   1   2
HETATM    2  C7  UNL     1      -0.858   0.346  -1.672  1.00  0.00     0.110 C 
BRANCH   2   3
HETATM    3  C6  UNL     1      -2.261  -0.139  -1.315  1.00  0.00     0.228 C 
HETATM    4  N2  UNL     1      -2.553  -1.035  -0.278  1.00  0.00    -0.312 N 
HETATM    5  C5  UNL     1      -3.870  -1.479   0.066  1.00  0.00     0.216 C 
HETATM    6  C27 UNL     1      -1.604  -1.642   0.595  1.00  0.00     0.361 C 
HETATM    7  C28 UNL     1      -3.660  -2.498   1.149  1.00  0.00     0.149 C 
HETATM    8  N6  UNL     1      -2.235  -2.857   1.048  1.00  0.00    -0.049 N 
HETATM    9  C29 UNL     1      -4.417  -3.770   0.881  1.00  0.00     0.049 C 
HETATM   10  C30 UNL     1      -3.922  -1.960   2.534  1.00  0.00     0.049 C 
ATOM     11  H62 UNL     1      -2.047  -3.671   0.463  1.00  0.00     0.280 HD
ATOM     12  H61 UNL     1      -1.837  -3.243   1.904  1.00  0.00     0.280 HD
HETATM   13  O2  UNL     1      -3.240   0.310  -2.011  1.00  0.00    -0.273 OA
BRANCH   5  14
HETATM   14  C4  UNL     1      -4.645  -2.039  -1.073  1.00  0.00     0.243 C 
HETATM   15  N1  UNL     1      -6.034  -2.227  -0.906  1.00  0.00    -0.356 N 
ATOM     16  H1  UNL     1      -6.463  -1.976  -0.015  1.00  0.00     0.162 HD
HETATM   17  O1  UNL     1      -4.156  -2.359  -2.183  1.00  0.00    -0.271 OA
BRANCH  15  18
HETATM   18  C3  UNL     1      -6.878  -2.770  -1.969  1.00  0.00     0.149 C 
BRANCH  18  19
HETATM   19  C2  UNL     1      -8.281  -2.841  -1.483  1.00  0.00    -0.018 C 
HETATM   20  C1  UNL     1      -8.876  -4.030  -1.446  1.00  0.00     0.008 C 
ENDBRANCH  18  19
ENDBRANCH  15  18
ENDBRANCH   5  14
ENDBRANCH   2   3
BRANCH   2  21
HETATM   21  C8  UNL     1      -1.007   0.876  -3.064  1.00  0.00     0.012 C 
HETATM   22  C9  UNL     1       0.181   1.414  -3.748  1.00  0.00     0.006 C 
ENDBRANCH   2  21
ENDBRANCH   1   2
BRANCH   1  23
HETATM   23  N3  UNL     1      -1.493   2.496  -0.739  1.00  0.00    -0.323 N 
HETATM   24  C11 UNL     1      -2.353   2.829   0.324  1.00  0.00     0.362 C 
HETATM   25  O3  UNL     1      -2.249   2.152   1.397  1.00  0.00    -0.238 OA
ATOM     26  H3  UNL     1      -1.561   3.026  -1.608  1.00  0.00     0.165 HD
BRANCH  24  27
HETATM   27  O4  UNL     1      -3.290   3.821   0.297  1.00  0.00    -0.294 OA
BRANCH  27  28
HETATM   28  C12 UNL     1      -4.105   4.079   1.415  1.00  0.00     0.061 C 
HETATM   29  C13 UNL     1      -3.289   4.453   2.636  1.00  0.00     0.046 C 
HETATM   30  C14 UNL     1      -5.023   5.254   1.104  1.00  0.00     0.046 C 
HETATM   31  C15 UNL     1      -4.948   2.863   1.740  1.00  0.00     0.046 C 
ENDBRANCH  27  28
ENDBRANCH  24  27
ENDBRANCH   1  23
BRANCH   1  32
HETATM   32  C16 UNL     1       0.849   1.990  -0.777  1.00  0.00     0.243 C 
HETATM   33  O5  UNL     1       0.972   3.246  -1.075  1.00  0.00    -0.271 OA
HETATM   34  N4  UNL     1       2.075   1.318  -0.605  1.00  0.00    -0.347 N 
HETATM   35  C17 UNL     1       3.317   2.047  -0.820  1.00  0.00     0.146 C 
HETATM   36  C26 UNL     1       2.121  -0.048  -0.202  1.00  0.00     0.146 C 
HETATM   37  C18 UNL     1       4.191   1.823   0.381  1.00  0.00     0.148 C 
HETATM   38  N5  UNL     1       4.380   0.390   0.485  1.00  0.00    -0.325 N 
HETATM   39  C19 UNL     1       5.663  -0.208   0.351  1.00  0.00     0.362 C 
HETATM   40  C25 UNL     1       3.228  -0.425   0.733  1.00  0.00     0.148 C 
HETATM   41  O6  UNL     1       5.761  -1.443   0.450  1.00  0.00    -0.238 OA
BRANCH  39  42
HETATM   42  O7  UNL     1       6.731   0.617   0.118  1.00  0.00    -0.304 OA
BRANCH  42  43
HETATM   43  C20 UNL     1       8.025   0.147  -0.020  1.00  0.00     0.180 C 
BRANCH  43  44
HETATM   44  C21 UNL     1       8.518  -0.513   1.221  1.00  0.00     0.027 C 
BRANCH  44  45
HETATM   45  C22 UNL     1       9.932  -1.014   1.100  1.00  0.00     0.002 C 
BRANCH  45  46
HETATM   46  C23 UNL     1      10.003  -2.024  -0.016  1.00  0.00    -0.004 C 
HETATM   47  C24 UNL     1      11.452  -2.491  -0.073  1.00  0.00     0.005 C 
ENDBRANCH  45  46
ENDBRANCH  44  45
ENDBRANCH  43  44
ENDBRANCH  42  43
ENDBRANCH  39  42
ENDBRANCH   1  32
TORSDOF 15
