REMARK  16 active torsions:
REMARK  status: ('A' for Active; 'I' for Inactive)
REMARK    1  A    between atoms: O1_2  and  N1_3 
REMARK    2  A    between atoms: C2_5  and  C3_6 
REMARK    3  A    between atoms: C2_5  and  C18_44 
REMARK       I    between atoms: C3_6  and  N2_8 
REMARK    4  A    between atoms: N2_8  and  C4_10 
REMARK    5  A    between atoms: C6_14  and  C7_15 
REMARK    6  A    between atoms: C9_19  and  S1_20 
REMARK    7  A    between atoms: S1_20  and  C10_21 
REMARK    8  A    between atoms: C12_25  and  O6_26 
REMARK    9  A    between atoms: C13_28  and  O7_29 
REMARK   10  A    between atoms: C15_35  and  C16_36 
REMARK   11  A    between atoms: C16_36  and  O9_37 
REMARK   12  A    between atoms: N6_39  and  O10_41 
REMARK   13  A    between atoms: C19_46  and  N7_47 
REMARK   14  A    between atoms: N7_47  and  O11_48 
REMARK   15  A    between atoms: N7_47  and  O12_50 
REMARK   16  A    between atoms: C21_53  and  N8_54 
ROOT
HETATM    1  C4  UNL     1       0.807   1.759   1.530  1.00  0.00     0.201 C 
HETATM    2  C5  UNL     1       0.655   3.125   0.868  1.00  0.00     0.246 C 
HETATM    3  O3  UNL     1       1.224   4.218   0.874  1.00  0.00    -0.271 OA
HETATM    4  N3  UNL     1      -0.466   2.574   0.215  1.00  0.00    -0.323 N 
HETATM    5  C6  UNL     1      -1.526   2.202  -0.679  1.00  0.00     0.219 C 
HETATM    6  C8  UNL     1      -2.027   0.876  -0.253  1.00  0.00    -0.026 C 
HETATM    7  C9  UNL     1      -2.746   0.022  -0.942  1.00  0.00     0.059 C 
HETATM    8  C15 UNL     1      -1.530   0.690   1.161  1.00  0.00     0.119 C 
HETATM    9  C17 UNL     1      -0.638   1.794   1.453  1.00  0.00     0.136 C 
ENDROOT
BRANCH   1  10
HETATM   10  N2  UNL     1       1.634   0.998   0.635  1.00  0.00    -0.340 N 
HETATM   11  C3  UNL     1       2.870   0.558   1.104  1.00  0.00     0.272 C 
HETATM   12  O2  UNL     1       3.197   0.840   2.300  1.00  0.00    -0.266 OA
ATOM     13  H2  UNL     1       1.326   0.786  -0.314  1.00  0.00     0.163 HD
BRANCH  11  14
HETATM   14  C2  UNL     1       3.826  -0.206   0.305  1.00  0.00     0.141 C 
HETATM   15  N1  UNL     1       3.636  -0.557  -0.867  1.00  0.00    -0.260 N 
ATOM     16  H1  UNL     1       4.440  -1.073  -1.225  1.00  0.00     0.194 HD
BRANCH  15  17
HETATM   17  O1  UNL     1       2.696  -0.457  -1.786  1.00  0.00    -0.285 OA
HETATM   18  C1  UNL     1       2.745  -0.011  -3.104  1.00  0.00     0.237 C 
ENDBRANCH  15  17
BRANCH  14  19
HETATM   19  C18 UNL     1       5.116  -0.591   0.970  1.00  0.00     0.073 A 
HETATM   20  S2  UNL     1       5.444  -0.336   2.660  1.00  0.00    -0.069 SA
HETATM   21  C19 UNL     1       6.962  -1.073   2.747  1.00  0.00     0.109 A 
HETATM   22  C20 UNL     1       7.180  -1.493   1.480  1.00  0.00     0.073 A 
HETATM   23  C21 UNL     1       6.213  -1.241   0.542  1.00  0.00     0.124 A 
BRANCH  21  24
HETATM   24  N7  UNL     1       7.838  -1.226   3.897  1.00  0.00    -0.029 NA
BRANCH  24  25
HETATM   25  O11 UNL     1       8.959  -0.514   3.764  1.00  0.00    -0.284 OA
ATOM     26  H11 UNL     1       9.531  -0.614   4.516  1.00  0.00     0.240 HD
ENDBRANCH  24  25
BRANCH  24  27
HETATM   27  O12 UNL     1       8.128  -2.552   3.999  1.00  0.00    -0.284 OA
ATOM     28  H12 UNL     1       8.700  -2.652   4.751  1.00  0.00     0.240 HD
ENDBRANCH  24  27
ENDBRANCH  21  24
BRANCH  23  29
HETATM   29  N8  UNL     1       6.450  -1.684  -0.825  1.00  0.00    -0.114 N 
HETATM   30  O13 UNL     1       7.126  -2.753  -1.030  1.00  0.00    -0.532 OA
HETATM   31  O14 UNL     1       6.011  -1.076  -1.933  1.00  0.00    -0.532 OA
ENDBRANCH  23  29
ENDBRANCH  14  19
ENDBRANCH  11  14
ENDBRANCH   1  10
BRANCH   8  32
HETATM   32  C16 UNL     1      -1.103  -0.676   1.442  1.00  0.00     0.145 C 
HETATM   33  N6  UNL     1      -1.586  -1.351   2.462  1.00  0.00    -0.250 N 
ATOM     34  H6  UNL     1      -1.281  -2.306   2.651  1.00  0.00     0.196 HD
BRANCH  32  35
HETATM   35  O9  UNL     1      -0.174  -1.413   0.711  1.00  0.00    -0.348 OA
ATOM     36  H9  UNL     1       0.104  -2.303   0.894  1.00  0.00     0.219 HD
ENDBRANCH  32  35
BRANCH  33  37
HETATM   37  O10 UNL     1      -2.513  -0.734   3.265  1.00  0.00    -0.288 OA
ATOM     38  H10 UNL     1      -2.862  -1.222   4.002  1.00  0.00     0.244 HD
ENDBRANCH  33  37
ENDBRANCH   8  32
BRANCH   5  39
HETATM   39  C7  UNL     1      -2.586   3.265  -0.654  1.00  0.00     0.201 C 
HETATM   40  O4  UNL     1      -2.415   4.246   0.139  1.00  0.00    -0.646 OA
HETATM   41  O5  UNL     1      -3.707   3.217  -1.440  1.00  0.00    -0.646 OA
ENDBRANCH   5  39
BRANCH   7  42
HETATM   42  S1  UNL     1      -3.258   0.354  -2.602  1.00  0.00    -0.065 SA
BRANCH  42  43
HETATM   43  C10 UNL     1      -4.936  -0.178  -2.821  1.00  0.00     0.151 C 
HETATM   44  N4  UNL     1      -5.104  -1.451  -3.200  1.00  0.00    -0.344 N 
HETATM   45  C11 UNL     1      -6.151  -2.279  -2.879  1.00  0.00     0.129 C 
ATOM     46  H4  UNL     1      -4.375  -1.849  -3.792  1.00  0.00     0.167 HD
HETATM   47  C12 UNL     1      -7.357  -1.914  -2.293  1.00  0.00     0.120 C 
HETATM   48  C13 UNL     1      -7.876  -0.655  -2.125  1.00  0.00     0.169 C 
HETATM   49  C14 UNL     1      -7.208   0.539  -2.362  1.00  0.00     0.283 C 
HETATM   50  O8  UNL     1      -7.916   1.557  -2.366  1.00  0.00    -0.265 OA
HETATM   51  N5  UNL     1      -5.880   0.734  -2.592  1.00  0.00    -0.301 N 
ATOM     52  H5  UNL     1      -5.567   1.705  -2.589  1.00  0.00     0.171 HD
BRANCH  47  53
HETATM   53  O6  UNL     1      -8.102  -2.995  -1.831  1.00  0.00    -0.357 OA
ATOM     54  H6  UNL     1      -8.926  -2.745  -1.430  1.00  0.00     0.218 HD
ENDBRANCH  47  53
BRANCH  48  55
HETATM   55  O7  UNL     1      -9.178  -0.585  -1.679  1.00  0.00    -0.354 OA
ATOM     56  H7  UNL     1      -9.537   0.287  -1.563  1.00  0.00     0.218 HD
ENDBRANCH  48  55
ENDBRANCH  42  43
ENDBRANCH   7  42
TORSDOF 16
