REMARK  4 active torsions:
REMARK  status: ('A' for Active; 'I' for Inactive)
REMARK    1  A    between atoms: C8_10  and  S1_11 
REMARK    2  A    between atoms: S1_11  and  N2_14 
REMARK    3  A    between atoms: N2_14  and  N3_16 
REMARK    4  A    between atoms: N3_16  and  C9_18 
ROOT
HETATM    1  N2  UNL     1      -0.654   2.172  -0.726  1.00  0.00    -0.222 N 
ATOM      2  H2  UNL     1      -1.023   2.412  -1.646  1.00  0.00     0.200 HD
ENDROOT
BRANCH   1   3
HETATM    3  S1  UNL     1      -1.670   2.139   0.677  1.00  0.00     0.279 S 
HETATM    4  O1  UNL     1      -2.719   3.213   0.440  1.00  0.00    -0.199 OA
HETATM    5  O2  UNL     1      -0.848   2.618   1.839  1.00  0.00    -0.199 OA
BRANCH   3   6
HETATM    6  C8  UNL     1      -2.386   0.590   0.925  1.00  0.00     0.115 A 
HETATM    7  C6  UNL     1      -1.859  -0.448   1.656  1.00  0.00     0.030 A 
HETATM    8  N1  UNL     1      -2.723  -1.506   1.616  1.00  0.00    -0.358 N 
HETATM    9  C7  UNL     1      -0.587  -0.518   2.396  1.00  0.00     0.070 C 
HETATM   10  C5  UNL     1      -3.788  -1.185   0.885  1.00  0.00     0.044 A 
ATOM     11  H1  UNL     1      -2.574  -2.404   2.076  1.00  0.00     0.166 HD
HETATM   12  C4  UNL     1      -4.934  -1.890   0.538  1.00  0.00     0.031 A 
HETATM   13  C21 UNL     1      -3.595   0.120   0.445  1.00  0.00     0.016 A 
HETATM   14  C3  UNL     1      -5.871  -1.256  -0.254  1.00  0.00     0.009 A 
HETATM   15  C2  UNL     1      -5.667   0.045  -0.685  1.00  0.00    -0.061 A 
HETATM   16  C1  UNL     1      -6.678   0.718  -1.536  1.00  0.00     0.048 C 
HETATM   17  C22 UNL     1      -4.536   0.733  -0.340  1.00  0.00     0.022 A 
ENDBRANCH   3   6
ENDBRANCH   1   3
BRANCH   1  18
HETATM   18  N3  UNL     1       0.694   1.855  -0.538  1.00  0.00    -0.290 N 
ATOM     19  H3  UNL     1       1.309   2.543  -0.103  1.00  0.00     0.187 HD
BRANCH  18  20
HETATM   20  C9  UNL     1       1.184   0.713  -0.900  1.00  0.00     0.063 A 
HETATM   21  C10 UNL     1       0.428  -0.273  -1.493  1.00  0.00     0.056 A 
HETATM   22  C11 UNL     1       1.044  -1.456  -1.843  1.00  0.00     0.008 A 
HETATM   23  C12 UNL     1       0.188  -2.504  -2.485  1.00  0.00     0.068 C 
HETATM   24  N4  UNL     1       2.354  -1.657  -1.615  1.00  0.00    -0.359 N 
HETATM   25  C13 UNL     1       3.123  -0.716  -1.038  1.00  0.00     0.045 A 
ATOM     26  H4  UNL     1       2.775  -2.545  -1.886  1.00  0.00     0.166 HD
HETATM   27  C14 UNL     1       4.468  -0.898  -0.794  1.00  0.00     0.037 A 
HETATM   28  C20 UNL     1       2.524   0.474  -0.681  1.00  0.00     0.019 A 
HETATM   29  C15 UNL     1       5.271   0.046  -0.207  1.00  0.00    -0.054 A 
HETATM   30  C16 UNL     1       6.710  -0.226   0.021  1.00  0.00     0.049 C 
HETATM   31  C17 UNL     1       4.682   1.236   0.151  1.00  0.00    -0.055 A 
HETATM   32  C18 UNL     1       5.539   2.277   0.791  1.00  0.00     0.049 C 
HETATM   33  C19 UNL     1       3.338   1.444  -0.081  1.00  0.00     0.023 A 
ENDBRANCH  18  20
ENDBRANCH   1  18
TORSDOF 4
