REMARK  5 active torsions:
REMARK  status: ('A' for Active; 'I' for Inactive)
REMARK       I    between atoms: N1_2  and  C2_4 
REMARK    1  A    between atoms: C2_4  and  C3_6 
REMARK    2  A    between atoms: C3_6  and  N2_7 
REMARK    3  A    between atoms: C3_6  and  C18_30 
REMARK       I    between atoms: N2_7  and  C4_9 
REMARK       I    between atoms: C4_9  and  N3_11 
REMARK    4  A    between atoms: N3_11  and  C5_13 
REMARK    5  A    between atoms: C7_17  and  C8_18 
ROOT
HETATM    1  C5  UNL     1       0.024  -1.165  -1.173  1.00  0.00     0.153 A 
HETATM    2  N4  UNL     1       1.058  -1.422  -1.970  1.00  0.00    -0.345 N 
ATOM      3  H4  UNL     1       0.916  -1.854  -2.883  1.00  0.00     0.167 HD
HETATM    4  C6  UNL     1       2.254  -1.112  -1.562  1.00  0.00     0.110 A 
HETATM    5  C7  UNL     1       2.376  -0.534  -0.325  1.00  0.00     0.034 A 
HETATM    6  S1  UNL     1       0.754  -0.463   0.199  1.00  0.00    -0.052 SA
ENDROOT
BRANCH   1   7
HETATM    7  N3  UNL     1      -1.245  -1.407  -1.416  1.00  0.00    -0.289 N 
HETATM    8  C4  UNL     1      -2.213  -1.067  -0.454  1.00  0.00     0.322 C 
HETATM    9  N2  UNL     1      -3.499  -0.683  -0.857  1.00  0.00    -0.329 N 
HETATM   10  O2  UNL     1      -1.934  -1.107   0.758  1.00  0.00    -0.247 OA
ATOM     11  H2  UNL     1      -3.700  -0.661  -1.857  1.00  0.00     0.165 HD
ATOM     12  H3  UNL     1      -1.526  -1.839  -2.297  1.00  0.00     0.172 HD
BRANCH   9  13
HETATM   13  C3  UNL     1      -4.566  -0.314   0.063  1.00  0.00     0.185 C 
BRANCH  13  14
HETATM   14  C2  UNL     1      -5.653  -1.290  -0.080  1.00  0.00     0.240 C 
HETATM   15  N1  UNL     1      -6.843  -1.347   0.681  1.00  0.00    -0.364 N 
HETATM   16  C1  UNL     1      -7.840  -2.386   0.414  1.00  0.00     0.149 C 
ATOM     17  H1  UNL     1      -7.008  -0.662   1.419  1.00  0.00     0.161 HD
HETATM   18  O1  UNL     1      -5.523  -2.189  -0.982  1.00  0.00    -0.271 OA
ENDBRANCH  13  14
BRANCH  13  19
HETATM   19  C18 UNL     1      -4.961   1.126  -0.134  1.00  0.00    -0.022 C 
HETATM   20  C19 UNL     1      -5.543   1.415  -1.478  1.00  0.00     0.017 C 
HETATM   21  C20 UNL     1      -5.891   1.584   0.946  1.00  0.00     0.017 C 
HETATM   22  C21 UNL     1      -3.690   1.960   0.009  1.00  0.00     0.017 C 
ENDBRANCH  13  19
ENDBRANCH   9  13
ENDBRANCH   1   7
BRANCH   5  23
HETATM   23  C8  UNL     1       3.616  -0.094   0.357  1.00  0.00    -0.017 A 
HETATM   24  C9  UNL     1       3.542   0.470   1.610  1.00  0.00     0.015 A 
HETATM   25  C10 UNL     1       4.673   0.892   2.275  1.00  0.00     0.039 A 
HETATM   26  C11 UNL     1       5.910   0.750   1.684  1.00  0.00     0.086 A 
HETATM   27  O3  UNL     1       7.154   1.030   2.015  1.00  0.00    -0.314 OA
HETATM   28  C16 UNL     1       5.966   0.176   0.416  1.00  0.00     0.007 A 
HETATM   29  C12 UNL     1       7.989   0.689   1.080  1.00  0.00     0.056 A 
HETATM   30  C13 UNL     1       9.467   0.844   1.084  1.00  0.00     0.077 C 
HETATM   31  C14 UNL     1       7.283   0.136   0.030  1.00  0.00    -0.020 A 
HETATM   32  C15 UNL     1       7.811  -0.388  -1.237  1.00  0.00     0.052 C 
HETATM   33  C17 UNL     1       4.828  -0.238  -0.232  1.00  0.00     0.027 A 
ENDBRANCH   5  23
TORSDOF 5
