REMARK  8 active torsions:
REMARK  status: ('A' for Active; 'I' for Inactive)
REMARK    1  A    between atoms: C1_2  and  C2_3 
REMARK       I    between atoms: C1_2  and  N2_16 
REMARK    2  A    between atoms: C2_3  and  C3_4 
REMARK    3  A    between atoms: C3_4  and  N1_5 
REMARK       I    between atoms: N1_5  and  C4_7 
REMARK    4  A    between atoms: C4_7  and  C5_9 
REMARK    5  A    between atoms: N2_16  and  C9_18 
REMARK    6  A    between atoms: C14_25  and  S2_26 
REMARK    7  A    between atoms: S2_26  and  N3_29 
REMARK    8  A    between atoms: N3_29  and  C15_31 
ROOT
HETATM    1  O1  UNL     1       1.278  -1.537  -2.093  1.00  0.00    -0.273 OA
HETATM    2  C1  UNL     1       0.796  -0.771  -1.257  1.00  0.00     0.223 C 
HETATM    3  N2  UNL     1      -0.527  -0.311  -1.250  1.00  0.00    -0.326 N 
ATOM      4  H2  UNL     1      -0.774   0.322  -0.489  1.00  0.00     0.169 HD
ENDROOT
BRANCH   3   5
HETATM    5  C9  UNL     1      -1.575  -0.616  -2.173  1.00  0.00     0.060 A 
HETATM    6  C10 UNL     1      -1.442  -1.557  -3.157  1.00  0.00     0.033 A 
HETATM    7  C11 UNL     1      -2.509  -1.839  -3.998  1.00  0.00     0.028 A 
HETATM    8  C12 UNL     1      -3.709  -1.192  -3.868  1.00  0.00     0.057 A 
HETATM    9 CL3  UNL     1      -5.042  -1.555  -4.928  1.00  0.00    -0.083 Cl
HETATM   10  C13 UNL     1      -3.831  -0.246  -2.875  1.00  0.00     0.081 A 
HETATM   11 CL4  UNL     1      -5.384   0.615  -2.740  1.00  0.00    -0.081 Cl
HETATM   12  C14 UNL     1      -2.791   0.049  -2.032  1.00  0.00     0.129 A 
BRANCH  12  13
HETATM   13  S2  UNL     1      -2.986   1.305  -0.832  1.00  0.00     0.263 S 
HETATM   14  O3  UNL     1      -4.296   2.032  -1.187  1.00  0.00    -0.200 OA
HETATM   15  O4  UNL     1      -1.944   2.376  -0.920  1.00  0.00    -0.200 OA
BRANCH  13  16
HETATM   16  N3  UNL     1      -3.187   0.747   0.751  1.00  0.00    -0.310 N 
ATOM     17  H3  UNL     1      -2.516   0.988   1.480  1.00  0.00     0.172 HD
BRANCH  16  18
HETATM   18  C15 UNL     1      -4.312  -0.063   1.037  1.00  0.00     0.093 A 
HETATM   19  C16 UNL     1      -4.865  -0.003   2.418  1.00  0.00     0.028 A 
HETATM   20  C17 UNL     1      -4.119  -1.214   2.044  1.00  0.00     0.028 A 
ENDBRANCH  16  18
ENDBRANCH  13  16
ENDBRANCH  12  13
ENDBRANCH   3   5
BRANCH   2  21
HETATM   21  C2  UNL     1       1.716  -0.298  -0.157  1.00  0.00     0.123 C 
BRANCH  21  22
HETATM   22  C3  UNL     1       3.058  -0.923  -0.384  1.00  0.00     0.132 C 
BRANCH  22  23
HETATM   23  N1  UNL     1       4.037  -0.562   0.595  1.00  0.00    -0.356 N 
HETATM   24  C4  UNL     1       4.464   0.763   0.838  1.00  0.00     0.253 C 
HETATM   25  O2  UNL     1       3.970   1.696   0.166  1.00  0.00    -0.268 OA
ATOM     26  H1  UNL     1       4.453  -1.308   1.153  1.00  0.00     0.162 HD
BRANCH  24  27
HETATM   27  C5  UNL     1       5.493   1.019   1.889  1.00  0.00     0.062 A 
HETATM   28  C6  UNL     1       5.169   1.265   3.171  1.00  0.00     0.050 A 
HETATM   29  C7  UNL     1       6.198   1.486   4.046  1.00  0.00     0.077 A 
HETATM   30 CL1  UNL     1       6.070   1.832   5.782  1.00  0.00    -0.076 Cl
HETATM   31  S1  UNL     1       7.580   1.344   3.065  1.00  0.00    -0.065 SA
HETATM   32  C8  UNL     1       6.828   1.011   1.576  1.00  0.00     0.091 A 
HETATM   33 CL2  UNL     1       7.553   0.718  -0.018  1.00  0.00    -0.075 Cl
ENDBRANCH  24  27
ENDBRANCH  22  23
ENDBRANCH  21  22
ENDBRANCH   2  21
TORSDOF 8
