REMARK  12 active torsions:
REMARK  status: ('A' for Active; 'I' for Inactive)
REMARK    1  A    between atoms: O1_2  and  N1_3 
REMARK    2  A    between atoms: C2_5  and  C3_6 
REMARK    3  A    between atoms: C2_5  and  N3_12 
REMARK    4  A    between atoms: C3_6  and  C4_7 
REMARK    5  A    between atoms: C4_7  and  N2_8 
REMARK    6  A    between atoms: C5_14  and  C6_15 
REMARK    7  A    between atoms: C6_15  and  S1_16 
REMARK    8  A    between atoms: S1_16  and  C7_17 
REMARK    9  A    between atoms: C8_20  and  N5_21 
REMARK   10  A    between atoms: C10_27  and  N7_28 
REMARK   11  A    between atoms: N7_28  and  C11_30 
REMARK   12  A    between atoms: C12_33  and  C13_34 
ROOT
HETATM    1  C7  UNL     1      -2.107  -0.550   0.542  1.00  0.00     0.147 A 
HETATM    2  N4  UNL     1      -2.023  -1.330  -0.549  1.00  0.00    -0.321 N 
ATOM      3  H4  UNL     1      -2.834  -1.877  -0.837  1.00  0.00     0.169 HD
HETATM    4  C8  UNL     1      -0.892  -1.402  -1.265  1.00  0.00     0.132 A 
HETATM    5  C9  UNL     1       0.231  -0.685  -0.923  1.00  0.00     0.137 A 
HETATM    6  N6  UNL     1       1.475  -0.534  -1.403  1.00  0.00    -0.184 N 
ATOM      7  H6  UNL     1       1.864  -0.991  -2.228  1.00  0.00     0.184 HD
HETATM    8  C10 UNL     1       2.118   0.336  -0.591  1.00  0.00     0.699 A 
HETATM    9  N14 UNL     1       1.311   0.734   0.385  1.00  0.00    -0.173 N 
ATOM     10  H14 UNL     1       1.543   1.388   1.133  1.00  0.00     0.186 HD
HETATM   11  C18 UNL     1       0.132   0.116   0.205  1.00  0.00     0.154 A 
HETATM   12  N15 UNL     1      -1.022   0.154   0.889  1.00  0.00    -0.320 N 
ATOM     13  H15 UNL     1      -1.075   0.750   1.715  1.00  0.00     0.169 HD
ENDROOT
BRANCH   8  14
HETATM   14  N7  UNL     1       3.460   0.785  -0.728  1.00  0.00    -0.022 N 
ATOM     15  H7  UNL     1       3.641   1.754  -0.990  1.00  0.00     0.203 HD
BRANCH  14  16
HETATM   16  C11 UNL     1       4.449  -0.012  -0.527  1.00  0.00     0.699 A 
HETATM   17  N8  UNL     1       5.703   0.442  -0.664  1.00  0.00    -0.177 N 
HETATM   18  C12 UNL     1       6.791  -0.330  -0.472  1.00  0.00     0.131 A 
ATOM     19  H8  UNL     1       5.840   1.418  -0.926  1.00  0.00     0.185 HD
HETATM   20  N12 UNL     1       6.634  -1.623  -0.125  1.00  0.00    -0.333 N 
HETATM   21  C16 UNL     1       5.366  -2.099   0.018  1.00  0.00     0.094 A 
ATOM     22  H12 UNL     1       7.442  -2.228   0.026  1.00  0.00     0.168 HD
HETATM   23  C17 UNL     1       5.150  -3.527   0.401  1.00  0.00     0.089 C 
HETATM   24  N13 UNL     1       4.300  -1.302  -0.181  1.00  0.00    -0.180 N 
ATOM     25  H13 UNL     1       3.361  -1.684  -0.067  1.00  0.00     0.185 HD
BRANCH  18  26
HETATM   26  C13 UNL     1       8.118   0.301  -0.656  1.00  0.00     0.245 C 
HETATM   27  N9  UNL     1       8.206   1.601  -0.021  1.00  0.00    -0.345 N 
HETATM   28  C14 UNL     1       9.517   1.695   0.518  1.00  0.00     0.191 C 
ATOM     29  H9  UNL     1       7.472   2.308   0.029  1.00  0.00     0.163 HD
HETATM   30  N10 UNL     1      10.119   2.911   1.002  1.00  0.00    -0.063 NA
HETATM   31  N11 UNL     1      10.082   0.545   0.512  1.00  0.00    -0.299 N 
HETATM   32  C15 UNL     1       9.215  -0.438  -0.031  1.00  0.00     0.254 C 
ATOM     33  H11 UNL     1      11.026   0.361   0.851  1.00  0.00     0.171 HD
HETATM   34  O2  UNL     1       9.398  -1.669   0.039  1.00  0.00    -0.270 OA
ENDBRANCH  18  26
ENDBRANCH  14  16
ENDBRANCH   8  14
BRANCH   4  35
HETATM   35  N5  UNL     1      -0.847  -2.156  -2.301  1.00  0.00    -0.383 N 
ATOM     36  H52 UNL     1      -1.680  -2.688  -2.555  1.00  0.00     0.157 HD
ATOM     37  H51 UNL     1       0.014  -2.211  -2.846  1.00  0.00     0.157 HD
ENDBRANCH   4  35
BRANCH   1  38
HETATM   38  S1  UNL     1      -3.601  -0.428   1.522  1.00  0.00    -0.089 SA
BRANCH  38  39
HETATM   39  C6  UNL     1      -4.575   0.946   0.798  1.00  0.00     0.127 C 
BRANCH  39  40
HETATM   40  C5  UNL     1      -4.970   0.470  -0.574  1.00  0.00     0.073 C 
HETATM   41  N3  UNL     1      -6.199   0.289  -0.893  1.00  0.00    -0.357 N 
ATOM     42  H3  UNL     1      -6.409  -0.034  -1.837  1.00  0.00     0.166 HD
BRANCH  41  43
HETATM   43  C2  UNL     1      -7.283   0.513  -0.006  1.00  0.00     0.102 C 
HETATM   44  N1  UNL     1      -7.918   1.634  -0.024  1.00  0.00    -0.255 N 
ATOM     45  H1  UNL     1      -8.696   1.785   0.618  1.00  0.00     0.195 HD
BRANCH  44  46
HETATM   46  O1  UNL     1      -7.557   2.627  -0.900  1.00  0.00    -0.284 OA
HETATM   47  C1  UNL     1      -7.013   3.829  -0.401  1.00  0.00     0.237 C 
ENDBRANCH  44  46
BRANCH  43  48
HETATM   48  C3  UNL     1      -7.673  -0.556   0.938  1.00  0.00     0.105 C 
BRANCH  48  49
HETATM   49  C4  UNL     1      -8.072  -1.816   0.178  1.00  0.00     0.237 C 
BRANCH  49  50
HETATM   50  N2  UNL     1      -9.195  -1.478  -0.678  1.00  0.00    -0.079 N 
ATOM     51  H23 UNL     1      -9.972  -1.061  -0.166  1.00  0.00     0.274 HD
ATOM     52  H22 UNL     1      -9.001  -0.688  -1.294  1.00  0.00     0.274 HD
ATOM     53  H21 UNL     1      -9.462  -2.321  -1.186  1.00  0.00     0.274 HD
ENDBRANCH  49  50
ENDBRANCH  48  49
ENDBRANCH  43  48
ENDBRANCH  41  43
ENDBRANCH  39  40
ENDBRANCH  38  39
ENDBRANCH   1  38
TORSDOF 12
