REMARK  6 active torsions:
REMARK  status: ('A' for Active; 'I' for Inactive)
REMARK    1  A    between atoms: C2_2  and  N1_3 
REMARK    2  A    between atoms: N1_3  and  C3_4 
REMARK    3  A    between atoms: C3_4  and  C4_5 
REMARK    4  A    between atoms: C4_5  and  O1_6 
REMARK    5  A    between atoms: C4_5  and  N2_8 
REMARK       I    between atoms: N2_8  and  C5_10 
REMARK       I    between atoms: C5_10  and  N3_12 
REMARK    6  A    between atoms: N3_12  and  C6_14 
ROOT
HETATM    1  N2  UNL     1       0.950  -0.259   0.667  1.00  0.00    -0.315 N 
ATOM      2  H2  UNL     1       1.136  -1.201   1.010  1.00  0.00     0.166 HD
HETATM    3  C5  UNL     1       2.000   0.458   0.014  1.00  0.00     0.318 C 
HETATM    4  O2  UNL     1       1.785   1.620  -0.414  1.00  0.00    -0.247 OA
HETATM    5  N3  UNL     1       3.288  -0.089  -0.173  1.00  0.00    -0.336 N 
ATOM      6  H3  UNL     1       3.478  -1.031   0.169  1.00  0.00     0.164 HD
ENDROOT
BRANCH   1   7
HETATM    7  C4  UNL     1      -0.374   0.310   0.858  1.00  0.00     0.247 C 
BRANCH   7   8
HETATM    8  C3  UNL     1      -1.331  -0.595   0.143  1.00  0.00     0.290 C 
BRANCH   8   9
HETATM    9  N1  UNL     1      -2.695  -0.209   0.140  1.00  0.00    -0.063 N 
HETATM   10  C10 UNL     1      -3.409  -1.241  -0.639  1.00  0.00     0.237 C 
HETATM   11  C11 UNL     1      -4.761  -0.664  -0.895  1.00  0.00     0.029 C 
HETATM   12  C12 UNL     1      -4.462   0.819  -0.923  1.00  0.00     0.029 C 
HETATM   13  C13 UNL     1      -2.984   0.971  -0.623  1.00  0.00     0.237 C 
BRANCH   9  14
HETATM   14  C2  UNL     1      -3.350  -0.129   1.393  1.00  0.00     0.233 C 
HETATM   15  C1  UNL     1      -3.193  -1.295   2.300  1.00  0.00     0.035 C 
ENDBRANCH   9  14
ENDBRANCH   8   9
ENDBRANCH   7   8
BRANCH   7  16
HETATM   16  O1  UNL     1      -0.646   0.474   2.209  1.00  0.00    -0.375 OA
ATOM     17  H1  UNL     1      -0.039   1.048   2.662  1.00  0.00     0.212 HD
ENDBRANCH   7  16
ENDBRANCH   1   7
BRANCH   5  18
HETATM   18  C6  UNL     1       4.341   0.638  -0.830  1.00  0.00     0.112 C 
HETATM   19  C7  UNL     1       5.583   0.750   0.029  1.00  0.00     0.148 C 
HETATM   20  N4  UNL     1       6.685   0.721  -0.939  1.00  0.00    -0.359 N 
HETATM   21  C8  UNL     1       6.192   0.349  -2.219  1.00  0.00     0.219 C 
ATOM     22  H4  UNL     1       7.659   0.936  -0.725  1.00  0.00     0.162 HD
HETATM   23  O3  UNL     1       6.851   0.451  -3.271  1.00  0.00    -0.274 OA
HETATM   24  C9  UNL     1       4.809  -0.151  -2.022  1.00  0.00     0.129 C 
ENDBRANCH   5  18
TORSDOF 6
