REMARK  12 active torsions:
REMARK  status: ('A' for Active; 'I' for Inactive)
REMARK    1  A    between atoms: O1_2  and  C2_3 
REMARK    2  A    between atoms: C2_3  and  O3_5 
REMARK    3  A    between atoms: O3_5  and  C3_6 
REMARK    4  A    between atoms: N1_8  and  C5_9 
REMARK    5  A    between atoms: C8_15  and  N3_16 
REMARK    6  A    between atoms: C9_21  and  O5_22 
REMARK    7  A    between atoms: C9_21  and  C10_24 
REMARK       I    between atoms: C10_24  and  N5_26 
REMARK    8  A    between atoms: N5_26  and  C11_28 
REMARK    9  A    between atoms: C11_28  and  C12_29 
REMARK       I    between atoms: C12_29  and  N6_31 
REMARK   10  A    between atoms: N6_31  and  N7_33 
REMARK   11  A    between atoms: N7_33  and  N8_34 
REMARK   12  A    between atoms: C13_37  and  O8_38 
ROOT
HETATM    1  C3  UNL     1      -1.736   1.600   0.785  1.00  0.00     0.186 C 
HETATM    2  C4  UNL     1      -2.287   0.464  -0.042  1.00  0.00     0.163 C 
HETATM    3  N1  UNL     1      -1.463  -0.689   0.251  1.00  0.00    -0.322 N 
HETATM    4  C9  UNL     1      -0.239  -0.220   0.843  1.00  0.00     0.247 C 
HETATM    5  C13 UNL     1      -0.732   0.936   1.677  1.00  0.00     0.215 C 
ENDROOT
BRANCH   4   6
HETATM    6  O5  UNL     1       0.347  -1.200   1.664  1.00  0.00    -0.361 OA
ATOM      7  H5  UNL     1       1.155  -0.890   2.055  1.00  0.00     0.213 HD
ENDBRANCH   4   6
BRANCH   4   8
HETATM    8  C10 UNL     1       0.719   0.201  -0.214  1.00  0.00     0.277 C 
HETATM    9  O6  UNL     1       0.411   1.012  -1.113  1.00  0.00    -0.268 OA
HETATM   10  N5  UNL     1       2.026  -0.329  -0.211  1.00  0.00    -0.348 N 
ATOM     11  H5  UNL     1       2.301  -0.990   0.516  1.00  0.00     0.163 HD
BRANCH  10  12
HETATM   12  C11 UNL     1       2.995   0.060  -1.242  1.00  0.00     0.226 C 
BRANCH  12  13
HETATM   13  C12 UNL     1       4.292  -0.619  -0.996  1.00  0.00     0.252 C 
HETATM   14  O7  UNL     1       4.485  -1.399  -0.031  1.00  0.00    -0.270 OA
HETATM   15  N6  UNL     1       5.370  -0.394  -1.875  1.00  0.00    -0.253 N 
ATOM     16  H6  UNL     1       5.225   0.235  -2.665  1.00  0.00     0.187 HD
BRANCH  15  17
HETATM   17  N7  UNL     1       6.627  -0.985  -1.725  1.00  0.00    -0.027 NA
BRANCH  17  18
HETATM   18  N8  UNL     1       7.385  -0.389  -0.718  1.00  0.00    -0.329 N 
ATOM     19  H82 UNL     1       7.044   0.394  -0.160  1.00  0.00     0.174 HD
ATOM     20  H81 UNL     1       8.303  -0.820  -0.608  1.00  0.00     0.174 HD
ENDBRANCH  17  18
ENDBRANCH  15  17
ENDBRANCH  12  13
ENDBRANCH  10  12
ENDBRANCH   4   8
BRANCH   3  21
HETATM   21  C5  UNL     1      -1.832  -2.010  -0.013  1.00  0.00     0.127 A 
HETATM   22  C6  UNL     1      -2.506  -2.841   0.845  1.00  0.00     0.123 A 
HETATM   23  C7  UNL     1      -2.820  -4.121   0.467  1.00  0.00     0.263 A 
HETATM   24  O4  UNL     1      -3.436  -4.904   1.229  1.00  0.00    -0.268 OA
HETATM   25  N2  UNL     1      -2.452  -4.532  -0.755  1.00  0.00    -0.156 N 
HETATM   26  C8  UNL     1      -1.794  -3.756  -1.619  1.00  0.00     0.680 A 
ATOM     27  H2  UNL     1      -2.686  -5.484  -1.038  1.00  0.00     0.187 HD
HETATM   28  N4  UNL     1      -1.497  -2.512  -1.233  1.00  0.00    -0.177 N 
ATOM     29  H4  UNL     1      -0.995  -1.909  -1.884  1.00  0.00     0.185 HD
BRANCH  26  30
HETATM   30  N3  UNL     1      -1.456  -4.201  -2.799  1.00  0.00    -0.234 N 
ATOM     31  H32 UNL     1      -1.683  -5.151  -3.094  1.00  0.00     0.174 HD
ATOM     32  H31 UNL     1      -0.953  -3.608  -3.459  1.00  0.00     0.174 HD
ENDBRANCH  26  30
ENDBRANCH   3  21
BRANCH   5  33
HETATM   33  O8  UNL     1       0.297   1.789   2.057  1.00  0.00    -0.387 OA
ATOM     34  H8  UNL     1       0.934   1.368   2.623  1.00  0.00     0.210 HD
ENDBRANCH   5  33
BRANCH   1  35
HETATM   35  O3  UNL     1      -2.765   2.218   1.553  1.00  0.00    -0.288 OA
BRANCH  35  36
HETATM   36  C2  UNL     1      -3.098   3.534   1.438  1.00  0.00     0.406 C 
HETATM   37  O2  UNL     1      -2.485   4.289   0.614  1.00  0.00    -0.229 OA
BRANCH  36  38
HETATM   38  O1  UNL     1      -4.098   4.112   2.195  1.00  0.00    -0.303 OA
HETATM   39  C1  UNL     1      -4.510   5.440   2.156  1.00  0.00     0.215 C 
ENDBRANCH  36  38
ENDBRANCH  35  36
ENDBRANCH   1  35
TORSDOF 12
