REMARK  9 active torsions:
REMARK  status: ('A' for Active; 'I' for Inactive)
REMARK    1  A    between atoms: O1_2  and  C2_3 
REMARK    2  A    between atoms: C2_3  and  O3_5 
REMARK    3  A    between atoms: O3_5  and  C3_6 
REMARK    4  A    between atoms: C10_14  and  O4_15 
REMARK    5  A    between atoms: C11_17  and  N1_18 
REMARK    6  A    between atoms: N1_18  and  C12_20 
REMARK    7  A    between atoms: C18_27  and  O5_29 
REMARK    8  A    between atoms: O5_29  and  C20_30 
REMARK    9  A    between atoms: C20_30  and  C21_32 
ROOT
HETATM    1  C3  UNL     1      -0.788  -1.024   0.918  1.00  0.00     0.085 C 
HETATM    2  C4  UNL     1      -1.576  -0.365   2.023  1.00  0.00     0.048 C 
HETATM    3  C5  UNL     1       0.111   0.036   0.213  1.00  0.00     0.042 C 
HETATM    4  C6  UNL     1       0.070  -0.047  -1.279  1.00  0.00    -0.027 C 
HETATM    5  C7  UNL     1       0.871   1.064  -1.918  1.00  0.00     0.014 C 
HETATM    6  C8  UNL     1       1.003   2.144  -0.891  1.00  0.00     0.048 C 
HETATM    7  C9  UNL     1       1.759   1.744   0.342  1.00  0.00     0.139 C 
HETATM    8  F1  UNL     1       1.211   2.568   1.336  1.00  0.00    -0.239 F 
HETATM    9  C10 UNL     1       3.158   2.075   0.162  1.00  0.00     0.181 C 
HETATM   10  C11 UNL     1       4.228   1.312   0.823  1.00  0.00     0.113 C 
HETATM   11  C13 UNL     1       3.895  -0.129   0.978  1.00  0.00     0.028 C 
HETATM   12  C14 UNL     1       2.593  -0.525   0.289  1.00  0.00     0.015 C 
HETATM   13  C15 UNL     1       1.424   0.304   0.787  1.00  0.00     0.002 C 
HETATM   14  C16 UNL     1       1.590   0.322   2.257  1.00  0.00     0.019 C 
HETATM   15  C17 UNL     1      -1.365   0.296  -1.744  1.00  0.00     0.049 C 
HETATM   16  C18 UNL     1      -2.365  -0.374  -0.933  1.00  0.00     0.078 C 
HETATM   17  C19 UNL     1      -3.523  -0.953  -1.740  1.00  0.00     0.047 C 
HETATM   18  C25 UNL     1      -1.827  -1.528  -0.054  1.00  0.00     0.019 C 
HETATM   19  C26 UNL     1      -3.099  -2.031   0.546  1.00  0.00     0.021 C 
HETATM   20  C27 UNL     1      -1.344  -2.626  -0.965  1.00  0.00     0.016 C 
HETATM   21  C28 UNL     1      -0.770  -2.208  -2.258  1.00  0.00     0.006 C 
HETATM   22  C29 UNL     1       0.438  -1.319  -1.921  1.00  0.00    -0.010 C 
HETATM   23  C30 UNL     1       1.085  -1.123  -3.302  1.00  0.00     0.011 C 
ENDROOT
BRANCH  16  24
HETATM   24  O5  UNL     1      -3.014   0.584  -0.092  1.00  0.00    -0.304 OA
BRANCH  24  25
HETATM   25  C20 UNL     1      -3.727   1.661  -0.553  1.00  0.00     0.318 C 
HETATM   26  O6  UNL     1      -3.838   1.841  -1.773  1.00  0.00    -0.257 OA
BRANCH  25  27
HETATM   27  C21 UNL     1      -4.362   2.604   0.366  1.00  0.00     0.149 A 
HETATM   28  C22 UNL     1      -5.087   3.698  -0.038  1.00  0.00     0.045 A 
HETATM   29  C23 UNL     1      -5.531   4.352   1.095  1.00  0.00     0.027 A 
HETATM   30  C24 UNL     1      -5.040   3.602   2.149  1.00  0.00     0.143 A 
HETATM   31  O7  UNL     1      -4.358   2.584   1.680  1.00  0.00    -0.317 OA
ENDBRANCH  25  27
ENDBRANCH  24  25
ENDBRANCH  16  24
BRANCH   1  32
HETATM   32  O3  UNL     1       0.140  -1.937   1.275  1.00  0.00    -0.286 OA
BRANCH  32  33
HETATM   33  C2  UNL     1       0.211  -3.091   1.946  1.00  0.00     0.406 C 
HETATM   34  O2  UNL     1      -0.791  -3.555   2.426  1.00  0.00    -0.229 OA
BRANCH  33  35
HETATM   35  O1  UNL     1       1.423  -3.757   2.095  1.00  0.00    -0.303 OA
HETATM   36  C1  UNL     1       1.508  -4.967   2.796  1.00  0.00     0.215 C 
ENDBRANCH  33  35
ENDBRANCH  32  33
ENDBRANCH   1  32
BRANCH   9  37
HETATM   37  O4  UNL     1       3.442   2.135  -1.227  1.00  0.00    -0.390 OA
ATOM     38  H4  UNL     1       4.359   2.352  -1.345  1.00  0.00     0.210 HD
ENDBRANCH   9  37
BRANCH  10  39
HETATM   39  N1  UNL     1       5.449   1.522   0.041  1.00  0.00    -0.383 N 
ATOM     40  H1  UNL     1       5.932   0.731  -0.384  1.00  0.00     0.160 HD
BRANCH  39  41
HETATM   41  C12 UNL     1       5.951   2.842  -0.117  1.00  0.00     0.166 C 
HETATM   42  S1  UNL     1       6.908   3.227  -1.386  1.00  0.00    -0.075 SA
ENDBRANCH  39  41
ENDBRANCH  10  39
TORSDOF 9
