REMARK  7 active torsions:
REMARK  status: ('A' for Active; 'I' for Inactive)
REMARK    1  A    between atoms: O1_1  and  N1_3 
REMARK    2  A    between atoms: C1_5  and  O2_6 
REMARK    3  A    between atoms: C1_5  and  C2_8 
REMARK    4  A    between atoms: C3_9  and  C4_10 
REMARK    5  A    between atoms: C19_29  and  C20_30 
REMARK    6  A    between atoms: C23_33  and  N3_34 
REMARK    7  A    between atoms: N4_37  and  C26_38 
ROOT
HETATM    1  C2  UNL     1      -3.121  -1.523  -0.785  1.00  0.00     0.109 C 
HETATM    2  C3  UNL     1      -4.526  -1.129  -0.351  1.00  0.00     0.176 C 
HETATM    3  O3  UNL     1      -4.820  -1.679   0.924  1.00  0.00    -0.324 OA
HETATM    4  C14 UNL     1      -3.965  -2.483   1.653  1.00  0.00     0.149 A 
HETATM    5  N2  UNL     1      -4.385  -3.378   2.562  1.00  0.00    -0.345 N 
ATOM      6  H2  UNL     1      -5.386  -3.476   2.730  1.00  0.00     0.167 HD
HETATM    7  C15 UNL     1      -3.530  -4.151   3.260  1.00  0.00     0.114 A 
HETATM    8  C16 UNL     1      -2.194  -4.009   3.027  1.00  0.00     0.050 A 
HETATM    9 CL1  UNL     1      -1.063  -4.996   3.918  1.00  0.00    -0.083 Cl
HETATM   10  C17 UNL     1      -1.682  -3.104   2.103  1.00  0.00     0.037 A 
HETATM   11  C18 UNL     1      -2.597  -2.337   1.414  1.00  0.00     0.004 A 
HETATM   12  C19 UNL     1      -2.246  -1.311   0.402  1.00  0.00     0.072 C 
ENDROOT
BRANCH  12  13
HETATM   13  C20 UNL     1      -0.824  -1.123   0.151  1.00  0.00    -0.033 A 
HETATM   14  C21 UNL     1      -0.145  -1.463  -0.970  1.00  0.00     0.013 A 
HETATM   15  C22 UNL     1       1.212  -1.223  -1.054  1.00  0.00     0.049 A 
HETATM   16  C23 UNL     1       1.952  -0.640  -0.041  1.00  0.00     0.103 A 
HETATM   17  N6  UNL     1       1.239  -0.313   1.064  1.00  0.00    -0.352 N 
HETATM   18  C33 UNL     1      -0.055  -0.532   1.169  1.00  0.00     0.097 A 
ATOM     19  H6  UNL     1       1.726   0.121   1.848  1.00  0.00     0.166 HD
BRANCH  16  20
HETATM   20  N3  UNL     1       3.345  -0.402  -0.139  1.00  0.00    -0.364 N 
HETATM   21  C24 UNL     1       3.996   0.234   1.000  1.00  0.00     0.144 C 
HETATM   22  C25 UNL     1       5.473  -0.108   1.028  1.00  0.00     0.144 C 
HETATM   23  N4  UNL     1       5.995   0.322  -0.288  1.00  0.00    -0.364 N 
HETATM   24  C31 UNL     1       5.458  -0.353  -1.423  1.00  0.00     0.144 C 
HETATM   25  C32 UNL     1       4.035  -0.791  -1.323  1.00  0.00     0.144 C 
BRANCH  23  26
HETATM   26  C26 UNL     1       6.963   1.352  -0.310  1.00  0.00     0.102 A 
HETATM   27  C27 UNL     1       7.596   1.698  -1.470  1.00  0.00     0.048 A 
HETATM   28  C28 UNL     1       8.551   2.723  -1.495  1.00  0.00     0.005 A 
HETATM   29  C29 UNL     1       8.824   3.359  -0.323  1.00  0.00     0.017 A 
HETATM   30  C30 UNL     1       8.183   3.006   0.846  1.00  0.00     0.089 A 
HETATM   31  N5  UNL     1       7.280   2.021   0.815  1.00  0.00    -0.352 N 
ATOM     32  H5  UNL     1       6.810   1.764   1.683  1.00  0.00     0.166 HD
ENDBRANCH  23  26
ENDBRANCH  16  20
ENDBRANCH  12  13
BRANCH   1  33
HETATM   33  C1  UNL     1      -3.158  -2.917  -1.305  1.00  0.00     0.143 C 
HETATM   34  N1  UNL     1      -2.547  -3.926  -0.813  1.00  0.00    -0.251 N 
ATOM     35  H1  UNL     1      -1.976  -3.764   0.017  1.00  0.00     0.196 HD
BRANCH  34  36
HETATM   36  O1  UNL     1      -2.589  -5.187  -1.292  1.00  0.00    -0.288 OA
ATOM     37  H1  UNL     1      -2.135  -5.937  -0.926  1.00  0.00     0.244 HD
ENDBRANCH  34  36
BRANCH  33  38
HETATM   38  O2  UNL     1      -3.930  -3.218  -2.453  1.00  0.00    -0.348 OA
ATOM     39  H2  UNL     1      -4.384  -2.468  -2.819  1.00  0.00     0.219 HD
ENDBRANCH  33  38
ENDBRANCH   1  33
BRANCH   2  40
HETATM   40  C4  UNL     1      -4.783   0.301  -0.286  1.00  0.00    -0.027 A 
HETATM   41  C5  UNL     1      -5.979   0.686   0.342  1.00  0.00     0.011 A 
HETATM   42  C6  UNL     1      -6.323   2.010   0.457  1.00  0.00     0.013 A 
HETATM   43  C7  UNL     1      -5.461   2.964  -0.061  1.00  0.00    -0.026 A 
HETATM   44  C8  UNL     1      -5.756   4.303   0.027  1.00  0.00     0.012 A 
HETATM   45  C12 UNL     1      -4.279   2.611  -0.684  1.00  0.00    -0.025 A 
HETATM   46  C9  UNL     1      -4.882   5.237  -0.498  1.00  0.00     0.001 A 
HETATM   47  C10 UNL     1      -3.699   4.891  -1.122  1.00  0.00     0.001 A 
HETATM   48  C11 UNL     1      -3.408   3.542  -1.207  1.00  0.00     0.012 A 
HETATM   49  C13 UNL     1      -3.962   1.255  -0.783  1.00  0.00     0.022 A 
ENDBRANCH   2  40
TORSDOF 7
