REMARK  12 active torsions:
REMARK  status: ('A' for Active; 'I' for Inactive)
REMARK    1  A    between atoms: C2_2  and  C3_3 
REMARK    2  A    between atoms: C4_4  and  C5_5 
REMARK    3  A    between atoms: C5_5  and  C6_6 
REMARK    4  A    between atoms: C8_11  and  C9_12 
REMARK    5  A    between atoms: C9_12  and  C10_13 
REMARK    6  A    between atoms: C10_13  and  N2_14 
REMARK    7  A    between atoms: N2_14  and  C11_16 
REMARK    8  A    between atoms: C15_20  and  S1_21 
REMARK    9  A    between atoms: S1_21  and  N3_22 
REMARK   10  A    between atoms: N5_32  and  C18_33 
REMARK   11  A    between atoms: C18_33  and  C19_34 
REMARK   12  A    between atoms: C19_34  and  C20_35 
ROOT
HETATM    1  C6  UNL     1      -0.920  -0.824   2.609  1.00  0.00     0.079 A 
HETATM    2  N1  UNL     1      -0.427  -1.171   1.423  1.00  0.00    -0.317 N 
ATOM      3  H1  UNL     1      -1.025  -1.606   0.720  1.00  0.00     0.169 HD
HETATM    4  C7  UNL     1       0.836  -0.945   1.174  1.00  0.00     0.263 A 
HETATM    5  O1  UNL     1       1.344  -1.273   0.027  1.00  0.00    -0.267 OA
HETATM    6  C8  UNL     1       1.603  -0.368   2.129  1.00  0.00     0.076 A 
HETATM    7  S2  UNL     1       0.442  -0.158   3.402  1.00  0.00    -0.067 SA
ENDROOT
BRANCH   1   8
HETATM    8  C5  UNL     1      -2.178  -0.963   3.078  1.00  0.00     0.068 C 
BRANCH   8   9
HETATM    9  C4  UNL     1      -3.148  -1.568   2.195  1.00  0.00     0.058 A 
HETATM   10  C3  UNL     1      -4.257  -0.924   1.689  1.00  0.00     0.039 A 
HETATM   11  N5  UNL     1      -4.944  -1.764   0.910  1.00  0.00    -0.344 N 
HETATM   12  C17 UNL     1      -4.255  -2.943   0.933  1.00  0.00     0.183 A 
HETATM   13  N4  UNL     1      -3.176  -2.814   1.709  1.00  0.00    -0.351 N 
ATOM     14  H4  UNL     1      -2.489  -3.543   1.899  1.00  0.00     0.166 HD
BRANCH  10  15
HETATM   15  C2  UNL     1      -4.658   0.462   2.029  1.00  0.00     0.055 C 
HETATM   16  C1  UNL     1      -3.807   1.540   1.473  1.00  0.00     0.011 C 
ENDBRANCH  10  15
BRANCH  11  17
HETATM   17  C18 UNL     1      -6.152  -1.584   0.130  1.00  0.00     0.134 C 
BRANCH  17  18
HETATM   18  C19 UNL     1      -5.977  -1.313  -1.310  1.00  0.00     0.058 C 
BRANCH  18  19
HETATM   19  C20 UNL     1      -5.210  -0.133  -1.689  1.00  0.00    -0.057 A 
HETATM   20  C21 UNL     1      -3.836  -0.234  -1.922  1.00  0.00     0.007 A 
HETATM   21  C22 UNL     1      -3.064   0.845  -2.292  1.00  0.00     0.001 A 
HETATM   22  C23 UNL     1      -3.710   2.062  -2.428  1.00  0.00     0.000 A 
HETATM   23  C24 UNL     1      -5.060   2.219  -2.211  1.00  0.00     0.001 A 
HETATM   24  C25 UNL     1      -5.793   1.115  -1.844  1.00  0.00     0.007 A 
ENDBRANCH  18  19
ENDBRANCH  17  18
ENDBRANCH  11  17
ENDBRANCH   8   9
ENDBRANCH   1   8
BRANCH   6  25
HETATM   25  C9  UNL     1       2.877  -0.024   2.174  1.00  0.00     0.041 C 
BRANCH  25  26
HETATM   26  C10 UNL     1       3.816  -0.208   1.110  1.00  0.00     0.090 C 
BRANCH  26  27
HETATM   27  N2  UNL     1       5.049   0.170   1.269  1.00  0.00    -0.366 N 
ATOM     28  H2  UNL     1       5.316   0.593   2.158  1.00  0.00     0.165 HD
BRANCH  27  29
HETATM   29  C11 UNL     1       6.039   0.023   0.268  1.00  0.00     0.033 A 
HETATM   30  C12 UNL     1       6.027  -1.006  -0.649  1.00  0.00     0.029 A 
HETATM   31  C13 UNL     1       7.011  -1.114  -1.611  1.00  0.00     0.004 A 
HETATM   32  C14 UNL     1       8.046  -0.184  -1.683  1.00  0.00     0.025 A 
HETATM   33  C15 UNL     1       8.072   0.855  -0.770  1.00  0.00     0.081 A 
HETATM   34  C16 UNL     1       7.080   0.945   0.184  1.00  0.00     0.054 A 
BRANCH  33  35
HETATM   35  S1  UNL     1       9.345   2.072  -0.793  1.00  0.00     0.256 S 
HETATM   36  O2  UNL     1      10.619   1.459  -1.301  1.00  0.00    -0.201 OA
HETATM   37  O3  UNL     1       9.623   2.596   0.587  1.00  0.00    -0.201 OA
BRANCH  35  38
HETATM   38  N3  UNL     1       8.895   3.394  -1.793  1.00  0.00    -0.324 N 
ATOM     39  H32 UNL     1       8.010   3.451  -2.297  1.00  0.00     0.169 HD
ATOM     40  H31 UNL     1       9.632   4.099  -1.806  1.00  0.00     0.169 HD
ENDBRANCH  35  38
ENDBRANCH  33  35
ENDBRANCH  27  29
ENDBRANCH  26  27
ENDBRANCH  25  26
ENDBRANCH   6  25
TORSDOF 12
