REMARK  12 active torsions:
REMARK  status: ('A' for Active; 'I' for Inactive)
REMARK    1  A    between atoms: C2_2  and  N1_4 
REMARK    2  A    between atoms: N1_4  and  C4_5 
REMARK    3  A    between atoms: N1_4  and  C20_31 
REMARK    4  A    between atoms: C4_5  and  O1_6 
REMARK    5  A    between atoms: C4_5  and  N2_8 
REMARK    6  A    between atoms: N2_8  and  C5_9 
REMARK    7  A    between atoms: N2_8  and  C14_25 
REMARK    8  A    between atoms: C5_9  and  C6_10 
REMARK    9  A    between atoms: N5_14  and  C7_15 
REMARK   10  A    between atoms: C7_15  and  C8_16 
REMARK   11  A    between atoms: C8_16  and  N6_17 
REMARK   12  A    between atoms: C20_31  and  C22_33 
ROOT
HETATM    1  N2  UNL     1      -2.006   0.579   0.555  1.00  0.00    -0.313 N 
ENDROOT
BRANCH   1   2
HETATM    2  C4  UNL     1      -2.853  -0.470   0.781  1.00  0.00     0.226 C 
BRANCH   2   3
HETATM    3  N1  UNL     1      -3.951  -1.170   0.327  1.00  0.00    -0.308 N 
BRANCH   3   4
HETATM    4  C2  UNL     1      -4.311  -2.364   1.212  1.00  0.00     0.085 C 
HETATM    5  C1  UNL     1      -4.412  -3.607   0.409  1.00  0.00     0.032 C 
HETATM    6  C3  UNL     1      -5.661  -2.104   1.875  1.00  0.00     0.032 C 
ENDBRANCH   3   4
BRANCH   3   7
HETATM    7  C20 UNL     1      -4.816  -1.118  -0.787  1.00  0.00     0.095 C 
HETATM    8  C21 UNL     1      -4.135  -1.497  -2.098  1.00  0.00     0.073 C 
BRANCH   7   9
HETATM    9  C22 UNL     1      -5.803  -0.072  -1.064  1.00  0.00     0.428 C 
HETATM   10  F1  UNL     1      -5.472   1.202  -1.238  1.00  0.00    -0.165 F 
HETATM   11  F2  UNL     1      -6.344  -0.457  -2.351  1.00  0.00    -0.165 F 
HETATM   12  F3  UNL     1      -6.997  -0.190  -0.295  1.00  0.00    -0.165 F 
ENDBRANCH   7   9
ENDBRANCH   3   7
ENDBRANCH   2   3
BRANCH   2  13
HETATM   13  O1  UNL     1      -2.430  -1.093   1.943  1.00  0.00    -0.332 OA
ATOM     14  H1  UNL     1      -1.674  -0.611   2.256  1.00  0.00     0.221 HD
ENDBRANCH   2  13
ENDBRANCH   1   2
BRANCH   1  15
HETATM   15  C5  UNL     1      -0.857   0.644   1.561  1.00  0.00     0.211 C 
BRANCH  15  16
HETATM   16  C6  UNL     1       0.250  -0.166   1.101  1.00  0.00     0.128 A 
HETATM   17  N3  UNL     1       0.222  -1.011   0.057  1.00  0.00    -0.269 N 
HETATM   18  N4  UNL     1       1.435  -1.548  -0.025  1.00  0.00    -0.003 NA
ATOM     19  H3  UNL     1      -0.573  -1.203  -0.552  1.00  0.00     0.185 HD
HETATM   20  N5  UNL     1       2.212  -1.066   0.929  1.00  0.00    -0.215 N 
HETATM   21  N7  UNL     1       1.488  -0.223   1.616  1.00  0.00    -0.272 N 
ATOM     22  H7  UNL     1       1.814   0.311   2.422  1.00  0.00     0.189 HD
BRANCH  20  23
HETATM   23  C7  UNL     1       3.619  -1.445   1.132  1.00  0.00     0.186 C 
BRANCH  23  24
HETATM   24  C8  UNL     1       4.507  -0.521   0.325  1.00  0.00     0.140 C 
BRANCH  24  25
HETATM   25  N6  UNL     1       5.882  -0.831   0.477  1.00  0.00    -0.411 N 
HETATM   26  C9  UNL     1       6.432  -0.569   1.752  1.00  0.00     0.117 C 
HETATM   27  C10 UNL     1       7.495   0.496   1.801  1.00  0.00     0.019 C 
HETATM   28  C11 UNL     1       8.560   0.127   0.790  1.00  0.00     0.003 C 
HETATM   29  C12 UNL     1       7.861   0.222  -0.572  1.00  0.00     0.019 C 
HETATM   30  C13 UNL     1       6.715  -0.721  -0.657  1.00  0.00     0.117 C 
ENDBRANCH  24  25
ENDBRANCH  23  24
ENDBRANCH  20  23
ENDBRANCH  15  16
ENDBRANCH   1  15
BRANCH   1  31
HETATM   31  C14 UNL     1      -1.903   1.698  -0.327  1.00  0.00    -0.007 C 
HETATM   32  C15 UNL     1      -2.756   2.896   0.052  1.00  0.00     0.053 C 
HETATM   33  C16 UNL     1      -2.883   3.782  -1.144  1.00  0.00     0.006 C 
HETATM   34  C17 UNL     1      -1.586   3.968  -1.897  1.00  0.00     0.001 C 
HETATM   35  C18 UNL     1      -1.055   2.645  -2.416  1.00  0.00     0.006 C 
HETATM   36  C19 UNL     1      -1.874   1.503  -1.774  1.00  0.00     0.053 C 
ENDBRANCH   1  31
TORSDOF 12
