REMARK  9 active torsions:
REMARK  status: ('A' for Active; 'I' for Inactive)
REMARK    1  A    between atoms: C2_2  and  C3_3 
REMARK    2  A    between atoms: C3_3  and  C4_4 
REMARK    3  A    between atoms: C4_4  and  C5_5 
REMARK    4  A    between atoms: C5_5  and  C6_6 
REMARK    5  A    between atoms: C6_6  and  O1_7 
REMARK    6  A    between atoms: O1_7  and  C7_8 
REMARK    7  A    between atoms: C7_8  and  C8_10 
REMARK    8  A    between atoms: C8_10  and  C9_11 
REMARK    9  A    between atoms: C9_11  and  N1_12 
ROOT
HETATM    1  N1  UNL     1       1.929   0.498  -0.769  1.00  0.00    -0.388 N 
ATOM      2  H1  UNL     1       1.380   1.292  -0.440  1.00  0.00     0.159 HD
HETATM    3  C10 UNL     1       3.013   0.232  -0.176  1.00  0.00     0.082 C 
HETATM    4  C11 UNL     1       3.861  -0.876  -0.573  1.00  0.00     0.208 C 
HETATM    5  O3  UNL     1       3.485  -1.824  -1.302  1.00  0.00    -0.285 OA
HETATM    6  C12 UNL     1       5.259  -0.949  -0.124  1.00  0.00     0.055 A 
HETATM    7  C13 UNL     1       6.102  -1.980  -0.475  1.00  0.00     0.072 A 
HETATM    8 CL1  UNL     1       5.433  -3.251  -1.512  1.00  0.00    -0.081 Cl
HETATM    9  C14 UNL     1       7.396  -2.019  -0.043  1.00  0.00     0.080 A 
HETATM   10 CL2  UNL     1       8.405  -3.364  -0.533  1.00  0.00    -0.081 Cl
HETATM   11  C15 UNL     1       7.912  -1.014   0.772  1.00  0.00     0.080 A 
HETATM   12 CL3  UNL     1       9.580  -1.061   1.332  1.00  0.00    -0.081 Cl
HETATM   13  C16 UNL     1       7.053   0.005   1.110  1.00  0.00     0.072 A 
HETATM   14 CL4  UNL     1       7.668   1.299   2.141  1.00  0.00    -0.081 Cl
HETATM   15  C17 UNL     1       5.746   0.061   0.683  1.00  0.00     0.051 A 
HETATM   16  C18 UNL     1       4.900   1.171   1.083  1.00  0.00     0.185 C 
HETATM   17  O4  UNL     1       5.412   2.207   1.531  1.00  0.00    -0.290 OA
HETATM   18  C19 UNL     1       3.414   1.115   0.975  1.00  0.00     0.220 C 
HETATM   19  C20 UNL     1       2.810   0.677   2.219  1.00  0.00     0.078 C 
HETATM   20  N2  UNL     1       2.306   0.330   3.214  1.00  0.00    -0.196 NA
ENDROOT
BRANCH   1  21
HETATM   21  C9  UNL     1       1.435  -0.254  -1.873  1.00  0.00     0.129 C 
BRANCH  21  22
HETATM   22  C8  UNL     1       0.188   0.392  -2.479  1.00  0.00     0.130 C 
BRANCH  22  23
HETATM   23  C7  UNL     1      -0.847   0.449  -1.420  1.00  0.00     0.260 C 
HETATM   24  O2  UNL     1      -0.620   0.016  -0.284  1.00  0.00    -0.265 OA
BRANCH  23  25
HETATM   25  O1  UNL     1      -2.070   0.997  -1.736  1.00  0.00    -0.321 OA
BRANCH  25  26
HETATM   26  C6  UNL     1      -3.166   1.131  -0.866  1.00  0.00     0.178 C 
BRANCH  26  27
HETATM   27  C5  UNL     1      -3.690  -0.154  -0.349  1.00  0.00     0.027 C 
BRANCH  27  28
HETATM   28  C4  UNL     1      -4.866   0.001   0.582  1.00  0.00     0.002 C 
BRANCH  28  29
HETATM   29  C3  UNL     1      -6.037   0.669  -0.048  1.00  0.00    -0.000 C 
BRANCH  29  30
HETATM   30  C2  UNL     1      -7.154   0.780   0.944  1.00  0.00    -0.005 C 
HETATM   31  C1  UNL     1      -7.619  -0.546   1.458  1.00  0.00     0.005 C 
ENDBRANCH  29  30
ENDBRANCH  28  29
ENDBRANCH  27  28
ENDBRANCH  26  27
ENDBRANCH  25  26
ENDBRANCH  23  25
ENDBRANCH  22  23
ENDBRANCH  21  22
ENDBRANCH   1  21
TORSDOF 9
