REMARK  5 active torsions:
REMARK  status: ('A' for Active; 'I' for Inactive)
REMARK       I    between atoms: N2_7  and  C6_8 
REMARK    1  A    between atoms: C6_8  and  C7_10 
REMARK    2  A    between atoms: C7_10  and  C8_11 
REMARK    3  A    between atoms: C7_10  and  N4_20 
REMARK       I    between atoms: N3_12  and  C9_14 
REMARK    4  A    between atoms: C9_14  and  C10_16 
REMARK       I    between atoms: N4_20  and  C14_22 
REMARK    5  A    between atoms: C14_22  and  C15_24 
ROOT
HETATM    1  N1  UNL     1      -1.784   6.178  -0.143  1.00  0.00    -0.195 NA
HETATM    2  C1  UNL     1      -1.475   5.410   0.631  1.00  0.00     0.084 C 
HETATM    3  C2  UNL     1      -1.048   4.430   1.634  1.00  0.00     0.194 C 
HETATM    4  C3  UNL     1      -2.137   4.365   2.683  1.00  0.00     0.042 C 
HETATM    5  C4  UNL     1      -3.215   3.640   1.864  1.00  0.00     0.023 C 
HETATM    6  C5  UNL     1      -2.442   2.734   0.924  1.00  0.00     0.127 C 
HETATM    7  N2  UNL     1      -1.059   3.077   1.121  1.00  0.00    -0.333 N 
HETATM    8  C6  UNL     1       0.100   2.282   0.901  1.00  0.00     0.248 C 
HETATM    9  O1  UNL     1       1.212   2.772   1.206  1.00  0.00    -0.271 OA
ENDROOT
BRANCH   8  10
HETATM   10  C7  UNL     1       0.066   0.908   0.331  1.00  0.00     0.215 C 
BRANCH  10  11
HETATM   11  C8  UNL     1      -0.207   1.008  -1.144  1.00  0.00     0.098 C 
HETATM   12  N3  UNL     1      -1.047   0.371  -1.799  1.00  0.00    -0.338 N 
HETATM   13  C9  UNL     1      -1.983  -0.597  -1.471  1.00  0.00     0.225 C 
ATOM     14  H3  UNL     1      -1.049   0.611  -2.790  1.00  0.00     0.167 HD
HETATM   15  O2  UNL     1      -2.552  -0.687  -0.337  1.00  0.00    -0.273 OA
BRANCH  13  16
HETATM   16  C10 UNL     1      -2.385  -1.618  -2.467  1.00  0.00     0.078 C 
HETATM   17  C11 UNL     1      -1.268  -2.580  -2.879  1.00  0.00     0.014 C 
HETATM   18  C12 UNL     1      -1.776  -2.451  -4.333  1.00  0.00     0.002 C 
HETATM   19  C13 UNL     1      -2.275  -1.070  -3.907  1.00  0.00     0.014 C 
ENDBRANCH  13  16
ENDBRANCH  10  11
BRANCH  10  20
HETATM   20  N4  UNL     1       1.421   0.344   0.373  1.00  0.00    -0.343 N 
HETATM   21  C14 UNL     1       1.542  -0.988   0.892  1.00  0.00     0.222 C 
HETATM   22  O3  UNL     1       0.513  -1.623   1.281  1.00  0.00    -0.273 OA
ATOM     23  H4  UNL     1       2.233   0.871   0.051  1.00  0.00     0.163 HD
BRANCH  21  24
HETATM   24  C15 UNL     1       2.844  -1.636   0.976  1.00  0.00     0.080 C 
HETATM   25  C16 UNL     1       3.032  -2.764  -0.017  1.00  0.00     0.016 C 
HETATM   26  C17 UNL     1       3.830  -3.808   0.697  1.00  0.00     0.034 C 
HETATM   27  C18 UNL     1       4.224  -3.217   2.026  1.00  0.00     0.076 C 
HETATM   28 BR1  UNL     1       5.924  -2.313   1.857  1.00  0.00    -0.073 Br
HETATM   29 BR2  UNL     1       4.340  -4.625   3.360  1.00  0.00    -0.073 Br
HETATM   30  C19 UNL     1       3.136  -2.241   2.334  1.00  0.00     0.047 C 
ENDBRANCH  21  24
ENDBRANCH  10  20
ENDBRANCH   8  10
TORSDOF 5
