REMARK  7 active torsions:
REMARK  status: ('A' for Active; 'I' for Inactive)
REMARK    1  A    between atoms: O1_2  and  C2_3 
REMARK    2  A    between atoms: C3_4  and  C4_5 
REMARK    3  A    between atoms: C5_6  and  C6_7 
REMARK    4  A    between atoms: C10_11  and  C11_12 
REMARK    5  A    between atoms: C14_15  and  O2_16 
REMARK    6  A    between atoms: C20_25  and  C21_26 
REMARK    7  A    between atoms: C21_26  and  O4_27 
ROOT
HETATM    1  C4  UNL     1      -0.740   0.388   0.028  1.00  0.00     0.078 A 
HETATM    2  C5  UNL     1      -0.353   1.675   0.178  1.00  0.00    -0.023 A 
HETATM    3  C9  UNL     1       1.043   1.669   0.076  1.00  0.00     0.035 A 
HETATM    4  C10 UNL     1       1.456   0.351  -0.142  1.00  0.00     0.016 A 
HETATM    5  N1  UNL     1       0.354  -0.358  -0.172  1.00  0.00    -0.352 N 
HETATM    6  C17 UNL     1       0.280  -1.792  -0.462  1.00  0.00     0.156 C 
ENDROOT
BRANCH   1   7
HETATM    7  C3  UNL     1      -2.059  -0.292   0.205  1.00  0.00     0.137 A 
HETATM    8  C2  UNL     1      -3.271  -0.226  -0.310  1.00  0.00     0.115 A 
HETATM    9  C20 UNL     1      -4.111  -1.145   0.296  1.00  0.00     0.031 A 
HETATM   10  C18 UNL     1      -3.298  -1.785   1.210  1.00  0.00     0.061 A 
HETATM   11  O3  UNL     1      -2.118  -1.272   1.138  1.00  0.00    -0.309 OA
HETATM   12  C19 UNL     1      -3.695  -2.906   2.138  1.00  0.00     0.077 C 
BRANCH   8  13
HETATM   13  O1  UNL     1      -3.641   0.667  -1.344  1.00  0.00    -0.352 OA
HETATM   14  C1  UNL     1      -3.192   0.182  -2.635  1.00  0.00     0.210 C 
ENDBRANCH   8  13
BRANCH   9  15
HETATM   15  C21 UNL     1      -5.514  -1.450  -0.045  1.00  0.00     0.208 C 
BRANCH  15  16
HETATM   16  O4  UNL     1      -6.313  -0.973   1.074  1.00  0.00    -0.396 OA
ATOM     17  H4  UNL     1      -7.216  -1.169   0.854  1.00  0.00     0.209 HD
ENDBRANCH  15  16
ENDBRANCH   9  15
ENDBRANCH   1   7
BRANCH   2  18
HETATM   18  C6  UNL     1      -1.258   2.841   0.258  1.00  0.00     0.013 C 
HETATM   19  C7  UNL     1      -0.949   3.575   1.567  1.00  0.00     0.015 C 
HETATM   20  C8  UNL     1      -0.662   3.878  -0.779  1.00  0.00     0.015 C 
ENDBRANCH   2  18
BRANCH   4  21
HETATM   21  C11 UNL     1       2.839  -0.203  -0.189  1.00  0.00     0.036 C 
HETATM   22  C12 UNL     1       3.623   0.235   1.035  1.00  0.00     0.013 C 
HETATM   23  C13 UNL     1       4.753  -0.760   1.195  1.00  0.00     0.032 C 
HETATM   24  C14 UNL     1       5.584  -0.841  -0.051  1.00  0.00     0.118 C 
HETATM   25  C15 UNL     1       4.799  -1.056  -1.314  1.00  0.00     0.032 C 
HETATM   26  C16 UNL     1       3.610  -0.096  -1.432  1.00  0.00     0.013 C 
BRANCH  24  27
HETATM   27  O2  UNL     1       6.436  -1.936   0.111  1.00  0.00    -0.396 OA
ATOM     28  H2  UNL     1       6.962  -1.987  -0.678  1.00  0.00     0.210 HD
ENDBRANCH  24  27
ENDBRANCH   4  21
TORSDOF 7
