REMARK  15 active torsions:
REMARK  status: ('A' for Active; 'I' for Inactive)
REMARK    1  A    between atoms: C2_2  and  O1_3 
REMARK    2  A    between atoms: C3_5  and  C4_7 
REMARK    3  A    between atoms: C5_8  and  O2_9 
REMARK    4  A    between atoms: N1_15  and  C9_16 
REMARK    5  A    between atoms: C9_16  and  O4_17 
REMARK    6  A    between atoms: C9_16  and  O5_19 
REMARK    7  A    between atoms: O5_19  and  C10_20 
REMARK    8  A    between atoms: C11_21  and  O6_22 
REMARK    9  A    between atoms: C14_26  and  C15_27 
REMARK   10  A    between atoms: C15_27  and  S1_28 
REMARK   11  A    between atoms: S1_28  and  S2_29 
REMARK   12  A    between atoms: S2_29  and  C16_30 
REMARK   13  A    between atoms: C16_30  and  C17_31 
REMARK   14  A    between atoms: C18_32  and  C20_35 
REMARK   15  A    between atoms: C22_39  and  N4_40 
ROOT
HETATM    1  C17 UNL     1       4.653   0.494   0.917  1.00  0.00     0.008 C 
HETATM    2  C18 UNL     1       5.672   0.292   0.153  1.00  0.00     0.060 C 
HETATM    3  C19 UNL     1       6.310  -1.038   0.187  1.00  0.00     0.100 C 
HETATM    4  N2  UNL     1       6.800  -2.076   0.232  1.00  0.00    -0.191 NA
ENDROOT
BRANCH   2   5
HETATM    5  C20 UNL     1       6.294   1.234  -0.776  1.00  0.00     0.044 A 
HETATM    6  C21 UNL     1       7.387   1.023  -1.584  1.00  0.00     0.110 A 
HETATM    7  N3  UNL     1       7.782   1.996  -2.345  1.00  0.00    -0.345 N 
HETATM    8  C22 UNL     1       7.132   3.151  -2.325  1.00  0.00     0.142 A 
ATOM      9  H3  UNL     1       8.589   1.873  -2.956  1.00  0.00     0.167 HD
HETATM   10  S3  UNL     1       5.906   2.858  -1.182  1.00  0.00    -0.052 SA
BRANCH   8  11
HETATM   11  N4  UNL     1       7.393   4.237  -3.026  1.00  0.00    -0.380 N 
ATOM     12  H42 UNL     1       8.128   4.413  -3.711  1.00  0.00     0.158 HD
ATOM     13  H41 UNL     1       6.893   5.126  -3.011  1.00  0.00     0.158 HD
ENDBRANCH   8  11
ENDBRANCH   2   5
BRANCH   1  14
HETATM   14  C16 UNL     1       3.809   1.683   1.116  1.00  0.00     0.114 C 
BRANCH  14  15
HETATM   15  S2  UNL     1       2.094   1.277   0.670  1.00  0.00    -0.094 SA
BRANCH  15  16
HETATM   16  S1  UNL     1       1.208  -0.137   1.948  1.00  0.00    -0.097 SA
BRANCH  16  17
HETATM   17  C15 UNL     1       1.483  -1.789   1.339  1.00  0.00     0.093 C 
BRANCH  17  18
HETATM   18  C14 UNL     1       0.789  -2.085   0.034  1.00  0.00     0.027 C 
HETATM   19  C10 UNL     1      -0.694  -1.950   0.080  1.00  0.00     0.160 C 
HETATM   20  C11 UNL     1      -1.093  -3.009   1.076  1.00  0.00     0.147 C 
HETATM   21  C12 UNL     1      -0.108  -4.106   0.843  1.00  0.00     0.035 C 
HETATM   22  C13 UNL     1       0.915  -3.607  -0.153  1.00  0.00     0.010 C 
BRANCH  19  23
HETATM   23  O5  UNL     1      -1.178  -0.709   0.335  1.00  0.00    -0.336 OA
BRANCH  23  24
HETATM   24  C9  UNL     1      -1.995  -0.252  -0.699  1.00  0.00     0.371 C 
BRANCH  24  25
HETATM   25  N1  UNL     1      -3.353   0.003  -0.226  1.00  0.00    -0.330 N 
HETATM   26  C4  UNL     1      -3.693   1.052   0.657  1.00  0.00     0.172 C 
HETATM   27  C5  UNL     1      -4.741   0.642   1.715  1.00  0.00     0.220 C 
HETATM   28  C6  UNL     1      -5.848  -0.116   1.127  1.00  0.00     0.181 C 
HETATM   29  O3  UNL     1      -7.005  -0.028   1.598  1.00  0.00    -0.290 OA
HETATM   30  C7  UNL     1      -5.560  -0.982  -0.034  1.00  0.00     0.070 C 
HETATM   31  C8  UNL     1      -4.387  -0.901  -0.642  1.00  0.00     0.095 C 
BRANCH  26  32
HETATM   32  C3  UNL     1      -4.084   2.358   0.171  1.00  0.00     0.066 C 
HETATM   33  C2  UNL     1      -4.492   2.833  -0.946  1.00  0.00     0.059 C 
HETATM   34  C1  UNL     1      -4.686   2.094  -2.187  1.00  0.00     0.077 C 
HETATM   35 CL1  UNL     1      -3.979   3.622   1.487  1.00  0.00    -0.084 Cl
BRANCH  33  36
HETATM   36  O1  UNL     1      -4.796   4.211  -1.026  1.00  0.00    -0.364 OA
ATOM     37  H1  UNL     1      -4.670   4.693  -0.217  1.00  0.00     0.217 HD
ENDBRANCH  33  36
ENDBRANCH  26  32
BRANCH  27  38
HETATM   38  O2  UNL     1      -4.124  -0.084   2.730  1.00  0.00    -0.385 OA
ATOM     39  H2  UNL     1      -4.769  -0.336   3.381  1.00  0.00     0.210 HD
ENDBRANCH  27  38
ENDBRANCH  24  25
BRANCH  24  40
HETATM   40  O4  UNL     1      -1.393   0.832  -1.297  1.00  0.00    -0.354 OA
ATOM     41  H4  UNL     1      -0.510   0.666  -1.605  1.00  0.00     0.214 HD
ENDBRANCH  24  40
ENDBRANCH  23  24
ENDBRANCH  19  23
BRANCH  20  42
HETATM   42  O6  UNL     1      -1.183  -2.564   2.367  1.00  0.00    -0.393 OA
ATOM     43  H6  UNL     1      -1.434  -3.231   2.995  1.00  0.00     0.210 HD
ENDBRANCH  20  42
ENDBRANCH  17  18
ENDBRANCH  16  17
ENDBRANCH  15  16
ENDBRANCH  14  15
ENDBRANCH   1  14
TORSDOF 15
