REMARK  15 active torsions:
REMARK  status: ('A' for Active; 'I' for Inactive)
REMARK    1  A    between atoms: N1_1  and  C1_4 
REMARK    2  A    between atoms: N5_15  and  C5_16 
REMARK    3  A    between atoms: C5_16  and  C6_17 
REMARK    4  A    between atoms: C7_18  and  C8_19 
REMARK    5  A    between atoms: C8_19  and  C9_20 
REMARK    6  A    between atoms: C9_20  and  N6_21 
REMARK       I    between atoms: N6_21  and  C10_23 
REMARK    7  A    between atoms: C10_23  and  C11_25 
REMARK    8  A    between atoms: C11_25  and  O2_26 
REMARK    9  A    between atoms: C11_25  and  C12_28 
REMARK   10  A    between atoms: C11_25  and  C16_41 
REMARK   11  A    between atoms: C12_28  and  N7_29 
REMARK   12  A    between atoms: C14_31  and  N8_32 
REMARK   13  A    between atoms: C16_41  and  N13_42 
REMARK   14  A    between atoms: C16_41  and  C17_46 
REMARK   15  A    between atoms: C17_46  and  N14_47 
ROOT
HETATM    1  N6  UNL     1       0.381   1.766  -0.202  1.00  0.00    -0.358 N 
ATOM      2  H6  UNL     1       0.112   2.101  -1.127  1.00  0.00     0.162 HD
HETATM    3  C10 UNL     1      -0.452   0.871   0.497  1.00  0.00     0.255 C 
HETATM    4  O1  UNL     1      -0.108   0.464   1.631  1.00  0.00    -0.270 OA
ENDROOT
BRANCH   3   5
HETATM    5  C11 UNL     1      -1.755   0.427  -0.158  1.00  0.00     0.180 C 
BRANCH   5   6
HETATM    6  O2  UNL     1      -1.816   1.198  -1.360  1.00  0.00    -0.377 OA
ATOM      7  H2  UNL     1      -2.628   0.921  -1.768  1.00  0.00     0.211 HD
ENDBRANCH   5   6
BRANCH   5   8
HETATM    8  C12 UNL     1      -2.892   0.821   0.695  1.00  0.00     0.159 C 
BRANCH   8   9
HETATM    9  N7  UNL     1      -4.213   0.664   0.199  1.00  0.00    -0.226 NA
HETATM   10  C13 UNL     1      -5.143   1.274   1.171  1.00  0.00     0.157 C 
HETATM   11  C14 UNL     1      -5.503  -0.115   1.594  1.00  0.00     0.246 C 
HETATM   12  N12 UNL     1      -4.881  -0.522   0.385  1.00  0.00    -0.135 NA
BRANCH  11  13
HETATM   13  N8  UNL     1      -6.933  -0.397   1.594  1.00  0.00    -0.191 N 
HETATM   14  N9  UNL     1      -7.529  -1.180   2.477  1.00  0.00     0.002 NA
HETATM   15  N10 UNL     1      -8.830  -1.212   2.179  1.00  0.00    -0.233 N 
HETATM   16  C15 UNL     1      -9.032  -0.425   1.082  1.00  0.00     0.353 A 
ATOM     17  H10 UNL     1      -9.548  -1.733   2.683  1.00  0.00     0.189 HD
HETATM   18  O3  UNL     1     -10.110  -0.183   0.480  1.00  0.00    -0.244 OA
HETATM   19  N11 UNL     1      -7.826   0.071   0.739  1.00  0.00    -0.234 N 
ATOM     20  H11 UNL     1      -7.636   0.698  -0.043  1.00  0.00     0.193 HD
ENDBRANCH  11  13
ENDBRANCH   8   9
ENDBRANCH   5   8
BRANCH   5  21
HETATM   21  C16 UNL     1      -1.614  -0.976  -0.591  1.00  0.00     0.253 C 
BRANCH  21  22
HETATM   22  N13 UNL     1      -2.693  -1.429  -1.468  1.00  0.00    -0.070 N 
ATOM     23 3H13 UNL     1      -3.602  -1.276  -1.030  1.00  0.00     0.274 HD
ATOM     24 2H13 UNL     1      -2.786  -0.811  -2.274  1.00  0.00     0.274 HD
ATOM     25 1H13 UNL     1      -2.595  -2.399  -1.767  1.00  0.00     0.274 HD
ENDBRANCH  21  22
BRANCH  21  26
HETATM   26  C17 UNL     1      -1.326  -1.991   0.477  1.00  0.00     0.266 C 
BRANCH  26  27
HETATM   27  N14 UNL     1      -1.257  -3.288  -0.233  1.00  0.00    -0.077 N 
ATOM     28 3H14 UNL     1      -2.085  -3.498  -0.790  1.00  0.00     0.274 HD
ATOM     29 2H14 UNL     1      -0.591  -3.301  -1.005  1.00  0.00     0.274 HD
ATOM     30 1H14 UNL     1      -1.061  -3.978   0.493  1.00  0.00     0.274 HD
ENDBRANCH  26  27
ENDBRANCH  21  26
ENDBRANCH   5  21
ENDBRANCH   3   5
BRANCH   1  31
HETATM   31  C9  UNL     1       1.621   2.207   0.399  1.00  0.00     0.126 C 
BRANCH  31  32
HETATM   32  C8  UNL     1       2.356   3.150  -0.459  1.00  0.00     0.047 C 
BRANCH  32  33
HETATM   33  C7  UNL     1       2.744   2.741  -1.795  1.00  0.00    -0.024 C 
HETATM   34  C6  UNL     1       3.634   1.717  -2.228  1.00  0.00     0.014 C 
BRANCH  34  35
HETATM   35  C5  UNL     1       3.643   0.282  -2.167  1.00  0.00     0.099 C 
BRANCH  35  36
HETATM   36  N5  UNL     1       3.641  -0.510  -0.995  1.00  0.00    -0.302 N 
HETATM   37  C4  UNL     1       2.656  -1.255  -0.430  1.00  0.00     0.190 A 
HETATM   38  N4  UNL     1       3.131  -1.935   0.613  1.00  0.00    -0.346 N 
HETATM   39  C3  UNL     1       4.437  -1.668   0.776  1.00  0.00     0.123 A 
ATOM     40  H4  UNL     1       2.584  -2.565   1.200  1.00  0.00     0.167 HD
HETATM   41  C2  UNL     1       5.364  -2.111   1.692  1.00  0.00     0.145 A 
HETATM   42  C18 UNL     1       4.744  -0.782  -0.227  1.00  0.00     0.159 A 
HETATM   43  N2  UNL     1       6.618  -1.645   1.583  1.00  0.00    -0.175 N 
HETATM   44  N3  UNL     1       5.097  -2.937   2.635  1.00  0.00    -0.383 N 
HETATM   45  C1  UNL     1       6.925  -0.763   0.586  1.00  0.00     0.679 A 
ATOM     46  H2  UNL     1       7.337  -1.947   2.240  1.00  0.00     0.186 HD
HETATM   47  N15 UNL     1       6.002  -0.343  -0.300  1.00  0.00    -0.174 N 
ATOM     48  H15 UNL     1       6.266   0.316  -1.032  1.00  0.00     0.186 HD
ATOM     49  H32 UNL     1       5.784  -3.265   3.314  1.00  0.00     0.157 HD
ATOM     50  H31 UNL     1       4.144  -3.291   2.718  1.00  0.00     0.157 HD
BRANCH  45  51
HETATM   51  N1  UNL     1       8.139  -0.332   0.505  1.00  0.00    -0.234 N 
ATOM     52  H12 UNL     1       8.838  -0.650   1.176  1.00  0.00     0.174 HD
ATOM     53  H11 UNL     1       8.368   0.327  -0.239  1.00  0.00     0.174 HD
ENDBRANCH  45  51
ENDBRANCH  35  36
ENDBRANCH  34  35
ENDBRANCH  32  33
ENDBRANCH  31  32
ENDBRANCH   1  31
TORSDOF 15
