REMARK  1 active torsions:
REMARK  status: ('A' for Active; 'I' for Inactive)
REMARK    1  A    between atoms: O1_2  and  C2_3 
ROOT
HETATM    1  C2  UNL     1       0.965  -0.203   0.123  1.00  0.00     0.132 C 
HETATM    2  C3  UNL     1       0.067   1.032  -0.004  1.00  0.00     0.034 C 
HETATM    3  C4  UNL     1      -1.109   1.015  -0.839  1.00  0.00     0.023 C 
HETATM    4  C5  UNL     1      -2.465   0.593  -0.328  1.00  0.00     0.129 C 
HETATM    5  N1  UNL     1      -2.463  -0.773   0.281  1.00  0.00    -0.361 N 
ATOM      6  H1  UNL     1      -3.290  -1.327   0.505  1.00  0.00     0.168 HD
HETATM    7  C6  UNL     1      -1.185  -1.149   0.484  1.00  0.00    -0.073 C 
HETATM    8  C7  UNL     1       0.172  -1.418   0.699  1.00  0.00     0.136 C 
ENDROOT
BRANCH   1   9
HETATM    9  O1  UNL     1       2.049   0.101   0.861  1.00  0.00    -0.390 OA
HETATM   10  C1  UNL     1       3.264   0.032   0.254  1.00  0.00     0.202 C 
ENDBRANCH   1   9
TORSDOF 1
