REMARK  9 active torsions:
REMARK  status: ('A' for Active; 'I' for Inactive)
REMARK    1  A    between atoms: O1_2  and  C2_3 
REMARK    2  A    between atoms: C2_3  and  C3_4 
REMARK    3  A    between atoms: C2_3  and  C10_13 
REMARK    4  A    between atoms: C3_4  and  N1_5 
REMARK    5  A    between atoms: N1_5  and  C4_7 
REMARK    6  A    between atoms: C11_14  and  O2_15 
REMARK    7  A    between atoms: C12_17  and  C13_18 
REMARK    8  A    between atoms: C13_18  and  C14_19 
REMARK    9  A    between atoms: C19_27  and  O3_28 
ROOT
HETATM    1  C10 UNL     1      -0.806   0.765  -0.269  1.00  0.00     0.020 A 
HETATM    2  C11 UNL     1      -1.469  -0.232  -1.014  1.00  0.00     0.098 A 
HETATM    3  C12 UNL     1      -2.785  -0.479  -0.741  1.00  0.00     0.044 A 
HETATM    4  N2  UNL     1      -3.441   0.199   0.193  1.00  0.00    -0.355 N 
ATOM      5  H2  UNL     1      -4.423  -0.016   0.364  1.00  0.00     0.166 HD
HETATM    6  C17 UNL     1      -2.834   1.182   0.936  1.00  0.00     0.064 A 
HETATM    7  C18 UNL     1      -3.579   1.877   1.849  1.00  0.00     0.071 A 
HETATM    8 BR1  UNL     1      -5.412   1.427   2.113  1.00  0.00    -0.046 Br
HETATM    9  C19 UNL     1      -2.984   2.889   2.564  1.00  0.00     0.085 A 
HETATM   10  C20 UNL     1      -1.655   3.161   2.322  1.00  0.00     0.039 A 
HETATM   11  C21 UNL     1      -0.890   2.503   1.434  1.00  0.00     0.017 A 
HETATM   12  C22 UNL     1      -1.478   1.459   0.687  1.00  0.00     0.004 A 
ENDROOT
BRANCH   1  13
HETATM   13  C2  UNL     1       0.586   1.080  -0.657  1.00  0.00     0.174 C 
BRANCH  13  14
HETATM   14  O1  UNL     1       0.786   2.374  -0.989  1.00  0.00    -0.384 OA
HETATM   15  C1  UNL     1       1.112   2.779  -2.228  1.00  0.00     0.202 C 
ENDBRANCH  13  14
BRANCH  13  16
HETATM   16  C3  UNL     1       1.614   0.678   0.417  1.00  0.00     0.151 C 
BRANCH  16  17
HETATM   17  N1  UNL     1       2.900   0.700  -0.232  1.00  0.00    -0.414 N 
ATOM     18  H1  UNL     1       3.045   1.309  -1.038  1.00  0.00     0.153 HD
BRANCH  17  19
HETATM   19  C4  UNL     1       3.940  -0.090   0.219  1.00  0.00     0.076 C 
HETATM   20  C5  UNL     1       4.594  -0.027   1.516  1.00  0.00     0.024 C 
HETATM   21  C6  UNL     1       5.991  -0.697   1.336  1.00  0.00     0.002 C 
HETATM   22  C7  UNL     1       5.993  -1.714   0.243  1.00  0.00     0.000 C 
HETATM   23  C8  UNL     1       4.720  -2.484   0.229  1.00  0.00     0.002 C 
HETATM   24  C9  UNL     1       3.563  -1.579  -0.016  1.00  0.00     0.024 C 
ENDBRANCH  17  19
ENDBRANCH  16  17
ENDBRANCH  13  16
ENDBRANCH   1  13
BRANCH   2  25
HETATM   25  O2  UNL     1      -0.753  -0.915  -1.984  1.00  0.00    -0.358 OA
ATOM     26  H2  UNL     1      -1.200  -1.587  -2.486  1.00  0.00     0.217 HD
ENDBRANCH   2  25
BRANCH   3  27
HETATM   27  C13 UNL     1      -3.378  -1.636  -1.516  1.00  0.00     0.064 C 
BRANCH  27  28
HETATM   28  C14 UNL     1      -4.768  -1.989  -1.153  1.00  0.00    -0.017 C 
HETATM   29  C15 UNL     1      -4.860  -2.339   0.301  1.00  0.00     0.010 C 
HETATM   30  C16 UNL     1      -5.845  -1.097  -1.672  1.00  0.00     0.010 C 
ENDBRANCH  27  28
ENDBRANCH   3  27
BRANCH   9  31
HETATM   31  O3  UNL     1      -3.683   3.659   3.535  1.00  0.00    -0.359 OA
ATOM     32  H3  UNL     1      -3.272   4.358   4.029  1.00  0.00     0.217 HD
ENDBRANCH   9  31
TORSDOF 9
