REMARK  13 active torsions:
REMARK  status: ('A' for Active; 'I' for Inactive)
REMARK    1  A    between atoms: C3_3  and  N1_4 
REMARK    2  A    between atoms: N1_4  and  C5_6 
REMARK    3  A    between atoms: C5_6  and  C7_8 
REMARK       I    between atoms: C7_8  and  N2_10 
REMARK    4  A    between atoms: C8_12  and  C9_13 
REMARK    5  A    between atoms: C8_12  and  C14_19 
REMARK    6  A    between atoms: C9_13  and  C10_15 
REMARK    7  A    between atoms: C20_26  and  N3_27 
REMARK       I    between atoms: N3_27  and  C21_29 
REMARK    8  A    between atoms: C21_29  and  O5_31 
REMARK    9  A    between atoms: O5_31  and  C22_32 
REMARK   10  A    between atoms: C26_36  and  O6_37 
REMARK   11  A    between atoms: O6_37  and  C27_38 
REMARK       I    between atoms: C27_38  and  N4_40 
REMARK   12  A    between atoms: N4_40  and  C28_42 
REMARK   13  A    between atoms: C28_42  and  C29_43 
ROOT
HETATM    1  C1  UNL     1       6.850   3.175  -1.417  1.00  0.00     0.014 C 
HETATM    2  C2  UNL     1       5.708   3.402  -1.149  1.00  0.00    -0.098 C 
HETATM    3  C3  UNL     1       4.326   3.713  -0.825  1.00  0.00     0.211 C 
ENDROOT
BRANCH   3   4
HETATM    4  N1  UNL     1       3.336   2.871  -1.379  1.00  0.00    -0.395 N 
HETATM    5  C4  UNL     1       3.110   2.884  -2.763  1.00  0.00     0.144 C 
BRANCH   4   6
HETATM    6  C5  UNL     1       2.310   2.433  -0.505  1.00  0.00     0.168 C 
HETATM    7  C6  UNL     1       1.576   3.623   0.063  1.00  0.00     0.042 C 
BRANCH   6   8
HETATM    8  C7  UNL     1       2.681   1.428   0.495  1.00  0.00     0.244 C 
HETATM    9  O1  UNL     1       2.027   1.486   1.600  1.00  0.00    -0.271 OA
HETATM   10  N2  UNL     1       3.641   0.424   0.409  1.00  0.00    -0.323 N 
HETATM   11  C8  UNL     1       3.451  -0.853   0.445  1.00  0.00     0.088 C 
ATOM     12  H2  UNL     1       4.608   0.733   0.305  1.00  0.00     0.169 HD
BRANCH  11  13
HETATM   13  C9  UNL     1       4.668  -1.692   0.332  1.00  0.00     0.182 C 
HETATM   14  O2  UNL     1       4.515  -2.935   0.388  1.00  0.00    -0.290 OA
BRANCH  13  15
HETATM   15  C10 UNL     1       6.021  -1.098   0.152  1.00  0.00     0.016 C 
HETATM   16  C11 UNL     1       7.031  -2.227   0.226  1.00  0.00     0.023 C 
HETATM   17  C12 UNL     1       6.379  -0.061   1.163  1.00  0.00     0.023 C 
HETATM   18  C13 UNL     1       6.113  -0.584  -1.293  1.00  0.00     0.023 C 
ENDBRANCH  13  15
ENDBRANCH  11  13
BRANCH  11  19
HETATM   19  C14 UNL     1       2.184  -1.547   0.566  1.00  0.00     0.176 C 
HETATM   20  C15 UNL     1       2.131  -2.293   1.896  1.00  0.00     0.043 C 
HETATM   21  C16 UNL     1       1.141  -3.416   1.658  1.00  0.00    -0.002 C 
HETATM   22  C17 UNL     1       0.868  -4.205   2.903  1.00  0.00     0.011 C 
HETATM   23  C18 UNL     1      -0.122  -2.899   1.075  1.00  0.00     0.093 C 
HETATM   24  C19 UNL     1      -1.070  -2.371   2.098  1.00  0.00     0.159 C 
HETATM   25  C33 UNL     1       0.008  -1.719   0.146  1.00  0.00     0.166 C 
HETATM   26  O3  UNL     1      -1.034  -2.396   3.296  1.00  0.00    -0.295 OA
HETATM   27  C20 UNL     1      -2.152  -1.761   1.280  1.00  0.00     0.189 C 
HETATM   28  C26 UNL     1      -1.355  -1.132   0.147  1.00  0.00     0.193 C 
HETATM   29  O8  UNL     1       1.026  -0.833   0.467  1.00  0.00    -0.371 OA
BRANCH  27  30
HETATM   30  N3  UNL     1      -3.024  -2.822   0.832  1.00  0.00    -0.323 N 
HETATM   31  C21 UNL     1      -4.424  -2.824   1.102  1.00  0.00     0.362 C 
HETATM   32  O4  UNL     1      -4.988  -1.892   1.751  1.00  0.00    -0.238 OA
ATOM     33  H3  UNL     1      -2.624  -3.597   0.304  1.00  0.00     0.165 HD
BRANCH  31  34
HETATM   34  O5  UNL     1      -5.222  -3.850   0.662  1.00  0.00    -0.294 OA
BRANCH  34  35
HETATM   35  C22 UNL     1      -6.622  -3.893   0.902  1.00  0.00     0.061 C 
HETATM   36  C23 UNL     1      -6.901  -3.891   2.382  1.00  0.00     0.046 C 
HETATM   37  C24 UNL     1      -7.328  -2.751   0.254  1.00  0.00     0.046 C 
HETATM   38  C25 UNL     1      -7.103  -5.219   0.314  1.00  0.00     0.046 C 
ENDBRANCH  34  35
ENDBRANCH  31  34
ENDBRANCH  27  30
BRANCH  28  39
HETATM   39  O6  UNL     1      -1.463   0.250   0.126  1.00  0.00    -0.293 OA
BRANCH  39  40
HETATM   40  C27 UNL     1      -2.108   0.926  -0.890  1.00  0.00     0.361 C 
HETATM   41  O7  UNL     1      -2.579   0.203  -1.809  1.00  0.00    -0.239 OA
HETATM   42  N4  UNL     1      -2.241   2.344  -0.910  1.00  0.00    -0.336 N 
ATOM     43  H4  UNL     1      -1.843   2.884  -0.142  1.00  0.00     0.164 HD
BRANCH  42  44
HETATM   44  C28 UNL     1      -2.915   3.045  -1.973  1.00  0.00     0.133 C 
BRANCH  44  45
HETATM   45  C29 UNL     1      -2.955   4.533  -1.750  1.00  0.00    -0.035 C 
HETATM   46  C30 UNL     1      -3.668   5.242  -2.894  1.00  0.00     0.016 C 
HETATM   47  C31 UNL     1      -1.592   5.165  -1.610  1.00  0.00     0.016 C 
HETATM   48  C32 UNL     1      -3.723   4.856  -0.477  1.00  0.00     0.016 C 
ENDBRANCH  44  45
ENDBRANCH  42  44
ENDBRANCH  39  40
ENDBRANCH  28  39
ENDBRANCH  11  19
ENDBRANCH   6   8
ENDBRANCH   4   6
ENDBRANCH   3   4
TORSDOF 13
