REMARK  17 active torsions:
REMARK  status: ('A' for Active; 'I' for Inactive)
REMARK    1  A    between atoms: C2_2  and  C3_6 
REMARK    2  A    between atoms: C3_6  and  C4_7 
REMARK    3  A    between atoms: C4_7  and  C5_9 
REMARK    4  A    between atoms: C5_9  and  C6_10 
REMARK    5  A    between atoms: C6_10  and  C7_11 
REMARK       I    between atoms: C7_11  and  N2_13 
REMARK    6  A    between atoms: N2_13  and  C8_15 
REMARK    7  A    between atoms: C8_15  and  C9_16 
REMARK    8  A    between atoms: C9_16  and  N3_17 
REMARK    9  A    between atoms: N3_17  and  C10_20 
REMARK   10  A    between atoms: C10_20  and  C11_21 
REMARK   11  A    between atoms: C11_21  and  N4_22 
REMARK   12  A    between atoms: N4_22  and  C12_25 
REMARK   13  A    between atoms: C12_25  and  C13_26 
REMARK   14  A    between atoms: C13_26  and  C14_27 
REMARK   15  A    between atoms: C14_27  and  C15_28 
REMARK   16  A    between atoms: C15_28  and  N5_29 
REMARK   17  A    between atoms: N5_29  and  C16_31 
ROOT
HETATM    1  N3  UNL     1       0.722   0.682   0.730  1.00  0.00    -0.072 N 
ATOM      2  H31 UNL     1       0.473  -0.222   1.132  1.00  0.00     0.277 HD
ATOM      3  H32 UNL     1       1.551   0.412   0.200  1.00  0.00     0.277 HD
ENDROOT
BRANCH   1   4
HETATM    4  C9  UNL     1       1.060   1.599   1.744  1.00  0.00     0.252 C 
BRANCH   4   5
HETATM    5  C8  UNL     1       2.179   1.148   2.600  1.00  0.00     0.150 C 
BRANCH   5   6
HETATM    6  N2  UNL     1       3.422   1.001   1.917  1.00  0.00    -0.359 N 
HETATM    7  C7  UNL     1       3.711   0.064   0.929  1.00  0.00     0.217 C 
HETATM    8  O2  UNL     1       2.998  -0.820   0.455  1.00  0.00    -0.274 OA
ATOM      9  H2  UNL     1       4.170   1.643   2.177  1.00  0.00     0.162 HD
BRANCH   7  10
HETATM   10  C6  UNL     1       5.117   0.145   0.350  1.00  0.00     0.110 C 
BRANCH  10  11
HETATM   11  C5  UNL     1       5.248  -0.934  -0.676  1.00  0.00     0.088 C 
BRANCH  11  12
HETATM   12  C4  UNL     1       6.591  -0.948  -1.312  1.00  0.00     0.132 C 
HETATM   13  O1  UNL     1       6.839  -0.102  -2.158  1.00  0.00    -0.298 OA
BRANCH  12  14
HETATM   14  C3  UNL     1       7.569  -1.985  -0.893  1.00  0.00     0.129 C 
BRANCH  14  15
HETATM   15  C2  UNL     1       8.481  -1.320   0.097  1.00  0.00    -0.017 C 
HETATM   16  C1  UNL     1       9.273  -0.146  -0.316  1.00  0.00     0.063 C 
HETATM   17  N1  UNL     1       8.539  -1.803   1.284  1.00  0.00    -0.406 N 
ATOM     18  H12 UNL     1       9.159  -1.351   1.957  1.00  0.00     0.155 HD
ATOM     19  H11 UNL     1       7.991  -2.615   1.570  1.00  0.00     0.155 HD
ENDBRANCH  14  15
ENDBRANCH  12  14
ENDBRANCH  11  12
ENDBRANCH  10  11
ENDBRANCH   7  10
ENDBRANCH   5   6
ENDBRANCH   4   5
ENDBRANCH   1   4
BRANCH   1  20
HETATM   20  C10 UNL     1      -0.326   1.150  -0.163  1.00  0.00     0.259 C 
BRANCH  20  21
HETATM   21  C11 UNL     1      -0.540   0.049  -1.169  1.00  0.00     0.259 C 
BRANCH  21  22
HETATM   22  N4  UNL     1      -0.913  -1.154  -0.503  1.00  0.00    -0.074 N 
ATOM     23  H42 UNL     1      -0.841  -1.957  -1.128  1.00  0.00     0.277 HD
ATOM     24  H41 UNL     1      -0.214  -1.422   0.190  1.00  0.00     0.277 HD
BRANCH  22  25
HETATM   25  C12 UNL     1      -2.213  -1.074   0.083  1.00  0.00     0.232 C 
BRANCH  25  26
HETATM   26  C13 UNL     1      -3.241  -0.994  -1.014  1.00  0.00     0.029 C 
BRANCH  26  27
HETATM   27  C14 UNL     1      -4.618  -0.950  -0.407  1.00  0.00     0.021 C 
BRANCH  27  28
HETATM   28  C15 UNL     1      -4.740   0.273   0.463  1.00  0.00     0.120 C 
BRANCH  28  29
HETATM   29  N5  UNL     1      -6.076   0.314   1.011  1.00  0.00    -0.390 N 
ATOM     30  H5  UNL     1      -6.205   0.156   2.010  1.00  0.00     0.159 HD
BRANCH  29  31
HETATM   31  C16 UNL     1      -7.209   0.566   0.208  1.00  0.00     0.027 A 
HETATM   32  C17 UNL     1      -8.501   0.380   0.712  1.00  0.00     0.029 A 
HETATM   33  C18 UNL     1      -9.604   0.645  -0.075  1.00  0.00     0.002 A 
HETATM   34  C19 UNL     1      -9.493   1.098  -1.373  1.00  0.00     0.000 A 
HETATM   35  C20 UNL     1      -8.223   1.284  -1.877  1.00  0.00     0.002 A 
HETATM   36  C21 UNL     1      -7.105   1.016  -1.081  1.00  0.00     0.029 A 
ENDBRANCH  29  31
ENDBRANCH  28  29
ENDBRANCH  27  28
ENDBRANCH  26  27
ENDBRANCH  25  26
ENDBRANCH  22  25
ENDBRANCH  21  22
ENDBRANCH  20  21
ENDBRANCH   1  20
TORSDOF 17
