REMARK  17 active torsions:
REMARK  status: ('A' for Active; 'I' for Inactive)
REMARK       I    between atoms: C1_4  and  N2_5 
REMARK       I    between atoms: C1_4  and  N3_8 
REMARK    1  A    between atoms: N3_8  and  N4_10 
REMARK    2  A    between atoms: N4_10  and  C2_11 
REMARK    3  A    between atoms: C2_11  and  C3_12 
REMARK    4  A    between atoms: C2_11  and  C20_52 
REMARK       I    between atoms: C3_12  and  N5_14 
REMARK    5  A    between atoms: N5_14  and  N6_16 
REMARK    6  A    between atoms: N6_16  and  C4_18 
REMARK    7  A    between atoms: C8_22  and  S1_23 
REMARK    8  A    between atoms: S1_23  and  N7_26 
REMARK       I    between atoms: N7_26  and  C9_27 
REMARK    9  A    between atoms: C9_27  and  C10_29 
REMARK   10  A    between atoms: C10_29  and  N8_30 
REMARK   11  A    between atoms: C10_29  and  C11_34 
REMARK   12  A    between atoms: C11_34  and  C12_36 
REMARK   13  A    between atoms: C14_40  and  C15_41 
REMARK   14  A    between atoms: C15_41  and  O7_42 
REMARK   15  A    between atoms: C15_41  and  C16_44 
REMARK   16  A    between atoms: C17_47  and  O9_48 
REMARK   17  A    between atoms: C23_55  and  O10_56 
ROOT
HETATM    1  C4  UNL     1       0.698   0.290  -0.912  1.00  0.00     0.049 A 
HETATM    2  C5  UNL     1      -0.321   1.217  -0.624  1.00  0.00     0.032 A 
HETATM    3  C6  UNL     1      -1.532   0.814  -0.119  1.00  0.00     0.016 A 
HETATM    4  C7  UNL     1      -1.777  -0.541   0.118  1.00  0.00     0.001 A 
HETATM    5  C8  UNL     1      -2.978  -1.001   0.659  1.00  0.00     0.104 A 
HETATM    6  C13 UNL     1      -3.134  -2.377   0.888  1.00  0.00     0.040 A 
HETATM    7  C14 UNL     1      -2.167  -3.289   0.603  1.00  0.00     0.015 A 
HETATM    8  C17 UNL     1      -0.980  -2.843   0.079  1.00  0.00     0.086 A 
HETATM    9  C18 UNL     1      -0.791  -1.454  -0.163  1.00  0.00     0.012 A 
HETATM   10  C19 UNL     1       0.416  -1.003  -0.672  1.00  0.00     0.046 A 
ENDROOT
BRANCH   1  11
HETATM   11  N6  UNL     1       1.922   0.730  -1.416  1.00  0.00    -0.298 N 
ATOM     12  H6  UNL     1       1.916   0.998  -2.400  1.00  0.00     0.187 HD
BRANCH  11  13
HETATM   13  N5  UNL     1       3.126   0.855  -0.787  1.00  0.00    -0.263 N 
HETATM   14  C3  UNL     1       4.205  -0.121  -0.737  1.00  0.00     0.303 C 
HETATM   15  O1  UNL     1       4.053  -1.214  -1.301  1.00  0.00    -0.263 OA
ATOM     16  H5  UNL     1       3.289   1.734  -0.295  1.00  0.00     0.190 HD
BRANCH  14  17
HETATM   17  C2  UNL     1       5.404   0.307  -0.007  1.00  0.00     0.211 C 
BRANCH  17  18
HETATM   18  N4  UNL     1       5.396   1.382   0.548  1.00  0.00    -0.304 NA
BRANCH  18  19
HETATM   19  N3  UNL     1       5.513   2.486   1.173  1.00  0.00    -0.065 N 
HETATM   20  C1  UNL     1       6.035   3.742   0.675  1.00  0.00     0.694 C 
HETATM   21  N1  UNL     1       7.061   4.191   1.268  1.00  0.00    -0.233 N 
HETATM   22  N2  UNL     1       5.425   4.358  -0.398  1.00  0.00    -0.233 N 
ATOM     23  H12 UNL     1       7.429   5.075   0.917  1.00  0.00     0.174 HD
ATOM     24  H11 UNL     1       7.512   3.736   2.061  1.00  0.00     0.174 HD
ATOM     25  H22 UNL     1       5.793   5.242  -0.749  1.00  0.00     0.174 HD
ATOM     26  H21 UNL     1       4.599   3.997  -0.875  1.00  0.00     0.174 HD
ATOM     27  H3  UNL     1       5.200   2.485   2.144  1.00  0.00     0.221 HD
ENDBRANCH  18  19
ENDBRANCH  17  18
BRANCH  17  28
HETATM   28  C20 UNL     1       6.661  -0.454  -0.068  1.00  0.00     0.013 A 
HETATM   29  C21 UNL     1       6.788  -1.749  -0.468  1.00  0.00     0.018 A 
HETATM   30  C22 UNL     1       8.042  -2.334  -0.606  1.00  0.00     0.037 A 
HETATM   31  C23 UNL     1       9.194  -1.654  -0.350  1.00  0.00     0.065 A 
HETATM   32  C24 UNL     1       9.098  -0.338   0.064  1.00  0.00     0.037 A 
HETATM   33  C25 UNL     1       7.862   0.227   0.195  1.00  0.00     0.018 A 
BRANCH  31  34
HETATM   34  O10 UNL     1      10.486  -2.191  -0.486  1.00  0.00    -0.361 OA
ATOM     35  H10 UNL     1      11.290  -1.717  -0.307  1.00  0.00     0.217 HD
ENDBRANCH  31  34
ENDBRANCH  17  28
ENDBRANCH  14  17
ENDBRANCH  11  13
ENDBRANCH   1  11
BRANCH   8  36
HETATM   36  O9  UNL     1       0.100  -3.639  -0.220  1.00  0.00    -0.359 OA
ATOM     37  H9  UNL     1       0.922  -3.330  -0.583  1.00  0.00     0.217 HD
ENDBRANCH   8  36
BRANCH   5  38
HETATM   38  S1  UNL     1      -4.253   0.095   1.043  1.00  0.00     0.328 S 
HETATM   39  O2  UNL     1      -3.672   1.223   1.987  1.00  0.00    -0.186 OA
HETATM   40  O3  UNL     1      -5.141  -0.663   2.062  1.00  0.00    -0.186 OA
BRANCH  38  41
HETATM   41  N7  UNL     1      -5.236   0.724  -0.103  1.00  0.00    -0.278 NA
HETATM   42  C9  UNL     1      -6.054   1.245  -1.077  1.00  0.00     0.342 C 
HETATM   43  O4  UNL     1      -6.030   1.169  -2.306  1.00  0.00    -0.253 OA
BRANCH  42  44
HETATM   44  C10 UNL     1      -7.253   2.089  -0.610  1.00  0.00     0.368 C 
BRANCH  44  45
HETATM   45  N8  UNL     1      -8.492   1.514  -0.981  1.00  0.00    -0.058 N 
ATOM     46  H83 UNL     1      -8.532   1.342  -1.986  1.00  0.00     0.275 HD
ATOM     47  H82 UNL     1      -8.566   0.553  -0.648  1.00  0.00     0.275 HD
ATOM     48  H81 UNL     1      -9.287   2.073  -0.671  1.00  0.00     0.275 HD
ENDBRANCH  44  45
BRANCH  44  49
HETATM   49  C11 UNL     1      -7.117   3.505  -0.915  1.00  0.00     0.254 C 
HETATM   50  O5  UNL     1      -6.123   3.936  -1.529  1.00  0.00    -0.285 OA
BRANCH  49  51
HETATM   51  C12 UNL     1      -8.147   4.465  -0.471  1.00  0.00     0.303 C 
HETATM   52  N9  UNL     1      -7.862   5.842  -0.647  1.00  0.00    -0.054 NA
HETATM   53  O6  UNL     1      -9.214   4.091   0.058  1.00  0.00    -0.268 OA
ENDBRANCH  49  51
ENDBRANCH  44  49
ENDBRANCH  42  44
ENDBRANCH  38  41
ENDBRANCH   5  38
BRANCH   7  54
HETATM   54  C15 UNL     1      -2.380  -4.767   0.690  1.00  0.00     0.243 C 
BRANCH  54  55
HETATM   55  O7  UNL     1      -1.876  -5.203  -0.619  1.00  0.00    -0.382 OA
ATOM     56  H7  UNL     1      -2.011  -6.142  -0.564  1.00  0.00     0.211 HD
ENDBRANCH  54  55
BRANCH  54  57
HETATM   57  C16 UNL     1      -3.774  -5.201   0.619  1.00  0.00     0.264 C 
HETATM   58  N10 UNL     1      -4.372  -5.795   1.785  1.00  0.00    -0.059 NA
HETATM   59  O8  UNL     1      -4.467  -5.079  -0.415  1.00  0.00    -0.274 OA
ENDBRANCH  54  57
ENDBRANCH   7  54
TORSDOF 17
