REMARK  4 active torsions:
REMARK  status: ('A' for Active; 'I' for Inactive)
REMARK    1  A    between atoms: C3_6  and  C4_7 
REMARK    2  A    between atoms: C4_7  and  C5_8 
REMARK    3  A    between atoms: C5_8  and  N3_9 
REMARK    4  A    between atoms: N3_9  and  C6_12 
ROOT
HETATM    1  C6  UNL     1       0.593  -0.653   0.218  1.00  0.00     0.186 C 
HETATM    2  C7  UNL     1      -0.200   0.349   1.015  1.00  0.00     0.036 C 
HETATM    3  C8  UNL     1      -1.650   0.013   1.136  1.00  0.00     0.041 C 
HETATM    4  C9  UNL     1      -2.320  -0.167  -0.223  1.00  0.00     0.077 C 
HETATM    5  C10 UNL     1      -2.745  -1.666  -0.386  1.00  0.00     0.118 C 
HETATM    6  C11 UNL     1      -4.138  -1.659  -0.326  1.00  0.00    -0.175 C 
HETATM    7  C12 UNL     1      -5.535  -1.436  -0.240  1.00  0.00     0.121 C 
HETATM    8  C13 UNL     1      -5.642   0.098  -0.064  1.00  0.00    -0.014 A 
HETATM    9  C14 UNL     1      -6.926   0.453   0.196  1.00  0.00     0.014 A 
HETATM   10  C15 UNL     1      -7.239   1.775   0.383  1.00  0.00     0.043 A 
HETATM   11  C16 UNL     1      -6.223   2.733   0.301  1.00  0.00     0.119 A 
HETATM   12  F1  UNL     1      -6.488   4.046   0.476  1.00  0.00    -0.206 F 
HETATM   13  C17 UNL     1      -4.924   2.380   0.039  1.00  0.00     0.079 A 
HETATM   14  C18 UNL     1      -4.638   1.047  -0.144  1.00  0.00     0.080 A 
HETATM   15  O1  UNL     1      -3.317   0.743  -0.402  1.00  0.00    -0.339 OA
HETATM   16  C19 UNL     1      -1.279   0.083  -1.301  1.00  0.00     0.041 C 
HETATM   17  C20 UNL     1      -0.108  -0.841  -1.119  1.00  0.00     0.036 C 
ENDROOT
BRANCH   1  18
HETATM   18  N3  UNL     1       1.913  -0.055  -0.072  1.00  0.00    -0.071 N 
ATOM     19  H32 UNL     1       2.345   0.375   0.746  1.00  0.00     0.277 HD
ATOM     20  H31 UNL     1       1.853   0.786  -0.646  1.00  0.00     0.277 HD
BRANCH  18  21
HETATM   21  C5  UNL     1       2.733  -1.095  -0.669  1.00  0.00     0.235 C 
BRANCH  21  22
HETATM   22  C4  UNL     1       4.016  -0.533  -1.227  1.00  0.00     0.054 C 
BRANCH  22  23
HETATM   23  C3  UNL     1       4.872   0.160  -0.203  1.00  0.00     0.101 C 
HETATM   24  N2  UNL     1       5.265  -0.727   0.852  1.00  0.00    -0.380 N 
HETATM   25  C2  UNL     1       6.510  -0.642   1.129  1.00  0.00     0.173 C 
ATOM     26  H2  UNL     1       4.621  -1.358   1.330  1.00  0.00     0.160 HD
HETATM   27  N1  UNL     1       7.104   0.326   0.276  1.00  0.00    -0.380 N 
HETATM   28  C1  UNL     1       8.430   0.901   0.430  1.00  0.00     0.150 C 
HETATM   29  C21 UNL     1       6.166   0.650  -0.775  1.00  0.00     0.148 C 
ENDBRANCH  22  23
ENDBRANCH  21  22
ENDBRANCH  18  21
ENDBRANCH   1  18
TORSDOF 4
