REMARK  3 active torsions:
REMARK  status: ('A' for Active; 'I' for Inactive)
REMARK    1  A    between atoms: C4_4  and  C5_5 
REMARK    2  A    between atoms: N1_13  and  C13_15 
REMARK    3  A    between atoms: C18_21  and  N2_22 
ROOT
HETATM    1  C5  UNL     1      -2.019  -0.145  -1.029  1.00  0.00     0.060 C 
HETATM    2  C6  UNL     1      -0.726  -0.704  -1.639  1.00  0.00     0.093 C 
HETATM    3  C7  UNL     1      -1.088  -2.174  -1.713  1.00  0.00     0.033 C 
HETATM    4  C8  UNL     1      -2.108  -2.418  -0.650  1.00  0.00     0.020 C 
HETATM    5  C9  UNL     1      -1.681  -3.316   0.454  1.00  0.00     0.039 C 
HETATM    6  C10 UNL     1      -0.896  -2.416   1.340  1.00  0.00     0.129 C 
HETATM    7  C11 UNL     1       0.593  -2.596   0.990  1.00  0.00     0.108 C 
HETATM    8  C12 UNL     1       1.059  -1.376   0.245  1.00  0.00     0.080 C 
HETATM    9  N1  UNL     1       2.233  -1.047   0.585  1.00  0.00    -0.344 N 
ATOM     10  H1  UNL     1       2.696  -1.623   1.288  1.00  0.00     0.167 HD
HETATM   11  N3  UNL     1       0.397  -0.586  -0.735  1.00  0.00    -0.374 N 
ATOM     12  H3  UNL     1       0.843   0.327  -0.827  1.00  0.00     0.161 HD
HETATM   13  O3  UNL     1      -1.244  -1.112   1.059  1.00  0.00    -0.379 OA
HETATM   14  C19 UNL     1      -2.217  -1.060   0.107  1.00  0.00     0.136 C 
ENDROOT
BRANCH   9  15
HETATM   15  C13 UNL     1       2.955   0.054   0.069  1.00  0.00     0.067 A 
HETATM   16  C14 UNL     1       3.519   0.062  -1.190  1.00  0.00     0.035 A 
HETATM   17  C15 UNL     1       4.225   1.169  -1.666  1.00  0.00     0.044 A 
HETATM   18  C16 UNL     1       4.341   2.261  -0.830  1.00  0.00     0.118 A 
HETATM   19  F1  UNL     1       5.028   3.337  -1.295  1.00  0.00    -0.206 F 
HETATM   20  C17 UNL     1       3.797   2.305   0.435  1.00  0.00     0.080 A 
HETATM   21  C18 UNL     1       3.099   1.173   0.867  1.00  0.00     0.132 A 
BRANCH  21  22
HETATM   22  N2  UNL     1       2.538   1.226   2.180  1.00  0.00    -0.113 N 
HETATM   23  O1  UNL     1       2.223   2.327   2.672  1.00  0.00    -0.532 OA
HETATM   24  O2  UNL     1       2.325   0.103   2.940  1.00  0.00    -0.532 OA
ENDBRANCH  21  22
ENDBRANCH   9  15
BRANCH   1  25
HETATM   25  C4  UNL     1      -2.031   1.271  -0.919  1.00  0.00    -0.016 C 
HETATM   26  C2  UNL     1      -2.209   2.068   0.087  1.00  0.00    -0.091 C 
HETATM   27  C1  UNL     1      -2.468   1.743   1.509  1.00  0.00     0.042 C 
HETATM   28  C3  UNL     1      -2.148   3.595  -0.154  1.00  0.00     0.042 C 
ENDBRANCH   1  25
TORSDOF 3
