REMARK  7 active torsions:
REMARK  status: ('A' for Active; 'I' for Inactive)
REMARK    1  A    between atoms: C2_2  and  C3_3 
REMARK    2  A    between atoms: C3_3  and  C4_4 
REMARK    3  A    between atoms: C4_4  and  N1_5 
REMARK    4  A    between atoms: N1_5  and  C5_6 
REMARK    5  A    between atoms: N1_5  and  C8_9 
REMARK    6  A    between atoms: C5_6  and  C6_7 
REMARK    7  A    between atoms: C8_9  and  C9_10 
ROOT
HETATM    1  N1  UNL     1       0.064  -0.139  -0.267  1.00  0.00    -0.269 NA
ENDROOT
BRANCH   1   2
HETATM    2  C4  UNL     1       1.447  -0.658   0.020  1.00  0.00     0.103 C 
BRANCH   2   3
HETATM    3  C3  UNL     1       2.458   0.139  -0.793  1.00  0.00     0.041 C 
BRANCH   3   4
HETATM    4  C2  UNL     1       3.744  -0.020  -0.102  1.00  0.00    -0.036 C 
HETATM    5  C1  UNL     1       4.949  -0.185  -0.462  1.00  0.00     0.007 C 
ENDBRANCH   3   4
ENDBRANCH   2   3
ENDBRANCH   1   2
BRANCH   1   6
HETATM    6  C5  UNL     1       0.117   1.156   0.228  1.00  0.00     0.064 C 
BRANCH   6   7
HETATM    7  C6  UNL     1      -0.881   2.149  -0.205  1.00  0.00     0.001 C 
HETATM    8  C7  UNL     1      -1.346   3.063   0.635  1.00  0.00     0.012 C 
ENDBRANCH   6   7
ENDBRANCH   1   6
BRANCH   1   9
HETATM    9  C8  UNL     1      -0.792  -1.161   0.058  1.00  0.00     0.083 C 
BRANCH   9  10
HETATM   10  C9  UNL     1      -2.231  -1.050   0.030  1.00  0.00     0.069 A 
HETATM   11  C10 UNL     1      -3.123  -0.243   0.655  1.00  0.00     0.185 A 
HETATM   12  O1  UNL     1      -4.342  -0.713   0.395  1.00  0.00    -0.246 OA
HETATM   13  N2  UNL     1      -4.305  -1.766  -0.348  1.00  0.00    -0.225 N 
HETATM   14  C11 UNL     1      -3.030  -2.021  -0.598  1.00  0.00     0.278 A 
ATOM     15  H2  UNL     1      -5.107  -2.302  -0.681  1.00  0.00     0.198 HD
HETATM   16  O2  UNL     1      -2.604  -2.982  -1.289  1.00  0.00    -0.265 OA
ENDBRANCH   9  10
ENDBRANCH   1   9
TORSDOF 7
