REMARK  13 active torsions:
REMARK  status: ('A' for Active; 'I' for Inactive)
REMARK    1  A    between atoms: C2_2  and  C3_3 
REMARK    2  A    between atoms: C3_3  and  C4_4 
REMARK    3  A    between atoms: C4_4  and  N1_5 
REMARK    4  A    between atoms: C4_4  and  C11_15 
REMARK    5  A    between atoms: N1_5  and  C5_8 
REMARK    6  A    between atoms: C5_8  and  C6_9 
REMARK    7  A    between atoms: C6_9  and  N2_10 
REMARK    8  A    between atoms: N2_10  and  C8_12 
REMARK    9  A    between atoms: C11_15  and  C12_17 
REMARK   10  A    between atoms: C12_17  and  O3_19 
REMARK   11  A    between atoms: O3_19  and  C13_20 
REMARK   12  A    between atoms: C13_20  and  C15_22 
REMARK   13  A    between atoms: C15_22  and  O4_23 
ROOT
HETATM    1  C4  UNL     1       0.328  -0.556  -0.029  1.00  0.00     0.269 C 
ENDROOT
BRANCH   1   2
HETATM    2  C3  UNL     1       0.404  -1.786  -0.891  1.00  0.00     0.068 C 
BRANCH   2   3
HETATM    3  C2  UNL     1       0.671  -1.436  -2.314  1.00  0.00    -0.034 C 
HETATM    4  C1  UNL     1       1.724  -1.837  -2.979  1.00  0.00     0.007 C 
ENDBRANCH   2   3
ENDBRANCH   1   2
BRANCH   1   5
HETATM    5  N1  UNL     1      -0.711   0.349  -0.432  1.00  0.00    -0.062 N 
ATOM      6  H12 UNL     1      -0.646   1.229   0.079  1.00  0.00     0.278 HD
ATOM      7  H11 UNL     1      -0.548   0.693  -1.378  1.00  0.00     0.278 HD
BRANCH   5   8
HETATM    8  C5  UNL     1      -2.043  -0.225  -0.310  1.00  0.00     0.263 C 
BRANCH   8   9
HETATM    9  C6  UNL     1      -3.048   0.825  -0.637  1.00  0.00     0.299 C 
BRANCH   9  10
HETATM   10  N2  UNL     1      -4.413   0.509  -0.584  1.00  0.00     0.089 N 
HETATM   11  C7  UNL     1      -5.165   1.730  -0.933  1.00  0.00     0.310 C 
BRANCH  10  12
HETATM   12  C8  UNL     1      -4.994  -0.012   0.591  1.00  0.00     0.214 C 
HETATM   13  C9  UNL     1      -4.559  -1.355   1.055  1.00  0.00     0.042 C 
HETATM   14  C10 UNL     1      -4.827   0.969   1.759  1.00  0.00     0.042 C 
ENDBRANCH  10  12
ENDBRANCH   9  10
ENDBRANCH   8   9
ENDBRANCH   5   8
ENDBRANCH   1   5
BRANCH   1  15
HETATM   15  C11 UNL     1       1.622   0.148  -0.099  1.00  0.00     0.254 C 
HETATM   16  O1  UNL     1       1.651   1.302  -0.615  1.00  0.00    -0.284 OA
BRANCH  15  17
HETATM   17  C12 UNL     1       2.890  -0.378   0.385  1.00  0.00     0.332 C 
HETATM   18  O2  UNL     1       2.890  -1.487   0.962  1.00  0.00    -0.256 OA
BRANCH  17  19
HETATM   19  O3  UNL     1       4.085   0.278   0.244  1.00  0.00    -0.308 OA
BRANCH  19  20
HETATM   20  C13 UNL     1       5.339  -0.182   0.715  1.00  0.00     0.151 C 
HETATM   21  C14 UNL     1       6.348  -0.417  -0.369  1.00  0.00     0.042 C 
BRANCH  20  22
HETATM   22  C15 UNL     1       5.891   0.839   1.678  1.00  0.00     0.196 C 
BRANCH  22  23
HETATM   23  O4  UNL     1       7.117   0.393   2.152  1.00  0.00    -0.398 OA
ATOM     24  H4  UNL     1       7.465   1.036   2.759  1.00  0.00     0.209 HD
ENDBRANCH  22  23
ENDBRANCH  20  22
ENDBRANCH  19  20
ENDBRANCH  17  19
ENDBRANCH  15  17
ENDBRANCH   1  15
TORSDOF 13
