REMARK  4 active torsions:
REMARK  status: ('A' for Active; 'I' for Inactive)
REMARK    1  A    between atoms: C4_5  and  O1_6 
REMARK       I    between atoms: N2_9  and  C6_10 
REMARK    2  A    between atoms: C6_10  and  C7_12 
REMARK    3  A    between atoms: N3_16  and  C11_17 
REMARK    4  A    between atoms: C11_17  and  C12_18 
ROOT
HETATM    1  N1  UNL     1      -3.804   2.405  -2.385  1.00  0.00    -0.195 NA
HETATM    2  C1  UNL     1      -3.463   1.459  -1.794  1.00  0.00     0.085 C 
HETATM    3  C2  UNL     1      -3.017   0.255  -1.062  1.00  0.00     0.197 C 
HETATM    4  C3  UNL     1      -4.250  -0.563  -0.647  1.00  0.00     0.074 C 
HETATM    5  C4  UNL     1      -4.985   0.519   0.159  1.00  0.00     0.139 C 
HETATM    6  C5  UNL     1      -3.845   1.355   0.752  1.00  0.00     0.159 C 
HETATM    7  N2  UNL     1      -2.618   0.738   0.240  1.00  0.00    -0.332 N 
HETATM    8  C6  UNL     1      -1.361   0.626   0.850  1.00  0.00     0.230 C 
HETATM    9  O2  UNL     1      -1.122   1.124   1.996  1.00  0.00    -0.273 OA
ENDROOT
BRANCH   5  10
HETATM   10  O1  UNL     1      -5.782  -0.038   1.136  1.00  0.00    -0.394 OA
ATOM     11  H1  UNL     1      -6.236   0.631   1.634  1.00  0.00     0.210 HD
ENDBRANCH   5  10
BRANCH   8  12
HETATM   12  C7  UNL     1      -0.264  -0.082   0.182  1.00  0.00     0.117 C 
HETATM   13  C8  UNL     1      -0.368  -1.572   0.259  1.00  0.00     0.024 C 
HETATM   14  C9  UNL     1       0.781  -2.217  -0.465  1.00  0.00     0.046 C 
HETATM   15  C10 UNL     1       2.099  -1.552  -0.216  1.00  0.00     0.063 C 
HETATM   16  N3  UNL     1       2.111  -0.199   0.084  1.00  0.00    -0.373 N 
HETATM   17  C15 UNL     1       1.044   0.403   0.775  1.00  0.00     0.077 C 
BRANCH  16  18
HETATM   18  C11 UNL     1       3.128   0.621  -0.428  1.00  0.00     0.131 C 
BRANCH  18  19
HETATM   19  C12 UNL     1       4.486   0.285   0.195  1.00  0.00     0.004 A 
HETATM   20  C13 UNL     1       5.685   1.088  -0.260  1.00  0.00     0.007 A 
HETATM   21  C14 UNL     1       5.510  -0.305  -0.728  1.00  0.00     0.007 A 
ENDBRANCH  18  19
ENDBRANCH  16  18
ENDBRANCH   8  12
TORSDOF 4
