REMARK  9 active torsions:
REMARK  status: ('A' for Active; 'I' for Inactive)
REMARK    1  A    between atoms: N1_1  and  C1_4 
REMARK    2  A    between atoms: C2_7  and  N3_8 
REMARK    3  A    between atoms: C3_11  and  N4_12 
REMARK    4  A    between atoms: N4_12  and  C4_13 
REMARK    5  A    between atoms: N4_12  and  C5_15 
REMARK    6  A    between atoms: C5_15  and  C6_16 
REMARK    7  A    between atoms: C6_16  and  C7_17 
REMARK    8  A    between atoms: C7_17  and  N5_18 
REMARK    9  A    between atoms: C8_22  and  N6_23 
REMARK       I    between atoms: N6_23  and  C9_25 
REMARK       I    between atoms: C9_25  and  N7_26 
REMARK       I    between atoms: C9_25  and  N8_30 
ROOT
HETATM    1  C1  UNL     1      -2.356  -1.993  -1.313  1.00  0.00     0.679 A 
HETATM    2  N2  UNL     1      -1.525  -2.796  -0.672  1.00  0.00    -0.169 N 
ATOM      3  H2  UNL     1      -1.585  -3.798  -0.852  1.00  0.00     0.186 HD
HETATM    4  C2  UNL     1      -0.585  -2.349   0.224  1.00  0.00     0.219 A 
HETATM    5  C3  UNL     1      -0.540  -1.001   0.431  1.00  0.00     0.133 A 
HETATM    6  C8  UNL     1      -1.430  -0.138  -0.255  1.00  0.00     0.151 A 
HETATM    7  N9  UNL     1      -2.295  -0.688  -1.095  1.00  0.00    -0.175 N 
ATOM      8  H9  UNL     1      -2.942  -0.079  -1.596  1.00  0.00     0.186 HD
ENDROOT
BRANCH   6   9
HETATM    9  N6  UNL     1      -1.347   1.094   0.001  1.00  0.00    -0.325 N 
HETATM   10  C9  UNL     1      -2.071   2.201  -0.495  1.00  0.00     0.481 C 
HETATM   11  N7  UNL     1      -1.110   3.183  -1.037  1.00  0.00    -0.033 N 
HETATM   12  N8  UNL     1      -2.818   2.921   0.526  1.00  0.00    -0.033 N 
ATOM     13  H73 UNL     1      -0.399   3.453  -0.357  1.00  0.00     0.278 HD
ATOM     14  H72 UNL     1      -0.487   2.777  -1.736  1.00  0.00     0.278 HD
ATOM     15  H71 UNL     1      -1.633   3.982  -1.395  1.00  0.00     0.278 HD
ATOM     16  H83 UNL     1      -3.435   2.287   1.034  1.00  0.00     0.278 HD
ATOM     17  H82 UNL     1      -2.202   3.207   1.287  1.00  0.00     0.278 HD
ATOM     18  H81 UNL     1      -3.341   3.720   0.168  1.00  0.00     0.278 HD
ATOM     19  H6  UNL     1      -0.631   1.333   0.687  1.00  0.00     0.165 HD
ENDBRANCH   6   9
BRANCH   5  20
HETATM   20  N4  UNL     1       0.392  -0.366   1.310  1.00  0.00    -0.319 N 
BRANCH  20  21
HETATM   21  C4  UNL     1       0.216  -0.498   2.705  1.00  0.00     0.356 C 
HETATM   22  O3  UNL     1       1.038   0.096   3.471  1.00  0.00    -0.283 OA
ENDBRANCH  20  21
BRANCH  20  23
HETATM   23  C5  UNL     1       1.444   0.433   0.753  1.00  0.00     0.133 C 
BRANCH  23  24
HETATM   24  C6  UNL     1       2.750  -0.256   0.511  1.00  0.00     0.047 C 
BRANCH  24  25
HETATM   25  C7  UNL     1       3.775   0.715  -0.076  1.00  0.00     0.231 C 
BRANCH  25  26
HETATM   26  N5  UNL     1       3.229   1.186  -1.319  1.00  0.00    -0.079 N 
ATOM     27  H53 UNL     1       2.974   0.433  -1.958  1.00  0.00     0.274 HD
ATOM     28  H52 UNL     1       2.298   1.592  -1.223  1.00  0.00     0.274 HD
ATOM     29  H51 UNL     1       3.913   1.834  -1.711  1.00  0.00     0.274 HD
ENDBRANCH  25  26
ENDBRANCH  24  25
ENDBRANCH  23  24
ENDBRANCH  20  23
ENDBRANCH   5  20
BRANCH   4  30
HETATM   30  N3  UNL     1       0.230  -3.300   0.859  1.00  0.00    -0.095 N 
HETATM   31  O1  UNL     1       0.052  -4.526   0.553  1.00  0.00    -0.530 OA
HETATM   32  O2  UNL     1       1.198  -3.094   1.768  1.00  0.00    -0.530 OA
ENDBRANCH   4  30
BRANCH   1  33
HETATM   33  N1  UNL     1      -3.235  -2.459  -2.161  1.00  0.00    -0.234 N 
ATOM     34  H12 UNL     1      -3.282  -3.464  -2.329  1.00  0.00     0.174 HD
ATOM     35  H11 UNL     1      -3.876  -1.839  -2.656  1.00  0.00     0.174 HD
ENDBRANCH   1  33
TORSDOF 9
