REMARK  9 active torsions:
REMARK  status: ('A' for Active; 'I' for Inactive)
REMARK    1  A    between atoms: C2_2  and  C3_3 
REMARK    2  A    between atoms: C3_3  and  C4_4 
REMARK    3  A    between atoms: C4_4  and  C5_5 
REMARK    4  A    between atoms: C5_5  and  C6_6 
REMARK    5  A    between atoms: C6_6  and  C7_7 
REMARK    6  A    between atoms: C10_12  and  C11_13 
REMARK    7  A    between atoms: N2_21  and  C19_22 
REMARK    8  A    between atoms: C20_23  and  O1_24 
REMARK    9  A    between atoms: C21_28  and  N4_29 
ROOT
HETATM    1  C11 UNL     1      -2.231   1.145   0.514  1.00  0.00     0.157 C 
HETATM    2  C12 UNL     1      -2.587   1.891  -0.755  1.00  0.00     0.021 C 
HETATM    3  C13 UNL     1      -2.409   3.367  -0.632  1.00  0.00     0.007 C 
HETATM    4  C14 UNL     1      -3.058   3.959   0.581  1.00  0.00     0.000 C 
HETATM    5  C15 UNL     1      -4.507   3.568   0.634  1.00  0.00     0.000 C 
HETATM    6  C16 UNL     1      -4.923   2.786  -0.575  1.00  0.00     0.007 C 
HETATM    7  C17 UNL     1      -4.087   1.584  -0.850  1.00  0.00     0.010 C 
HETATM    8  C18 UNL     1      -4.345   0.442   0.124  1.00  0.00     0.129 C 
HETATM    9  N2  UNL     1      -2.974  -0.078   0.286  1.00  0.00    -0.360 N 
ENDROOT
BRANCH   1  10
HETATM   10  C10 UNL     1      -0.824   1.001   0.791  1.00  0.00     0.105 A 
HETATM   11  N1  UNL     1      -0.250   1.694   1.791  1.00  0.00    -0.354 N 
HETATM   12  C9  UNL     1       1.030   1.624   2.115  1.00  0.00     0.091 A 
ATOM     13  H1  UNL     1      -0.844   2.317   2.338  1.00  0.00     0.166 HD
HETATM   14  C8  UNL     1       1.862   0.791   1.397  1.00  0.00     0.042 A 
HETATM   15  C7  UNL     1       1.295   0.072   0.368  1.00  0.00     0.011 A 
HETATM   16  N6  UNL     1      -0.027   0.190   0.088  1.00  0.00    -0.348 N 
ATOM     17  H6  UNL     1      -0.423  -0.354  -0.679  1.00  0.00     0.167 HD
BRANCH  15  18
HETATM   18  C6  UNL     1       2.124  -0.846  -0.452  1.00  0.00     0.057 C 
BRANCH  18  19
HETATM   19  C5  UNL     1       3.550  -0.823   0.028  1.00  0.00     0.006 C 
BRANCH  19  20
HETATM   20  C4  UNL     1       4.337  -1.776  -0.846  1.00  0.00     0.000 C 
BRANCH  20  21
HETATM   21  C3  UNL     1       5.791  -1.843  -0.463  1.00  0.00    -0.000 C 
BRANCH  21  22
HETATM   22  C2  UNL     1       6.482  -0.505  -0.571  1.00  0.00    -0.005 C 
HETATM   23  C1  UNL     1       7.936  -0.730  -0.155  1.00  0.00     0.005 C 
ENDBRANCH  21  22
ENDBRANCH  20  21
ENDBRANCH  19  20
ENDBRANCH  18  19
ENDBRANCH  15  18
ENDBRANCH   1  10
BRANCH   9  24
HETATM   24  C19 UNL     1      -2.563  -1.430   0.212  1.00  0.00     0.152 A 
HETATM   25  C20 UNL     1      -2.201  -2.039  -0.983  1.00  0.00     0.188 A 
HETATM   26  N3  UNL     1      -1.802  -3.323  -1.044  1.00  0.00    -0.168 N 
HETATM   27  C21 UNL     1      -1.749  -4.047   0.080  1.00  0.00     0.680 A 
ATOM     28  H3  UNL     1      -1.543  -3.740  -1.938  1.00  0.00     0.186 HD
HETATM   29  N5  UNL     1      -2.092  -3.482   1.245  1.00  0.00    -0.154 N 
HETATM   30  C22 UNL     1      -2.498  -2.201   1.357  1.00  0.00     0.290 A 
ATOM     31  H5  UNL     1      -2.044  -4.050   2.091  1.00  0.00     0.187 HD
HETATM   32  O2  UNL     1      -2.808  -1.735   2.497  1.00  0.00    -0.265 OA
BRANCH  25  33
HETATM   33  O1  UNL     1      -2.241  -1.334  -2.178  1.00  0.00    -0.344 OA
ATOM     34  H1  UNL     1      -1.993  -1.750  -2.995  1.00  0.00     0.219 HD
ENDBRANCH  25  33
BRANCH  27  35
HETATM   35  N4  UNL     1      -1.360  -5.291   0.005  1.00  0.00    -0.234 N 
ATOM     36  H42 UNL     1      -1.099  -5.721  -0.882  1.00  0.00     0.174 HD
ATOM     37  H41 UNL     1      -1.320  -5.843   0.862  1.00  0.00     0.174 HD
ENDBRANCH  27  35
ENDBRANCH   9  24
TORSDOF 9
