REMARK  1 active torsions:
REMARK  status: ('A' for Active; 'I' for Inactive)
REMARK    1  A    between atoms: C1_2  and  C2_4 
ROOT
HETATM    1  C2  UNL     1       1.097  -0.461  -0.413  1.00  0.00     0.087 C 
HETATM    2  C3  UNL     1       0.684   0.961  -0.219  1.00  0.00     0.015 C 
HETATM    3  C4  UNL     1      -0.642   1.316  -0.775  1.00  0.00     0.001 C 
HETATM    4  C5  UNL     1      -1.760   1.236   0.256  1.00  0.00     0.000 C 
HETATM    5  C6  UNL     1      -1.719  -0.109   0.942  1.00  0.00     0.000 C 
HETATM    6  C7  UNL     1      -1.281  -1.196  -0.011  1.00  0.00     0.001 C 
HETATM    7  C8  UNL     1       0.177  -1.494   0.074  1.00  0.00     0.015 C 
ENDROOT
BRANCH   1   8
HETATM    8  C1  UNL     1       2.411  -0.637   0.289  1.00  0.00     0.177 C 
HETATM    9  O1  UNL     1       2.564  -1.462   1.228  1.00  0.00    -0.648 OA
HETATM   10  O2  UNL     1       3.532   0.107  -0.064  1.00  0.00    -0.648 OA
ENDBRANCH   1   8
TORSDOF 1
