REMARK  12 active torsions:
REMARK  status: ('A' for Active; 'I' for Inactive)
REMARK    1  A    between atoms: O1_2  and  C2_3 
REMARK    2  A    between atoms: C2_3  and  C3_5 
REMARK    3  A    between atoms: C6_8  and  C7_9 
REMARK    4  A    between atoms: C7_9  and  O3_10 
REMARK    5  A    between atoms: C7_9  and  C10_14 
REMARK    6  A    between atoms: O3_10  and  C8_11 
REMARK    7  A    between atoms: C10_14  and  O5_16 
REMARK    8  A    between atoms: C10_14  and  C12_18 
REMARK    9  A    between atoms: C13_22  and  C14_23 
REMARK   10  A    between atoms: C16_26  and  O7_27 
REMARK   11  A    between atoms: C17_29  and  C18_30 
REMARK   12  A    between atoms: C18_30  and  O9_32 
ROOT
HETATM    1  C3  UNL     1       1.615  -0.443   0.348  1.00  0.00     0.065 A 
HETATM    2  C4  UNL     1       0.304  -0.253   0.687  1.00  0.00    -0.031 A 
HETATM    3  C5  UNL     1      -0.075  -0.480   2.081  1.00  0.00     0.050 C 
HETATM    4  C6  UNL     1      -0.691   0.102  -0.265  1.00  0.00     0.021 A 
HETATM    5  C13 UNL     1      -0.223   0.249  -1.566  1.00  0.00     0.057 A 
HETATM    6  C16 UNL     1       1.143   0.041  -1.894  1.00  0.00     0.097 A 
HETATM    7  C17 UNL     1       2.041  -0.299  -0.946  1.00  0.00     0.090 A 
ENDROOT
BRANCH   4   8
HETATM    8  C7  UNL     1      -2.046   0.329   0.203  1.00  0.00     0.107 C 
BRANCH   8   9
HETATM    9  O3  UNL     1      -2.277   1.108   1.332  1.00  0.00    -0.279 OA
BRANCH   9  10
HETATM   10  C8  UNL     1      -2.829   2.343   1.361  1.00  0.00     0.259 C 
HETATM   11  C9  UNL     1      -3.059   3.128   2.613  1.00  0.00     0.126 C 
HETATM   12  O4  UNL     1      -3.171   2.879   0.296  1.00  0.00    -0.265 OA
ENDBRANCH   9  10
ENDBRANCH   8   9
BRANCH   8  13
HETATM   13  C10 UNL     1      -3.051  -0.786  -0.009  1.00  0.00     0.135 C 
HETATM   14  C11 UNL     1      -2.649  -1.820  -1.028  1.00  0.00     0.059 C 
BRANCH  13  15
HETATM   15  O5  UNL     1      -3.099  -1.528   1.268  1.00  0.00    -0.378 OA
ATOM     16  H5  UNL     1      -3.729  -2.227   1.135  1.00  0.00     0.211 HD
ENDBRANCH  13  15
BRANCH  13  17
HETATM   17  C12 UNL     1      -4.437  -0.410  -0.181  1.00  0.00     0.097 C 
HETATM   18  N1  UNL     1      -5.307  -1.341  -0.402  1.00  0.00    -0.408 N 
ATOM     19  H12 UNL     1      -5.006  -2.314  -0.451  1.00  0.00     0.155 HD
ATOM     20  H11 UNL     1      -6.284  -1.076  -0.523  1.00  0.00     0.155 HD
ENDBRANCH  13  17
ENDBRANCH   8  13
ENDBRANCH   4   8
BRANCH   5  21
HETATM   21  C14 UNL     1      -1.024   0.794  -2.633  1.00  0.00     0.159 C 
HETATM   22  C15 UNL     1      -0.485   1.136  -3.975  1.00  0.00     0.097 C 
HETATM   23  O6  UNL     1      -2.247   1.045  -2.551  1.00  0.00    -0.293 OA
ENDBRANCH   5  21
BRANCH   1  24
HETATM   24  C2  UNL     1       2.524  -0.788   1.421  1.00  0.00     0.294 C 
HETATM   25  O2  UNL     1       2.738  -1.965   1.735  1.00  0.00    -0.259 OA
BRANCH  24  26
HETATM   26  O1  UNL     1       3.150   0.237   2.087  1.00  0.00    -0.322 OA
HETATM   27  C1  UNL     1       4.045   0.076   3.143  1.00  0.00     0.213 C 
ENDBRANCH  24  26
ENDBRANCH   1  24
BRANCH   6  28
HETATM   28  O7  UNL     1       1.492   0.200  -3.194  1.00  0.00    -0.359 OA
ATOM     29  H7  UNL     1       2.406   0.061  -3.413  1.00  0.00     0.217 HD
ENDBRANCH   6  28
BRANCH   7  30
HETATM   30  C18 UNL     1       3.453  -0.538  -1.243  1.00  0.00     0.296 C 
HETATM   31  O8  UNL     1       3.938  -0.451  -2.398  1.00  0.00    -0.259 OA
BRANCH  30  32
HETATM   32  O9  UNL     1       4.366  -0.881  -0.263  1.00  0.00    -0.322 OA
HETATM   33  C19 UNL     1       5.716  -1.134  -0.425  1.00  0.00     0.213 C 
ENDBRANCH  30  32
ENDBRANCH   7  30
TORSDOF 12
