REMARK  7 active torsions:
REMARK  status: ('A' for Active; 'I' for Inactive)
REMARK    1  A    between atoms: C2_2  and  C3_6 
REMARK    2  A    between atoms: N3_11  and  C6_12 
REMARK    3  A    between atoms: C6_12  and  C7_13 
REMARK    4  A    between atoms: C7_13  and  C8_14 
REMARK    5  A    between atoms: C8_14  and  C9_15 
REMARK    6  A    between atoms: C9_15  and  C10_16 
REMARK    7  A    between atoms: C10_16  and  N4_17 
ROOT
HETATM    1  C6  UNL     1      -3.234  -0.571  -0.847  1.00  0.00     0.130 C 
ENDROOT
BRANCH   1   2
HETATM    2  N3  UNL     1      -4.571  -0.079  -0.681  1.00  0.00    -0.340 N 
HETATM    3  C3  UNL     1      -5.229   0.135   0.451  1.00  0.00     0.129 A 
HETATM    4  N2  UNL     1      -6.485   0.575   0.078  1.00  0.00    -0.349 N 
HETATM    5  C4  UNL     1      -6.591   0.630  -1.245  1.00  0.00     0.107 A 
ATOM      6  H2  UNL     1      -7.229   0.824   0.730  1.00  0.00     0.167 HD
HETATM    7  C5  UNL     1      -5.390   0.220  -1.760  1.00  0.00     0.109 A 
BRANCH   3   8
HETATM    8  C2  UNL     1      -4.807  -0.022   1.830  1.00  0.00     0.043 C 
HETATM    9  C1  UNL     1      -5.887   0.334   2.856  1.00  0.00     0.071 C 
HETATM   10  N1  UNL     1      -3.725  -0.401   2.266  1.00  0.00    -0.400 N 
ATOM     11  H12 UNL     1      -3.428  -0.511   3.236  1.00  0.00     0.156 HD
ATOM     12  H11 UNL     1      -3.006  -0.638   1.583  1.00  0.00     0.156 HD
ENDBRANCH   3   8
ENDBRANCH   1   2
BRANCH   1  13
HETATM   13  C7  UNL     1      -2.202   0.518  -0.830  1.00  0.00     0.020 C 
BRANCH  13  14
HETATM   14  C8  UNL     1      -0.827  -0.115  -1.017  1.00  0.00     0.003 C 
BRANCH  14  15
HETATM   15  C9  UNL     1       0.189   1.010  -0.995  1.00  0.00     0.020 C 
BRANCH  15  16
HETATM   16  C10 UNL     1       1.576   0.520  -1.171  1.00  0.00     0.127 C 
BRANCH  16  17
HETATM   17  N4  UNL     1       2.085  -0.393  -0.221  1.00  0.00    -0.374 N 
HETATM   18  C11 UNL     1       2.318   0.054   1.088  1.00  0.00     0.063 C 
HETATM   19  C12 UNL     1       3.469   1.004   1.121  1.00  0.00     0.044 C 
HETATM   20  C13 UNL     1       4.565   0.448   1.947  1.00  0.00     0.005 C 
HETATM   21  C14 UNL     1       5.722  -0.110   1.190  1.00  0.00     0.001 C 
HETATM   22  C15 UNL     1       5.364  -0.677  -0.158  1.00  0.00     0.005 C 
HETATM   23  C16 UNL     1       4.209  -1.669  -0.059  1.00  0.00     0.044 C 
HETATM   24  C17 UNL     1       3.020  -1.248  -0.835  1.00  0.00     0.063 C 
ENDBRANCH  16  17
ENDBRANCH  15  16
ENDBRANCH  14  15
ENDBRANCH  13  14
ENDBRANCH   1  13
TORSDOF 7
