REMARK  2 active torsions:
REMARK  status: ('A' for Active; 'I' for Inactive)
REMARK       I    between atoms: N2_7  and  C6_8 
REMARK    1  A    between atoms: N4_10  and  C7_12 
REMARK    2  A    between atoms: C7_12  and  C8_13 
ROOT
HETATM    1  N1  UNL     1      -0.541   0.967   3.023  1.00  0.00    -0.195 NA
HETATM    2  C1  UNL     1      -0.977   0.898   1.965  1.00  0.00     0.084 C 
HETATM    3  C2  UNL     1      -1.531   0.835   0.636  1.00  0.00     0.194 C 
HETATM    4  C3  UNL     1      -2.966   0.304   0.626  1.00  0.00     0.042 C 
HETATM    5  C4  UNL     1      -3.084  -0.183  -0.791  1.00  0.00     0.023 C 
HETATM    6  C5  UNL     1      -1.722  -0.773  -1.051  1.00  0.00     0.127 C 
HETATM    7  N2  UNL     1      -0.786  -0.055  -0.202  1.00  0.00    -0.339 N 
HETATM    8  C6  UNL     1       0.606  -0.267  -0.267  1.00  0.00     0.187 C 
HETATM    9  N3  UNL     1       1.206  -1.129   0.668  1.00  0.00    -0.064 NA
HETATM   10  N4  UNL     1       1.282   0.328  -1.169  1.00  0.00    -0.360 N 
ATOM     11  H4  UNL     1       0.794   0.943  -1.821  1.00  0.00     0.162 HD
ENDROOT
BRANCH  10  12
HETATM   12  C7  UNL     1       2.725   0.165  -1.307  1.00  0.00     0.166 C 
BRANCH  12  13
HETATM   13  C8  UNL     1       3.342   0.624  -0.025  1.00  0.00     0.072 C 
HETATM   14  N5  UNL     1       4.362   0.038   0.431  1.00  0.00    -0.410 N 
ATOM     15  H52 UNL     1       4.754  -0.748  -0.088  1.00  0.00     0.155 HD
ATOM     16  H51 UNL     1       4.783   0.351   1.306  1.00  0.00     0.155 HD
ENDBRANCH  12  13
ENDBRANCH  10  12
TORSDOF 2
