REMARK  3 active torsions:
REMARK  status: ('A' for Active; 'I' for Inactive)
REMARK    1  A    between atoms: N1_1  and  N2_4 
REMARK    2  A    between atoms: C5_9  and  N3_10 
REMARK       I    between atoms: N3_10  and  C6_12 
REMARK    3  A    between atoms: C6_12  and  C7_14 
ROOT
HETATM    1  N2  UNL     1      -1.089  -0.605  -0.973  1.00  0.00    -0.311 N 
HETATM    2  C1  UNL     1      -2.090   0.327  -1.322  1.00  0.00     0.144 C 
HETATM    3  C2  UNL     1      -3.167   0.528  -0.297  1.00  0.00     0.022 C 
HETATM    4  C3  UNL     1      -2.757   0.041   1.077  1.00  0.00     0.006 C 
HETATM    5  C4  UNL     1      -1.296   0.425   1.249  1.00  0.00     0.048 C 
HETATM    6  C5  UNL     1      -0.511  -0.474   0.319  1.00  0.00     0.201 C 
ENDROOT
BRANCH   6   7
HETATM    7  N3  UNL     1       0.863  -0.022   0.211  1.00  0.00    -0.338 N 
HETATM    8  C6  UNL     1       1.944  -0.803   0.659  1.00  0.00     0.223 C 
HETATM    9  O1  UNL     1       1.763  -1.931   1.176  1.00  0.00    -0.273 OA
ATOM     10  H3  UNL     1       1.051   0.891  -0.203  1.00  0.00     0.164 HD
BRANCH   8  11
HETATM   11  C7  UNL     1       3.331  -0.298   0.526  1.00  0.00     0.078 A 
HETATM   12  C8  UNL     1       3.592   0.581  -0.678  1.00  0.00     0.015 A 
HETATM   13  C9  UNL     1       3.488   1.199   0.700  1.00  0.00     0.015 A 
ENDBRANCH   8  11
ENDBRANCH   6   7
BRANCH   1  14
HETATM   14  N1  UNL     1      -1.278  -1.893  -1.411  1.00  0.00    -0.345 N 
ATOM     15  H12 UNL     1      -1.693  -1.987  -2.338  1.00  0.00     0.176 HD
ATOM     16  H11 UNL     1      -0.555  -2.566  -1.159  1.00  0.00     0.176 HD
ENDBRANCH   1  14
TORSDOF 3
