REMARK  10 active torsions:
REMARK  status: ('A' for Active; 'I' for Inactive)
REMARK    1  A    between atoms: C6_8  and  O1_9 
REMARK    2  A    between atoms: O1_9  and  C7_10 
REMARK    3  A    between atoms: C9_12  and  O2_13 
REMARK    4  A    between atoms: O2_13  and  C10_14 
REMARK    5  A    between atoms: C10_14  and  C13_17 
REMARK    6  A    between atoms: C13_17  and  C14_18 
REMARK    7  A    between atoms: C14_18  and  N1_19 
REMARK    8  A    between atoms: C18_25  and  N3_26 
REMARK    9  A    between atoms: C19_31  and  C20_32 
REMARK   10  A    between atoms: C20_32  and  C21_33 
ROOT
HETATM    1  C7  UNL     1      -0.445  -1.546  -0.198  1.00  0.00     0.167 A 
HETATM    2  C8  UNL     1       0.500  -0.550  -0.349  1.00  0.00     0.113 A 
HETATM    3  C9  UNL     1       1.847  -0.792  -0.493  1.00  0.00     0.162 A 
HETATM    4  N2  UNL     1       2.230  -2.070  -0.486  1.00  0.00    -0.171 N 
ATOM      5  H2  UNL     1       3.220  -2.293  -0.593  1.00  0.00     0.186 HD
HETATM    6  C18 UNL     1       1.333  -3.083  -0.340  1.00  0.00     0.679 A 
HETATM    7  N4  UNL     1       0.031  -2.830  -0.199  1.00  0.00    -0.170 N 
ATOM      8  H4  UNL     1      -0.621  -3.606  -0.090  1.00  0.00     0.186 HD
ENDROOT
BRANCH   1   9
HETATM    9  O1  UNL     1      -1.783  -1.332  -0.049  1.00  0.00    -0.289 OA
BRANCH   9  10
HETATM   10  C6  UNL     1      -2.476  -1.029   1.096  1.00  0.00     0.123 A 
HETATM   11  C5  UNL     1      -1.850  -1.033   2.308  1.00  0.00     0.153 A 
HETATM   12  C4  UNL     1      -2.600  -0.720   3.436  1.00  0.00     0.088 A 
HETATM   13  F2  UNL     1      -0.517  -1.340   2.447  1.00  0.00    -0.203 F 
HETATM   14  C3  UNL     1      -3.928  -0.425   3.280  1.00  0.00     0.126 A 
HETATM   15  C2  UNL     1      -4.572  -0.423   2.035  1.00  0.00    -0.014 A 
HETATM   16  F1  UNL     1      -4.677  -0.118   4.365  1.00  0.00    -0.205 F 
HETATM   17  C1  UNL     1      -6.032  -0.165   1.992  1.00  0.00     0.052 C 
HETATM   18  C19 UNL     1      -3.841  -0.724   0.938  1.00  0.00    -0.012 A 
BRANCH  18  19
HETATM   19  C20 UNL     1      -4.357  -0.705  -0.426  1.00  0.00     0.047 C 
BRANCH  19  20
HETATM   20  C21 UNL     1      -4.291   0.533  -1.220  1.00  0.00    -0.007 C 
HETATM   21  C22 UNL     1      -4.967   1.757  -0.780  1.00  0.00     0.008 C 
HETATM   22  C23 UNL     1      -6.393   1.699  -1.296  1.00  0.00     0.037 C 
HETATM   23  C24 UNL     1      -6.425   0.594  -2.328  1.00  0.00     0.170 C 
HETATM   24  F3  UNL     1      -7.076   0.994  -3.462  1.00  0.00    -0.249 F 
HETATM   25  C25 UNL     1      -4.981   0.215  -2.572  1.00  0.00     0.042 C 
ENDBRANCH  19  20
ENDBRANCH  18  19
ENDBRANCH   9  10
ENDBRANCH   1   9
BRANCH   3  26
HETATM   26  O2  UNL     1       2.798   0.199  -0.639  1.00  0.00    -0.325 OA
BRANCH  26  27
HETATM   27  C10 UNL     1       3.430   0.815   0.464  1.00  0.00     0.064 C 
HETATM   28  C11 UNL     1       2.297   1.489   1.321  1.00  0.00     0.046 C 
HETATM   29  C12 UNL     1       4.093  -0.111   1.423  1.00  0.00     0.046 C 
BRANCH  27  30
HETATM   30  C13 UNL     1       4.254   1.958  -0.011  1.00  0.00     0.068 C 
BRANCH  30  31
HETATM   31  C14 UNL     1       5.286   1.654  -1.001  1.00  0.00     0.275 C 
BRANCH  31  32
HETATM   32  N1  UNL     1       6.264   0.689  -0.628  1.00  0.00     0.088 N 
HETATM   33  C15 UNL     1       7.506   0.854  -1.485  1.00  0.00     0.274 C 
HETATM   34  C16 UNL     1       7.680  -0.634  -1.296  1.00  0.00     0.060 C 
HETATM   35  C17 UNL     1       6.140  -0.581  -1.413  1.00  0.00     0.274 C 
ENDBRANCH  31  32
ENDBRANCH  30  31
ENDBRANCH  27  30
ENDBRANCH  26  27
ENDBRANCH   3  26
BRANCH   6  36
HETATM   36  N3  UNL     1       1.754  -4.315  -0.346  1.00  0.00    -0.234 N 
ATOM     37  H32 UNL     1       2.750  -4.508  -0.454  1.00  0.00     0.174 HD
ATOM     38  H31 UNL     1       1.082  -5.074  -0.237  1.00  0.00     0.174 HD
ENDBRANCH   6  36
TORSDOF 10
