REMARK  3 active torsions:
REMARK  status: ('A' for Active; 'I' for Inactive)
REMARK    1  A    between atoms: C1_2  and  C2_4 
REMARK    2  A    between atoms: N1_8  and  C5_9 
REMARK    3  A    between atoms: C5_9  and  C6_10 
ROOT
HETATM    1  C2  UNL     1      -2.881   0.270  -0.119  1.00  0.00     0.391 C 
HETATM    2  O3  UNL     1      -3.445  -0.932  -0.546  1.00  0.00    -0.345 OA
HETATM    3  C3  UNL     1      -3.043  -1.881   0.399  1.00  0.00     0.218 C 
HETATM    4  C4  UNL     1      -1.597  -1.793   0.733  1.00  0.00     0.116 C 
HETATM    5  N1  UNL     1      -0.865  -0.752   0.131  1.00  0.00    -0.268 N 
HETATM    6  O4  UNL     1      -1.534   0.220  -0.445  1.00  0.00    -0.235 OA
ENDROOT
BRANCH   5   7
HETATM    7  C5  UNL     1       0.274  -0.292   0.890  1.00  0.00     0.159 C 
BRANCH   7   8
HETATM    8  C6  UNL     1       0.969   0.824   0.131  1.00  0.00     0.006 C 
HETATM    9  C7  UNL     1       1.448   0.359  -1.212  1.00  0.00     0.006 C 
HETATM   10  C8  UNL     1       2.435  -0.752  -1.004  1.00  0.00     0.000 C 
HETATM   11  C9  UNL     1       3.607  -0.197  -0.221  1.00  0.00     0.000 C 
HETATM   12  C10 UNL     1       3.437   1.254   0.131  1.00  0.00     0.000 C 
HETATM   13  C11 UNL     1       2.121   1.398   0.882  1.00  0.00     0.006 C 
ENDBRANCH   7   8
ENDBRANCH   5   7
BRANCH   1  14
HETATM   14  C1  UNL     1      -3.532   1.417  -0.741  1.00  0.00     0.233 C 
HETATM   15  O1  UNL     1      -3.149   2.584  -0.469  1.00  0.00    -0.644 OA
HETATM   16  O2  UNL     1      -4.573   1.190  -1.630  1.00  0.00    -0.644 OA
ENDBRANCH   1  14
TORSDOF 3
