REMARK  5 active torsions:
REMARK  status: ('A' for Active; 'I' for Inactive)
REMARK    1  A    between atoms: C2_2  and  C3_3 
REMARK    2  A    between atoms: C3_3  and  N1_4 
REMARK    3  A    between atoms: N1_4  and  C4_7 
REMARK    4  A    between atoms: C6_12  and  N3_13 
REMARK    5  A    between atoms: C7_17  and  N4_18 
ROOT
HETATM    1  C4  UNL     1       0.112   0.183  -0.154  1.00  0.00     0.245 C 
HETATM    2  C5  UNL     1      -0.161   0.496  -1.557  1.00  0.00     0.270 C 
HETATM    3  N2  UNL     1      -1.445  -0.150  -1.840  1.00  0.00    -0.042 N 
ATOM      4  H21 UNL     1      -1.358  -0.923  -2.500  1.00  0.00     0.279 HD
ATOM      5  H22 UNL     1      -2.066   0.438  -2.396  1.00  0.00     0.279 HD
HETATM    6  C6  UNL     1      -2.034  -0.552  -0.593  1.00  0.00     0.412 C 
HETATM    7  C7  UNL     1      -1.321   0.291   0.442  1.00  0.00     0.273 C 
ENDROOT
BRANCH   1   8
HETATM    8  N1  UNL     1       1.008   0.960   0.614  1.00  0.00    -0.064 N 
ATOM      9  H12 UNL     1       0.518   1.593   1.246  1.00  0.00     0.278 HD
ATOM     10  H11 UNL     1       1.490   1.657   0.047  1.00  0.00     0.278 HD
BRANCH   8  11
HETATM   11  C3  UNL     1       1.931   0.106   1.317  1.00  0.00     0.259 C 
BRANCH  11  12
HETATM   12  C2  UNL     1       3.023  -0.502   0.557  1.00  0.00    -0.010 C 
HETATM   13  C1  UNL     1       3.330  -0.297  -0.725  1.00  0.00     0.008 C 
ENDBRANCH  11  12
ENDBRANCH   8  11
ENDBRANCH   1   8
BRANCH   7  14
HETATM   14  N4  UNL     1      -1.352  -0.223   1.764  1.00  0.00    -0.069 N 
ATOM     15  H43 UNL     1      -0.995  -1.177   1.808  1.00  0.00     0.274 HD
ATOM     16  H42 UNL     1      -0.659   0.227   2.362  1.00  0.00     0.274 HD
ATOM     17  H41 UNL     1      -2.292  -0.152   2.155  1.00  0.00     0.274 HD
ENDBRANCH   7  14
BRANCH   6  18
HETATM   18  N3  UNL     1      -3.464  -0.342  -0.564  1.00  0.00    -0.048 N 
ATOM     19  H33 UNL     1      -3.698   0.626  -0.785  1.00  0.00     0.276 HD
ATOM     20  H32 UNL     1      -3.919  -0.804  -1.351  1.00  0.00     0.276 HD
ATOM     21  H31 UNL     1      -3.882  -0.627   0.321  1.00  0.00     0.276 HD
ENDBRANCH   6  18
TORSDOF 5
