REMARK  4 active torsions:
REMARK  status: ('A' for Active; 'I' for Inactive)
REMARK    1  A    between atoms: C2_2  and  C3_3 
REMARK    2  A    between atoms: C4_6  and  C5_7 
REMARK    3  A    between atoms: C5_7  and  N2_8 
REMARK    4  A    between atoms: N3_17  and  C14_18 
ROOT
HETATM    1  N2  UNL     1       1.753   1.315  -0.127  1.00  0.00     0.095 N 
HETATM    2  C6  UNL     1       0.903   2.243  -0.856  1.00  0.00     0.273 C 
HETATM    3  C7  UNL     1      -0.207   1.578  -1.603  1.00  0.00     0.031 C 
HETATM    4  C8  UNL     1      -1.509   1.606  -0.840  1.00  0.00     0.011 C 
HETATM    5  C9  UNL     1      -1.513   0.768   0.393  1.00  0.00    -0.035 C 
HETATM    6  C10 UNL     1      -0.214   0.807   1.171  1.00  0.00     0.040 C 
HETATM    7  C11 UNL     1       0.954   0.234   0.426  1.00  0.00     0.273 C 
HETATM    8  C12 UNL     1      -2.570   1.316   1.323  1.00  0.00     0.040 C 
HETATM    9  C13 UNL     1      -3.966   1.053   0.827  1.00  0.00     0.273 C 
HETATM   10  N3  UNL     1      -4.169  -0.334   0.560  1.00  0.00     0.092 N 
HETATM   11  C17 UNL     1      -3.204  -0.958  -0.284  1.00  0.00     0.273 C 
HETATM   12  C18 UNL     1      -1.776  -0.661   0.001  1.00  0.00     0.040 C 
ENDROOT
BRANCH   1  13
HETATM   13  C5  UNL     1       2.680   0.754  -1.078  1.00  0.00     0.349 C 
BRANCH  13  14
HETATM   14  C4  UNL     1       3.634  -0.212  -0.495  1.00  0.00     0.127 A 
HETATM   15  N1  UNL     1       4.779   0.207   0.095  1.00  0.00    -0.333 N 
HETATM   16  C3  UNL     1       5.685  -0.622   0.640  1.00  0.00     0.098 A 
ATOM     17  H1  UNL     1       4.964   1.210   0.127  1.00  0.00     0.168 HD
HETATM   18  N6  UNL     1       5.425  -1.941   0.590  1.00  0.00    -0.181 N 
HETATM   19  C19 UNL     1       4.282  -2.395   0.003  1.00  0.00     0.678 A 
ATOM     20  H6  UNL     1       6.087  -2.604   0.993  1.00  0.00     0.185 HD
HETATM   21  N4  UNL     1       3.399  -1.531  -0.533  1.00  0.00    -0.179 N 
HETATM   22  N5  UNL     1       3.995  -3.649  -0.067  1.00  0.00    -0.234 N 
ATOM     23  H4  UNL     1       2.547  -1.882  -0.970  1.00  0.00     0.185 HD
ATOM     24  H52 UNL     1       3.139  -3.989  -0.506  1.00  0.00     0.174 HD
ATOM     25  H51 UNL     1       4.664  -4.303   0.339  1.00  0.00     0.174 HD
BRANCH  16  26
HETATM   26  C2  UNL     1       6.935  -0.126   1.283  1.00  0.00     0.072 C 
HETATM   27  C1  UNL     1       8.008  -0.053   0.233  1.00  0.00     0.013 C 
ENDBRANCH  16  26
ENDBRANCH  13  14
ENDBRANCH   1  13
BRANCH  10  28
HETATM   28  C14 UNL     1      -5.477  -0.563  -0.037  1.00  0.00     0.215 C 
HETATM   29  C15 UNL     1      -6.600  -0.170   0.883  1.00  0.00     0.042 C 
HETATM   30  C16 UNL     1      -5.660  -1.988  -0.461  1.00  0.00     0.042 C 
ENDBRANCH  10  28
TORSDOF 4
