REMARK  7 active torsions:
REMARK  status: ('A' for Active; 'I' for Inactive)
REMARK    1  A    between atoms: C2_2  and  C3_3 
REMARK    2  A    between atoms: C3_3  and  N1_4 
REMARK    3  A    between atoms: C6_12  and  C7_13 
REMARK    4  A    between atoms: C7_13  and  C8_14 
REMARK    5  A    between atoms: C8_14  and  C9_15 
REMARK    6  A    between atoms: C9_15  and  N4_16 
REMARK    7  A    between atoms: C13_20  and  C14_21 
ROOT
HETATM    1  N1  UNL     1       6.047   0.009   0.961  1.00  0.00    -0.289 N 
HETATM    2  C4  UNL     1       5.213   0.907   1.565  1.00  0.00     0.182 A 
HETATM    3  S1  UNL     1       5.775   1.961   2.680  1.00  0.00    -0.040 SA
HETATM    4  N2  UNL     1       3.924   0.878   1.197  1.00  0.00    -0.317 N 
ATOM      5  H2  UNL     1       3.279   1.537   1.632  1.00  0.00     0.170 HD
HETATM    6  C5  UNL     1       3.441   0.015   0.276  1.00  0.00     0.141 A 
HETATM    7  N3  UNL     1       2.135   0.008  -0.077  1.00  0.00    -0.339 N 
ATOM      8  H3  UNL     1       1.496   0.670   0.363  1.00  0.00     0.167 HD
HETATM    9  C6  UNL     1       1.660  -0.853  -0.996  1.00  0.00     0.079 A 
HETATM   10  C19 UNL     1       2.537  -1.752  -1.590  1.00  0.00     0.268 A 
HETATM   11  O1  UNL     1       2.092  -2.556  -2.449  1.00  0.00    -0.266 OA
HETATM   12  N5  UNL     1       3.847  -1.770  -1.259  1.00  0.00    -0.314 N 
ATOM     13  H5  UNL     1       4.489  -2.430  -1.697  1.00  0.00     0.169 HD
HETATM   14  C20 UNL     1       4.280  -0.893  -0.336  1.00  0.00     0.148 A 
HETATM   15  C21 UNL     1       5.617  -0.865   0.045  1.00  0.00     0.280 A 
HETATM   16  O2  UNL     1       6.354  -1.699  -0.525  1.00  0.00    -0.265 OA
ENDROOT
BRANCH   9  17
HETATM   17  C7  UNL     1       0.227  -0.894  -1.410  1.00  0.00     0.064 C 
BRANCH  17  18
HETATM   18  C8  UNL     1      -0.446  -2.103  -0.770  1.00  0.00     0.025 C 
BRANCH  18  19
HETATM   19  C9  UNL     1      -1.902  -2.178  -1.163  1.00  0.00     0.117 C 
BRANCH  19  20
HETATM   20  N4  UNL     1      -2.576  -1.006  -0.727  1.00  0.00    -0.412 N 
HETATM   21  C10 UNL     1      -2.748  -0.828   0.664  1.00  0.00     0.117 C 
HETATM   22  C11 UNL     1      -2.817   0.663   0.969  1.00  0.00     0.020 C 
HETATM   23  C12 UNL     1      -4.265   1.090   1.134  1.00  0.00     0.006 C 
HETATM   24  C13 UNL     1      -4.964   1.045  -0.204  1.00  0.00    -0.010 C 
HETATM   25  C17 UNL     1      -4.925  -0.298  -0.859  1.00  0.00     0.024 C 
HETATM   26  C18 UNL     1      -3.616  -0.536  -1.562  1.00  0.00     0.117 C 
BRANCH  24  27
HETATM   27  C14 UNL     1      -6.422   1.432  -0.002  1.00  0.00    -0.019 C 
HETATM   28  C15 UNL     1      -6.533   2.839   0.580  1.00  0.00     0.010 C 
HETATM   29  C16 UNL     1      -7.098   0.474   0.946  1.00  0.00     0.010 C 
ENDBRANCH  24  27
ENDBRANCH  19  20
ENDBRANCH  18  19
ENDBRANCH  17  18
ENDBRANCH   9  17
BRANCH   1  30
HETATM   30  C3  UNL     1       7.423   0.038   1.362  1.00  0.00     0.134 C 
BRANCH  30  31
HETATM   31  C2  UNL     1       8.300   0.962   0.589  1.00  0.00     0.016 C 
HETATM   32  C1  UNL     1       8.391   0.681  -0.878  1.00  0.00     0.006 C 
ENDBRANCH  30  31
ENDBRANCH   1  30
TORSDOF 7
