REMARK  6 active torsions:
REMARK  status: ('A' for Active; 'I' for Inactive)
REMARK       I    between atoms: C2_2  and  N1_4 
REMARK    1  A    between atoms: N1_4  and  C3_6 
REMARK    2  A    between atoms: N2_9  and  C6_10 
REMARK    3  A    between atoms: C6_10  and  C7_11 
REMARK    4  A    between atoms: N3_15  and  S1_16 
REMARK    5  A    between atoms: S1_16  and  C11_19 
REMARK    6  A    between atoms: C11_19  and  C12_20 
ROOT
HETATM    1  C7  UNL     1       0.766  -1.047  -1.097  1.00  0.00     0.028 C 
HETATM    2  C8  UNL     1       0.064  -1.070  -2.437  1.00  0.00     0.009 C 
HETATM    3  C9  UNL     1      -0.850   0.132  -2.494  1.00  0.00     0.016 C 
HETATM    4  C10 UNL     1      -1.997  -0.151  -1.508  1.00  0.00     0.107 C 
HETATM    5  N3  UNL     1      -1.525  -0.707  -0.294  1.00  0.00    -0.210 NA
HETATM    6  C18 UNL     1      -0.127  -0.484  -0.013  1.00  0.00     0.113 C 
ENDROOT
BRANCH   1   7
HETATM    7  C6  UNL     1       1.952  -0.116  -1.215  1.00  0.00     0.278 C 
BRANCH   7   8
HETATM    8  N2  UNL     1       2.699  -0.011  -0.002  1.00  0.00     0.088 N 
HETATM    9  C5  UNL     1       3.411  -1.184   0.393  1.00  0.00     0.274 C 
HETATM   10  C4  UNL     1       4.684  -0.757   1.091  1.00  0.00     0.055 C 
HETATM   11  C3  UNL     1       5.608  -0.184   0.037  1.00  0.00     0.087 C 
HETATM   12  C20 UNL     1       4.811   0.788  -0.795  1.00  0.00     0.055 C 
HETATM   13  C19 UNL     1       3.558   1.141  -0.062  1.00  0.00     0.274 C 
BRANCH  11  14
HETATM   14  N1  UNL     1       6.752   0.476   0.638  1.00  0.00    -0.357 N 
HETATM   15  C2  UNL     1       8.052  -0.012   0.342  1.00  0.00     0.213 C 
HETATM   16  C1  UNL     1       9.278   0.612   0.922  1.00  0.00     0.117 C 
HETATM   17  O1  UNL     1       8.245  -0.997  -0.425  1.00  0.00    -0.274 OA
ATOM     18  H1  UNL     1       6.625   1.274   1.260  1.00  0.00     0.162 HD
ENDBRANCH  11  14
ENDBRANCH   7   8
ENDBRANCH   1   7
BRANCH   5  19
HETATM   19  S1  UNL     1      -2.420  -0.323   1.113  1.00  0.00     0.211 S 
HETATM   20  O2  UNL     1      -1.703  -1.012   2.270  1.00  0.00    -0.211 OA
HETATM   21  O3  UNL     1      -2.270   1.154   1.342  1.00  0.00    -0.211 OA
BRANCH  19  22
HETATM   22  C11 UNL     1      -4.075  -0.857   1.118  1.00  0.00     0.162 C 
BRANCH  22  23
HETATM   23  C12 UNL     1      -4.972  -0.312   0.070  1.00  0.00     0.001 C 
HETATM   24  C13 UNL     1      -6.346  -0.976   0.319  1.00  0.00     0.005 C 
HETATM   25  C14 UNL     1      -7.111  -0.086   1.274  1.00  0.00     0.000 C 
HETATM   26  C15 UNL     1      -7.667   1.063   0.447  1.00  0.00     0.000 C 
HETATM   27  C16 UNL     1      -6.513   1.615  -0.350  1.00  0.00     0.000 C 
HETATM   28  C17 UNL     1      -5.175   1.198   0.237  1.00  0.00     0.005 C 
ENDBRANCH  22  23
ENDBRANCH  19  22
ENDBRANCH   5  19
TORSDOF 6
