REMARK  6 active torsions:
REMARK  status: ('A' for Active; 'I' for Inactive)
REMARK    1  A    between atoms: N2_14  and  C12_15 
REMARK    2  A    between atoms: C12_15  and  C13_16 
REMARK    3  A    between atoms: C12_15  and  C19_26 
REMARK       I    between atoms: C13_16  and  N3_18 
REMARK    4  A    between atoms: N3_18  and  C14_20 
REMARK    5  A    between atoms: C14_20  and  C15_21 
REMARK    6  A    between atoms: C15_21  and  N4_22 
ROOT
HETATM    1  C12 UNL     1      -0.381   1.080  -0.421  1.00  0.00     0.318 C 
ENDROOT
BRANCH   1   2
HETATM    2  N2  UNL     1      -1.163   0.284   0.499  1.00  0.00     0.109 N 
HETATM    3  C5  UNL     1      -0.846  -1.077   0.539  1.00  0.00     0.252 C 
HETATM    4  C4  UNL     1      -1.387  -2.235  -0.115  1.00  0.00     0.308 C 
HETATM    5  C6  UNL     1      -0.683  -1.494   2.021  1.00  0.00     0.038 C 
HETATM    6  N1  UNL     1      -2.722  -2.715   0.316  1.00  0.00     0.096 N 
HETATM    7  C3  UNL     1      -3.474  -3.012  -0.897  1.00  0.00     0.280 C 
HETATM    8  C9  UNL     1      -3.352  -1.550   0.863  1.00  0.00     0.236 C 
HETATM    9  C2  UNL     1      -4.694  -2.167  -1.183  1.00  0.00     0.109 C 
HETATM   10  C1  UNL     1      -4.419  -0.705  -1.017  1.00  0.00     0.136 C 
HETATM   11  O1  UNL     1      -5.077   0.174  -1.429  1.00  0.00    -0.297 OA
HETATM   12  C10 UNL     1      -3.183  -0.611  -0.249  1.00  0.00     0.117 C 
HETATM   13  C11 UNL     1      -2.565   0.620   0.186  1.00  0.00     0.288 C 
HETATM   14  C8  UNL     1      -3.112  -1.140   2.238  1.00  0.00     0.037 C 
HETATM   15  C7  UNL     1      -1.782  -0.721   2.704  1.00  0.00     0.004 C 
ENDBRANCH   1   2
BRANCH   1  16
HETATM   16  C13 UNL     1       1.117   0.869  -0.153  1.00  0.00     0.251 C 
HETATM   17  O2  UNL     1       1.419   0.829   1.051  1.00  0.00    -0.271 OA
HETATM   18  N3  UNL     1       2.037   0.735  -1.186  1.00  0.00    -0.358 N 
ATOM     19  H3  UNL     1       1.715   0.781  -2.153  1.00  0.00     0.162 HD
BRANCH  18  20
HETATM   20  C14 UNL     1       3.435   0.533  -0.916  1.00  0.00     0.152 C 
BRANCH  20  21
HETATM   21  C15 UNL     1       3.751  -0.712  -0.138  1.00  0.00     0.292 C 
BRANCH  21  22
HETATM   22  N4  UNL     1       5.213  -0.753   0.037  1.00  0.00     0.090 N 
HETATM   23  C16 UNL     1       5.652  -1.932   0.789  1.00  0.00     0.274 C 
HETATM   24  C17 UNL     1       6.713  -2.152  -0.236  1.00  0.00     0.060 C 
HETATM   25  C18 UNL     1       5.874  -1.281  -1.157  1.00  0.00     0.274 C 
ENDBRANCH  21  22
ENDBRANCH  20  21
ENDBRANCH  18  20
ENDBRANCH   1  16
BRANCH   1  26
HETATM   26  C19 UNL     1      -0.416   2.565  -0.216  1.00  0.00     0.028 C 
HETATM   27  C20 UNL     1      -1.597   3.385  -0.263  1.00  0.00     0.007 C 
HETATM   28  C21 UNL     1      -0.952   4.790  -0.057  1.00  0.00     0.000 C 
HETATM   29  C22 UNL     1       0.066   4.699  -1.185  1.00  0.00     0.000 C 
HETATM   30  C23 UNL     1       0.520   3.264  -1.216  1.00  0.00     0.007 C 
ENDBRANCH   1  26
TORSDOF 6
