REMARK  6 active torsions:
REMARK  status: ('A' for Active; 'I' for Inactive)
REMARK    1  A    between atoms: N1_1  and  C1_5 
REMARK    2  A    between atoms: C1_5  and  C2_6 
REMARK    3  A    between atoms: C5_9  and  N2_10 
REMARK    4  A    between atoms: N2_10  and  C6_12 
REMARK    5  A    between atoms: C13_19  and  C14_20 
REMARK    6  A    between atoms: C14_20  and  N3_21 
ROOT
HETATM    1  C6  UNL     1      -0.211   0.250   0.334  1.00  0.00     0.033 A 
HETATM    2  C7  UNL     1      -0.245  -0.848  -0.487  1.00  0.00     0.030 A 
HETATM    3  C8  UNL     1      -1.396  -1.176  -1.181  1.00  0.00     0.010 A 
HETATM    4  C9  UNL     1      -2.514  -0.377  -1.032  1.00  0.00    -0.051 A 
HETATM    5  C10 UNL     1      -2.499   0.725  -0.215  1.00  0.00    -0.049 A 
HETATM    6  C11 UNL     1      -1.367   1.039   0.460  1.00  0.00     0.037 A 
HETATM    7  C12 UNL     1      -3.819   1.410  -0.229  1.00  0.00     0.045 C 
HETATM    8  C13 UNL     1      -4.772   0.343  -0.775  1.00  0.00     0.019 C 
HETATM    9  C15 UNL     1      -3.855  -0.466  -1.625  1.00  0.00     0.045 C 
ENDROOT
BRANCH   1  10
HETATM   10  N2  UNL     1       0.927   0.661   1.053  1.00  0.00    -0.356 N 
ATOM     11  H2  UNL     1       0.764   1.205   1.900  1.00  0.00     0.166 HD
BRANCH  10  12
HETATM   12  C5  UNL     1       2.262   0.396   0.720  1.00  0.00     0.032 A 
HETATM   13  C4  UNL     1       2.685   0.157  -0.563  1.00  0.00     0.030 A 
HETATM   14  C3  UNL     1       3.999  -0.125  -0.866  1.00  0.00     0.011 A 
HETATM   15  C2  UNL     1       4.974  -0.184   0.105  1.00  0.00    -0.033 A 
HETATM   16  C17 UNL     1       4.560   0.056   1.398  1.00  0.00     0.011 A 
HETATM   17  C16 UNL     1       3.254   0.336   1.704  1.00  0.00     0.030 A 
BRANCH  15  18
HETATM   18  C1  UNL     1       6.391  -0.487  -0.217  1.00  0.00     0.268 C 
BRANCH  18  19
HETATM   19  N1  UNL     1       7.086   0.759  -0.488  1.00  0.00    -0.075 N 
ATOM     20  H13 UNL     1       6.630   1.309  -1.216  1.00  0.00     0.274 HD
ATOM     21  H12 UNL     1       6.995   1.430   0.275  1.00  0.00     0.274 HD
ATOM     22  H11 UNL     1       8.060   0.551  -0.709  1.00  0.00     0.274 HD
ENDBRANCH  18  19
ENDBRANCH  15  18
ENDBRANCH  10  12
ENDBRANCH   1  10
BRANCH   8  23
HETATM   23  C14 UNL     1      -5.309  -0.401   0.425  1.00  0.00     0.234 C 
BRANCH  23  24
HETATM   24  N3  UNL     1      -6.225  -1.445   0.096  1.00  0.00    -0.079 N 
ATOM     25  H33 UNL     1      -6.990  -1.084  -0.474  1.00  0.00     0.274 HD
ATOM     26  H32 UNL     1      -5.805  -2.094  -0.570  1.00  0.00     0.274 HD
ATOM     27  H31 UNL     1      -6.588  -1.947   0.906  1.00  0.00     0.274 HD
ENDBRANCH  23  24
ENDBRANCH   8  23
TORSDOF 6
