REMARK  4 active torsions:
REMARK  status: ('A' for Active; 'I' for Inactive)
REMARK    1  A    between atoms: C4_4  and  C5_5 
REMARK    2  A    between atoms: C5_5  and  N1_6 
REMARK    3  A    between atoms: N1_6  and  C6_8 
REMARK    4  A    between atoms: C9_11  and  C10_12 
ROOT
HETATM    1  C6  UNL     1       1.054  -1.250  -0.635  1.00  0.00     0.028 A 
HETATM    2  C7  UNL     1       0.784  -0.569   0.527  1.00  0.00     0.029 A 
HETATM    3  C8  UNL     1      -0.434   0.100   0.691  1.00  0.00     0.011 A 
HETATM    4  C9  UNL     1      -1.391   0.103  -0.281  1.00  0.00    -0.034 A 
HETATM    5  C14 UNL     1      -1.128  -0.577  -1.447  1.00  0.00     0.011 A 
HETATM    6  C15 UNL     1       0.078  -1.239  -1.611  1.00  0.00     0.029 A 
ENDROOT
BRANCH   1   7
HETATM    7  N1  UNL     1       2.273  -1.947  -0.868  1.00  0.00    -0.386 N 
ATOM      8  H1  UNL     1       2.368  -2.479  -1.733  1.00  0.00     0.160 HD
BRANCH   7   9
HETATM    9  C5  UNL     1       3.370  -1.941   0.046  1.00  0.00     0.158 C 
BRANCH   9  10
HETATM   10  C4  UNL     1       3.944  -0.577   0.213  1.00  0.00    -0.041 A 
HETATM   11  C3  UNL     1       4.749  -0.221   1.273  1.00  0.00     0.009 A 
HETATM   12  C2  UNL     1       5.280   1.057   1.400  1.00  0.00     0.001 A 
HETATM   13  C1  UNL     1       5.006   2.007   0.453  1.00  0.00     0.000 A 
HETATM   14  C17 UNL     1       4.216   1.682  -0.601  1.00  0.00     0.001 A 
HETATM   15  C16 UNL     1       3.687   0.401  -0.724  1.00  0.00     0.009 A 
ENDBRANCH   9  10
ENDBRANCH   7   9
ENDBRANCH   1   7
BRANCH   4  16
HETATM   16  C10 UNL     1      -2.696   0.792  -0.157  1.00  0.00     0.135 C 
HETATM   17  C11 UNL     1      -3.599   0.453  -1.305  1.00  0.00     0.261 C 
HETATM   18  N2  UNL     1      -4.907   1.059  -1.000  1.00  0.00    -0.071 N 
HETATM   19  C12 UNL     1      -5.511   0.170  -0.029  1.00  0.00     0.251 C 
ATOM     20  H22 UNL     1      -4.852   2.030  -0.694  1.00  0.00     0.277 HD
ATOM     21  H21 UNL     1      -5.486   1.229  -1.822  1.00  0.00     0.277 HD
HETATM   22  C13 UNL     1      -4.535  -0.253   1.037  1.00  0.00     0.142 C 
HETATM   23  N3  UNL     1      -3.350   0.563   1.075  1.00  0.00    -0.410 N 
ATOM     24  H3  UNL     1      -2.999   0.957   1.948  1.00  0.00     0.154 HD
ENDBRANCH   4  16
TORSDOF 4
