REMARK  4 active torsions:
REMARK  status: ('A' for Active; 'I' for Inactive)
REMARK    1  A    between atoms: C2_2  and  C17_28 
REMARK    2  A    between atoms: N1_3  and  N2_5 
REMARK       I    between atoms: N2_5  and  C3_7 
REMARK    3  A    between atoms: C3_7  and  C4_9 
REMARK    4  A    between atoms: N4_16  and  C9_17 
ROOT
HETATM    1  N2  UNL     1      -0.420  -1.175   0.313  1.00  0.00    -0.266 N 
ATOM      2  H2  UNL     1      -0.334  -2.136   0.645  1.00  0.00     0.190 HD
HETATM    3  C3  UNL     1      -1.638  -0.487   0.493  1.00  0.00     0.275 C 
HETATM    4  O1  UNL     1      -1.706   0.716   0.052  1.00  0.00    -0.266 OA
ENDROOT
BRANCH   1   5
HETATM    5  N1  UNL     1       0.690  -0.554  -0.323  1.00  0.00    -0.302 N 
HETATM    6  C2  UNL     1       1.885  -0.675   0.113  1.00  0.00     0.032 C 
HETATM    7  C1  UNL     1       2.179  -1.476   1.320  1.00  0.00     0.070 C 
ATOM      8  H1  UNL     1       0.526   0.009  -1.158  1.00  0.00     0.186 HD
BRANCH   6   9
HETATM    9  C17 UNL     1       2.967  -0.028  -0.592  1.00  0.00    -0.010 A 
HETATM   10  C18 UNL     1       2.714   0.748  -1.706  1.00  0.00     0.014 A 
HETATM   11  C19 UNL     1       3.759   1.333  -2.379  1.00  0.00     0.014 A 
HETATM   12  C20 UNL     1       5.051   1.147  -1.945  1.00  0.00    -0.009 A 
HETATM   13  C21 UNL     1       6.114   1.723  -2.617  1.00  0.00     0.017 A 
HETATM   14  C28 UNL     1       5.319   0.357  -0.809  1.00  0.00     0.055 A 
HETATM   15  C22 UNL     1       7.401   1.541  -2.205  1.00  0.00     0.050 A 
HETATM   16  C23 UNL     1       7.604   0.763  -1.094  1.00  0.00     0.115 A 
HETATM   17  N6  UNL     1       8.905   0.611  -0.728  1.00  0.00    -0.346 N 
HETATM   18  N7  UNL     1       6.603   0.164  -0.381  1.00  0.00    -0.263 N 
HETATM   19  C24 UNL     1       9.215  -0.128   0.337  1.00  0.00     0.012 A 
ATOM     20  H6  UNL     1       9.643   1.062  -1.268  1.00  0.00     0.167 HD
HETATM   21  C25 UNL     1      10.641  -0.314   0.760  1.00  0.00     0.068 C 
HETATM   22  C26 UNL     1       8.220  -0.735   1.062  1.00  0.00     0.099 A 
HETATM   23  C27 UNL     1       6.874  -0.578   0.684  1.00  0.00     0.255 A 
HETATM   24  O3  UNL     1       6.022  -1.144   1.370  1.00  0.00    -0.268 OA
HETATM   25  C29 UNL     1       4.269  -0.223  -0.144  1.00  0.00     0.044 A 
ENDBRANCH   6   9
ENDBRANCH   1   5
BRANCH   3  26
HETATM   26  C4  UNL     1      -2.795  -1.082   1.145  1.00  0.00     0.103 A 
HETATM   27  C5  UNL     1      -4.036  -0.536   0.805  1.00  0.00     0.057 A 
HETATM   28  C6  UNL     1      -5.171  -1.066   1.350  1.00  0.00     0.086 A 
HETATM   29  C7  UNL     1      -5.055  -2.140   2.233  1.00  0.00     0.081 A 
HETATM   30  N4  UNL     1      -6.466  -0.756   1.207  1.00  0.00    -0.255 N 
HETATM   31  C8  UNL     1      -6.339  -2.459   2.614  1.00  0.00     0.139 A 
HETATM   32  N5  UNL     1      -3.884  -2.682   2.576  1.00  0.00    -0.320 N 
HETATM   33  N3  UNL     1      -7.140  -1.618   1.984  1.00  0.00    -0.302 N 
ATOM     34  H3  UNL     1      -8.156  -1.623   2.078  1.00  0.00     0.186 HD
HETATM   35  C16 UNL     1      -2.766  -2.136   2.020  1.00  0.00     0.261 A 
ATOM     36  H5  UNL     1      -3.829  -3.468   3.224  1.00  0.00     0.169 HD
HETATM   37  O2  UNL     1      -1.652  -2.634   2.336  1.00  0.00    -0.267 OA
BRANCH  30  38
HETATM   38  C9  UNL     1      -7.098   0.245   0.415  1.00  0.00     0.057 A 
HETATM   39  C10 UNL     1      -7.376  -0.032  -0.924  1.00  0.00     0.032 A 
HETATM   40  C11 UNL     1      -8.021   0.903  -1.720  1.00  0.00     0.009 A 
HETATM   41  C12 UNL     1      -8.409   2.132  -1.228  1.00  0.00    -0.062 A 
HETATM   42  C13 UNL     1      -9.119   3.139  -2.069  1.00  0.00     0.048 C 
HETATM   43  C14 UNL     1      -8.136   2.421   0.106  1.00  0.00     0.009 A 
HETATM   44  C15 UNL     1      -7.490   1.474   0.890  1.00  0.00     0.032 A 
ENDBRANCH  30  38
ENDBRANCH   3  26
TORSDOF 4
