REMARK  4 active torsions:
REMARK  status: ('A' for Active; 'I' for Inactive)
REMARK    1  A    between atoms: C2_2  and  N1_3 
REMARK       I    between atoms: N3_9  and  C6_11 
REMARK       I    between atoms: C6_11  and  N4_13 
REMARK    2  A    between atoms: N4_13  and  C7_15 
REMARK    3  A    between atoms: C7_15  and  C9_17 
REMARK       I    between atoms: C9_17  and  N5_19 
REMARK    4  A    between atoms: N5_19  and  C10_21 
ROOT
HETATM    1  N1  UNL     1       4.162  -1.178   0.647  1.00  0.00    -0.192 N 
HETATM    2  C3  UNL     1       4.454  -2.400   0.173  1.00  0.00     0.126 A 
HETATM    3  C4  UNL     1       3.450  -2.715  -0.718  1.00  0.00     0.124 A 
HETATM    4  N2  UNL     1       2.590  -1.682  -0.754  1.00  0.00    -0.200 N 
ATOM      5  H2  UNL     1       1.748  -1.634  -1.327  1.00  0.00     0.183 HD
HETATM    6  C5  UNL     1       3.023  -0.709   0.097  1.00  0.00     0.688 A 
HETATM    7  N3  UNL     1       2.480   0.435   0.348  1.00  0.00    -0.141 N 
ATOM      8  H3  UNL     1       2.908   1.080   1.012  1.00  0.00     0.189 HD
HETATM    9  C6  UNL     1       1.273   0.777  -0.320  1.00  0.00     0.335 C 
HETATM   10  O1  UNL     1       1.329   0.828  -1.586  1.00  0.00    -0.246 OA
HETATM   11  N4  UNL     1       0.063   1.052   0.361  1.00  0.00    -0.330 N 
ATOM     12  H4  UNL     1       0.044   1.005   1.380  1.00  0.00     0.165 HD
ENDROOT
BRANCH  11  13
HETATM   13  C7  UNL     1      -1.141   1.396  -0.348  1.00  0.00     0.174 C 
HETATM   14  C8  UNL     1      -1.659   2.766   0.023  1.00  0.00     0.042 C 
BRANCH  13  15
HETATM   15  C9  UNL     1      -2.232   0.423  -0.055  1.00  0.00     0.241 C 
HETATM   16  O2  UNL     1      -1.951  -0.529   0.745  1.00  0.00    -0.271 OA
HETATM   17  N5  UNL     1      -3.512   0.501  -0.600  1.00  0.00    -0.337 N 
ATOM     18  H5  UNL     1      -3.742   1.260  -1.241  1.00  0.00     0.164 HD
BRANCH  17  19
HETATM   19  C10 UNL     1      -4.513  -0.479  -0.268  1.00  0.00     0.102 C 
HETATM   20  C11 UNL     1      -4.750  -0.447   1.241  1.00  0.00     0.056 C 
HETATM   21  C12 UNL     1      -5.823  -0.182  -0.984  1.00  0.00     0.056 C 
HETATM   22 CL1  UNL     1      -4.019  -2.130  -0.683  1.00  0.00    -0.096 Cl
ENDBRANCH  17  19
ENDBRANCH  13  15
ENDBRANCH  11  13
BRANCH   1  23
HETATM   23  C2  UNL     1       4.945  -0.438   1.616  1.00  0.00     0.142 C 
HETATM   24  C1  UNL     1       5.990   0.432   0.997  1.00  0.00     0.027 C 
ENDBRANCH   1  23
TORSDOF 4
