REMARK  4 active torsions:
REMARK  status: ('A' for Active; 'I' for Inactive)
REMARK    1  A    between atoms: O1_1  and  C1_3 
REMARK    2  A    between atoms: C7_9  and  C8_10 
REMARK    3  A    between atoms: C9_15  and  C10_16 
REMARK    4  A    between atoms: C16_22  and  C17_23 
ROOT
HETATM    1  C8  UNL     1      -2.983  -0.139   0.008  1.00  0.00     0.106 A 
HETATM    2  N1  UNL     1      -2.439  -1.379   0.142  1.00  0.00    -0.287 N 
ATOM      3  H1  UNL     1      -2.970  -2.244   0.239  1.00  0.00     0.188 HD
HETATM    4  N2  UNL     1      -1.148  -1.298   0.128  1.00  0.00    -0.287 N 
ATOM      5  H2  UNL     1      -0.502  -2.083   0.214  1.00  0.00     0.188 HD
HETATM    6  C9  UNL     1      -0.796  -0.001  -0.019  1.00  0.00     0.101 A 
HETATM    7  N5  UNL     1      -1.943   0.683  -0.089  1.00  0.00    -0.333 N 
ATOM      8  H5  UNL     1      -2.010   1.695  -0.201  1.00  0.00     0.168 HD
ENDROOT
BRANCH   6   9
HETATM    9  C10 UNL     1       0.617   0.456  -0.082  1.00  0.00     0.055 C 
HETATM   10  C11 UNL     1       1.294   0.642   1.215  1.00  0.00     0.015 C 
HETATM   11  C12 UNL     1       2.589  -0.034   1.459  1.00  0.00     0.031 C 
HETATM   12  C13 UNL     1       3.492  -0.328   0.332  1.00  0.00     0.030 C 
HETATM   13  C14 UNL     1       3.899  -1.783   0.393  1.00  0.00     0.037 C 
HETATM   14  N4  UNL     1       4.741   0.371   0.304  1.00  0.00    -0.383 N 
HETATM   15  C21 UNL     1       2.825  -0.039  -1.014  1.00  0.00     0.031 C 
HETATM   16  C15 UNL     1       5.380  -1.777   0.189  1.00  0.00     0.060 C 
HETATM   17  C16 UNL     1       5.769  -0.356   0.224  1.00  0.00     0.017 C 
ATOM     18  H4  UNL     1       4.796   1.389   0.346  1.00  0.00     0.160 HD
HETATM   19  C22 UNL     1       1.427  -0.524  -0.923  1.00  0.00     0.015 C 
BRANCH  17  20
HETATM   20  C17 UNL     1       7.186   0.079   0.109  1.00  0.00     0.003 A 
HETATM   21  C18 UNL     1       8.282  -0.737   0.049  1.00  0.00     0.031 A 
HETATM   22  C19 UNL     1       9.400   0.085  -0.123  1.00  0.00     0.088 A 
HETATM   23  N3  UNL     1       8.983   1.382  -0.167  1.00  0.00    -0.374 N 
HETATM   24  C20 UNL     1       7.646   1.359  -0.025  1.00  0.00     0.101 A 
ATOM     25  H3  UNL     1       9.570   2.208  -0.285  1.00  0.00     0.164 HD
ENDBRANCH  17  20
ENDBRANCH   6   9
BRANCH   1  26
HETATM   26  C7  UNL     1      -4.424   0.091  -0.007  1.00  0.00     0.026 C 
HETATM   27  C5  UNL     1      -4.948   0.918   1.114  1.00  0.00     0.005 C 
HETATM   28  C4  UNL     1      -6.021   0.049   1.793  1.00  0.00     0.010 C 
HETATM   29  C6  UNL     1      -5.748   2.052   0.470  1.00  0.00     0.043 C 
HETATM   30  C3  UNL     1      -6.518  -0.726   0.588  1.00  0.00    -0.010 C 
HETATM   31  C2  UNL     1      -7.134   0.166  -0.460  1.00  0.00     0.042 C 
HETATM   32  C23 UNL     1      -5.188  -1.221   0.034  1.00  0.00     0.022 C 
HETATM   33  C1  UNL     1      -6.230   1.332  -0.798  1.00  0.00     0.060 C 
HETATM   34  C24 UNL     1      -4.907   0.771  -1.296  1.00  0.00     0.055 C 
BRANCH  33  35
HETATM   35  O1  UNL     1      -6.821   2.181  -1.701  1.00  0.00    -0.390 OA
ATOM     36  H1  UNL     1      -6.254   2.913  -1.913  1.00  0.00     0.210 HD
ENDBRANCH  33  35
ENDBRANCH   1  26
TORSDOF 4
