REMARK  4 active torsions:
REMARK  status: ('A' for Active; 'I' for Inactive)
REMARK    1  A    between atoms: C8_9  and  O2_10 
REMARK    2  A    between atoms: O2_10  and  C9_11 
REMARK    3  A    between atoms: C13_16  and  O3_17 
REMARK    4  A    between atoms: C14_19  and  O4_20 
ROOT
HETATM    1  C1  UNL     1       2.025  -0.906  -1.373  1.00  0.00     0.020 C 
HETATM    2  C2  UNL     1       1.975  -0.249  -0.015  1.00  0.00     0.011 C 
HETATM    3  C3  UNL     1       3.248   0.453   0.285  1.00  0.00     0.016 C 
HETATM    4  C4  UNL     1       3.512   0.697   1.732  1.00  0.00     0.027 C 
HETATM    5  C5  UNL     1       2.918  -0.345   2.639  1.00  0.00     0.168 C 
HETATM    6  O1  UNL     1       1.629  -0.708   2.256  1.00  0.00    -0.385 OA
HETATM    7  C6  UNL     1       1.629  -1.295   1.005  1.00  0.00     0.134 C 
HETATM    8  C7  UNL     1       0.188  -1.589   0.636  1.00  0.00     0.067 C 
HETATM    9  C8  UNL     1      -0.397  -0.223   0.493  1.00  0.00     0.154 C 
HETATM   10  C14 UNL     1       0.760   0.645   0.015  1.00  0.00     0.158 C 
ENDROOT
BRANCH   9  11
HETATM   11  O2  UNL     1      -1.336  -0.242  -0.510  1.00  0.00    -0.375 OA
BRANCH  11  12
HETATM   12  C9  UNL     1      -2.550   0.278  -0.232  1.00  0.00     0.159 C 
HETATM   13  C10 UNL     1      -3.008   1.416  -1.080  1.00  0.00     0.081 C 
HETATM   14  C11 UNL     1      -4.483   1.323  -1.138  1.00  0.00    -0.010 C 
HETATM   15 BR1  UNL     1      -5.572   2.791  -1.757  1.00  0.00    -0.056 Br
HETATM   16  C12 UNL     1      -4.859   0.152  -0.723  1.00  0.00     0.022 C 
HETATM   17  C13 UNL     1      -3.702  -0.678  -0.339  1.00  0.00     0.171 C 
BRANCH  17  18
HETATM   18  O3  UNL     1      -3.515  -1.628  -1.340  1.00  0.00    -0.389 OA
ATOM     19  H3  UNL     1      -4.244  -2.233  -1.408  1.00  0.00     0.210 HD
ENDBRANCH  17  18
ENDBRANCH  11  12
ENDBRANCH   9  11
BRANCH  10  20
HETATM   20  O4  UNL     1       0.980   1.731   0.848  1.00  0.00    -0.392 OA
ATOM     21  H4  UNL     1       0.215   2.294   0.867  1.00  0.00     0.210 HD
ENDBRANCH  10  20
TORSDOF 4
