REMARK  11 active torsions:
REMARK  status: ('A' for Active; 'I' for Inactive)
REMARK    1  A    between atoms: C3_10  and  N3_11 
REMARK    2  A    between atoms: N3_11  and  C4_12 
REMARK    3  A    between atoms: N3_11  and  C7_19 
REMARK    4  A    between atoms: C4_12  and  C5_13 
REMARK    5  A    between atoms: C5_13  and  C6_14 
REMARK    6  A    between atoms: C6_14  and  N4_15 
REMARK    7  A    between atoms: C8_22  and  O1_23 
REMARK    8  A    between atoms: C8_22  and  N6_25 
REMARK    9  A    between atoms: N6_25  and  O2_26 
REMARK   10  A    between atoms: C9_28  and  N7_29 
REMARK   11  A    between atoms: C10_37  and  C11_38 
ROOT
HETATM    1  N3  UNL     1      -0.405   0.605   0.436  1.00  0.00    -0.303 N 
ENDROOT
BRANCH   1   2
HETATM    2  C3  UNL     1       0.784  -0.131   0.341  1.00  0.00     0.139 A 
HETATM    3  C2  UNL     1       1.231  -0.876  -0.762  1.00  0.00     0.099 A 
HETATM    4  N2  UNL     1       0.573  -0.976  -1.941  1.00  0.00    -0.317 N 
HETATM    5  C12 UNL     1       2.476  -1.489  -0.419  1.00  0.00     0.058 A 
HETATM    6  S2  UNL     1       1.074  -1.850  -3.281  1.00  0.00     0.027 SA
ATOM      7  H2  UNL     1      -0.310  -0.472  -2.021  1.00  0.00     0.175 HD
HETATM    8  S1  UNL     1       2.849  -2.717  -2.779  1.00  0.00    -0.017 SA
HETATM    9  C1  UNL     1       3.278  -2.302  -1.184  1.00  0.00     0.090 A 
HETATM   10  N1  UNL     1       4.406  -2.754  -0.641  1.00  0.00    -0.392 N 
ATOM     11  H12 UNL     1       5.001  -3.357  -1.209  1.00  0.00     0.156 HD
ATOM     12  H11 UNL     1       4.663  -2.505   0.314  1.00  0.00     0.156 HD
HETATM   13  C10 UNL     1       2.726  -1.074   0.906  1.00  0.00     0.085 A 
HETATM   14  N9  UNL     1       1.711  -0.290   1.290  1.00  0.00    -0.337 N 
ATOM     15  H9  UNL     1       1.651   0.142   2.212  1.00  0.00     0.167 HD
BRANCH  13  16
HETATM   16  C11 UNL     1       3.849  -1.394   1.769  1.00  0.00     0.140 C 
HETATM   17  N10 UNL     1       4.928  -0.503   1.921  1.00  0.00    -0.087 NA
HETATM   18  S3  UNL     1       3.854  -2.801   2.572  1.00  0.00    -0.061 SA
ENDBRANCH  13  16
ENDBRANCH   1   2
BRANCH   1  19
HETATM   19  C4  UNL     1      -0.620   1.918   0.924  1.00  0.00     0.135 C 
BRANCH  19  20
HETATM   20  C5  UNL     1       0.550   2.762   1.234  1.00  0.00     0.047 C 
BRANCH  20  21
HETATM   21  C6  UNL     1       1.455   3.091   0.099  1.00  0.00     0.231 C 
BRANCH  21  22
HETATM   22  N4  UNL     1       0.789   3.813  -0.970  1.00  0.00    -0.079 N 
ATOM     23  H43 UNL     1      -0.032   3.304  -1.296  1.00  0.00     0.274 HD
ATOM     24  H42 UNL     1       0.334   4.653  -0.613  1.00  0.00     0.274 HD
ATOM     25  H41 UNL     1       1.409   4.038  -1.748  1.00  0.00     0.274 HD
ENDBRANCH  21  22
ENDBRANCH  20  21
ENDBRANCH  19  20
ENDBRANCH   1  19
BRANCH   1  26
HETATM   26  C7  UNL     1      -1.611  -0.092   0.022  1.00  0.00     0.184 C 
HETATM   27  N5  UNL     1      -2.186  -0.934   0.782  1.00  0.00    -0.311 N 
HETATM   28  C8  UNL     1      -3.347  -1.447   0.091  1.00  0.00     0.283 C 
ATOM     29  H5  UNL     1      -1.881  -1.201   1.718  1.00  0.00     0.167 HD
HETATM   30  C9  UNL     1      -3.192  -1.032  -1.358  1.00  0.00     0.360 C 
HETATM   31  N8  UNL     1      -2.268   0.078  -1.220  1.00  0.00    -0.329 N 
ATOM     32  H8  UNL     1      -2.120   0.834  -1.888  1.00  0.00     0.164 HD
BRANCH  28  33
HETATM   33  O1  UNL     1      -3.365  -2.813   0.210  1.00  0.00    -0.353 OA
ATOM     34  H1  UNL     1      -4.128  -3.150  -0.244  1.00  0.00     0.214 HD
ENDBRANCH  28  33
BRANCH  28  35
HETATM   35  N6  UNL     1      -4.513  -0.802   0.670  1.00  0.00    -0.037 NA
BRANCH  35  36
HETATM   36  O2  UNL     1      -4.585  -1.086   1.984  1.00  0.00    -0.292 OA
ATOM     37  H2  UNL     1      -5.347  -0.664   2.363  1.00  0.00     0.239 HD
ENDBRANCH  35  36
ENDBRANCH  28  35
BRANCH  30  38
HETATM   38  N7  UNL     1      -4.455  -0.508  -1.844  1.00  0.00    -0.052 N 
ATOM     39  H73 UNL     1      -5.224  -1.165  -1.710  1.00  0.00     0.277 HD
ATOM     40  H72 UNL     1      -4.809   0.250  -1.260  1.00  0.00     0.277 HD
ATOM     41  H71 UNL     1      -4.351  -0.229  -2.819  1.00  0.00     0.277 HD
ENDBRANCH  30  38
ENDBRANCH   1  26
TORSDOF 11
