REMARK  8 active torsions:
REMARK  status: ('A' for Active; 'I' for Inactive)
REMARK    1  A    between atoms: N2_12  and  C9_13 
REMARK    2  A    between atoms: C9_13  and  C10_14 
REMARK    3  A    between atoms: C10_14  and  N3_15 
REMARK    4  A    between atoms: N3_15  and  C11_17 
REMARK    5  A    between atoms: C18_26  and  S1_27 
REMARK    6  A    between atoms: N6_33  and  C19_34 
REMARK    7  A    between atoms: C19_34  and  C20_35 
REMARK    8  A    between atoms: C20_35  and  N7_36 
ROOT
HETATM    1  C11 UNL     1      -0.501   0.479   0.257  1.00  0.00     0.696 A 
HETATM    2  N4  UNL     1      -0.197   1.695  -0.219  1.00  0.00    -0.173 N 
ATOM      3  H4  UNL     1       0.728   1.985  -0.537  1.00  0.00     0.186 HD
HETATM    4  C12 UNL     1      -1.309   2.489  -0.215  1.00  0.00     0.148 A 
HETATM    5  C13 UNL     1      -1.253   3.851  -0.674  1.00  0.00     0.034 A 
HETATM    6  C14 UNL     1      -0.054   4.418  -1.135  1.00  0.00     0.017 A 
HETATM    7  C15 UNL     1       0.054   5.714  -1.573  1.00  0.00     0.001 A 
HETATM    8  C16 UNL     1      -1.056   6.512  -1.567  1.00  0.00     0.002 A 
HETATM    9  C17 UNL     1      -2.243   5.988  -1.123  1.00  0.00     0.027 A 
HETATM   10  C18 UNL     1      -2.345   4.656  -0.675  1.00  0.00     0.094 A 
HETATM   11  N5  UNL     1      -2.247   1.716   0.266  1.00  0.00    -0.268 N 
ATOM     12  H5  UNL     1      -3.214   2.012   0.400  1.00  0.00     0.189 HD
HETATM   13  N6  UNL     1      -1.805   0.522   0.556  1.00  0.00    -0.121 N 
ENDROOT
BRANCH   1  14
HETATM   14  N3  UNL     1       0.400  -0.640   0.410  1.00  0.00    -0.223 N 
ATOM     15  H3  UNL     1       0.066  -1.530   0.780  1.00  0.00     0.177 HD
BRANCH  14  16
HETATM   16  C10 UNL     1       1.763  -0.475   0.033  1.00  0.00     0.158 C 
BRANCH  16  17
HETATM   17  C9  UNL     1       2.590  -1.717   0.207  1.00  0.00     0.153 C 
BRANCH  17  18
HETATM   18  N2  UNL     1       3.965  -1.527  -0.176  1.00  0.00    -0.308 N 
HETATM   19  C1  UNL     1       4.857  -1.124   0.719  1.00  0.00     0.261 A 
HETATM   20  O1  UNL     1       4.526  -0.900   1.910  1.00  0.00    -0.267 OA
HETATM   21  C2  UNL     1       6.197  -0.936   0.356  1.00  0.00     0.059 A 
HETATM   22  C3  UNL     1       7.141  -0.518   1.263  1.00  0.00     0.019 A 
HETATM   23  C7  UNL     1       6.541  -1.183  -0.943  1.00  0.00     0.048 A 
HETATM   24  C4  UNL     1       8.454  -0.345   0.854  1.00  0.00     0.001 A 
HETATM   25  C5  UNL     1       8.824  -0.591  -0.457  1.00  0.00     0.002 A 
HETATM   26  C6  UNL     1       7.859  -1.006  -1.334  1.00  0.00     0.030 A 
HETATM   27  N1  UNL     1       5.616  -1.598  -1.857  1.00  0.00    -0.351 N 
HETATM   28  C8  UNL     1       4.347  -1.755  -1.431  1.00  0.00     0.186 A 
ATOM     29  H1  UNL     1       5.875  -1.782  -2.826  1.00  0.00     0.166 HD
ENDBRANCH  17  18
ENDBRANCH  16  17
ENDBRANCH  14  16
ENDBRANCH   1  14
BRANCH  13  30
HETATM   30  C19 UNL     1      -2.567  -0.603   1.126  1.00  0.00     0.198 C 
BRANCH  30  31
HETATM   31  C20 UNL     1      -3.130  -1.466   0.033  1.00  0.00     0.295 C 
BRANCH  31  32
HETATM   32  N7  UNL     1      -3.864  -2.565   0.611  1.00  0.00     0.094 N 
HETATM   33  C21 UNL     1      -4.275  -3.498  -0.445  1.00  0.00     0.298 C 
HETATM   34  C22 UNL     1      -5.100  -4.588   0.139  1.00  0.00     0.198 C 
HETATM   35  O5  UNL     1      -6.176  -4.113   0.890  1.00  0.00    -0.388 OA
HETATM   36  C23 UNL     1      -5.671  -3.385   1.952  1.00  0.00     0.198 C 
HETATM   37  C24 UNL     1      -5.034  -2.119   1.352  1.00  0.00     0.298 C 
ENDBRANCH  31  32
ENDBRANCH  30  31
ENDBRANCH  13  30
BRANCH  10  38
HETATM   38  S1  UNL     1      -3.900   4.153  -0.168  1.00  0.00     0.138 S 
HETATM   39  O2  UNL     1      -4.913   5.293  -0.367  1.00  0.00    -0.591 OA
HETATM   40  O3  UNL     1      -4.023   3.747   1.263  1.00  0.00    -0.591 OA
HETATM   41  O4  UNL     1      -4.443   2.907  -1.152  1.00  0.00    -0.591 OA
ENDBRANCH  10  38
TORSDOF 8
