REMARK  5 active torsions:
REMARK  status: ('A' for Active; 'I' for Inactive)
REMARK    1  A    between atoms: C3_7  and  S1_8 
REMARK    2  A    between atoms: S1_8  and  C4_9 
REMARK    3  A    between atoms: C4_9  and  C5_10 
REMARK    4  A    between atoms: C6_11  and  N3_12 
REMARK    5  A    between atoms: C11_22  and  C12_23 
ROOT
HETATM    1  C4  UNL     1      -1.037  -0.612  -0.342  1.00  0.00     0.123 C 
ENDROOT
BRANCH   1   2
HETATM    2  S1  UNL     1       0.236  -0.295   0.940  1.00  0.00    -0.105 SA
BRANCH   2   3
HETATM    3  C3  UNL     1       1.776   0.034   0.012  1.00  0.00     0.103 A 
HETATM    4  N2  UNL     1       1.911   0.012  -1.307  1.00  0.00    -0.293 N 
HETATM    5  N1  UNL     1       3.145   0.360  -1.595  1.00  0.00    -0.303 N 
ATOM      6  H2  UNL     1       1.184  -0.232  -1.980  1.00  0.00     0.187 HD
HETATM    7  C2  UNL     1       3.818   0.611  -0.434  1.00  0.00     0.042 A 
ATOM      8  H1  UNL     1       3.537   0.431  -2.534  1.00  0.00     0.186 HD
HETATM    9  C1  UNL     1       5.257   1.022  -0.480  1.00  0.00     0.071 C 
HETATM   10  C11 UNL     1       2.968   0.409   0.602  1.00  0.00     0.099 A 
BRANCH  10  11
HETATM   11  C12 UNL     1       3.314   0.588   1.985  1.00  0.00     0.214 C 
HETATM   12  O3  UNL     1       2.400   0.381   2.844  1.00  0.00    -0.644 OA
HETATM   13  O4  UNL     1       4.546   0.974   2.417  1.00  0.00    -0.644 OA
ENDBRANCH  10  11
ENDBRANCH   2   3
ENDBRANCH   1   2
BRANCH   1  14
HETATM   14  C5  UNL     1      -2.435  -0.679   0.041  1.00  0.00     0.008 A 
HETATM   15  C6  UNL     1      -3.223   0.413   0.095  1.00  0.00     0.114 A 
HETATM   16  C7  UNL     1      -4.618   0.314   0.106  1.00  0.00     0.080 A 
HETATM   17  C8  UNL     1      -5.265  -0.874   0.077  1.00  0.00     0.142 A 
HETATM   18  F1  UNL     1      -6.608  -0.896   0.090  1.00  0.00    -0.204 F 
HETATM   19  C9  UNL     1      -4.482  -2.054   0.036  1.00  0.00     0.095 A 
HETATM   20 CL1  UNL     1      -5.341  -3.578  -0.062  1.00  0.00    -0.079 Cl
HETATM   21  C10 UNL     1      -3.119  -1.910   0.011  1.00  0.00     0.068 A 
HETATM   22 CL2  UNL     1      -2.191  -3.399  -0.182  1.00  0.00    -0.082 Cl
BRANCH  15  23
HETATM   23  N3  UNL     1      -2.643   1.678   0.164  1.00  0.00    -0.115 N 
HETATM   24  O1  UNL     1      -3.285   2.562  -0.429  1.00  0.00    -0.532 OA
HETATM   25  O2  UNL     1      -1.496   1.986   0.715  1.00  0.00    -0.532 OA
ENDBRANCH  15  23
ENDBRANCH   1  14
TORSDOF 5
