REMARK  9 active torsions:
REMARK  status: ('A' for Active; 'I' for Inactive)
REMARK    1  A    between atoms: C3_3  and  C4_4 
REMARK    2  A    between atoms: C4_4  and  N1_5 
REMARK    3  A    between atoms: N1_5  and  C5_7 
REMARK    4  A    between atoms: C6_10  and  N3_11 
REMARK    5  A    between atoms: C7_16  and  N5_17 
REMARK    6  A    between atoms: N5_17  and  C8_19 
REMARK    7  A    between atoms: C8_19  and  C9_20 
REMARK    8  A    between atoms: C9_20  and  C10_21 
REMARK    9  A    between atoms: C10_21  and  O1_22 
ROOT
HETATM    1  C1  UNL     1       2.678   3.615   3.405  1.00  0.00     0.012 C 
HETATM    2  C2  UNL     1       1.911   3.606   2.459  1.00  0.00    -0.116 C 
HETATM    3  C3  UNL     1       1.007   3.596   1.305  1.00  0.00     0.113 C 
ENDROOT
BRANCH   3   4
HETATM    4  C4  UNL     1       0.544   2.174   1.043  1.00  0.00     0.150 C 
BRANCH   4   5
HETATM    5  N1  UNL     1       1.685   1.342   0.768  1.00  0.00    -0.224 N 
ATOM      6  H1  UNL     1       2.631   1.712   0.857  1.00  0.00     0.177 HD
BRANCH   5   7
HETATM    7  C5  UNL     1       1.487   0.104   0.403  1.00  0.00     0.707 A 
HETATM    8  N2  UNL     1       2.521  -0.714   0.135  1.00  0.00    -0.022 N 
HETATM    9  C6  UNL     1       2.317  -1.990  -0.241  1.00  0.00     0.705 A 
ATOM     10  H2  UNL     1       3.475  -0.362   0.218  1.00  0.00     0.203 HD
HETATM   11  N4  UNL     1       1.059  -2.448  -0.349  1.00  0.00    -0.022 N 
HETATM   12  C7  UNL     1      -0.003  -1.661  -0.090  1.00  0.00     0.707 A 
ATOM     13  H4  UNL     1       0.904  -3.415  -0.634  1.00  0.00     0.203 HD
HETATM   14  N6  UNL     1       0.246  -0.396   0.282  1.00  0.00    -0.022 N 
ATOM     15  H6  UNL     1      -0.545   0.216   0.483  1.00  0.00     0.203 HD
BRANCH   9  16
HETATM   16  N3  UNL     1       3.321  -2.783  -0.501  1.00  0.00    -0.234 N 
ATOM     17  H32 UNL     1       4.276  -2.435  -0.419  1.00  0.00     0.174 HD
ATOM     18  H31 UNL     1       3.166  -3.750  -0.786  1.00  0.00     0.174 HD
ENDBRANCH   9  16
BRANCH  12  19
HETATM   19  N5  UNL     1      -1.213  -2.128  -0.202  1.00  0.00    -0.225 N 
ATOM     20  H5  UNL     1      -1.315  -3.101  -0.490  1.00  0.00     0.177 HD
BRANCH  19  21
HETATM   21  C8  UNL     1      -2.408  -1.388   0.046  1.00  0.00     0.140 C 
BRANCH  21  22
HETATM   22  C9  UNL     1      -2.834  -0.515  -1.118  1.00  0.00     0.046 C 
BRANCH  22  23
HETATM   23  C10 UNL     1      -3.093  -1.351  -2.356  1.00  0.00     0.165 C 
BRANCH  23  24
HETATM   24  O1  UNL     1      -1.916  -2.017  -2.683  1.00  0.00    -0.401 OA
ATOM     25  H1  UNL     1      -2.078  -2.541  -3.459  1.00  0.00     0.209 HD
ENDBRANCH  23  24
ENDBRANCH  22  23
ENDBRANCH  21  22
ENDBRANCH  19  21
ENDBRANCH  12  19
ENDBRANCH   5   7
ENDBRANCH   4   5
ENDBRANCH   3   4
TORSDOF 9
