REMARK  7 active torsions:
REMARK  status: ('A' for Active; 'I' for Inactive)
REMARK    1  A    between atoms: N1_1  and  C1_4 
REMARK    2  A    between atoms: C2_7  and  C3_8 
REMARK    3  A    between atoms: C3_8  and  C4_9 
REMARK    4  A    between atoms: C4_9  and  C5_10 
REMARK    5  A    between atoms: C5_10  and  O1_11 
REMARK    6  A    between atoms: O1_11  and  C6_12 
REMARK    7  A    between atoms: C7_15  and  O2_16 
ROOT
HETATM    1  C1  UNL     1       4.367   0.611  -0.073  1.00  0.00     0.691 A 
HETATM    2  N2  UNL     1       3.780   0.005  -1.106  1.00  0.00    -0.178 N 
ATOM      3  H2  UNL     1       4.268  -0.371  -1.919  1.00  0.00     0.185 HD
HETATM    4  C2  UNL     1       2.427  -0.037  -0.913  1.00  0.00     0.112 A 
HETATM    5  N5  UNL     1       2.217   0.563   0.267  1.00  0.00    -0.274 N 
ATOM      6  H5  UNL     1       1.308   0.700   0.709  1.00  0.00     0.189 HD
HETATM    7  N6  UNL     1       3.380   0.948   0.765  1.00  0.00    -0.131 N 
ATOM      8  H6  UNL     1       3.506   1.430   1.655  1.00  0.00     0.205 HD
ENDROOT
BRANCH   4   9
HETATM    9  C3  UNL     1       1.439  -0.605  -1.863  1.00  0.00     0.080 C 
BRANCH   9  10
HETATM   10  C4  UNL     1       0.056  -0.713  -1.356  1.00  0.00     0.034 C 
BRANCH  10  11
HETATM   11  C5  UNL     1      -0.168  -1.623  -0.199  1.00  0.00     0.172 C 
BRANCH  11  12
HETATM   12  O1  UNL     1      -1.484  -1.658   0.232  1.00  0.00    -0.346 OA
BRANCH  12  13
HETATM   13  C6  UNL     1      -1.995  -0.466   0.648  1.00  0.00     0.380 C 
HETATM   14  N3  UNL     1      -2.623  -0.549   1.976  1.00  0.00    -0.084 NA
HETATM   15  N4  UNL     1      -3.291   0.704   1.988  1.00  0.00    -0.084 NA
HETATM   16  C7  UNL     1      -3.707   0.859   0.628  1.00  0.00     0.378 C 
HETATM   17  O3  UNL     1      -3.141  -0.157  -0.120  1.00  0.00    -0.300 OA
BRANCH  16  18
HETATM   18  O2  UNL     1      -3.290   2.074   0.079  1.00  0.00    -0.357 OA
ATOM     19  H2  UNL     1      -3.566   2.177  -0.824  1.00  0.00     0.214 HD
ENDBRANCH  16  18
ENDBRANCH  12  13
ENDBRANCH  11  12
ENDBRANCH  10  11
ENDBRANCH   9  10
ENDBRANCH   4   9
BRANCH   1  20
HETATM   20  N1  UNL     1       5.633   0.847   0.121  1.00  0.00    -0.233 N 
ATOM     21  H12 UNL     1       6.385   0.590  -0.518  1.00  0.00     0.174 HD
ATOM     22  H11 UNL     1       6.082   1.310   0.911  1.00  0.00     0.174 HD
ENDBRANCH   1  20
TORSDOF 7
