REMARK  11 active torsions:
REMARK  status: ('A' for Active; 'I' for Inactive)
REMARK    1  A    between atoms: C3_5  and  C4_6 
REMARK    2  A    between atoms: C4_6  and  C5_7 
REMARK    3  A    between atoms: C4_6  and  C10_20 
REMARK    4  A    between atoms: N2_9  and  C7_10 
REMARK    5  A    between atoms: C7_10  and  C8_11 
REMARK    6  A    between atoms: C8_11  and  C9_12 
REMARK    7  A    between atoms: C9_12  and  N3_13 
REMARK    8  A    between atoms: C11_23  and  C12_24 
REMARK    9  A    between atoms: C12_24  and  N7_25 
REMARK   10  A    between atoms: C12_24  and  C13_29 
REMARK   11  A    between atoms: C16_39  and  N10_40 
ROOT
HETATM    1  C4  UNL     1      -0.032   0.859   0.080  1.00  0.00     0.151 C 
ENDROOT
BRANCH   1   2
HETATM    2  C3  UNL     1      -0.709  -0.442   0.251  1.00  0.00     0.096 A 
HETATM    3  C2  UNL     1      -1.349  -1.068  -0.764  1.00  0.00     0.271 A 
HETATM    4  N1  UNL     1      -2.000  -2.271  -0.682  1.00  0.00    -0.311 N 
HETATM    5  O1  UNL     1      -1.347  -0.489  -1.904  1.00  0.00    -0.266 OA
HETATM    6  C1  UNL     1      -2.649  -2.847  -1.826  1.00  0.00     0.160 C 
HETATM    7  C18 UNL     1      -1.972  -2.840   0.537  1.00  0.00     0.126 A 
HETATM    8  C15 UNL     1      -1.329  -2.246   1.628  1.00  0.00     0.152 A 
HETATM    9  C17 UNL     1      -2.590  -4.045   0.739  1.00  0.00     0.145 A 
HETATM   10  N8  UNL     1      -0.714  -1.067   1.468  1.00  0.00    -0.338 N 
HETATM   11  N9  UNL     1      -1.335  -2.860   2.819  1.00  0.00    -0.174 N 
ATOM     12  H8  UNL     1      -0.245  -0.631   2.262  1.00  0.00     0.167 HD
HETATM   13  C16 UNL     1      -1.947  -4.048   3.005  1.00  0.00     0.679 A 
ATOM     14  H9  UNL     1      -0.864  -2.417   3.607  1.00  0.00     0.186 HD
HETATM   15  N11 UNL     1      -2.563  -4.616   1.958  1.00  0.00    -0.175 N 
ATOM     16  H11 UNL     1      -3.028  -5.514   2.090  1.00  0.00     0.186 HD
HETATM   17  N12 UNL     1      -3.185  -4.635  -0.188  1.00  0.00    -0.383 N 
ATOM     18 2H12 UNL     1      -3.645  -5.533  -0.038  1.00  0.00     0.157 HD
ATOM     19 1H12 UNL     1      -3.205  -4.202  -1.112  1.00  0.00     0.157 HD
BRANCH  13  20
HETATM   20  N10 UNL     1      -1.913  -4.578   4.170  1.00  0.00    -0.234 N 
ATOM     21 2H10 UNL     1      -1.444  -4.146   4.966  1.00  0.00     0.174 HD
ATOM     22 1H10 UNL     1      -2.376  -5.476   4.311  1.00  0.00     0.174 HD
ENDBRANCH  13  20
ENDBRANCH   1   2
BRANCH   1  23
HETATM   23  C5  UNL     1       1.160   0.799  -0.780  1.00  0.00     0.057 A 
HETATM   24  C6  UNL     1       2.452   0.536  -0.351  1.00  0.00     0.135 A 
HETATM   25  N2  UNL     1       3.292   0.558  -1.400  1.00  0.00    -0.285 N 
HETATM   26  N4  UNL     1       2.554   0.826  -2.462  1.00  0.00    -0.021 NA
HETATM   27  N5  UNL     1       1.283   0.973  -2.113  1.00  0.00    -0.286 N 
ATOM     28  H5  UNL     1       0.517   1.185  -2.753  1.00  0.00     0.184 HD
BRANCH  25  29
HETATM   29  C7  UNL     1       4.721   0.330  -1.360  1.00  0.00     0.147 C 
BRANCH  29  30
HETATM   30  C8  UNL     1       5.011  -1.163  -1.548  1.00  0.00     0.048 C 
BRANCH  30  31
HETATM   31  C9  UNL     1       6.504  -1.391  -1.504  1.00  0.00     0.231 C 
BRANCH  31  32
HETATM   32  N3  UNL     1       6.963  -0.933  -0.197  1.00  0.00    -0.079 N 
ATOM     33  H33 UNL     1       6.698   0.030   0.007  1.00  0.00     0.274 HD
ATOM     34  H32 UNL     1       6.467  -1.371   0.579  1.00  0.00     0.274 HD
ATOM     35  H31 UNL     1       7.971  -1.087  -0.167  1.00  0.00     0.274 HD
ENDBRANCH  31  32
ENDBRANCH  30  31
ENDBRANCH  29  30
ENDBRANCH  25  29
ENDBRANCH   1  23
BRANCH   1  36
HETATM   36  C10 UNL     1      -0.953   1.967  -0.334  1.00  0.00     0.067 A 
HETATM   37  N6  UNL     1      -1.715   2.692   0.454  1.00  0.00    -0.354 N 
HETATM   38  C11 UNL     1      -2.463   3.631  -0.034  1.00  0.00     0.057 A 
ATOM     39  H6  UNL     1      -1.718   2.514   1.458  1.00  0.00     0.166 HD
HETATM   40  C14 UNL     1      -2.429   3.835  -1.383  1.00  0.00     0.079 A 
HETATM   41  S1  UNL     1      -1.290   2.626  -1.866  1.00  0.00    -0.085 SA
BRANCH  38  42
HETATM   42  C12 UNL     1      -3.341   4.477   0.877  1.00  0.00     0.333 C 
BRANCH  42  43
HETATM   43  N7  UNL     1      -2.550   4.915   2.018  1.00  0.00    -0.060 N 
ATOM     44  H73 UNL     1      -2.114   4.136   2.511  1.00  0.00     0.275 HD
ATOM     45  H72 UNL     1      -1.698   5.401   1.738  1.00  0.00     0.275 HD
ATOM     46  H71 UNL     1      -3.138   5.482   2.629  1.00  0.00     0.275 HD
ENDBRANCH  42  43
BRANCH  42  47
HETATM   47  C13 UNL     1      -3.869   5.656   0.184  1.00  0.00     0.210 C 
HETATM   48  O2  UNL     1      -4.705   5.577  -0.748  1.00  0.00    -0.646 OA
HETATM   49  O3  UNL     1      -3.455   6.931   0.541  1.00  0.00    -0.646 OA
ENDBRANCH  42  47
ENDBRANCH  38  42
ENDBRANCH   1  36
TORSDOF 11
