REMARK  6 active torsions:
REMARK  status: ('A' for Active; 'I' for Inactive)
REMARK    1  A    between atoms: N1_3  and  N2_5 
REMARK       I    between atoms: N2_5  and  C4_7 
REMARK       I    between atoms: C4_7  and  N4_11 
REMARK    2  A    between atoms: N4_11  and  N5_13 
REMARK       I    between atoms: N5_13  and  C5_15 
REMARK    3  A    between atoms: N7_17  and  C6_19 
REMARK    4  A    between atoms: C6_19  and  C7_20 
REMARK    5  A    between atoms: C7_20  and  C8_21 
REMARK    6  A    between atoms: C8_21  and  C9_23 
ROOT
HETATM    1  C1  UNL     1      -7.449   0.789   0.380  1.00  0.00     0.038 C 
HETATM    2  C2  UNL     1      -6.344   0.380   0.073  1.00  0.00     0.017 C 
HETATM    3  N1  UNL     1      -5.084  -0.076  -0.299  1.00  0.00    -0.240 N 
HETATM    4  C3  UNL     1      -4.906  -1.479  -0.586  1.00  0.00     0.189 C 
ENDROOT
BRANCH   3   5
HETATM    5  N2  UNL     1      -4.024   0.819  -0.389  1.00  0.00    -0.122 N 
HETATM    6  C4  UNL     1      -2.770   0.634   0.210  1.00  0.00     0.705 C 
HETATM    7  N3  UNL     1      -2.646   0.761   1.479  1.00  0.00    -0.232 N 
HETATM    8  N4  UNL     1      -1.652   0.310  -0.595  1.00  0.00    -0.129 N 
ATOM      9  H32 UNL     1      -3.452   0.995   2.059  1.00  0.00     0.174 HD
ATOM     10  H31 UNL     1      -1.734   0.626   1.915  1.00  0.00     0.174 HD
ATOM     11  H4  UNL     1      -1.662  -0.574  -1.104  1.00  0.00     0.205 HD
ATOM     12  H2  UNL     1      -4.169   1.672  -0.930  1.00  0.00     0.206 HD
BRANCH   8  13
HETATM   13  N5  UNL     1      -0.541   1.134  -0.728  1.00  0.00    -0.259 N 
HETATM   14  C5  UNL     1       0.712   0.749  -0.157  1.00  0.00     0.203 C 
HETATM   15  N6  UNL     1       0.918  -0.584   0.298  1.00  0.00    -0.062 NA
HETATM   16  N7  UNL     1       1.677   1.586  -0.037  1.00  0.00    -0.363 N 
ATOM     17  H7  UNL     1       1.552   2.548  -0.353  1.00  0.00     0.162 HD
ATOM     18  H5  UNL     1      -0.620   2.016  -1.234  1.00  0.00     0.190 HD
BRANCH  16  19
HETATM   19  C6  UNL     1       2.931   1.185   0.537  1.00  0.00     0.130 C 
BRANCH  19  20
HETATM   20  C7  UNL     1       3.751   0.589  -0.609  1.00  0.00     0.108 C 
BRANCH  20  21
HETATM   21  C8  UNL     1       5.067   0.157  -0.091  1.00  0.00     0.215 C 
HETATM   22  O1  UNL     1       5.965   1.009   0.074  1.00  0.00    -0.288 OA
BRANCH  21  23
HETATM   23  C9  UNL     1       5.284  -1.238   0.213  1.00  0.00     0.300 C 
HETATM   24  N8  UNL     1       6.563  -1.649   0.699  1.00  0.00    -0.054 NA
HETATM   25  O2  UNL     1       4.378  -2.077   0.055  1.00  0.00    -0.268 OA
ENDBRANCH  21  23
ENDBRANCH  20  21
ENDBRANCH  19  20
ENDBRANCH  16  19
ENDBRANCH   8  13
ENDBRANCH   3   5
TORSDOF 6
