REMARK  2 active torsions:
REMARK  status: ('A' for Active; 'I' for Inactive)
REMARK    1  A    between atoms: C5_8  and  C6_9 
REMARK    2  A    between atoms: C7_10  and  C8_11 
ROOT
HETATM    1  N1  UNL     1       7.326  -1.262   0.367  1.00  0.00    -0.102 NA
HETATM    2  C1  UNL     1       5.905  -1.095   0.264  1.00  0.00     0.047 A 
HETATM    3  C2  UNL     1       5.046  -2.177   0.366  1.00  0.00     0.029 A 
HETATM    4  C3  UNL     1       3.679  -2.013   0.266  1.00  0.00     0.032 A 
HETATM    5  C4  UNL     1       3.116  -0.760   0.061  1.00  0.00     0.043 A 
HETATM    6  N2  UNL     1       1.787  -0.583  -0.038  1.00  0.00    -0.349 N 
ATOM      7  H2  UNL     1       1.187  -1.404   0.042  1.00  0.00     0.167 HD
HETATM    8  C5  UNL     1       1.203   0.606  -0.235  1.00  0.00     0.087 A 
HETATM    9  C18 UNL     1       2.065   1.701  -0.338  1.00  0.00     0.040 A 
HETATM   10  C19 UNL     1       3.416   1.587  -0.246  1.00  0.00     0.016 A 
HETATM   11  C20 UNL     1       3.969   0.340  -0.043  1.00  0.00    -0.008 A 
HETATM   12  C21 UNL     1       5.328   0.138   0.061  1.00  0.00     0.040 A 
ENDROOT
BRANCH   8  13
HETATM   13  C6  UNL     1      -0.226   0.769  -0.338  1.00  0.00    -0.043 C 
HETATM   14  C7  UNL     1      -1.422   0.908  -0.444  1.00  0.00    -0.059 C 
BRANCH  14  15
HETATM   15  C8  UNL     1      -2.838   1.076  -0.594  1.00  0.00     0.029 A 
HETATM   16  C9  UNL     1      -3.394   2.093  -1.381  1.00  0.00     0.021 A 
HETATM   17  C10 UNL     1      -4.742   2.244  -1.517  1.00  0.00     0.002 A 
HETATM   18  C11 UNL     1      -5.590   1.385  -0.872  1.00  0.00     0.012 A 
HETATM   19  C12 UNL     1      -5.064   0.374  -0.090  1.00  0.00    -0.025 A 
HETATM   20  C13 UNL     1      -5.884  -0.499   0.567  1.00  0.00     0.012 A 
HETATM   21  C17 UNL     1      -3.691   0.219   0.050  1.00  0.00    -0.007 A 
HETATM   22  C14 UNL     1      -5.380  -1.515   1.353  1.00  0.00     0.001 A 
HETATM   23  C15 UNL     1      -4.008  -1.636   1.466  1.00  0.00     0.001 A 
HETATM   24  C16 UNL     1      -3.138  -0.781   0.824  1.00  0.00     0.014 A 
ENDBRANCH  14  15
ENDBRANCH   8  13
TORSDOF 2
