REMARK  9 active torsions:
REMARK  status: ('A' for Active; 'I' for Inactive)
REMARK    1  A    between atoms: C2_2  and  C3_3 
REMARK    2  A    between atoms: C3_3  and  C4_4 
REMARK    3  A    between atoms: C10_11  and  C11_12 
REMARK    4  A    between atoms: C11_12  and  C12_13 
REMARK    5  A    between atoms: C12_13  and  C13_14 
REMARK    6  A    between atoms: C13_14  and  O1_15 
REMARK    7  A    between atoms: C13_14  and  C14_17 
REMARK    8  A    between atoms: C15_19  and  C16_20 
REMARK    9  A    between atoms: C16_20  and  O2_21 
ROOT
HETATM    1  C13 UNL     1      -1.926  -0.787   1.390  1.00  0.00     0.067 C 
ENDROOT
BRANCH   1   2
HETATM    2  C12 UNL     1      -0.573  -1.427   1.257  1.00  0.00     0.071 C 
BRANCH   2   3
HETATM    3  C11 UNL     1      -0.252  -1.940  -0.124  1.00  0.00     0.048 C 
BRANCH   3   4
HETATM    4  C10 UNL     1       1.086  -2.579  -0.172  1.00  0.00    -0.024 A 
HETATM    5  C9  UNL     1       1.197  -3.942  -0.206  1.00  0.00     0.012 A 
HETATM    6  C8  UNL     1       2.446  -4.567  -0.252  1.00  0.00     0.025 A 
HETATM    7  C7  UNL     1       3.534  -3.727  -0.259  1.00  0.00     0.043 A 
HETATM    8  C6  UNL     1       3.452  -2.348  -0.225  1.00  0.00    -0.000 A 
HETATM    9 CL1  UNL     1       5.130  -4.447  -0.315  1.00  0.00    -0.084 Cl
HETATM   10  C5  UNL     1       4.441  -1.255  -0.224  1.00  0.00     0.075 C 
HETATM   11  C22 UNL     1       2.201  -1.775  -0.180  1.00  0.00     0.083 A 
HETATM   12  C4  UNL     1       3.668  -0.061   0.216  1.00  0.00     0.133 C 
HETATM   13  O5  UNL     1       2.334  -0.368  -0.151  1.00  0.00    -0.344 OA
BRANCH  12  14
HETATM   14  C3  UNL     1       4.120   1.232  -0.356  1.00  0.00     0.032 C 
BRANCH  14  15
HETATM   15  C2  UNL     1       4.063   1.314  -1.851  1.00  0.00    -0.002 C 
HETATM   16  C1  UNL     1       4.565   2.713  -2.232  1.00  0.00     0.005 C 
ENDBRANCH  14  15
ENDBRANCH  12  14
ENDBRANCH   3   4
ENDBRANCH   2   3
ENDBRANCH   1   2
BRANCH   1  17
HETATM   17  O1  UNL     1      -2.879  -1.714   1.066  1.00  0.00    -0.363 OA
ATOM     18  H1  UNL     1      -3.734  -1.309   1.150  1.00  0.00     0.217 HD
ENDBRANCH   1  17
BRANCH   1  19
HETATM   19  C14 UNL     1      -2.081   0.588   0.905  1.00  0.00     0.058 C 
HETATM   20  N1  UNL     1      -2.196   0.925  -0.403  1.00  0.00    -0.329 N 
HETATM   21  C15 UNL     1      -2.760   0.437  -1.510  1.00  0.00     0.258 C 
HETATM   22  C18 UNL     1      -1.980   2.360  -0.533  1.00  0.00     0.250 C 
HETATM   23  O3  UNL     1      -2.198   1.334  -2.521  1.00  0.00    -0.291 OA
HETATM   24  C17 UNL     1      -2.349   2.582  -1.923  1.00  0.00     0.294 C 
HETATM   25  O4  UNL     1      -2.724   3.636  -2.496  1.00  0.00    -0.262 OA
HETATM   26  S1  UNL     1      -3.279   2.865   0.672  1.00  0.00    -0.118 SA
HETATM   27  C19 UNL     1      -2.954   1.459   1.816  1.00  0.00     0.048 C 
HETATM   28  C20 UNL     1      -4.137   0.836   2.386  1.00  0.00     0.033 C 
HETATM   29  C21 UNL     1      -2.142   2.078   2.957  1.00  0.00     0.033 C 
BRANCH  21  30
HETATM   30  C16 UNL     1      -4.215   0.526  -1.828  1.00  0.00     0.218 C 
BRANCH  30  31
HETATM   31  O2  UNL     1      -5.072  -0.095  -0.935  1.00  0.00    -0.397 OA
ATOM     32  H2  UNL     1      -5.998  -0.038  -1.137  1.00  0.00     0.209 HD
ENDBRANCH  30  31
ENDBRANCH  21  30
ENDBRANCH   1  19
TORSDOF 9
