REMARK  4 active torsions:
REMARK  status: ('A' for Active; 'I' for Inactive)
REMARK    1  A    between atoms: C2_2  and  N1_3 
REMARK    2  A    between atoms: C2_2  and  C3_7 
REMARK    3  A    between atoms: C3_7  and  N2_8 
REMARK    4  A    between atoms: C8_13  and  N3_14 
ROOT
HETATM    1  N2  UNL     1       0.374   0.081   0.528  1.00  0.00    -0.040 N 
HETATM    2  C4  UNL     1       0.213  -0.539   1.854  1.00  0.00     0.275 C 
HETATM    3  C5  UNL     1       1.243   1.241   0.818  1.00  0.00     0.239 C 
HETATM    4  C6  UNL     1       1.871   1.490  -0.530  1.00  0.00     0.032 C 
HETATM    5  C7  UNL     1       2.278   0.083  -0.899  1.00  0.00     0.064 C 
HETATM    6  C8  UNL     1       1.117  -0.732  -0.361  1.00  0.00     0.384 C 
ENDROOT
BRANCH   1   7
HETATM    7  C3  UNL     1      -0.843   0.615   0.057  1.00  0.00     0.271 C 
BRANCH   7   8
HETATM    8  C2  UNL     1      -1.724  -0.261  -0.751  1.00  0.00     0.205 C 
HETATM    9  C1  UNL     1      -2.959   0.582  -1.117  1.00  0.00     0.041 C 
BRANCH   8  10
HETATM   10  N1  UNL     1      -2.259  -1.397  -0.034  1.00  0.00    -0.074 N 
ATOM     11  H13 UNL     1      -2.844  -1.148   0.764  1.00  0.00     0.274 HD
ATOM     12  H12 UNL     1      -2.977  -1.911  -0.545  1.00  0.00     0.274 HD
ATOM     13  H11 UNL     1      -1.441  -1.956   0.209  1.00  0.00     0.274 HD
ENDBRANCH   8  10
ENDBRANCH   7   8
ENDBRANCH   1   7
BRANCH   6  14
HETATM   14  N3  UNL     1       1.727  -1.877   0.336  1.00  0.00    -0.050 N 
ATOM     15  H33 UNL     1       2.295  -1.573   1.127  1.00  0.00     0.276 HD
ATOM     16  H32 UNL     1       1.028  -2.420   0.843  1.00  0.00     0.276 HD
ATOM     17  H31 UNL     1       2.262  -2.463  -0.305  1.00  0.00     0.276 HD
ENDBRANCH   6  14
TORSDOF 4
