REMARK  2 active torsions:
REMARK  status: ('A' for Active; 'I' for Inactive)
REMARK    1  A    between atoms: N2_5  and  O1_6 
REMARK    2  A    between atoms: C2_8  and  C3_9 
ROOT
HETATM    1  N1  UNL     1      -1.091  -3.257   0.051  1.00  0.00    -0.233 N 
ATOM      2  H11 UNL     1      -2.040  -3.514  -0.220  1.00  0.00     0.174 HD
ATOM      3  H12 UNL     1      -0.588  -4.112   0.287  1.00  0.00     0.174 HD
HETATM    4  C1  UNL     1      -0.620  -2.034   0.082  1.00  0.00     0.697 C 
HETATM    5  N2  UNL     1       0.705  -1.675   0.460  1.00  0.00    -0.077 N 
HETATM    6  C2  UNL     1       0.705  -0.261   0.659  1.00  0.00     0.215 C 
HETATM    7  C5  UNL     1      -0.356   0.219  -0.308  1.00  0.00     0.134 C 
HETATM    8  C6  UNL     1      -0.851   1.540   0.144  1.00  0.00     0.028 C 
HETATM    9  C7  UNL     1      -2.316   1.759   0.013  1.00  0.00     0.004 C 
HETATM   10  C8  UNL     1      -3.114   0.541   0.479  1.00  0.00     0.020 C 
HETATM   11  C9  UNL     1      -2.729  -0.573  -0.504  1.00  0.00     0.142 C 
HETATM   12  N5  UNL     1      -1.322  -0.841  -0.247  1.00  0.00    -0.209 N 
ENDROOT
BRANCH   6  13
HETATM   13  C3  UNL     1       2.061   0.264   0.293  1.00  0.00     0.097 A 
HETATM   14  N3  UNL     1       2.815  -0.019  -0.759  1.00  0.00    -0.294 N 
HETATM   15  N4  UNL     1       3.946   0.525  -0.905  1.00  0.00    -0.284 N 
ATOM     16  H3  UNL     1       2.479  -0.682  -1.458  1.00  0.00     0.187 HD
HETATM   17  C4  UNL     1       4.370   1.394   0.021  1.00  0.00     0.159 A 
ATOM     18  H4  UNL     1       4.526   0.306  -1.715  1.00  0.00     0.188 HD
HETATM   19  S1  UNL     1       5.795   2.222   0.047  1.00  0.00    -0.051 SA
HETATM   20  S2  UNL     1       3.058   1.390   1.120  1.00  0.00    -0.042 SA
ENDBRANCH   6  13
BRANCH   5  21
HETATM   21  O1  UNL     1       1.743  -2.551   0.592  1.00  0.00    -0.273 OA
ATOM     22  H1  UNL     1       2.627  -2.311   0.844  1.00  0.00     0.245 HD
ENDBRANCH   5  21
TORSDOF 2
