REMARK  4 active torsions:
REMARK  status: ('A' for Active; 'I' for Inactive)
REMARK    1  A    between atoms: C2_2  and  N1_3 
REMARK    2  A    between atoms: N1_3  and  C3_5 
REMARK    3  A    between atoms: C3_5  and  N2_7 
REMARK       I    between atoms: C4_9  and  N4_11 
REMARK    4  A    between atoms: C6_16  and  C7_17 
ROOT
HETATM    1  N2  UNL     1      -1.727   1.442  -1.103  1.00  0.00    -0.307 N 
ATOM      2  H2  UNL     1      -1.544   2.387  -1.442  1.00  0.00     0.171 HD
HETATM    3  C4  UNL     1      -0.774   0.584  -1.100  1.00  0.00     0.196 C 
HETATM    4  N3  UNL     1      -1.053  -0.721  -0.626  1.00  0.00    -0.063 NA
HETATM    5  N4  UNL     1       0.533   0.893  -1.549  1.00  0.00    -0.311 N 
ATOM      6  H4  UNL     1       0.663   1.252  -2.495  1.00  0.00     0.170 HD
HETATM    7  C5  UNL     1       1.557   0.731  -0.793  1.00  0.00     0.145 C 
HETATM    8  N5  UNL     1       2.963   0.911  -0.855  1.00  0.00    -0.357 N 
ATOM      9  H5  UNL     1       3.579   1.638  -1.220  1.00  0.00     0.162 HD
HETATM   10  C6  UNL     1       3.163  -0.336  -0.200  1.00  0.00     0.153 C 
HETATM   11  S2  UNL     1       1.755   0.134   0.873  1.00  0.00    -0.069 SA
ENDROOT
BRANCH   1  12
HETATM   12  C3  UNL     1      -3.016   1.114  -0.652  1.00  0.00     0.174 C 
HETATM   13  S1  UNL     1      -4.245   1.006  -1.733  1.00  0.00    -0.041 SA
BRANCH  12  14
HETATM   14  N1  UNL     1      -3.243   0.881   0.720  1.00  0.00    -0.367 N 
ATOM     15  H1  UNL     1      -2.471   0.951   1.383  1.00  0.00     0.161 HD
BRANCH  14  16
HETATM   16  C2  UNL     1      -4.559   0.545   1.187  1.00  0.00     0.117 C 
HETATM   17  C1  UNL     1      -4.922  -0.825   0.673  1.00  0.00     0.026 C 
ENDBRANCH  14  16
ENDBRANCH  12  14
ENDBRANCH   1  12
BRANCH  10  18
HETATM   18  C7  UNL     1       4.394  -0.517   0.614  1.00  0.00     0.032 C 
HETATM   19  C8  UNL     1       5.675  -0.367  -0.153  1.00  0.00     0.008 C 
ENDBRANCH  10  18
TORSDOF 4
