REMARK  13 active torsions:
REMARK  status: ('A' for Active; 'I' for Inactive)
REMARK    1  A    between atoms: C2_2  and  C4_4 
REMARK    2  A    between atoms: C4_4  and  N2_8 
REMARK    3  A    between atoms: N2_8  and  C5_10 
REMARK    4  A    between atoms: C5_10  and  C6_11 
REMARK    5  A    between atoms: C6_11  and  N3_12 
REMARK    6  A    between atoms: N3_12  and  C8_14 
REMARK    7  A    between atoms: C8_14  and  C9_15 
REMARK    8  A    between atoms: C9_15  and  O1_16 
REMARK    9  A    between atoms: O1_16  and  C10_17 
REMARK   10  A    between atoms: N4_18  and  C11_20 
REMARK   11  A    between atoms: C13_22  and  O2_23 
REMARK   12  A    between atoms: C14_25  and  C15_26 
REMARK   13  A    between atoms: N8_33  and  C16_34 
ROOT
HETATM    1  C11 UNL     1       2.572   0.773  -0.181  1.00  0.00     0.078 A 
HETATM    2  C12 UNL     1       2.800   2.031  -0.674  1.00  0.00     0.075 A 
HETATM    3  C13 UNL     1       4.086   2.407  -0.843  1.00  0.00     0.089 A 
HETATM    4  C14 UNL     1       5.054   1.482  -0.502  1.00  0.00     0.087 A 
HETATM    5  S1  UNL     1       4.137   0.167   0.025  1.00  0.00    -0.066 SA
ENDROOT
BRANCH   1   6
HETATM    6  N4  UNL     1       1.286   0.162   0.077  1.00  0.00    -0.342 N 
HETATM    7  C10 UNL     1       0.862   0.229   1.291  1.00  0.00     0.227 C 
ATOM      8  H4  UNL     1       0.747  -0.295  -0.659  1.00  0.00     0.167 HD
BRANCH   7   9
HETATM    9  O1  UNL     1      -0.383  -0.361   1.553  1.00  0.00    -0.345 OA
BRANCH   9  10
HETATM   10  C9  UNL     1      -1.240  -0.603   0.461  1.00  0.00     0.206 C 
BRANCH  10  11
HETATM   11  C8  UNL     1      -2.498  -1.242   0.972  1.00  0.00     0.298 C 
BRANCH  11  12
HETATM   12  N3  UNL     1      -3.446  -1.535  -0.067  1.00  0.00     0.087 N 
HETATM   13  C7  UNL     1      -2.829  -2.432  -1.060  1.00  0.00     0.310 C 
BRANCH  12  14
HETATM   14  C6  UNL     1      -4.040  -0.400  -0.695  1.00  0.00     0.291 C 
BRANCH  14  15
HETATM   15  C5  UNL     1      -4.686   0.485   0.328  1.00  0.00     0.151 C 
BRANCH  15  16
HETATM   16  N2  UNL     1      -5.726  -0.176   1.084  1.00  0.00    -0.378 N 
ATOM     17  H2  UNL     1      -5.549  -0.350   2.073  1.00  0.00     0.160 HD
BRANCH  16  18
HETATM   18  C4  UNL     1      -6.970  -0.601   0.560  1.00  0.00     0.074 C 
HETATM   19  N1  UNL     1      -7.072  -1.733   0.004  1.00  0.00    -0.389 N 
ATOM     20  H12 UNL     1      -7.969  -2.039  -0.374  1.00  0.00     0.157 HD
ATOM     21  H11 UNL     1      -6.268  -2.355  -0.077  1.00  0.00     0.157 HD
BRANCH  18  22
HETATM   22  C2  UNL     1      -8.137   0.302   0.678  1.00  0.00     0.044 C 
HETATM   23  C1  UNL     1      -9.378  -0.342   0.093  1.00  0.00     0.017 C 
HETATM   24  C3  UNL     1      -7.831   1.591  -0.080  1.00  0.00     0.017 C 
ENDBRANCH  18  22
ENDBRANCH  16  18
ENDBRANCH  15  16
ENDBRANCH  14  15
ENDBRANCH  12  14
ENDBRANCH  11  12
ENDBRANCH  10  11
ENDBRANCH   9  10
ENDBRANCH   7   9
ENDBRANCH   1   6
BRANCH   3  25
HETATM   25  O2  UNL     1       4.410   3.697  -1.350  1.00  0.00    -0.359 OA
ATOM     26  H2  UNL     1       5.315   3.962  -1.469  1.00  0.00     0.217 HD
ENDBRANCH   3  25
BRANCH   4  27
HETATM   27  C15 UNL     1       6.514   1.725  -0.626  1.00  0.00     0.160 A 
HETATM   28  N5  UNL     1       7.059   2.866  -1.093  1.00  0.00    -0.267 N 
HETATM   29  N6  UNL     1       8.352   2.714  -1.054  1.00  0.00    -0.226 N 
ATOM     30  H5  UNL     1       6.555   3.692  -1.416  1.00  0.00     0.190 HD
HETATM   31  N7  UNL     1       8.616   1.533  -0.585  1.00  0.00    -0.224 N 
ATOM     32  H6  UNL     1       9.042   3.407  -1.344  1.00  0.00     0.210 HD
HETATM   33  N8  UNL     1       7.469   0.884  -0.306  1.00  0.00    -0.250 N 
ATOM     34  H7  UNL     1       9.553   1.153  -0.448  1.00  0.00     0.210 HD
BRANCH  33  35
HETATM   35  C16 UNL     1       7.487  -0.456   0.232  1.00  0.00     0.046 C 
HETATM   36  C17 UNL     1       8.981  -0.842   0.372  1.00  0.00     0.040 C 
HETATM   37  C18 UNL     1       6.898  -1.504  -0.647  1.00  0.00     0.040 C 
HETATM   38  C19 UNL     1       6.953  -0.463   1.629  1.00  0.00     0.040 C 
ENDBRANCH  33  35
ENDBRANCH   4  27
TORSDOF 13
