REMARK  3 active torsions:
REMARK  status: ('A' for Active; 'I' for Inactive)
REMARK    1  A    between atoms: C2_2  and  C3_3 
REMARK    2  A    between atoms: C3_3  and  C4_4 
REMARK       I    between atoms: C4_4  and  N1_6 
REMARK    3  A    between atoms: N1_6  and  N2_8 
ROOT
HETATM    1  N2  UNL     1       0.202  -1.096  -0.954  1.00  0.00    -0.306 N 
ATOM      2  H2  UNL     1      -0.027  -1.150  -1.946  1.00  0.00     0.186 HD
HETATM    3  C5  UNL     1      -0.762  -0.933  -0.121  1.00  0.00     0.008 C 
HETATM    4  C6  UNL     1      -0.460  -0.853   1.303  1.00  0.00     0.055 C 
HETATM    5  C7  UNL     1      -1.637  -1.078   2.203  1.00  0.00     0.010 C 
HETATM    6  C8  UNL     1      -2.957  -1.102   1.492  1.00  0.00    -0.013 C 
HETATM    7  C9  UNL     1      -3.301   0.311   1.102  1.00  0.00     0.009 C 
HETATM    8  C10 UNL     1      -2.839   0.438  -0.312  1.00  0.00    -0.009 C 
HETATM    9  C11 UNL     1      -2.078   1.678  -0.623  1.00  0.00     0.011 C 
HETATM   10  C12 UNL     1      -2.136  -0.844  -0.674  1.00  0.00     0.037 C 
HETATM   11  C13 UNL     1      -2.947  -1.836   0.183  1.00  0.00     0.015 C 
ENDROOT
BRANCH   1  12
HETATM   12  N1  UNL     1       1.552  -1.204  -0.582  1.00  0.00    -0.270 N 
HETATM   13  C4  UNL     1       2.312  -0.026  -0.451  1.00  0.00     0.235 C 
HETATM   14  O1  UNL     1       1.788   1.091  -0.663  1.00  0.00    -0.272 OA
ATOM     15  H1  UNL     1       1.973  -2.117  -0.410  1.00  0.00     0.190 HD
BRANCH  13  16
HETATM   16  C3  UNL     1       3.734  -0.128  -0.060  1.00  0.00     0.104 C 
BRANCH  16  17
HETATM   17  C2  UNL     1       4.420   1.200   0.036  1.00  0.00     0.005 C 
HETATM   18  C1  UNL     1       4.363   1.886  -1.304  1.00  0.00     0.005 C 
ENDBRANCH  16  17
ENDBRANCH  13  16
ENDBRANCH   1  12
TORSDOF 3
