REMARK  3 active torsions:
REMARK  status: ('A' for Active; 'I' for Inactive)
REMARK    1  A    between atoms: C2_2  and  N1_3 
REMARK       I    between atoms: N1_3  and  C3_5 
REMARK       I    between atoms: C3_5  and  N4_17 
REMARK       I    between atoms: N2_6  and  C4_8 
REMARK    2  A    between atoms: C4_8  and  C5_10 
REMARK    3  A    between atoms: N4_17  and  C10_19 
ROOT
HETATM    1  N1  UNL     1      -2.089   1.128   1.170  1.00  0.00    -0.227 N 
ATOM      2  H1  UNL     1      -2.583   0.816   2.006  1.00  0.00     0.177 HD
HETATM    3  C3  UNL     1      -1.177   0.221   0.568  1.00  0.00     0.677 C 
HETATM    4  N2  UNL     1       0.047   0.170   1.024  1.00  0.00    -0.156 N 
ATOM      5  H2  UNL     1       0.322   0.777   1.796  1.00  0.00     0.187 HD
HETATM    6  C4  UNL     1       1.005  -0.725   0.454  1.00  0.00     0.293 C 
HETATM    7  O1  UNL     1       0.900  -1.924   0.892  1.00  0.00    -0.268 OA
HETATM    8  N4  UNL     1      -1.502  -0.649  -0.508  1.00  0.00    -0.218 N 
ATOM      9  H4  UNL     1      -0.818  -0.751  -1.258  1.00  0.00     0.178 HD
ENDROOT
BRANCH   1  10
HETATM   10  C2  UNL     1      -2.368   2.452   0.689  1.00  0.00     0.133 C 
HETATM   11  C1  UNL     1      -1.225   3.412   0.830  1.00  0.00     0.027 C 
ENDBRANCH   1  10
BRANCH   8  12
HETATM   12  C10 UNL     1      -2.717  -1.390  -0.614  1.00  0.00     0.036 C 
HETATM   13  C11 UNL     1      -2.681  -2.220  -1.875  1.00  0.00     0.038 C 
HETATM   14  C12 UNL     1      -2.934  -2.335   0.546  1.00  0.00     0.038 C 
HETATM   15  C13 UNL     1      -3.914  -0.451  -0.776  1.00  0.00     0.038 C 
ENDBRANCH   8  12
BRANCH   6  16
HETATM   16  C5  UNL     1       2.019  -0.336  -0.538  1.00  0.00     0.418 C 
HETATM   17  O2  UNL     1       2.742  -1.510  -0.868  1.00  0.00    -0.350 OA
HETATM   18  C6  UNL     1       3.580  -1.767   0.217  1.00  0.00     0.199 C 
HETATM   19  C7  UNL     1       3.621  -0.471   1.019  1.00  0.00     0.266 C 
HETATM   20  N3  UNL     1       3.102   0.457   0.009  1.00  0.00    -0.038 N 
HETATM   21  C8  UNL     1       2.740   1.721   0.528  1.00  0.00     0.276 C 
HETATM   22  C9  UNL     1       4.129   0.568  -1.015  1.00  0.00     0.276 C 
ENDBRANCH   6  16
TORSDOF 3
