REMARK  4 active torsions:
REMARK  status: ('A' for Active; 'I' for Inactive)
REMARK    1  A    between atoms: C2_2  and  C3_3 
REMARK    2  A    between atoms: C5_5  and  C6_6 
REMARK       I    between atoms: C6_6  and  N1_8 
REMARK    3  A    between atoms: N1_8  and  N2_10 
REMARK       I    between atoms: N2_10  and  C7_12 
REMARK       I    between atoms: C7_12  and  N3_14 
REMARK    4  A    between atoms: N3_14  and  C8_16 
ROOT
HETATM    1  N2  UNL     1       0.185  -1.125  -1.153  1.00  0.00    -0.249 N 
ATOM      2  H2  UNL     1      -0.181  -1.649  -1.948  1.00  0.00     0.192 HD
HETATM    3  C7  UNL     1      -0.661  -0.271  -0.424  1.00  0.00     0.335 C 
HETATM    4  O2  UNL     1      -0.212   0.365   0.543  1.00  0.00    -0.246 OA
HETATM    5  N3  UNL     1      -2.005  -0.138  -0.789  1.00  0.00    -0.336 N 
ATOM      6  H3  UNL     1      -2.376  -0.658  -1.584  1.00  0.00     0.164 HD
ENDROOT
BRANCH   1   7
HETATM    7  N1  UNL     1       1.519  -1.255  -0.791  1.00  0.00    -0.266 N 
HETATM    8  C6  UNL     1       2.467  -0.355  -1.355  1.00  0.00     0.240 C 
HETATM    9  O1  UNL     1       2.112   0.537  -2.162  1.00  0.00    -0.271 OA
ATOM     10  H1  UNL     1       1.813  -1.979  -0.136  1.00  0.00     0.190 HD
BRANCH   8  11
HETATM   11  C5  UNL     1       3.884  -0.463  -0.995  1.00  0.00     0.084 A 
HETATM   12  C3  UNL     1       4.103  -0.754   0.499  1.00  0.00    -0.001 A 
HETATM   13  C4  UNL     1       4.483  -1.730  -0.521  1.00  0.00     0.020 A 
BRANCH  12  14
HETATM   14  C2  UNL     1       5.067   0.171   1.161  1.00  0.00     0.001 C 
HETATM   15  C1  UNL     1       5.772   1.093   0.172  1.00  0.00     0.005 C 
ENDBRANCH  12  14
ENDBRANCH   8  11
ENDBRANCH   1   7
BRANCH   5  16
HETATM   16  C8  UNL     1      -2.847   0.728  -0.043  1.00  0.00     0.096 C 
HETATM   17  C9  UNL     1      -3.631   1.768  -0.858  1.00  0.00     0.042 C 
HETATM   18  C10 UNL     1      -4.668   1.661   0.272  1.00  0.00     0.069 C 
HETATM   19 BR1  UNL     1      -4.063   2.701   1.770  1.00  0.00    -0.090 Br
HETATM   20  C11 UNL     1      -4.199   0.200   0.387  1.00  0.00    -0.014 C 
HETATM   21  C12 UNL     1      -4.939  -0.631  -0.620  1.00  0.00     0.018 C 
HETATM   22  C13 UNL     1      -4.142  -0.335   1.776  1.00  0.00     0.018 C 
ENDBRANCH   5  16
TORSDOF 4
