REMARK  5 active torsions:
REMARK  status: ('A' for Active; 'I' for Inactive)
REMARK    1  A    between atoms: N2_4  and  C1_6 
REMARK    2  A    between atoms: C1_6  and  N3_7 
REMARK    3  A    between atoms: C1_6  and  C3_16 
REMARK       I    between atoms: N3_7  and  C2_9 
REMARK       I    between atoms: C2_9  and  N4_11 
REMARK    4  A    between atoms: N4_11  and  N5_13 
REMARK       I    between atoms: C3_16  and  N6_18 
REMARK    5  A    between atoms: N6_18  and  N7_20 
ROOT
HETATM    1  C1  UNL     1       0.945  -1.691  -0.307  1.00  0.00     0.295 C 
ENDROOT
BRANCH   1   2
HETATM    2  N2  UNL     1       1.687  -2.856   0.077  1.00  0.00    -0.311 N 
HETATM    3  N1  UNL     1       2.150  -3.660  -0.751  1.00  0.00    -0.347 N 
ATOM      4  H12 UNL     1       1.986  -3.468  -1.739  1.00  0.00     0.176 HD
ATOM      5  H11 UNL     1       2.678  -4.489  -0.478  1.00  0.00     0.176 HD
ATOM      6  H2  UNL     1       1.841  -3.033   1.070  1.00  0.00     0.182 HD
ENDBRANCH   1   2
BRANCH   1   7
HETATM    7  N3  UNL     1       1.621  -0.550   0.301  1.00  0.00    -0.311 N 
HETATM    8  C2  UNL     1       2.203   0.484  -0.451  1.00  0.00     0.336 C 
HETATM    9  O1  UNL     1       2.157   0.458  -1.697  1.00  0.00    -0.246 OA
HETATM   10  N4  UNL     1       2.843   1.561   0.195  1.00  0.00    -0.258 N 
ATOM     11  H4  UNL     1       2.876   1.576   1.214  1.00  0.00     0.191 HD
ATOM     12  H3  UNL     1       1.673  -0.501   1.318  1.00  0.00     0.166 HD
BRANCH  10  13
HETATM   13  N5  UNL     1       3.435   2.611  -0.519  1.00  0.00    -0.341 N 
ATOM     14  H52 UNL     1       3.393   2.580  -1.538  1.00  0.00     0.177 HD
ATOM     15  H51 UNL     1       3.898   3.390  -0.052  1.00  0.00     0.177 HD
ENDBRANCH  10  13
ENDBRANCH   1   7
BRANCH   1  16
HETATM   16  C3  UNL     1      -0.405  -1.755   0.287  1.00  0.00     0.280 C 
HETATM   17  O2  UNL     1      -0.745  -2.727   1.003  1.00  0.00    -0.267 OA
HETATM   18  N6  UNL     1      -1.363  -0.718   0.068  1.00  0.00    -0.265 N 
ATOM     19  H6  UNL     1      -1.101   0.079  -0.512  1.00  0.00     0.190 HD
BRANCH  18  20
HETATM   20  N7  UNL     1      -2.626  -0.757   0.612  1.00  0.00    -0.273 N 
HETATM   21  C4  UNL     1      -3.303   0.342   0.811  1.00  0.00     0.215 C 
HETATM   22  N8  UNL     1      -2.721   1.583   0.460  1.00  0.00    -0.065 NA
HETATM   23  N9  UNL     1      -4.601   0.337   1.367  1.00  0.00    -0.065 NA
ATOM     24  H7  UNL     1      -3.039  -1.655   0.863  1.00  0.00     0.189 HD
ENDBRANCH  18  20
ENDBRANCH   1  16
TORSDOF 5
