REMARK  3 active torsions:
REMARK  status: ('A' for Active; 'I' for Inactive)
REMARK    1  A    between atoms: C2_2  and  C4_4 
REMARK    2  A    between atoms: C4_4  and  N2_8 
REMARK    3  A    between atoms: C9_15  and  C10_16 
ROOT
HETATM    1  N2  UNL     1      -1.515  -0.574   0.087  1.00  0.00    -0.342 N 
HETATM    2  C5  UNL     1      -1.177  -1.349   1.255  1.00  0.00     0.154 C 
HETATM    3  C6  UNL     1       0.267  -1.690   1.084  1.00  0.00     0.259 C 
HETATM    4  N3  UNL     1       0.793  -0.740   0.161  1.00  0.00    -0.046 N 
HETATM    5  C7  UNL     1       1.630  -1.416  -0.801  1.00  0.00     0.277 C 
HETATM    6  C8  UNL     1       3.015  -0.814  -0.697  1.00  0.00     0.212 C 
HETATM    7  F1  UNL     1       3.684  -0.822  -1.897  1.00  0.00    -0.247 F 
HETATM    8  C9  UNL     1       2.619   0.612  -0.286  1.00  0.00     0.148 C 
HETATM    9  C11 UNL     1       1.625   0.274   0.804  1.00  0.00     0.258 C 
HETATM   10  C12 UNL     1      -0.309  -0.042  -0.464  1.00  0.00     0.363 C 
ENDROOT
BRANCH   8  11
HETATM   11  C10 UNL     1       3.779   1.369   0.214  1.00  0.00     0.181 C 
HETATM   12  O1  UNL     1       3.855   1.848   1.351  1.00  0.00    -0.648 OA
HETATM   13  O2  UNL     1       4.848   1.549  -0.657  1.00  0.00    -0.648 OA
ENDBRANCH   8  11
BRANCH   1  14
HETATM   14  C4  UNL     1      -2.809  -0.352  -0.457  1.00  0.00     0.103 C 
HETATM   15  N1  UNL     1      -3.403  -1.255  -1.161  1.00  0.00    -0.385 N 
ATOM     16  H12 UNL     1      -4.332  -1.096  -1.551  1.00  0.00     0.157 HD
ATOM     17  H11 UNL     1      -2.944  -2.149  -1.337  1.00  0.00     0.157 HD
BRANCH  14  18
HETATM   18  C2  UNL     1      -3.462   0.921  -0.207  1.00  0.00    -0.028 C 
HETATM   19  C1  UNL     1      -4.647   1.136  -0.698  1.00  0.00     0.022 C 
HETATM   20  C3  UNL     1      -2.793   1.966   0.598  1.00  0.00     0.051 C 
ENDBRANCH  14  18
ENDBRANCH   1  14
TORSDOF 3
