REMARK  16 active torsions:
REMARK  status: ('A' for Active; 'I' for Inactive)
REMARK    1  A    between atoms: C2_2  and  C3_3 
REMARK    2  A    between atoms: C3_3  and  C4_4 
REMARK    3  A    between atoms: C4_4  and  N1_5 
REMARK    4  A    between atoms: C4_4  and  N2_8 
REMARK    5  A    between atoms: N1_5  and  C5_6 
REMARK    6  A    between atoms: N2_8  and  C7_10 
REMARK    7  A    between atoms: C8_13  and  C9_14 
REMARK    8  A    between atoms: C9_14  and  O1_15 
REMARK    9  A    between atoms: C10_17  and  C11_18 
REMARK   10  A    between atoms: C11_18  and  C12_19 
REMARK   11  A    between atoms: C12_19  and  C13_20 
REMARK   12  A    between atoms: N4_23  and  C16_24 
REMARK   13  A    between atoms: C16_24  and  C17_25 
REMARK   14  A    between atoms: C18_26  and  C19_27 
REMARK   15  A    between atoms: C20_28  and  C21_29 
REMARK   16  A    between atoms: C21_29  and  N5_32 
REMARK       I    between atoms: N5_32  and  C24_34 
ROOT
HETATM    1  C12 UNL     1      -0.886  -0.177  -0.659  1.00  0.00     0.045 C 
ENDROOT
BRANCH   1   2
HETATM    2  C11 UNL     1      -1.900   0.266   0.340  1.00  0.00     0.064 C 
BRANCH   2   3
HETATM    3  C10 UNL     1      -3.323   0.102   0.040  1.00  0.00     0.052 A 
HETATM    4  C8  UNL     1      -4.129   0.977  -0.721  1.00  0.00     0.073 A 
HETATM    5  N3  UNL     1      -5.383   0.508  -0.685  1.00  0.00    -0.191 N 
HETATM    6  C7  UNL     1      -5.433  -0.612   0.044  1.00  0.00     0.685 A 
ATOM      7  H3  UNL     1      -6.183   0.942  -1.146  1.00  0.00     0.184 HD
HETATM    8  N6  UNL     1      -4.170  -0.848   0.475  1.00  0.00    -0.193 N 
ATOM      9  H6  UNL     1      -3.897  -1.642   1.054  1.00  0.00     0.184 HD
BRANCH   4  10
HETATM   10  C9  UNL     1      -3.667   2.186  -1.450  1.00  0.00     0.223 C 
BRANCH  10  11
HETATM   11  O1  UNL     1      -4.797   2.778  -2.053  1.00  0.00    -0.395 OA
ATOM     12  H1  UNL     1      -4.502   3.551  -2.519  1.00  0.00     0.209 HD
ENDBRANCH  10  11
ENDBRANCH   4  10
BRANCH   6  13
HETATM   13  N2  UNL     1      -6.463  -1.310   0.425  1.00  0.00    -0.168 N 
ATOM     14  H2  UNL     1      -6.348  -2.159   0.978  1.00  0.00     0.186 HD
BRANCH  13  15
HETATM   15  C4  UNL     1      -7.783  -0.840   0.036  1.00  0.00     0.163 C 
BRANCH  15  16
HETATM   16  C3  UNL     1      -8.593  -1.501  -1.046  1.00  0.00     0.092 C 
BRANCH  16  17
HETATM   17  C2  UNL     1     -10.031  -0.995  -0.858  1.00  0.00     0.004 C 
HETATM   18  C1  UNL     1     -10.995  -1.564  -1.864  1.00  0.00     0.005 C 
ENDBRANCH  16  17
ENDBRANCH  15  16
BRANCH  15  19
HETATM   19  N1  UNL     1      -8.257   0.113   0.614  1.00  0.00    -0.435 NA
BRANCH  19  20
HETATM   20  C5  UNL     1      -8.799   1.154   1.230  1.00  0.00     0.215 C 
HETATM   21  C6  UNL     1      -7.867   1.645   2.357  1.00  0.00     0.041 C 
ENDBRANCH  19  20
ENDBRANCH  15  19
ENDBRANCH  13  15
ENDBRANCH   6  13
ENDBRANCH   2   3
ENDBRANCH   1   2
BRANCH   1  22
HETATM   22  C13 UNL     1       0.497   0.177  -0.107  1.00  0.00    -0.049 A 
HETATM   23  C14 UNL     1       1.154   1.296  -0.584  1.00  0.00     0.025 A 
HETATM   24  C15 UNL     1       2.360   1.705  -0.060  1.00  0.00     0.092 A 
HETATM   25  N4  UNL     1       2.950   1.026   0.944  1.00  0.00    -0.355 N 
HETATM   26  C26 UNL     1       2.317  -0.078   1.417  1.00  0.00     0.098 A 
HETATM   27  C27 UNL     1       1.091  -0.524   0.910  1.00  0.00    -0.040 A 
HETATM   28  C28 UNL     1       0.490  -1.736   1.478  1.00  0.00     0.050 C 
BRANCH  25  29
HETATM   29  C16 UNL     1       4.184   1.527   1.490  1.00  0.00     0.222 C 
BRANCH  29  30
HETATM   30  C17 UNL     1       5.370   0.965   0.861  1.00  0.00    -0.072 C 
HETATM   31  C18 UNL     1       6.387   0.488   0.380  1.00  0.00    -0.013 C 
BRANCH  31  32
HETATM   32  C19 UNL     1       7.581  -0.079  -0.122  1.00  0.00    -0.012 C 
HETATM   33  C20 UNL     1       8.615  -0.577  -0.521  1.00  0.00    -0.061 C 
BRANCH  33  34
HETATM   34  C21 UNL     1       9.880  -1.210  -0.970  1.00  0.00     0.090 C 
HETATM   35  C22 UNL     1       9.918  -1.194  -2.483  1.00  0.00     0.053 C 
HETATM   36  C23 UNL     1       9.935  -2.659  -0.542  1.00  0.00     0.053 C 
BRANCH  34  37
HETATM   37  N5  UNL     1      11.021  -0.538  -0.398  1.00  0.00    -0.342 N 
HETATM   38  C24 UNL     1      11.133  -0.433   1.005  1.00  0.00     0.214 C 
HETATM   39  C25 UNL     1      12.288   0.246   1.664  1.00  0.00     0.117 C 
HETATM   40  O2  UNL     1      10.258  -0.909   1.763  1.00  0.00    -0.274 OA
ATOM     41  H5  UNL     1      11.741  -0.142  -1.002  1.00  0.00     0.164 HD
ENDBRANCH  34  37
ENDBRANCH  33  34
ENDBRANCH  31  32
ENDBRANCH  29  30
ENDBRANCH  25  29
ENDBRANCH   1  22
TORSDOF 16
