REMARK  9 active torsions:
REMARK  status: ('A' for Active; 'I' for Inactive)
REMARK    1  A    between atoms: N1_2  and  C2_4 
REMARK    2  A    between atoms: N4_11  and  C5_12 
REMARK    3  A    between atoms: C5_12  and  C6_13 
REMARK    4  A    between atoms: N5_17  and  C10_18 
REMARK    5  A    between atoms: C10_18  and  C11_19 
REMARK    6  A    between atoms: C11_19  and  C12_20 
REMARK    7  A    between atoms: C12_20  and  C13_21 
REMARK    8  A    between atoms: C13_21  and  C14_22 
REMARK    9  A    between atoms: C14_22  and  S1_23 
ROOT
HETATM    1  C6  UNL     1       1.008  -2.187   1.131  1.00  0.00     0.046 A 
HETATM    2  C7  UNL     1       0.520  -2.363   2.445  1.00  0.00     0.030 A 
HETATM    3  C8  UNL     1      -0.801  -2.135   2.719  1.00  0.00     0.021 A 
HETATM    4  C9  UNL     1      -1.652  -1.736   1.717  1.00  0.00     0.110 A 
HETATM    5  N5  UNL     1      -1.153  -1.580   0.484  1.00  0.00    -0.301 N 
HETATM    6  N6  UNL     1       0.123  -1.798   0.205  1.00  0.00    -0.297 N 
HETATM    7  C15 UNL     1       0.547  -1.650  -1.174  1.00  0.00     0.178 C 
ENDROOT
BRANCH   1   8
HETATM    8  C5  UNL     1       2.436  -2.456   0.910  1.00  0.00     0.190 C 
BRANCH   8   9
HETATM    9  N4  UNL     1       3.307  -1.376   1.375  1.00  0.00    -0.320 N 
HETATM   10  C4  UNL     1       3.784  -1.284   2.624  1.00  0.00     0.186 A 
HETATM   11  N3  UNL     1       4.526  -0.181   2.694  1.00  0.00    -0.335 N 
HETATM   12  C3  UNL     1       4.520   0.425   1.496  1.00  0.00     0.167 A 
ATOM     13  H3  UNL     1       5.019   0.150   3.523  1.00  0.00     0.168 HD
HETATM   14  N2  UNL     1       4.968   1.480   0.774  1.00  0.00    -0.173 N 
HETATM   15  C16 UNL     1       3.736  -0.352   0.663  1.00  0.00     0.169 A 
HETATM   16  C2  UNL     1       4.493   1.387  -0.472  1.00  0.00     0.681 A 
ATOM     17  H2  UNL     1       5.570   2.225   1.124  1.00  0.00     0.186 HD
HETATM   18  N7  UNL     1       3.747   0.284  -0.552  1.00  0.00    -0.173 N 
ATOM     19  H7  UNL     1       3.260  -0.037  -1.388  1.00  0.00     0.186 HD
BRANCH  16  20
HETATM   20  N1  UNL     1       4.686   2.198  -1.482  1.00  0.00    -0.230 N 
HETATM   21  C1  UNL     1       5.507   3.368  -1.308  1.00  0.00     0.165 C 
ATOM     22  H1  UNL     1       4.257   2.002  -2.387  1.00  0.00     0.177 HD
ENDBRANCH  16  20
ENDBRANCH   8   9
ENDBRANCH   1   8
BRANCH   5  23
HETATM   23  C10 UNL     1      -2.076  -1.166  -0.560  1.00  0.00     0.148 C 
BRANCH  23  24
HETATM   24  C11 UNL     1      -2.195   0.318  -0.618  1.00  0.00     0.022 C 
BRANCH  24  25
HETATM   25  C12 UNL     1      -3.121   0.828  -1.707  1.00  0.00     0.003 C 
BRANCH  25  26
HETATM   26  C13 UNL     1      -4.507   0.292  -1.482  1.00  0.00     0.018 C 
BRANCH  26  27
HETATM   27  C14 UNL     1      -5.521   0.725  -2.483  1.00  0.00     0.165 C 
BRANCH  27  28
HETATM   28  S1  UNL     1      -5.791   2.449  -2.601  1.00  0.00     0.101 S 
HETATM   29  O1  UNL     1      -4.628   3.218  -3.144  1.00  0.00    -0.595 OA
HETATM   30  O2  UNL     1      -6.922   2.676  -3.605  1.00  0.00    -0.595 OA
HETATM   31  O3  UNL     1      -6.309   3.125  -1.154  1.00  0.00    -0.595 OA
ENDBRANCH  27  28
ENDBRANCH  26  27
ENDBRANCH  25  26
ENDBRANCH  24  25
ENDBRANCH  23  24
ENDBRANCH   5  23
TORSDOF 9
