REMARK  19 active torsions:
REMARK  status: ('A' for Active; 'I' for Inactive)
REMARK       I    between atoms: C2_2  and  N1_4 
REMARK    1  A    between atoms: N2_7  and  C5_8 
REMARK    2  A    between atoms: C5_8  and  O2_9 
REMARK    3  A    between atoms: C5_8  and  C6_11 
REMARK    4  A    between atoms: N3_18  and  C13_19 
REMARK    5  A    between atoms: C13_19  and  O3_20 
REMARK    6  A    between atoms: C13_19  and  C14_22 
REMARK    7  A    between atoms: C14_22  and  N4_23 
REMARK    8  A    between atoms: C14_22  and  C30_49 
REMARK       I    between atoms: N4_23  and  C15_25 
REMARK    9  A    between atoms: C15_25  and  C16_27 
REMARK   10  A    between atoms: C16_27  and  C17_28 
REMARK   11  A    between atoms: C16_27  and  N5_32 
REMARK   12  A    between atoms: C17_28  and  C18_29 
REMARK   13  A    between atoms: N5_32  and  C21_34 
REMARK   14  A    between atoms: C21_34  and  O5_35 
REMARK   15  A    between atoms: C21_34  and  C22_37 
REMARK   16  A    between atoms: C22_37  and  C23_38 
REMARK   17  A    between atoms: C22_37  and  N6_42 
REMARK   18  A    between atoms: C23_38  and  C24_39 
REMARK   19  A    between atoms: N6_42  and  C27_44 
ROOT
HETATM    1  C14 UNL     1       0.697  -0.422  -0.379  1.00  0.00     0.162 C 
ENDROOT
BRANCH   1   2
HETATM    2  C13 UNL     1       1.884  -0.751   0.411  1.00  0.00     0.139 C 
BRANCH   2   3
HETATM    3  N3  UNL     1       3.085  -1.392   0.120  1.00  0.00    -0.339 N 
HETATM    4  C6  UNL     1       4.099  -1.383   1.223  1.00  0.00     0.184 C 
HETATM    5  C7  UNL     1       4.738  -2.683   1.333  1.00  0.00     0.003 C 
HETATM    6  C8  UNL     1       4.818  -3.568   0.364  1.00  0.00    -0.026 C 
HETATM    7  C9  UNL     1       4.257  -3.328  -0.955  1.00  0.00     0.057 C 
HETATM    8  C10 UNL     1       3.434  -2.076  -1.078  1.00  0.00     0.031 C 
HETATM    9  C11 UNL     1       4.193  -1.117  -2.016  1.00  0.00     0.038 C 
HETATM   10  C12 UNL     1       2.207  -2.546  -1.896  1.00  0.00     0.038 C 
BRANCH   4  11
HETATM   11  C5  UNL     1       4.908  -0.191   1.268  1.00  0.00     0.141 C 
BRANCH  11  12
HETATM   12  N2  UNL     1       6.253   0.072   1.466  1.00  0.00    -0.360 N 
HETATM   13  C4  UNL     1       6.702   1.495   1.491  1.00  0.00     0.144 C 
HETATM   14  C3  UNL     1       8.033   1.615   0.794  1.00  0.00     0.145 C 
HETATM   15  N1  UNL     1       8.221   0.503  -0.145  1.00  0.00    -0.349 N 
HETATM   16  C2  UNL     1       8.527   0.794  -1.500  1.00  0.00     0.215 C 
HETATM   17  C34 UNL     1       8.088  -0.847   0.295  1.00  0.00     0.145 C 
HETATM   18  C1  UNL     1       8.645   2.226  -1.959  1.00  0.00     0.117 C 
HETATM   19  O1  UNL     1       8.716  -0.082  -2.383  1.00  0.00    -0.274 OA
HETATM   20  C33 UNL     1       7.355  -0.841   1.631  1.00  0.00     0.144 C 
ENDBRANCH  11  12
BRANCH  11  21
HETATM   21  O2  UNL     1       4.205   0.922   1.068  1.00  0.00    -0.348 OA
ATOM     22  H2  UNL     1       3.282   0.742   0.932  1.00  0.00     0.219 HD
ENDBRANCH  11  21
ENDBRANCH   4  11
ENDBRANCH   2   3
BRANCH   2  23
HETATM   23  O3  UNL     1       1.771  -0.338   1.667  1.00  0.00    -0.348 OA
ATOM     24  H3  UNL     1       0.951   0.099   1.866  1.00  0.00     0.219 HD
ENDBRANCH   2  23
ENDBRANCH   1   2
BRANCH   1  25
HETATM   25  N4  UNL     1      -0.377   0.102   0.542  1.00  0.00    -0.347 N 
HETATM   26  C15 UNL     1      -1.707  -0.322   0.447  1.00  0.00     0.241 C 
HETATM   27  O4  UNL     1      -2.064  -1.184  -0.423  1.00  0.00    -0.271 OA
ATOM     28  H4  UNL     1      -0.126   0.786   1.256  1.00  0.00     0.163 HD
BRANCH  26  29
HETATM   29  C16 UNL     1      -2.822   0.193   1.339  1.00  0.00     0.176 C 
BRANCH  29  30
HETATM   30  C17 UNL     1      -2.368   1.417   2.003  1.00  0.00     0.038 C 
BRANCH  30  31
HETATM   31  C18 UNL     1      -3.306   2.069   2.953  1.00  0.00    -0.020 C 
HETATM   32  C19 UNL     1      -2.547   3.303   3.496  1.00  0.00     0.009 C 
HETATM   33  C20 UNL     1      -4.584   2.569   2.387  1.00  0.00     0.009 C 
ENDBRANCH  30  31
ENDBRANCH  29  30
BRANCH  29  34
HETATM   34  N5  UNL     1      -3.960   0.318   0.405  1.00  0.00    -0.356 N 
ATOM     35  H5  UNL     1      -3.994   1.111  -0.236  1.00  0.00     0.162 HD
BRANCH  34  36
HETATM   36  C21 UNL     1      -4.993  -0.626   0.379  1.00  0.00     0.163 C 
BRANCH  36  37
HETATM   37  O5  UNL     1      -4.795  -1.567   1.315  1.00  0.00    -0.345 OA
ATOM     38  H5  UNL     1      -5.496  -2.208   1.297  1.00  0.00     0.219 HD
ENDBRANCH  36  37
BRANCH  36  39
HETATM   39  C22 UNL     1      -6.158  -0.798  -0.417  1.00  0.00     0.076 C 
BRANCH  39  40
HETATM   40  C23 UNL     1      -6.712  -0.039  -1.495  1.00  0.00     0.011 C 
BRANCH  40  41
HETATM   41  C24 UNL     1      -7.245   1.327  -1.441  1.00  0.00     0.002 C 
HETATM   42  C25 UNL     1      -7.751   1.620  -2.909  1.00  0.00     0.013 C 
HETATM   43  C26 UNL     1      -6.378   2.481  -1.097  1.00  0.00     0.013 C 
ENDBRANCH  40  41
ENDBRANCH  39  40
BRANCH  39  44
HETATM   44  N6  UNL     1      -6.268  -2.286  -0.719  1.00  0.00    -0.376 N 
ATOM     45  H6  UNL     1      -5.555  -2.828  -1.207  1.00  0.00     0.160 HD
BRANCH  44  46
HETATM   46  C27 UNL     1      -7.494  -2.825  -0.234  1.00  0.00     0.160 A 
HETATM   47  C28 UNL     1      -7.934  -2.880   1.155  1.00  0.00     0.112 A 
HETATM   48  C29 UNL     1      -7.476  -4.194   0.473  1.00  0.00     0.265 A 
HETATM   49  F1  UNL     1      -6.214  -4.660   0.831  1.00  0.00    -0.204 F 
HETATM   50  F2  UNL     1      -8.425  -5.109   0.129  1.00  0.00    -0.204 F 
ENDBRANCH  44  46
ENDBRANCH  39  44
ENDBRANCH  36  39
ENDBRANCH  34  36
ENDBRANCH  29  34
ENDBRANCH  26  29
ENDBRANCH   1  25
BRANCH   1  51
HETATM   51  C30 UNL     1       0.921   0.767  -1.333  1.00  0.00     0.008 C 
HETATM   52  C31 UNL     1      -0.390   0.980  -2.094  1.00  0.00     0.012 C 
HETATM   53  C32 UNL     1       1.189   2.040  -0.559  1.00  0.00     0.012 C 
ENDBRANCH   1  51
TORSDOF 19
