REMARK  13 active torsions:
REMARK  status: ('A' for Active; 'I' for Inactive)
REMARK    1  A    between atoms: C2_2  and  C3_3 
REMARK       I    between atoms: C3_3  and  N1_5 
REMARK    2  A    between atoms: N1_5  and  C4_7 
REMARK    3  A    between atoms: C6_9  and  C7_10 
REMARK    4  A    between atoms: C7_10  and  N3_20 
REMARK    5  A    between atoms: N2_11  and  S1_13 
REMARK    6  A    between atoms: S1_13  and  C8_16 
REMARK    7  A    between atoms: N3_20  and  C11_22 
REMARK    8  A    between atoms: C11_22  and  C12_23 
REMARK    9  A    between atoms: C11_22  and  C15_28 
REMARK   10  A    between atoms: C12_23  and  C13_24 
REMARK   11  A    between atoms: C13_24  and  C14_25 
REMARK       I    between atoms: C15_28  and  N4_30 
REMARK   12  A    between atoms: C22_37  and  C23_38 
REMARK       I    between atoms: C23_38  and  N5_40 
REMARK   13  A    between atoms: C24_42  and  C25_43 
ROOT
HETATM    1  C7  UNL     1       0.006   1.439   0.346  1.00  0.00     0.092 C 
HETATM    2  N2  UNL     1       0.425   2.496   0.837  1.00  0.00    -0.272 N 
ATOM      3  H2  UNL     1       1.324   2.693   0.397  1.00  0.00     0.180 HD
ENDROOT
BRANCH   1   4
HETATM    4  C6  UNL     1       0.850   0.793  -0.659  1.00  0.00     0.071 C 
HETATM    5  C5  UNL     1       1.281  -0.617  -0.532  1.00  0.00     0.039 C 
HETATM    6  C4  UNL     1       2.538  -0.182  -1.317  1.00  0.00     0.099 C 
HETATM    7  C22 UNL     1       2.318   1.169  -0.615  1.00  0.00     0.112 C 
BRANCH   6   8
HETATM    8  N1  UNL     1       3.739  -0.865  -1.032  1.00  0.00    -0.355 N 
HETATM    9  C3  UNL     1       4.579  -1.272  -2.117  1.00  0.00     0.226 C 
HETATM   10  O1  UNL     1       4.232  -1.018  -3.298  1.00  0.00    -0.273 OA
ATOM     11  H1  UNL     1       4.005  -1.066  -0.068  1.00  0.00     0.162 HD
BRANCH   9  12
HETATM   12  C2  UNL     1       5.866  -1.994  -1.929  1.00  0.00     0.037 A 
HETATM   13  C1  UNL     1       6.249  -2.271  -0.472  1.00  0.00     0.025 C 
HETATM   14  C26 UNL     1       6.993  -1.593  -2.849  1.00  0.00     0.020 A 
HETATM   15  C27 UNL     1       6.354  -2.948  -2.936  1.00  0.00     0.020 A 
ENDBRANCH   9  12
ENDBRANCH   6   8
BRANCH   7  16
HETATM   16  C23 UNL     1       2.997   1.302   0.661  1.00  0.00     0.228 C 
HETATM   17  O7  UNL     1       3.641   2.412   0.837  1.00  0.00    -0.273 OA
HETATM   18  N5  UNL     1       3.040   0.383   1.716  1.00  0.00    -0.340 N 
HETATM   19  C24 UNL     1       2.823   0.633   2.928  1.00  0.00     0.074 C 
ATOM     20  H5  UNL     1       3.269  -0.582   1.478  1.00  0.00     0.167 HD
BRANCH  19  21
HETATM   21  C25 UNL     1       2.907  -0.455   3.935  1.00  0.00     0.129 C 
HETATM   22 BR1  UNL     1       4.195  -0.063   5.314  1.00  0.00    -0.091 Br
ENDBRANCH  19  21
ENDBRANCH   7  16
ENDBRANCH   1   4
BRANCH   1  23
HETATM   23  N3  UNL     1      -1.227   0.872   0.719  1.00  0.00    -0.366 N 
ATOM     24  H3  UNL     1      -1.541   1.021   1.678  1.00  0.00     0.161 HD
BRANCH  23  25
HETATM   25  C11 UNL     1      -2.101   0.081  -0.165  1.00  0.00     0.175 C 
BRANCH  25  26
HETATM   26  C12 UNL     1      -2.637   0.999  -1.254  1.00  0.00     0.045 C 
BRANCH  26  27
HETATM   27  C13 UNL     1      -3.511   0.335  -2.272  1.00  0.00     0.116 C 
BRANCH  27  28
HETATM   28  C14 UNL     1      -2.736  -0.641  -3.050  1.00  0.00     0.172 C 
HETATM   29  O4  UNL     1      -1.519  -0.776  -2.936  1.00  0.00    -0.648 OA
HETATM   30  O5  UNL     1      -3.470  -1.445  -3.962  1.00  0.00    -0.648 OA
ENDBRANCH  27  28
ENDBRANCH  26  27
ENDBRANCH  25  26
BRANCH  25  31
HETATM   31  C15 UNL     1      -3.224  -0.374   0.709  1.00  0.00     0.243 C 
HETATM   32  O6  UNL     1      -3.621   0.493   1.578  1.00  0.00    -0.271 OA
HETATM   33  N4  UNL     1      -3.876  -1.601   0.696  1.00  0.00    -0.341 N 
HETATM   34  C16 UNL     1      -5.008  -2.052   1.531  1.00  0.00     0.088 C 
HETATM   35  C19 UNL     1      -3.666  -2.795  -0.076  1.00  0.00     0.088 C 
HETATM   36  C17 UNL     1      -5.958  -2.524   0.464  1.00  0.00     0.027 C 
HETATM   37  C21 UNL     1      -4.367  -3.259   2.172  1.00  0.00     0.027 C 
HETATM   38  C18 UNL     1      -5.042  -2.961  -0.693  1.00  0.00     0.027 C 
HETATM   39  C20 UNL     1      -3.578  -3.847   1.012  1.00  0.00     0.027 C 
ENDBRANCH  25  31
ENDBRANCH  23  25
ENDBRANCH   1  23
BRANCH   2  40
HETATM   40  S1  UNL     1       0.137   3.705   1.895  1.00  0.00     0.253 S 
HETATM   41  O2  UNL     1      -0.424   3.265   3.239  1.00  0.00    -0.204 OA
HETATM   42  O3  UNL     1       1.403   4.513   2.238  1.00  0.00    -0.204 OA
BRANCH  40  43
HETATM   43  C8  UNL     1      -0.973   4.925   1.207  1.00  0.00     0.151 C 
HETATM   44  C9  UNL     1      -0.414   5.485  -0.068  1.00  0.00     0.051 C 
HETATM   45  C10 UNL     1      -1.056   6.125   2.166  1.00  0.00     0.051 C 
HETATM   46 CL1  UNL     1      -2.554   4.215   0.950  1.00  0.00    -0.101 Cl
ENDBRANCH  40  43
ENDBRANCH   2  40
TORSDOF 13
