REMARK  4 active torsions:
REMARK  status: ('A' for Active; 'I' for Inactive)
REMARK    1  A    between atoms: C2_2  and  C3_4 
REMARK    2  A    between atoms: C4_5  and  N1_6 
REMARK    3  A    between atoms: N1_6  and  C5_8 
REMARK    4  A    between atoms: N2_19  and  C14_20 
ROOT
HETATM    1  C3  UNL     1      -2.485   0.300  -0.458  1.00  0.00     0.122 A 
HETATM    2  C4  UNL     1      -1.705  -0.586   0.230  1.00  0.00     0.138 A 
HETATM    3  N2  UNL     1      -1.923  -1.897   0.100  1.00  0.00    -0.224 N 
HETATM    4  C15 UNL     1      -2.896  -2.350  -0.696  1.00  0.00     0.337 A 
HETATM    5  O5  UNL     1      -3.114  -3.582  -0.829  1.00  0.00    -0.246 OA
HETATM    6  N3  UNL     1      -3.659  -1.486  -1.370  1.00  0.00    -0.274 N 
ATOM      7  H3  UNL     1      -4.398  -1.845  -1.975  1.00  0.00     0.173 HD
HETATM    8  C16 UNL     1      -3.481  -0.152  -1.274  1.00  0.00     0.267 A 
HETATM    9  O6  UNL     1      -4.240   0.617  -1.941  1.00  0.00    -0.267 OA
ENDROOT
BRANCH   2  10
HETATM   10  N1  UNL     1      -0.681  -0.140   1.070  1.00  0.00    -0.334 N 
ATOM     11  H1  UNL     1      -0.927   0.087   2.034  1.00  0.00     0.168 HD
BRANCH  10  12
HETATM   12  C5  UNL     1       0.549   0.006   0.719  1.00  0.00     0.137 A 
HETATM   13  C6  UNL     1       1.143  -0.223  -0.501  1.00  0.00     0.213 A 
HETATM   14  O2  UNL     1       0.576  -0.633  -1.541  1.00  0.00    -0.285 OA
HETATM   15  C7  UNL     1       2.485   0.075  -0.397  1.00  0.00     0.031 A 
HETATM   16  C8  UNL     1       3.549   0.031  -1.296  1.00  0.00     0.016 A 
HETATM   17  C12 UNL     1       2.757   0.498   0.897  1.00  0.00     0.031 A 
HETATM   18  C9  UNL     1       4.816   0.395  -0.909  1.00  0.00     0.001 A 
HETATM   19  C10 UNL     1       5.073   0.814   0.379  1.00  0.00     0.001 A 
HETATM   20  C11 UNL     1       4.045   0.868   1.288  1.00  0.00     0.016 A 
HETATM   21  C13 UNL     1       1.548   0.446   1.560  1.00  0.00     0.213 A 
HETATM   22  O3  UNL     1       1.446   0.775   2.786  1.00  0.00    -0.285 OA
ENDBRANCH  10  12
ENDBRANCH   2  10
BRANCH   1  23
HETATM   23  C2  UNL     1      -2.259   1.728  -0.325  1.00  0.00     0.165 C 
HETATM   24  C1  UNL     1      -2.916   2.574   0.688  1.00  0.00     0.097 C 
HETATM   25  O1  UNL     1      -1.452   2.262  -1.130  1.00  0.00    -0.292 OA
ENDBRANCH   1  23
BRANCH   3  26
HETATM   26  C14 UNL     1      -1.108  -2.843   0.822  1.00  0.00     0.365 C 
HETATM   27  O4  UNL     1      -1.312  -4.070   0.700  1.00  0.00    -0.283 OA
ENDBRANCH   3  26
TORSDOF 4
