REMARK  0 active torsions:
REMARK  status: ('A' for Active; 'I' for Inactive)
ROOT
HETATM    1  C1  UNL     1      -4.199  -1.525   0.671  1.00  0.00     0.018 C 
HETATM    2  C2  UNL     1      -3.123  -1.017   0.462  1.00  0.00    -0.078 C 
HETATM    3  C3  UNL     1      -1.838  -0.410   0.235  1.00  0.00     0.019 A 
HETATM    4  C4  UNL     1      -1.697   0.938  -0.031  1.00  0.00     0.021 A 
HETATM    5  C5  UNL     1      -0.460   1.512  -0.247  1.00  0.00     0.015 A 
HETATM    6  C6  UNL     1       0.693   0.756  -0.205  1.00  0.00    -0.009 A 
HETATM    7  C7  UNL     1       1.952   1.302  -0.418  1.00  0.00     0.015 A 
HETATM    8  C8  UNL     1       3.092   0.527  -0.371  1.00  0.00     0.018 A 
HETATM    9  C9  UNL     1       2.929  -0.811  -0.105  1.00  0.00     0.088 A 
HETATM   10  N1  UNL     1       1.703  -1.324   0.099  1.00  0.00    -0.365 N 
ATOM     11  H1  UNL     1       1.625  -2.322   0.294  1.00  0.00     0.165 HD
HETATM   12  C10 UNL     1       0.573  -0.594   0.060  1.00  0.00     0.043 A 
HETATM   13  C11 UNL     1      -0.677  -1.156   0.275  1.00  0.00     0.051 A 
ENDROOT
TORSDOF 0
