REMARK  14 active torsions:
REMARK  status: ('A' for Active; 'I' for Inactive)
REMARK    1  A    between atoms: C2_2  and  O1_3 
REMARK    2  A    between atoms: O1_3  and  C3_4 
REMARK    3  A    between atoms: C3_4  and  C4_6 
REMARK    4  A    between atoms: C4_6  and  N1_7 
REMARK    5  A    between atoms: C4_6  and  C22_37 
REMARK       I    between atoms: N1_7  and  C5_9 
REMARK    6  A    between atoms: C5_9  and  C6_11 
REMARK    7  A    between atoms: N2_14  and  C8_15 
REMARK    8  A    between atoms: C8_15  and  C9_16 
REMARK    9  A    between atoms: C8_15  and  C18_33 
REMARK       I    between atoms: C9_16  and  N3_18 
REMARK       I    between atoms: N3_18  and  C10_20 
REMARK   10  A    between atoms: C10_20  and  C11_22 
REMARK   11  A    between atoms: C11_22  and  N4_23 
REMARK   12  A    between atoms: C11_22  and  C14_29 
REMARK       I    between atoms: N4_23  and  C12_25 
REMARK   13  A    between atoms: C12_25  and  O7_27 
REMARK   14  A    between atoms: C22_37  and  C24_39 
ROOT
HETATM    1  C8  UNL     1      -0.646  -0.027   0.120  1.00  0.00     0.192 C 
ENDROOT
BRANCH   1   2
HETATM    2  N2  UNL     1       0.360   0.170  -0.814  1.00  0.00    -0.327 N 
HETATM    3  C6  UNL     1       1.705   0.236  -0.810  1.00  0.00     0.195 C 
HETATM    4  C7  UNL     1       1.621   1.741  -1.093  1.00  0.00     0.133 C 
HETATM    5  S1  UNL     1       0.114   1.395  -2.096  1.00  0.00    -0.054 SA
BRANCH   3   6
HETATM    6  C5  UNL     1       2.810  -0.138  -0.024  1.00  0.00     0.242 C 
HETATM    7  N1  UNL     1       4.140   0.325  -0.468  1.00  0.00    -0.345 N 
ATOM      8  H1  UNL     1       4.192   0.949  -1.273  1.00  0.00     0.163 HD
HETATM    9  O3  UNL     1       2.913  -0.834   1.026  1.00  0.00    -0.271 OA
BRANCH   7  10
HETATM   10  C4  UNL     1       5.350  -0.055   0.171  1.00  0.00     0.188 C 
BRANCH  10  11
HETATM   11  C3  UNL     1       6.085   1.042   0.901  1.00  0.00     0.282 C 
HETATM   12  O2  UNL     1       5.780   2.224   0.958  1.00  0.00    -0.263 OA
BRANCH  11  13
HETATM   13  O1  UNL     1       7.208   0.622   1.555  1.00  0.00    -0.320 OA
BRANCH  13  14
HETATM   14  C2  UNL     1       8.153   1.227   2.321  1.00  0.00     0.174 C 
HETATM   15  C1  UNL     1       9.035   2.267   1.705  1.00  0.00     0.034 C 
ENDBRANCH  13  14
ENDBRANCH  11  13
ENDBRANCH  10  11
BRANCH  10  16
HETATM   16  C22 UNL     1       6.343  -0.634  -0.863  1.00  0.00     0.014 C 
HETATM   17  C23 UNL     1       6.804   0.371  -1.861  1.00  0.00     0.012 C 
BRANCH  16  18
HETATM   18  C24 UNL     1       5.958  -1.971  -1.381  1.00  0.00     0.002 C 
HETATM   19  C25 UNL     1       5.875  -3.031  -0.317  1.00  0.00     0.005 C 
ENDBRANCH  16  18
ENDBRANCH  10  16
ENDBRANCH   7  10
ENDBRANCH   3   6
ENDBRANCH   1   2
BRANCH   1  20
HETATM   20  C9  UNL     1      -1.732   0.992  -0.147  1.00  0.00     0.248 C 
HETATM   21  O4  UNL     1      -1.435   2.164  -0.517  1.00  0.00    -0.271 OA
HETATM   22  N3  UNL     1      -3.090   0.719  -0.016  1.00  0.00    -0.294 N 
HETATM   23  C10 UNL     1      -4.138   1.606  -0.277  1.00  0.00     0.247 C 
ATOM     24  H3  UNL     1      -3.345  -0.217   0.300  1.00  0.00     0.171 HD
HETATM   25  O5  UNL     1      -3.891   2.830  -0.592  1.00  0.00    -0.271 OA
BRANCH  23  26
HETATM   26  C11 UNL     1      -5.597   1.286  -0.201  1.00  0.00     0.186 C 
BRANCH  26  27
HETATM   27  N4  UNL     1      -5.866   1.142   1.225  1.00  0.00    -0.323 N 
HETATM   28  C12 UNL     1      -6.938   1.567   1.998  1.00  0.00     0.360 C 
HETATM   29  O6  UNL     1      -7.931   2.207   1.519  1.00  0.00    -0.239 OA
ATOM     30  H4  UNL     1      -5.143   0.644   1.743  1.00  0.00     0.165 HD
BRANCH  28  31
HETATM   31  O7  UNL     1      -6.963   1.288   3.348  1.00  0.00    -0.309 OA
HETATM   32  C13 UNL     1      -7.897   1.586   4.281  1.00  0.00     0.215 C 
ENDBRANCH  28  31
ENDBRANCH  26  27
BRANCH  26  33
HETATM   33  C14 UNL     1      -6.093   0.109  -0.941  1.00  0.00    -0.022 C 
HETATM   34  C15 UNL     1      -5.708   0.142  -2.411  1.00  0.00     0.017 C 
HETATM   35  C16 UNL     1      -7.672   0.246  -1.037  1.00  0.00     0.017 C 
HETATM   36  C17 UNL     1      -5.920  -1.229  -0.358  1.00  0.00     0.017 C 
ENDBRANCH  26  33
ENDBRANCH  23  26
ENDBRANCH   1  20
BRANCH   1  37
HETATM   37  C18 UNL     1      -1.245  -1.396  -0.090  1.00  0.00    -0.021 C 
HETATM   38  C19 UNL     1      -0.050  -2.415  -0.068  1.00  0.00     0.017 C 
HETATM   39  C20 UNL     1      -1.994  -1.836   1.191  1.00  0.00     0.017 C 
HETATM   40  C21 UNL     1      -1.975  -1.588  -1.339  1.00  0.00     0.017 C 
ENDBRANCH   1  37
TORSDOF 14
