REMARK  12 active torsions:
REMARK  status: ('A' for Active; 'I' for Inactive)
REMARK       I    between atoms: C1_2  and  N1_3 
REMARK    1  A    between atoms: C1_2  and  C8_11 
REMARK    2  A    between atoms: N1_3  and  C2_4 
REMARK    3  A    between atoms: C2_4  and  C3_5 
REMARK    4  A    between atoms: C3_5  and  N2_6 
REMARK    5  A    between atoms: C9_12  and  N3_13 
REMARK    6  A    between atoms: N3_13  and  C10_15 
REMARK    7  A    between atoms: C10_15  and  C11_16 
REMARK    8  A    between atoms: C10_15  and  C19_29 
REMARK       I    between atoms: C11_16  and  N4_18 
REMARK    9  A    between atoms: N4_18  and  C12_20 
REMARK   10  A    between atoms: C12_20  and  C13_21 
REMARK   11  A    between atoms: C13_21  and  C14_22 
REMARK   12  A    between atoms: C14_22  and  N5_23 
ROOT
HETATM    1  C10 UNL     1      -0.963  -1.495  -0.581  1.00  0.00     0.209 C 
ENDROOT
BRANCH   1   2
HETATM    2  N3  UNL     1      -0.544  -0.617   0.418  1.00  0.00    -0.366 N 
ATOM      3  H3  UNL     1      -1.345  -0.441   1.024  1.00  0.00     0.161 HD
BRANCH   2   4
HETATM    4  C9  UNL     1       0.520   0.111   0.918  1.00  0.00     0.088 A 
HETATM    5  C8  UNL     1       1.699   0.734   0.603  1.00  0.00     0.087 A 
HETATM    6  C25 UNL     1       2.495   1.131   1.600  1.00  0.00    -0.025 A 
HETATM    7  C24 UNL     1       2.114   0.902   2.868  1.00  0.00    -0.008 A 
HETATM    8  C26 UNL     1       3.807   1.895   1.756  1.00  0.00     0.041 C 
HETATM    9  S1  UNL     1       0.652   0.147   2.738  1.00  0.00    -0.076 SA
HETATM   10  C28 UNL     1       3.127   1.341   3.901  1.00  0.00     0.047 C 
HETATM   11  C27 UNL     1       3.742   2.475   3.169  1.00  0.00     0.010 C 
BRANCH   5  12
HETATM   12  C1  UNL     1       2.016   0.896  -0.866  1.00  0.00     0.324 C 
HETATM   13  O1  UNL     1       1.128   0.318  -1.612  1.00  0.00    -0.251 OA
HETATM   14  N1  UNL     1       3.057   1.538  -1.318  1.00  0.00    -0.409 NA
BRANCH  14  15
HETATM   15  C2  UNL     1       4.185   2.234  -1.811  1.00  0.00     0.242 C 
BRANCH  15  16
HETATM   16  C3  UNL     1       5.199   1.298  -2.516  1.00  0.00     0.155 C 
BRANCH  16  17
HETATM   17  N2  UNL     1       5.731   0.400  -1.598  1.00  0.00    -0.391 N 
HETATM   18  C4  UNL     1       6.709   0.934  -0.663  1.00  0.00     0.122 C 
HETATM   19  C5  UNL     1       8.039   0.310  -1.113  1.00  0.00     0.025 C 
HETATM   20  C6  UNL     1       7.670  -0.804  -2.064  1.00  0.00     0.046 C 
HETATM   21  C7  UNL     1       6.149  -0.888  -1.950  1.00  0.00     0.058 C 
ENDBRANCH  16  17
ENDBRANCH  15  16
ENDBRANCH  14  15
ENDBRANCH   5  12
ENDBRANCH   2   4
ENDBRANCH   1   2
BRANCH   1  22
HETATM   22  C11 UNL     1      -2.292  -1.100  -1.200  1.00  0.00     0.245 C 
HETATM   23  O2  UNL     1      -2.379   0.097  -1.513  1.00  0.00    -0.271 OA
HETATM   24  N4  UNL     1      -3.344  -2.013  -1.399  1.00  0.00    -0.359 N 
ATOM     25  H4  UNL     1      -3.131  -2.962  -1.092  1.00  0.00     0.162 HD
BRANCH  24  26
HETATM   26  C12 UNL     1      -4.637  -1.865  -1.942  1.00  0.00     0.124 C 
BRANCH  26  27
HETATM   27  C13 UNL     1      -5.604  -1.050  -1.187  1.00  0.00     0.050 C 
BRANCH  27  28
HETATM   28  C14 UNL     1      -5.355   0.366  -0.905  1.00  0.00     0.274 C 
BRANCH  28  29
HETATM   29  N5  UNL     1      -6.525   0.964  -0.200  1.00  0.00     0.092 N 
HETATM   30  C15 UNL     1      -6.210   2.391  -0.082  1.00  0.00     0.298 C 
HETATM   31  C16 UNL     1      -7.296   3.093   0.717  1.00  0.00     0.198 C 
HETATM   32  O3  UNL     1      -8.054   2.168   1.444  1.00  0.00    -0.388 OA
HETATM   33  C17 UNL     1      -7.235   1.281   2.113  1.00  0.00     0.198 C 
HETATM   34  C18 UNL     1      -6.557   0.379   1.135  1.00  0.00     0.298 C 
ENDBRANCH  28  29
ENDBRANCH  27  28
ENDBRANCH  26  27
ENDBRANCH  24  26
ENDBRANCH   1  22
BRANCH   1  35
HETATM   35  C19 UNL     1      -1.255  -2.834   0.095  1.00  0.00    -0.011 A 
HETATM   36  C20 UNL     1      -0.777  -3.963  -0.504  1.00  0.00     0.012 A 
HETATM   37  C21 UNL     1      -1.040  -5.162   0.115  1.00  0.00     0.018 A 
HETATM   38  C22 UNL     1      -1.763  -5.155   1.295  1.00  0.00     0.087 A 
HETATM   39  N6  UNL     1      -2.227  -4.049   1.877  1.00  0.00    -0.375 N 
HETATM   40  C23 UNL     1      -1.965  -2.856   1.254  1.00  0.00     0.097 A 
ATOM     41  H6  UNL     1      -2.755  -4.089   2.749  1.00  0.00     0.164 HD
ENDBRANCH   1  35
TORSDOF 12
