REMARK  14 active torsions:
REMARK  status: ('A' for Active; 'I' for Inactive)
REMARK    1  A    between atoms: C2_2  and  O1_3 
REMARK    2  A    between atoms: O1_3  and  C3_4 
REMARK       I    between atoms: C3_4  and  N1_6 
REMARK       I    between atoms: N2_9  and  C6_10 
REMARK    3  A    between atoms: C6_10  and  C7_12 
REMARK    4  A    between atoms: C7_12  and  C8_13 
REMARK    5  A    between atoms: C8_13  and  C9_14 
REMARK    6  A    between atoms: C9_14  and  C10_15 
REMARK    7  A    between atoms: C10_15  and  C11_16 
REMARK    8  A    between atoms: C11_16  and  C12_17 
REMARK    9  A    between atoms: C12_17  and  C13_18 
REMARK   10  A    between atoms: C13_18  and  C14_19 
REMARK       I    between atoms: C14_19  and  N3_21 
REMARK   11  A    between atoms: N3_21  and  C15_23 
REMARK   12  A    between atoms: C24_34  and  C25_35 
REMARK   13  A    between atoms: C25_35  and  O6_36 
REMARK   14  A    between atoms: N5_38  and  O7_40 
ROOT
HETATM    1  C14 UNL     1       2.891   0.053  -0.306  1.00  0.00     0.217 C 
HETATM    2  O4  UNL     1       2.734  -1.158  -0.079  1.00  0.00    -0.274 OA
HETATM    3  N3  UNL     1       4.201   0.572  -0.394  1.00  0.00    -0.356 N 
ATOM      4  H3  UNL     1       4.294   1.570  -0.583  1.00  0.00     0.162 HD
ENDROOT
BRANCH   1   5
HETATM    5  C13 UNL     1       1.736   0.935  -0.479  1.00  0.00     0.103 C 
BRANCH   5   6
HETATM    6  C12 UNL     1       0.468   0.074  -0.320  1.00  0.00     0.009 C 
BRANCH   6   7
HETATM    7  C11 UNL     1      -0.763   0.923  -0.482  1.00  0.00     0.000 C 
BRANCH   7   8
HETATM    8  C10 UNL     1      -1.985   0.062  -0.346  1.00  0.00     0.000 C 
BRANCH   8   9
HETATM    9  C9  UNL     1      -2.070  -0.612   0.978  1.00  0.00     0.000 C 
BRANCH   9  10
HETATM   10  C8  UNL     1      -3.325  -1.473   1.097  1.00  0.00     0.009 C 
BRANCH  10  11
HETATM   11  C7  UNL     1      -4.576  -0.657   0.942  1.00  0.00     0.103 C 
BRANCH  11  12
HETATM   12  C6  UNL     1      -5.796  -1.471   1.060  1.00  0.00     0.219 C 
HETATM   13  N2  UNL     1      -7.065  -0.843   0.949  1.00  0.00    -0.349 N 
HETATM   14  C5  UNL     1      -8.273  -1.640   1.063  1.00  0.00     0.145 C 
HETATM   15  C26 UNL     1      -7.185   0.596   0.722  1.00  0.00     0.145 C 
HETATM   16  C4  UNL     1      -9.266  -1.114   0.043  1.00  0.00     0.148 C 
HETATM   17  N1  UNL     1      -9.526   0.276   0.248  1.00  0.00    -0.325 N 
HETATM   18  C3  UNL     1     -10.649   0.927  -0.324  1.00  0.00     0.362 C 
HETATM   19  C27 UNL     1      -8.603   1.032   1.069  1.00  0.00     0.148 C 
HETATM   20  O2  UNL     1     -10.847   2.153  -0.123  1.00  0.00    -0.238 OA
HETATM   21  O3  UNL     1      -5.687  -2.696   1.255  1.00  0.00    -0.273 OA
BRANCH  18  22
HETATM   22  O1  UNL     1     -11.568   0.269  -1.118  1.00  0.00    -0.304 OA
BRANCH  22  23
HETATM   23  C2  UNL     1     -12.679   0.974  -1.668  1.00  0.00     0.176 C 
HETATM   24  C1  UNL     1     -13.469  -0.051  -2.473  1.00  0.00     0.034 C 
ENDBRANCH  22  23
ENDBRANCH  18  22
ENDBRANCH  11  12
ENDBRANCH  10  11
ENDBRANCH   9  10
ENDBRANCH   8   9
ENDBRANCH   7   8
ENDBRANCH   6   7
ENDBRANCH   5   6
ENDBRANCH   1   5
BRANCH   3  25
HETATM   25  C15 UNL     1       5.392  -0.169  -0.244  1.00  0.00     0.097 C 
HETATM   26  C16 UNL     1       6.345  -0.185  -1.388  1.00  0.00     0.032 C 
HETATM   27  C17 UNL     1       7.555  -0.887  -0.783  1.00  0.00     0.013 C 
HETATM   28  C18 UNL     1       7.345  -0.888   0.722  1.00  0.00     0.006 C 
HETATM   29  C23 UNL     1       8.838  -0.164  -1.029  1.00  0.00     0.096 C 
HETATM   30  C19 UNL     1       8.647  -0.654   1.357  1.00  0.00     0.014 C 
HETATM   31  C24 UNL     1       6.263   0.145   0.942  1.00  0.00     0.089 C 
HETATM   32  C20 UNL     1       9.593  -0.218   0.255  1.00  0.00     0.032 C 
HETATM   33  C21 UNL     1      10.681  -1.226  -0.022  1.00  0.00     0.200 C 
HETATM   34  O5  UNL     1      10.375  -1.802  -1.253  1.00  0.00    -0.303 OA
HETATM   35  N4  UNL     1       9.681  -0.905  -1.949  1.00  0.00    -0.196 NA
HETATM   36  C22 UNL     1      10.558   0.071  -2.601  1.00  0.00     0.144 C 
BRANCH  31  37
HETATM   37  C25 UNL     1       6.723   1.521   1.032  1.00  0.00     0.141 C 
HETATM   38  N5  UNL     1       6.598   2.433   0.130  1.00  0.00    -0.251 N 
ATOM     39  H5  UNL     1       6.131   2.176  -0.740  1.00  0.00     0.196 HD
BRANCH  37  40
HETATM   40  O6  UNL     1       7.380   1.961   2.201  1.00  0.00    -0.348 OA
ATOM     41  H6  UNL     1       7.681   2.860   2.260  1.00  0.00     0.219 HD
ENDBRANCH  37  40
BRANCH  38  42
HETATM   42  O7  UNL     1       7.041   3.707   0.251  1.00  0.00    -0.288 OA
ATOM     43  H7  UNL     1       6.949   4.379  -0.414  1.00  0.00     0.244 HD
ENDBRANCH  38  42
ENDBRANCH  31  37
ENDBRANCH   3  25
TORSDOF 14
