REMARK  0 active torsions:
REMARK  status: ('A' for Active; 'I' for Inactive)
ROOT
HETATM    1  C1  UNL     1       2.372  -1.378  -0.126  1.00  0.00     0.066 C 
HETATM    2  C2  UNL     1       1.083  -0.588  -0.140  1.00  0.00     0.025 C 
HETATM    3  N1  UNL     1       0.026  -0.924   0.484  1.00  0.00    -0.363 N 
ATOM      4  H1  UNL     1      -0.042  -1.767   1.054  1.00  0.00     0.161 HD
HETATM    5  C3  UNL     1      -1.054  -0.009   0.310  1.00  0.00     0.192 C 
HETATM    6  C4  UNL     1      -1.708   0.285   1.634  1.00  0.00     0.070 C 
HETATM    7  C5  UNL     1      -2.018  -0.418  -0.758  1.00  0.00     0.070 C 
HETATM    8  N2  UNL     1      -0.359   1.197  -0.188  1.00  0.00    -0.028 N 
ATOM      9  H21 UNL     1      -0.157   1.894   0.529  1.00  0.00     0.282 HD
ATOM     10  H22 UNL     1      -0.935   1.805  -0.770  1.00  0.00     0.282 HD
HETATM   11  C6  UNL     1       0.810   0.667  -0.852  1.00  0.00     0.339 C 
HETATM   12  C7  UNL     1       1.928   1.596  -0.837  1.00  0.00     0.099 C 
HETATM   13  N3  UNL     1       2.826   2.346  -0.804  1.00  0.00    -0.195 NA
ENDROOT
TORSDOF 0
