REMARK  2 active torsions:
REMARK  status: ('A' for Active; 'I' for Inactive)
REMARK    1  A    between atoms: C2_2  and  N1_5 
REMARK    2  A    between atoms: N1_5  and  N2_7 
REMARK       I    between atoms: N2_7  and  C5_9 
ROOT
HETATM    1  N2  UNL     1       1.282   0.000   0.461  1.00  0.00    -0.278 N 
ATOM      2  H2  UNL     1       1.041   0.225   1.426  1.00  0.00     0.189 HD
HETATM    3  C5  UNL     1       2.643  -0.129   0.105  1.00  0.00     0.200 C 
HETATM    4  N3  UNL     1       3.497  -0.448   1.006  1.00  0.00    -0.372 N 
ATOM      5  H31 UNL     1       4.480  -0.541   0.749  1.00  0.00     0.158 HD
ATOM      6  H32 UNL     1       3.206  -0.607   1.971  1.00  0.00     0.158 HD
HETATM    7  N4  UNL     1       3.042   0.089  -1.218  1.00  0.00    -0.062 NA
ENDROOT
BRANCH   1   8
HETATM    8  N1  UNL     1       0.339  -0.158  -0.399  1.00  0.00    -0.325 N 
ATOM      9  H1  UNL     1       0.566  -0.384  -1.367  1.00  0.00     0.181 HD
BRANCH   8  10
HETATM   10  C2  UNL     1      -1.046  -0.016   0.005  1.00  0.00     0.035 C 
HETATM   11  C1  UNL     1      -1.764   0.738  -1.114  1.00  0.00     0.039 C 
HETATM   12  C3  UNL     1      -1.148   0.853   1.237  1.00  0.00     0.039 C 
HETATM   13  C4  UNL     1      -1.625  -1.381   0.214  1.00  0.00     0.039 C 
ENDBRANCH   8  10
ENDBRANCH   1   8
TORSDOF 2
