REMARK  8 active torsions:
REMARK  status: ('A' for Active; 'I' for Inactive)
REMARK    1  A    between atoms: C2_2  and  C3_3 
REMARK       I    between atoms: N1_5  and  C5_6 
REMARK    2  A    between atoms: C5_6  and  C6_8 
REMARK    3  A    between atoms: C10_12  and  O2_13 
REMARK    4  A    between atoms: N2_15  and  C12_16 
REMARK    5  A    between atoms: C15_20  and  C16_21 
REMARK    6  A    between atoms: C15_20  and  C17_28 
REMARK    7  A    between atoms: C16_21  and  O3_22 
REMARK    8  A    between atoms: N3_24  and  O4_26 
ROOT
HETATM    1  C12 UNL     1      -0.391   0.097  -0.405  1.00  0.00     0.229 C 
HETATM    2  C13 UNL     1      -1.115   0.668  -1.566  1.00  0.00     0.053 C 
HETATM    3  C14 UNL     1      -2.386  -0.201  -1.579  1.00  0.00     0.081 C 
HETATM    4 BR1  UNL     1      -1.975  -2.045  -1.875  1.00  0.00    -0.089 Br
HETATM    5  C15 UNL     1      -2.803   0.031  -0.104  1.00  0.00     0.069 C 
HETATM    6  C23 UNL     1      -1.513  -0.270   0.574  1.00  0.00     0.060 C 
ENDROOT
BRANCH   1   7
HETATM    7  N2  UNL     1       0.514   0.944   0.291  1.00  0.00     0.129 N 
HETATM    8  C3  UNL     1       1.638   1.439  -0.432  1.00  0.00     0.244 C 
HETATM    9  C4  UNL     1       2.336   0.375  -1.242  1.00  0.00     0.161 C 
HETATM   10  N1  UNL     1       2.816  -0.610  -0.275  1.00  0.00    -0.345 N 
HETATM   11  C5  UNL     1       4.103  -1.183  -0.437  1.00  0.00     0.224 C 
HETATM   12  C9  UNL     1       1.968  -0.968   0.807  1.00  0.00     0.190 C 
HETATM   13  O1  UNL     1       4.799  -0.807  -1.431  1.00  0.00    -0.273 OA
HETATM   14  C10 UNL     1       1.098   0.114   1.363  1.00  0.00     0.377 C 
BRANCH   8  15
HETATM   15  C2  UNL     1       1.387   2.717  -1.176  1.00  0.00     0.033 C 
HETATM   16  C1  UNL     1       2.642   3.395  -1.667  1.00  0.00     0.007 C 
ENDBRANCH   8  15
BRANCH  11  17
HETATM   17  C6  UNL     1       4.716  -2.185   0.446  1.00  0.00     0.078 A 
HETATM   18  C7  UNL     1       6.216  -2.214   0.612  1.00  0.00     0.015 A 
HETATM   19  C8  UNL     1       5.588  -3.218  -0.281  1.00  0.00     0.015 A 
ENDBRANCH  11  17
BRANCH  14  20
HETATM   20  O2  UNL     1       1.825   1.010   2.151  1.00  0.00    -0.361 OA
HETATM   21  C11 UNL     1       1.316   0.979   3.457  1.00  0.00     0.204 C 
ENDBRANCH  14  20
ENDBRANCH   1   7
BRANCH   5  22
HETATM   22  C16 UNL     1      -3.103   1.486   0.015  1.00  0.00     0.150 C 
HETATM   23  N3  UNL     1      -2.489   2.192   0.937  1.00  0.00    -0.250 N 
ATOM     24  H3  UNL     1      -1.822   1.719   1.546  1.00  0.00     0.196 HD
BRANCH  22  25
HETATM   25  O3  UNL     1      -3.992   2.180  -0.776  1.00  0.00    -0.347 OA
ATOM     26  H3  UNL     1      -4.183   3.107  -0.700  1.00  0.00     0.219 HD
ENDBRANCH  22  25
BRANCH  23  27
HETATM   27  O4  UNL     1      -2.698   3.516   1.118  1.00  0.00    -0.288 OA
ATOM     28  H4  UNL     1      -2.254   4.027   1.785  1.00  0.00     0.244 HD
ENDBRANCH  23  27
ENDBRANCH   5  22
BRANCH   5  29
HETATM   29  C17 UNL     1      -3.947  -0.802   0.249  1.00  0.00    -0.034 A 
HETATM   30  C18 UNL     1      -3.876  -1.829   1.148  1.00  0.00     0.050 A 
HETATM   31  C19 UNL     1      -5.003  -2.592   1.406  1.00  0.00     0.119 A 
HETATM   32  F1  UNL     1      -4.938  -3.628   2.310  1.00  0.00    -0.206 F 
HETATM   33  C20 UNL     1      -6.214  -2.367   0.795  1.00  0.00     0.084 A 
HETATM   34  C21 UNL     1      -6.284  -1.336  -0.107  1.00  0.00     0.119 A 
HETATM   35  F2  UNL     1      -7.450  -1.077  -0.732  1.00  0.00    -0.206 F 
HETATM   36  C22 UNL     1      -5.158  -0.569  -0.370  1.00  0.00     0.050 A 
ENDBRANCH   5  29
TORSDOF 8
