REMARK  14 active torsions:
REMARK  status: ('A' for Active; 'I' for Inactive)
REMARK    1  A    between atoms: C2_2  and  O2_4 
REMARK    2  A    between atoms: O2_4  and  C3_5 
REMARK    3  A    between atoms: C3_5  and  C4_6 
REMARK    4  A    between atoms: C3_5  and  C6_12 
REMARK    5  A    between atoms: C4_6  and  O3_7 
REMARK    6  A    between atoms: C4_6  and  C5_9 
REMARK    7  A    between atoms: C5_9  and  O4_10 
REMARK    8  A    between atoms: C6_12  and  O5_13 
REMARK    9  A    between atoms: C6_12  and  C7_15 
REMARK   10  A    between atoms: C7_15  and  O6_16 
REMARK   11  A    between atoms: C7_15  and  C8_18 
REMARK   12  A    between atoms: C8_18  and  N1_19 
REMARK   13  A    between atoms: N1_19  and  C9_21 
REMARK   14  A    between atoms: C12_26  and  O7_27 
ROOT
HETATM    1  C9  UNL     1       2.786   0.336   0.849  1.00  0.00     0.149 A 
HETATM    2  S1  UNL     1       3.842   1.655   0.608  1.00  0.00    -0.039 SA
HETATM    3  C10 UNL     1       5.315   0.848   0.898  1.00  0.00     0.139 A 
HETATM    4  C11 UNL     1       6.676   1.372   0.866  1.00  0.00     0.111 C 
HETATM    5  N2  UNL     1       7.753   1.794   0.833  1.00  0.00    -0.191 NA
HETATM    6  C12 UNL     1       4.898  -0.420   1.170  1.00  0.00     0.172 A 
HETATM    7  N3  UNL     1       3.610  -0.667   1.142  1.00  0.00    -0.311 N 
HETATM    8  C13 UNL     1       3.022  -2.006   1.419  1.00  0.00     0.160 C 
ENDROOT
BRANCH   6   9
HETATM    9  O7  UNL     1       5.876  -1.412   1.472  1.00  0.00    -0.344 OA
ATOM     10  H7  UNL     1       5.585  -2.296   1.662  1.00  0.00     0.219 HD
ENDBRANCH   6   9
BRANCH   1  11
HETATM   11  N1  UNL     1       1.469   0.292   0.770  1.00  0.00    -0.368 N 
ATOM     12  H1  UNL     1       0.973  -0.582   0.943  1.00  0.00     0.161 HD
BRANCH  11  13
HETATM   13  C8  UNL     1       0.733   1.494   0.436  1.00  0.00     0.156 C 
BRANCH  13  14
HETATM   14  C7  UNL     1       0.127   1.379  -0.968  1.00  0.00     0.167 C 
BRANCH  14  15
HETATM   15  C6  UNL     1      -0.751   0.169  -1.140  1.00  0.00     0.180 C 
BRANCH  15  16
HETATM   16  C3  UNL     1      -2.186   0.470  -0.897  1.00  0.00     0.194 C 
BRANCH  16  17
HETATM   17  O2  UNL     1      -3.040  -0.578  -1.366  1.00  0.00    -0.311 OA
BRANCH  17  18
HETATM   18  C2  UNL     1      -3.886  -0.505  -2.427  1.00  0.00     0.255 C 
HETATM   19  C1  UNL     1      -4.760  -1.601  -2.895  1.00  0.00     0.126 C 
HETATM   20  O1  UNL     1      -3.929   0.577  -3.060  1.00  0.00    -0.266 OA
ENDBRANCH  17  18
ENDBRANCH  16  17
BRANCH  16  21
HETATM   21  C4  UNL     1      -2.648   0.996   0.404  1.00  0.00     0.173 C 
BRANCH  21  22
HETATM   22  O3  UNL     1      -4.005   1.501   0.196  1.00  0.00    -0.391 OA
ATOM     23  H3  UNL     1      -4.302   1.839   1.033  1.00  0.00     0.210 HD
ENDBRANCH  21  22
BRANCH  21  24
HETATM   24  C5  UNL     1      -2.857   0.003   1.504  1.00  0.00     0.198 C 
BRANCH  24  25
HETATM   25  O4  UNL     1      -1.725  -0.669   1.927  1.00  0.00    -0.398 OA
ATOM     26  H4  UNL     1      -1.858  -1.299   2.625  1.00  0.00     0.209 HD
ENDBRANCH  24  25
ENDBRANCH  21  24
ENDBRANCH  16  21
ENDBRANCH  15  16
BRANCH  15  27
HETATM   27  O5  UNL     1      -0.733   0.009  -2.592  1.00  0.00    -0.390 OA
ATOM     28  H5  UNL     1       0.184  -0.183  -2.747  1.00  0.00     0.210 HD
ENDBRANCH  15  27
ENDBRANCH  14  15
BRANCH  14  29
HETATM   29  O6  UNL     1       1.332   1.181  -1.733  1.00  0.00    -0.391 OA
ATOM     30  H6  UNL     1       1.886   1.945  -1.624  1.00  0.00     0.210 HD
ENDBRANCH  14  29
ENDBRANCH  13  14
ENDBRANCH  11  13
ENDBRANCH   1  11
TORSDOF 14
