REMARK  5 active torsions:
REMARK  status: ('A' for Active; 'I' for Inactive)
REMARK    1  A    between atoms: O1_2  and  C2_3 
REMARK    2  A    between atoms: C2_3  and  C3_5 
REMARK    3  A    between atoms: C3_5  and  C5_7 
REMARK    4  A    between atoms: C5_7  and  O3_8 
REMARK    5  A    between atoms: O3_8  and  C6_9 
ROOT
HETATM    1  C6  UNL     1      -1.371  -1.086  -0.605  1.00  0.00     0.179 A 
HETATM    2  N1  UNL     1      -1.752   0.137  -0.316  1.00  0.00    -0.256 N 
ATOM      3  H1  UNL     1      -1.106   0.926  -0.282  1.00  0.00     0.191 HD
HETATM    4  N2  UNL     1      -3.070   0.258  -0.068  1.00  0.00    -0.184 N 
HETATM    5  N3  UNL     1      -3.877   1.224   0.247  1.00  0.00    -0.258 N 
ATOM      6  H3  UNL     1      -3.531   2.176   0.363  1.00  0.00     0.191 HD
HETATM    7  C7  UNL     1      -5.166   0.944   0.415  1.00  0.00     0.160 A 
HETATM    8  N4  UNL     1      -6.134   1.781   0.734  1.00  0.00    -0.378 N 
ATOM      9  H41 UNL     1      -7.123   1.566   0.863  1.00  0.00     0.158 HD
ATOM     10  H42 UNL     1      -6.101   2.785   0.912  1.00  0.00     0.158 HD
HETATM   11  S1  UNL     1      -5.222  -0.735   0.117  1.00  0.00    -0.030 SA
HETATM   12  C8  UNL     1      -3.557  -0.964  -0.210  1.00  0.00     0.140 A 
HETATM   13  C9  UNL     1      -2.555  -1.855  -0.544  1.00  0.00     0.100 A 
HETATM   14 BR1  UNL     1      -2.659  -3.696  -0.864  1.00  0.00    -0.043 Br
ENDROOT
BRANCH   1  15
HETATM   15  O3  UNL     1      -0.139  -1.563  -0.907  1.00  0.00    -0.333 OA
BRANCH  15  16
HETATM   16  C5  UNL     1       1.103  -1.085  -1.024  1.00  0.00     0.191 C 
BRANCH  16  17
HETATM   17  C3  UNL     1       1.845  -0.499   0.114  1.00  0.00     0.106 C 
HETATM   18  C4  UNL     1       1.238   0.667   0.797  1.00  0.00     0.022 C 
BRANCH  17  19
HETATM   19  C2  UNL     1       3.215  -0.086  -0.357  1.00  0.00     0.264 C 
HETATM   20  O2  UNL     1       3.467  -0.125  -1.573  1.00  0.00    -0.265 OA
BRANCH  19  21
HETATM   21  O1  UNL     1       4.153   0.323   0.567  1.00  0.00    -0.326 OA
HETATM   22  C1  UNL     1       5.438   0.717   0.189  1.00  0.00     0.213 C 
ENDBRANCH  19  21
ENDBRANCH  17  19
ENDBRANCH  16  17
ENDBRANCH  15  16
ENDBRANCH   1  15
TORSDOF 5
