REMARK  9 active torsions:
REMARK  status: ('A' for Active; 'I' for Inactive)
REMARK    1  A    between atoms: C2_2  and  C3_3 
REMARK    2  A    between atoms: C3_3  and  N1_4 
REMARK    3  A    between atoms: C4_5  and  N2_6 
REMARK    4  A    between atoms: C5_11  and  N4_12 
REMARK    5  A    between atoms: C10_18  and  C11_19 
REMARK    6  A    between atoms: C11_19  and  O3_21 
REMARK    7  A    between atoms: O3_21  and  C12_22 
REMARK    8  A    between atoms: C12_22  and  C13_23 
REMARK    9  A    between atoms: C13_23  and  C15_25 
ROOT
HETATM    1  N1  UNL     1      -2.044   1.862   0.051  1.00  0.00    -0.147 N 
HETATM    2  C4  UNL     1      -2.671   1.062  -0.817  1.00  0.00     0.682 A 
HETATM    3  N3  UNL     1      -2.156  -0.169  -1.051  1.00  0.00    -0.176 N 
ATOM      4  H3  UNL     1      -2.637  -0.776  -1.715  1.00  0.00     0.186 HD
HETATM    5  C5  UNL     1      -1.051  -0.629  -0.457  1.00  0.00     0.141 A 
HETATM    6  C10 UNL     1      -0.401   0.176   0.432  1.00  0.00     0.152 A 
HETATM    7  C16 UNL     1      -0.927   1.423   0.664  1.00  0.00     0.281 A 
HETATM    8  O4  UNL     1      -0.334   2.174   1.484  1.00  0.00    -0.266 OA
ENDROOT
BRANCH   6   9
HETATM    9  C11 UNL     1       0.812  -0.291   1.099  1.00  0.00     0.302 C 
HETATM   10  O2  UNL     1       0.748  -0.911   2.200  1.00  0.00    -0.259 OA
BRANCH   9  11
HETATM   11  O3  UNL     1       2.077  -0.085   0.576  1.00  0.00    -0.317 OA
BRANCH  11  12
HETATM   12  C12 UNL     1       3.228  -0.536   1.219  1.00  0.00     0.184 C 
BRANCH  12  13
HETATM   13  C13 UNL     1       4.489  -0.194   0.469  1.00  0.00     0.020 C 
HETATM   14  C14 UNL     1       4.543  -0.777  -0.902  1.00  0.00     0.013 C 
BRANCH  13  15
HETATM   15  C15 UNL     1       4.748   1.271   0.423  1.00  0.00     0.121 C 
HETATM   16 CL1  UNL     1       4.926   1.979   2.046  1.00  0.00    -0.130 Cl
ENDBRANCH  13  15
ENDBRANCH  12  13
ENDBRANCH  11  12
ENDBRANCH   9  11
ENDBRANCH   6   9
BRANCH   5  17
HETATM   17  N4  UNL     1      -0.541  -1.938  -0.720  1.00  0.00    -0.362 N 
HETATM   18  C6  UNL     1       0.364  -2.127  -1.825  1.00  0.00     0.150 C 
HETATM   19  C7  UNL     1       0.149  -3.575  -2.292  1.00  0.00     0.187 C 
HETATM   20  O1  UNL     1      -1.162  -3.979  -2.094  1.00  0.00    -0.388 OA
HETATM   21  C8  UNL     1      -1.334  -4.257  -0.745  1.00  0.00     0.187 C 
HETATM   22  C9  UNL     1      -0.900  -3.084   0.085  1.00  0.00     0.150 C 
ENDBRANCH   5  17
BRANCH   1  23
HETATM   23  C3  UNL     1      -2.533   3.205   0.332  1.00  0.00     0.151 C 
BRANCH  23  24
HETATM   24  C2  UNL     1      -3.534   3.209   1.436  1.00  0.00     0.016 C 
HETATM   25  C1  UNL     1      -4.062   4.585   1.749  1.00  0.00     0.006 C 
ENDBRANCH  23  24
ENDBRANCH   1  23
BRANCH   2  26
HETATM   26  N2  UNL     1      -3.770   1.404  -1.440  1.00  0.00    -0.234 N 
ATOM     27  H22 UNL     1      -4.158   2.331  -1.264  1.00  0.00     0.174 HD
ATOM     28  H21 UNL     1      -4.248   0.794  -2.102  1.00  0.00     0.174 HD
ENDBRANCH   2  26
TORSDOF 9
