REMARK  9 active torsions:
REMARK  status: ('A' for Active; 'I' for Inactive)
REMARK    1  A    between atoms: C2_2  and  C3_3 
REMARK    2  A    between atoms: C3_3  and  C4_4 
REMARK    3  A    between atoms: C3_3  and  N1_6 
REMARK    4  A    between atoms: N1_6  and  C6_8 
REMARK    5  A    between atoms: C7_11  and  N3_12 
REMARK    6  A    between atoms: C10_15  and  N4_16 
REMARK    7  A    between atoms: C10_15  and  C11_20 
REMARK    8  A    between atoms: C11_20  and  O2_22 
REMARK    9  A    between atoms: O2_22  and  C12_23 
ROOT
HETATM    1  C12 UNL     1       5.641   2.043   0.362  1.00  0.00     0.234 C 
HETATM    2  C13 UNL     1       6.279   2.041  -1.034  1.00  0.00     0.056 C 
HETATM    3  C14 UNL     1       6.642   2.280   1.388  1.00  0.00     0.091 C 
HETATM    4  N5  UNL     1       7.439   2.471   2.179  1.00  0.00    -0.195 NA
ENDROOT
BRANCH   1   5
HETATM    5  O2  UNL     1       5.062   0.794   0.546  1.00  0.00    -0.300 OA
BRANCH   5   6
HETATM    6  C11 UNL     1       3.733   0.508   0.673  1.00  0.00     0.296 C 
HETATM    7  O1  UNL     1       2.929   1.469   0.621  1.00  0.00    -0.262 OA
BRANCH   6   8
HETATM    8  C10 UNL     1       3.170  -0.848   0.868  1.00  0.00     0.213 C 
HETATM    9  C9  UNL     1       2.237  -1.177  -0.254  1.00  0.00     0.070 C 
HETATM   10  C8  UNL     1       0.809  -0.755  -0.011  1.00  0.00     0.144 C 
HETATM   11  N3  UNL     1       0.293  -1.321   1.209  1.00  0.00    -0.217 N 
HETATM   12  C16 UNL     1       1.268  -1.827   2.168  1.00  0.00     0.144 C 
HETATM   13  C15 UNL     1       2.456  -0.876   2.192  1.00  0.00     0.070 C 
BRANCH  11  14
HETATM   14  C7  UNL     1      -1.075  -1.412   1.523  1.00  0.00     0.681 A 
HETATM   15  N2  UNL     1      -1.982  -0.932   0.618  1.00  0.00    -0.174 N 
HETATM   16  C6  UNL     1      -3.295  -0.992   0.860  1.00  0.00     0.157 A 
ATOM     17  H2  UNL     1      -1.651  -0.522  -0.255  1.00  0.00     0.186 HD
HETATM   18  C18 UNL     1      -3.708  -1.558   2.061  1.00  0.00     0.176 A 
HETATM   19  C17 UNL     1      -2.801  -2.053   2.997  1.00  0.00     0.152 A 
HETATM   20  F1  UNL     1      -5.041  -1.610   2.290  1.00  0.00    -0.201 F 
HETATM   21  N6  UNL     1      -1.502  -1.953   2.672  1.00  0.00    -0.199 N 
ATOM     22  H6  UNL     1      -0.808  -2.305   3.331  1.00  0.00     0.183 HD
BRANCH  16  23
HETATM   23  N1  UNL     1      -4.170  -0.555   0.043  1.00  0.00    -0.369 N 
ATOM     24  H1  UNL     1      -5.153  -0.637   0.303  1.00  0.00     0.161 HD
BRANCH  23  25
HETATM   25  C3  UNL     1      -3.852   0.047  -1.224  1.00  0.00     0.082 C 
BRANCH  25  26
HETATM   26  C2  UNL     1      -3.523   1.506  -0.993  1.00  0.00     0.021 C 
HETATM   27  C1  UNL     1      -4.703   2.254  -0.408  1.00  0.00     0.007 C 
ENDBRANCH  25  26
BRANCH  25  28
HETATM   28  C4  UNL     1      -5.017  -0.102  -2.188  1.00  0.00     0.021 C 
HETATM   29  C5  UNL     1      -4.679   0.524  -3.518  1.00  0.00     0.007 C 
ENDBRANCH  25  28
ENDBRANCH  23  25
ENDBRANCH  16  23
ENDBRANCH  11  14
BRANCH   8  30
HETATM   30  N4  UNL     1       4.214  -1.861   0.908  1.00  0.00    -0.061 N 
ATOM     31  H43 UNL     1       3.840  -2.808   0.974  1.00  0.00     0.275 HD
ATOM     32  H42 UNL     1       4.695  -1.964   0.015  1.00  0.00     0.275 HD
ATOM     33  H41 UNL     1       4.850  -1.637   1.673  1.00  0.00     0.275 HD
ENDBRANCH   8  30
ENDBRANCH   6   8
ENDBRANCH   5   6
ENDBRANCH   1   5
TORSDOF 9
