REMARK  7 active torsions:
REMARK  status: ('A' for Active; 'I' for Inactive)
REMARK    1  A    between atoms: O1_2  and  C2_3 
REMARK       I    between atoms: C2_3  and  N1_5 
REMARK    2  A    between atoms: N1_5  and  C3_7 
REMARK    3  A    between atoms: C6_10  and  C7_11 
REMARK    4  A    between atoms: C7_11  and  N2_12 
REMARK    5  A    between atoms: N2_12  and  C9_14 
REMARK    6  A    between atoms: N3_16  and  C11_17 
REMARK    7  A    between atoms: C16_25  and  O3_26 
ROOT
HETATM    1  C11 UNL     1      -4.343   1.034   1.038  1.00  0.00     0.137 A 
HETATM    2  N4  UNL     1      -4.947   1.594   2.086  1.00  0.00    -0.349 N 
ATOM      3  H4  UNL     1      -4.909   1.140   2.999  1.00  0.00     0.167 HD
HETATM    4  C12 UNL     1      -5.610   2.763   1.940  1.00  0.00     0.112 A 
HETATM    5  C13 UNL     1      -5.659   3.369   0.715  1.00  0.00     0.062 A 
HETATM    6  C14 UNL     1      -6.369   4.615   0.565  1.00  0.00     0.101 C 
HETATM    7  N5  UNL     1      -6.936   5.604   0.460  1.00  0.00    -0.191 NA
HETATM    8  C15 UNL     1      -5.046   2.822  -0.398  1.00  0.00     0.064 A 
HETATM    9  C16 UNL     1      -4.375   1.616  -0.198  1.00  0.00     0.111 A 
ENDROOT
BRANCH   9  10
HETATM   10  O3  UNL     1      -3.758   1.059  -1.308  1.00  0.00    -0.357 OA
ATOM     11  H3  UNL     1      -3.780   1.464  -2.167  1.00  0.00     0.218 HD
ENDBRANCH   9  10
BRANCH   1  12
HETATM   12  N3  UNL     1      -3.623  -0.219   1.180  1.00  0.00    -0.363 N 
HETATM   13  C10 UNL     1      -2.200  -0.231   0.982  1.00  0.00     0.160 C 
HETATM   14  C9  UNL     1      -1.802  -1.510   0.222  1.00  0.00     0.244 C 
HETATM   15  C19 UNL     1      -2.464  -2.610   0.978  1.00  0.00     0.018 C 
HETATM   16  C18 UNL     1      -3.971  -2.521   0.674  1.00  0.00     0.026 C 
HETATM   17  C20 UNL     1      -2.068  -4.009   0.756  1.00  0.00     0.012 C 
HETATM   18  C17 UNL     1      -4.454  -1.346   1.514  1.00  0.00     0.125 C 
BRANCH  14  19
HETATM   19  N2  UNL     1      -0.352  -1.630   0.183  1.00  0.00     0.091 N 
HETATM   20  C8  UNL     1      -0.103  -2.723  -0.799  1.00  0.00     0.310 C 
BRANCH  19  21
HETATM   21  C7  UNL     1       0.175  -0.417  -0.425  1.00  0.00     0.277 C 
BRANCH  21  22
HETATM   22  C6  UNL     1       1.663  -0.371  -0.546  1.00  0.00     0.014 C 
HETATM   23  C5  UNL     1       2.371  -0.480   0.784  1.00  0.00     0.008 C 
HETATM   24  C4  UNL     1       3.851  -0.576   0.463  1.00  0.00     0.026 C 
HETATM   25  C3  UNL     1       4.264   0.863   0.119  1.00  0.00     0.086 C 
HETATM   26  C22 UNL     1       3.103   1.692  -0.295  1.00  0.00     0.026 C 
HETATM   27  C21 UNL     1       2.055   0.993  -1.110  1.00  0.00     0.008 C 
BRANCH  25  28
HETATM   28  N1  UNL     1       5.399   0.886  -0.751  1.00  0.00    -0.332 N 
HETATM   29  C2  UNL     1       6.709   1.258  -0.342  1.00  0.00     0.360 C 
HETATM   30  O2  UNL     1       6.870   1.584   0.858  1.00  0.00    -0.239 OA
ATOM     31  H1  UNL     1       5.260   0.619  -1.726  1.00  0.00     0.165 HD
BRANCH  29  32
HETATM   32  O1  UNL     1       7.800   1.278  -1.182  1.00  0.00    -0.309 OA
HETATM   33  C1  UNL     1       9.097   1.635  -0.803  1.00  0.00     0.215 C 
ENDBRANCH  29  32
ENDBRANCH  25  28
ENDBRANCH  21  22
ENDBRANCH  19  21
ENDBRANCH  14  19
ENDBRANCH   1  12
TORSDOF 7
