REMARK  18 active torsions:
REMARK  status: ('A' for Active; 'I' for Inactive)
REMARK    1  A    between atoms: N2_5  and  N3_6 
REMARK    2  A    between atoms: N4_10  and  O2_11 
REMARK    3  A    between atoms: O2_11  and  C4_12 
REMARK    4  A    between atoms: C6_14  and  O3_15 
REMARK    5  A    between atoms: C7_17  and  O4_18 
REMARK    6  A    between atoms: C8_20  and  N5_21 
REMARK    7  A    between atoms: C9_23  and  C10_24 
REMARK    8  A    between atoms: C13_27  and  O5_28 
REMARK    9  A    between atoms: C16_32  and  C17_33 
REMARK   10  A    between atoms: C17_33  and  O6_34 
REMARK   11  A    between atoms: C17_33  and  N6_36 
REMARK   12  A    between atoms: N6_36  and  N7_38 
REMARK   13  A    between atoms: N8_42  and  O7_44 
REMARK   14  A    between atoms: O7_44  and  C19_45 
REMARK   15  A    between atoms: C19_45  and  C20_47 
REMARK   16  A    between atoms: C20_47  and  O9_48 
REMARK   17  A    between atoms: C20_47  and  C21_50 
REMARK   18  A    between atoms: C21_50  and  O10_51 
ROOT
HETATM    1  C4  UNL     1       0.081   0.279  -1.217  1.00  0.00     0.119 A 
HETATM    2  C5  UNL     1      -0.386   1.556  -1.020  1.00  0.00     0.080 A 
HETATM    3  C6  UNL     1       0.353   2.540  -0.416  1.00  0.00     0.103 A 
HETATM    4  C7  UNL     1       1.618   2.263   0.020  1.00  0.00     0.127 A 
HETATM    5  C8  UNL     1       2.141   0.976  -0.157  1.00  0.00     0.086 A 
HETATM    6  C16 UNL     1       1.390   0.010  -0.761  1.00  0.00     0.082 A 
ENDROOT
BRANCH   1   7
HETATM    7  O2  UNL     1      -0.655  -0.712  -1.820  1.00  0.00    -0.219 OA
BRANCH   7   8
HETATM    8  N4  UNL     1      -1.904  -0.554  -2.347  1.00  0.00    -0.060 N 
HETATM    9  C3  UNL     1      -2.045  -0.356  -3.764  1.00  0.00     0.329 C 
HETATM   10  N2  UNL     1      -3.169   0.484  -4.075  1.00  0.00    -0.227 N 
HETATM   11  C2  UNL     1      -4.326   0.440  -3.267  1.00  0.00     0.358 C 
HETATM   12  N1  UNL     1      -4.283  -0.109  -1.954  1.00  0.00    -0.132 N 
HETATM   13  O1  UNL     1      -5.395   0.906  -3.753  1.00  0.00    -0.244 OA
HETATM   14  C1  UNL     1      -5.526  -0.129  -1.214  1.00  0.00     0.180 C 
HETATM   15  C18 UNL     1      -3.053  -0.615  -1.473  1.00  0.00     0.732 C 
HETATM   16  N8  UNL     1      -2.933  -1.097  -0.301  1.00  0.00    -0.086 N 
ATOM     17  H8  UNL     1      -1.998  -1.434  -0.073  1.00  0.00     0.214 HD
BRANCH  10  18
HETATM   18  N3  UNL     1      -3.117   1.364  -5.206  1.00  0.00    -0.337 N 
ATOM     19  H32 UNL     1      -3.915   1.960  -5.427  1.00  0.00     0.177 HD
ATOM     20  H31 UNL     1      -2.281   1.396  -5.790  1.00  0.00     0.177 HD
ENDBRANCH  10  18
BRANCH  16  21
HETATM   21  O7  UNL     1      -3.831  -1.235   0.681  1.00  0.00    -0.182 OA
BRANCH  21  22
HETATM   22  C19 UNL     1      -3.826  -0.564   1.890  1.00  0.00     0.312 C 
HETATM   23  O8  UNL     1      -2.882   0.264   2.089  1.00  0.00    -0.260 OA
BRANCH  22  24
HETATM   24  C20 UNL     1      -4.823  -0.733   2.953  1.00  0.00     0.243 C 
BRANCH  24  25
HETATM   25  O9  UNL     1      -4.584   0.064   4.050  1.00  0.00    -0.383 OA
ATOM     26  H9  UNL     1      -5.230  -0.045   4.738  1.00  0.00     0.210 HD
ENDBRANCH  24  25
BRANCH  24  27
HETATM   27  C21 UNL     1      -4.999  -2.148   3.425  1.00  0.00     0.206 C 
BRANCH  27  28
HETATM   28  O10 UNL     1      -5.246  -3.044   2.396  1.00  0.00    -0.398 OA
ATOM     29  H10 UNL     1      -5.357  -3.939   2.695  1.00  0.00     0.209 HD
ENDBRANCH  27  28
ENDBRANCH  24  27
ENDBRANCH  22  24
ENDBRANCH  21  22
ENDBRANCH  16  21
ENDBRANCH   7   8
ENDBRANCH   1   7
BRANCH   6  30
HETATM   30  C17 UNL     1       1.863  -1.340  -0.953  1.00  0.00     0.170 C 
BRANCH  30  31
HETATM   31  O6  UNL     1       0.933  -2.244  -1.097  1.00  0.00    -0.344 OA
ATOM     32  H6  UNL     1       1.244  -3.133  -1.223  1.00  0.00     0.219 HD
ENDBRANCH  30  31
BRANCH  30  33
HETATM   33  N6  UNL     1       3.201  -1.780  -1.004  1.00  0.00    -0.286 N 
ATOM     34  H6  UNL     1       3.974  -1.122  -0.906  1.00  0.00     0.188 HD
BRANCH  33  35
HETATM   35  N7  UNL     1       3.442  -3.163  -1.196  1.00  0.00    -0.343 N 
ATOM     36  H72 UNL     1       2.658  -3.809  -1.293  1.00  0.00     0.176 HD
ATOM     37  H71 UNL     1       4.410  -3.481  -1.233  1.00  0.00     0.176 HD
ENDBRANCH  33  35
ENDBRANCH  30  33
ENDBRANCH   6  30
BRANCH   3  38
HETATM   38  O3  UNL     1      -0.157   3.811  -0.238  1.00  0.00    -0.358 OA
ATOM     39  H3  UNL     1       0.355   4.493   0.181  1.00  0.00     0.217 HD
ENDBRANCH   3  38
BRANCH   5  40
HETATM   40  N5  UNL     1       3.445   0.777   0.346  1.00  0.00    -0.362 N 
HETATM   41  C9  UNL     1       3.688   0.658   1.606  1.00  0.00     0.100 C 
ATOM     42  H5  UNL     1       4.223   0.726  -0.312  1.00  0.00     0.165 HD
BRANCH  41  43
HETATM   43  C10 UNL     1       5.060   0.450   2.094  1.00  0.00    -0.021 A 
HETATM   44  C11 UNL     1       6.091   0.384   1.154  1.00  0.00     0.015 A 
HETATM   45  C12 UNL     1       7.381   0.187   1.555  1.00  0.00     0.037 A 
HETATM   46  C13 UNL     1       7.707   0.049   2.887  1.00  0.00     0.065 A 
HETATM   47  C14 UNL     1       6.687   0.115   3.810  1.00  0.00     0.037 A 
HETATM   48  C15 UNL     1       5.380   0.314   3.408  1.00  0.00     0.015 A 
BRANCH  46  49
HETATM   49  O5  UNL     1       9.001  -0.151   3.302  1.00  0.00    -0.361 OA
ATOM     50  H5  UNL     1       9.226  -0.246   4.220  1.00  0.00     0.217 HD
ENDBRANCH  46  49
ENDBRANCH  41  43
ENDBRANCH   5  40
BRANCH   4  51
HETATM   51  O4  UNL     1       2.411   3.249   0.647  1.00  0.00    -0.356 OA
ATOM     52  H4  UNL     1       3.291   3.056   0.950  1.00  0.00     0.218 HD
ENDBRANCH   4  51
TORSDOF 18
