REMARK  1 active torsions:
REMARK  status: ('A' for Active; 'I' for Inactive)
REMARK    1  A    between atoms: N5_10  and  N6_11 
ROOT
HETATM    1  N1  UNL     1      -1.395   1.769   0.096  1.00  0.00    -0.060 NA
HETATM    2  C1  UNL     1      -0.295   0.890   0.019  1.00  0.00     0.230 C 
HETATM    3  N2  UNL     1       0.900   1.377  -0.030  1.00  0.00    -0.304 N 
ATOM      4  H2  UNL     1       1.061   2.384  -0.014  1.00  0.00     0.171 HD
HETATM    5  C2  UNL     1       1.984   0.458  -0.107  1.00  0.00     0.191 C 
HETATM    6  S1  UNL     1       3.522   1.049  -0.170  1.00  0.00    -0.039 SA
HETATM    7  N3  UNL     1       1.766  -0.947  -0.131  1.00  0.00    -0.258 N 
ATOM      8  H3  UNL     1       2.493  -1.589  -0.447  1.00  0.00     0.186 HD
HETATM    9  N4  UNL     1       0.519  -1.417   0.294  1.00  0.00     0.005 NA
HETATM   10  N5  UNL     1      -0.518  -0.524  -0.006  1.00  0.00    -0.155 N 
ENDROOT
BRANCH  10  11
HETATM   11  N6  UNL     1      -1.784  -0.963  -0.333  1.00  0.00    -0.323 N 
ATOM     12  H62 UNL     1      -2.539  -0.313  -0.551  1.00  0.00     0.178 HD
ATOM     13  H61 UNL     1      -1.943  -1.970  -0.351  1.00  0.00     0.178 HD
ENDBRANCH  10  11
TORSDOF 1
