REMARK  4 active torsions:
REMARK  status: ('A' for Active; 'I' for Inactive)
REMARK    1  A    between atoms: O1_2  and  N1_3 
REMARK    2  A    between atoms: C2_5  and  N2_6 
REMARK    3  A    between atoms: C2_5  and  C8_14 
REMARK       I    between atoms: N2_6  and  C3_8 
REMARK    4  A    between atoms: C3_8  and  C4_10 
ROOT
HETATM    1  N1  UNL     1      -0.442   2.620  -0.327  1.00  0.00    -0.252 N 
ATOM      2  H1  UNL     1       0.391   3.209  -0.322  1.00  0.00     0.196 HD
HETATM    3  C2  UNL     1      -0.275   1.297  -0.265  1.00  0.00     0.135 C 
ENDROOT
BRANCH   3   4
HETATM    4  N2  UNL     1       1.059   0.907  -0.199  1.00  0.00    -0.312 N 
HETATM    5  C3  UNL     1       1.631  -0.372  -0.110  1.00  0.00     0.230 C 
HETATM    6  O2  UNL     1       0.918  -1.385  -0.074  1.00  0.00    -0.272 OA
ATOM      7  H2  UNL     1       1.730   1.675  -0.218  1.00  0.00     0.170 HD
BRANCH   5   8
HETATM    8  C4  UNL     1       3.108  -0.605  -0.053  1.00  0.00     0.030 C 
HETATM    9  C5  UNL     1       3.605   0.123   1.178  1.00  0.00     0.025 C 
HETATM   10  C6  UNL     1       3.417  -2.068   0.147  1.00  0.00     0.025 C 
HETATM   11  C7  UNL     1       3.801  -0.140  -1.297  1.00  0.00     0.025 C 
ENDBRANCH   5   8
ENDBRANCH   3   4
BRANCH   3  12
HETATM   12  C8  UNL     1      -1.499   0.536  -0.303  1.00  0.00     0.218 C 
HETATM   13  C9  UNL     1      -1.831  -0.193  -1.562  1.00  0.00     0.211 C 
HETATM   14  O3  UNL     1      -2.947  -0.946  -1.127  1.00  0.00    -0.353 OA
HETATM   15  C10 UNL     1      -2.710  -1.233   0.194  1.00  0.00     0.158 C 
HETATM   16  C11 UNL     1      -2.452  -2.727   0.300  1.00  0.00     0.078 C 
HETATM   17  C12 UNL     1      -3.902  -0.942   1.082  1.00  0.00     0.078 C 
HETATM   18  O4  UNL     1      -1.642  -0.472   0.649  1.00  0.00    -0.341 OA
ENDBRANCH   3  12
BRANCH   1  19
HETATM   19  O1  UNL     1      -1.642   3.222  -0.396  1.00  0.00    -0.284 OA
HETATM   20  C1  UNL     1      -2.049   4.372   0.273  1.00  0.00     0.237 C 
ENDBRANCH   1  19
TORSDOF 4
