REMARK  4 active torsions:
REMARK  status: ('A' for Active; 'I' for Inactive)
REMARK    1  A    between atoms: C2_2  and  N1_3 
REMARK    2  A    between atoms: C2_2  and  C6_12 
REMARK    3  A    between atoms: N1_3  and  C3_5 
REMARK    4  A    between atoms: C5_9  and  O1_10 
ROOT
HETATM    1  C3  UNL     1      -1.071   0.052  -0.143  1.00  0.00     0.139 C 
HETATM    2  C4  UNL     1      -1.499  -0.995  -1.111  1.00  0.00     0.159 C 
HETATM    3  N2  UNL     1      -2.809  -0.455  -1.538  1.00  0.00    -0.144 NA
HETATM    4  N3  UNL     1      -3.389   0.126  -0.421  1.00  0.00    -0.114 NA
HETATM    5  C5  UNL     1      -2.413   0.225   0.608  1.00  0.00     0.250 C 
ENDROOT
BRANCH   1   6
HETATM    6  N1  UNL     1      -0.113  -0.229   0.816  1.00  0.00    -0.408 N 
ATOM      7  H1  UNL     1      -0.386  -0.175   1.797  1.00  0.00     0.154 HD
BRANCH   6   8
HETATM    8  C2  UNL     1       1.204  -0.582   0.519  1.00  0.00     0.077 C 
HETATM    9  C1  UNL     1       1.249  -1.899  -0.229  1.00  0.00     0.032 C 
BRANCH   8  10
HETATM   10  C6  UNL     1       1.990   0.416  -0.280  1.00  0.00     0.007 A 
HETATM   11  C7  UNL     1       2.165   1.819   0.159  1.00  0.00     0.007 A 
HETATM   12  C8  UNL     1       3.284   0.881   0.415  1.00  0.00     0.007 A 
ENDBRANCH   8  10
ENDBRANCH   6   8
ENDBRANCH   1   6
BRANCH   5  13
HETATM   13  O1  UNL     1      -2.396   1.377   1.343  1.00  0.00    -0.376 OA
ATOM     14  H1  UNL     1      -3.220   1.483   1.804  1.00  0.00     0.211 HD
ENDBRANCH   5  13
TORSDOF 4
