REMARK  6 active torsions:
REMARK  status: ('A' for Active; 'I' for Inactive)
REMARK    1  A    between atoms: O1_1  and  N1_3 
REMARK    2  A    between atoms: C3_6  and  N2_7 
REMARK    3  A    between atoms: N2_7  and  C4_9 
REMARK    4  A    between atoms: C5_12  and  N4_13 
REMARK    5  A    between atoms: C6_14  and  C7_15 
REMARK    6  A    between atoms: C7_15  and  O2_16 
ROOT
HETATM    1  C4  UNL     1       1.365  -0.066   0.169  1.00  0.00     0.684 A 
HETATM    2  N3  UNL     1       0.044  -0.210   0.425  1.00  0.00    -0.176 N 
ATOM      3  H3  UNL     1      -0.270  -0.319   1.389  1.00  0.00     0.186 HD
HETATM    4  C5  UNL     1      -0.862  -0.212  -0.569  1.00  0.00     0.130 A 
HETATM    5  C14 UNL     1      -0.385  -0.061  -1.851  1.00  0.00     0.067 A 
HETATM    6  C15 UNL     1       0.957   0.086  -2.115  1.00  0.00     0.110 A 
HETATM    7  N6  UNL     1       1.846   0.083  -1.082  1.00  0.00    -0.202 N 
ATOM      8  H6  UNL     1       2.846   0.190  -1.250  1.00  0.00     0.183 HD
ENDROOT
BRANCH   4   9
HETATM    9  N4  UNL     1      -2.260  -0.364  -0.299  1.00  0.00    -0.282 N 
HETATM   10  C6  UNL     1      -2.941  -1.518  -0.179  1.00  0.00     0.114 A 
HETATM   11  N5  UNL     1      -4.248  -1.265   0.077  1.00  0.00    -0.342 N 
HETATM   12  C8  UNL     1      -4.420   0.075   0.125  1.00  0.00     0.061 A 
ATOM     13  H5  UNL     1      -4.977  -1.966   0.211  1.00  0.00     0.167 HD
HETATM   14  C9  UNL     1      -5.541   0.858   0.351  1.00  0.00     0.032 A 
HETATM   15  C13 UNL     1      -3.174   0.614  -0.111  1.00  0.00     0.069 A 
HETATM   16  C10 UNL     1      -5.365   2.224   0.331  1.00  0.00     0.002 A 
HETATM   17  C11 UNL     1      -4.119   2.782   0.095  1.00  0.00     0.002 A 
HETATM   18  C12 UNL     1      -3.019   1.981  -0.127  1.00  0.00     0.032 A 
BRANCH  10  19
HETATM   19  C7  UNL     1      -2.385  -2.887  -0.301  1.00  0.00     0.241 C 
BRANCH  19  20
HETATM   20  O2  UNL     1      -1.941  -3.381   0.940  1.00  0.00    -0.393 OA
ATOM     21  H2  UNL     1      -1.585  -4.258   0.862  1.00  0.00     0.209 HD
ENDBRANCH  19  20
ENDBRANCH  10  19
ENDBRANCH   4   9
BRANCH   1  22
HETATM   22  N2  UNL     1       2.148  -0.079   1.207  1.00  0.00    -0.192 N 
ATOM     23  H2  UNL     1       1.749  -0.193   2.139  1.00  0.00     0.184 HD
BRANCH  22  24
HETATM   24  C3  UNL     1       3.553   0.064   1.057  1.00  0.00     0.051 A 
HETATM   25  C2  UNL     1       4.340  -1.058   0.938  1.00  0.00     0.050 A 
HETATM   26  C1  UNL     1       5.704  -0.915   0.792  1.00  0.00     0.124 A 
HETATM   27  N1  UNL     1       6.291   0.295   0.762  1.00  0.00    -0.247 N 
HETATM   28  C17 UNL     1       5.530   1.390   0.877  1.00  0.00     0.124 A 
HETATM   29  C16 UNL     1       4.173   1.302   1.024  1.00  0.00     0.050 A 
BRANCH  27  30
HETATM   30  O1  UNL     1       7.671   0.374   0.612  1.00  0.00    -0.284 OA
ATOM     31  H1  UNL     1       8.086   1.229   0.591  1.00  0.00     0.245 HD
ENDBRANCH  27  30
ENDBRANCH  22  24
ENDBRANCH   1  22
TORSDOF 6
