REMARK  7 active torsions:
REMARK  status: ('A' for Active; 'I' for Inactive)
REMARK       I    between atoms: C1_4  and  N3_6 
REMARK       I    between atoms: C2_8  and  N5_10 
REMARK    1  A    between atoms: N5_10  and  C3_12 
REMARK    2  A    between atoms: C3_12  and  C4_13 
REMARK    3  A    between atoms: N6_16  and  C7_17 
REMARK    4  A    between atoms: C7_17  and  C8_18 
REMARK    5  A    between atoms: C11_21  and  C12_22 
REMARK    6  A    between atoms: C12_22  and  C13_23 
REMARK    7  A    between atoms: C13_23  and  C14_24 
ROOT
HETATM    1  C4  UNL     1      -2.554   0.866  -0.509  1.00  0.00     0.007 C 
HETATM    2  C5  UNL     1      -2.422  -0.409  -1.288  1.00  0.00     0.036 C 
HETATM    3  C6  UNL     1      -1.457  -1.364  -0.636  1.00  0.00     0.273 C 
HETATM    4  N6  UNL     1      -0.172  -0.794  -0.342  1.00  0.00     0.092 N 
HETATM    5  C17 UNL     1      -0.112   0.560  -0.860  1.00  0.00     0.273 C 
HETATM    6  C18 UNL     1      -1.164   1.361  -0.148  1.00  0.00     0.036 C 
ENDROOT
BRANCH   1   7
HETATM    7  C3  UNL     1      -3.322   0.690   0.761  1.00  0.00     0.127 C 
BRANCH   7   8
HETATM    8  N5  UNL     1      -4.668   0.233   0.606  1.00  0.00    -0.364 N 
HETATM    9  C2  UNL     1      -5.675   1.035   0.060  1.00  0.00     0.190 C 
HETATM   10  N3  UNL     1      -6.893   0.600   0.118  1.00  0.00    -0.305 N 
HETATM   11  N4  UNL     1      -5.364   2.281  -0.526  1.00  0.00    -0.063 NA
HETATM   12  C1  UNL     1      -7.225  -0.633   0.694  1.00  0.00     0.188 C 
ATOM     13  H3  UNL     1      -7.639   1.177  -0.270  1.00  0.00     0.171 HD
HETATM   14  N1  UNL     1      -7.324  -0.766   1.966  1.00  0.00    -0.373 N 
HETATM   15  N2  UNL     1      -7.455  -1.778  -0.127  1.00  0.00    -0.064 NA
ATOM     16  H12 UNL     1      -7.566  -1.664   2.385  1.00  0.00     0.158 HD
ATOM     17  H11 UNL     1      -7.160   0.052   2.553  1.00  0.00     0.158 HD
ATOM     18  H5  UNL     1      -4.902  -0.714   0.905  1.00  0.00     0.162 HD
ENDBRANCH   7   8
ENDBRANCH   1   7
BRANCH   4  19
HETATM   19  C7  UNL     1       0.928  -1.620  -0.782  1.00  0.00     0.311 C 
BRANCH  19  20
HETATM   20  C8  UNL     1       2.237  -1.013  -0.423  1.00  0.00    -0.030 A 
HETATM   21  C9  UNL     1       2.734  -1.136   0.877  1.00  0.00     0.009 A 
HETATM   22  C10 UNL     1       3.941  -0.579   1.238  1.00  0.00     0.007 A 
HETATM   23  C11 UNL     1       4.725   0.128   0.350  1.00  0.00    -0.058 A 
HETATM   24  C15 UNL     1       4.237   0.250  -0.932  1.00  0.00     0.007 A 
HETATM   25  C16 UNL     1       3.022  -0.308  -1.311  1.00  0.00     0.009 A 
BRANCH  23  26
HETATM   26  C12 UNL     1       6.004   0.727   0.751  1.00  0.00     0.039 C 
BRANCH  26  27
HETATM   27  C13 UNL     1       7.202  -0.146   0.577  1.00  0.00     0.015 C 
BRANCH  27  28
HETATM   28  C14 UNL     1       8.398   0.687   1.062  1.00  0.00     0.085 C 
HETATM   29 BR1  UNL     1      10.044  -0.288   0.909  1.00  0.00    -0.097 Br
ENDBRANCH  27  28
ENDBRANCH  26  27
ENDBRANCH  23  26
ENDBRANCH  19  20
ENDBRANCH   4  19
TORSDOF 7
