REMARK  8 active torsions:
REMARK  status: ('A' for Active; 'I' for Inactive)
REMARK    1  A    between atoms: C3_4  and  O2_5 
REMARK    2  A    between atoms: O2_5  and  C4_6 
REMARK    3  A    between atoms: C4_6  and  C5_7 
REMARK    4  A    between atoms: C5_7  and  C6_8 
REMARK    5  A    between atoms: C6_8  and  S1_9 
REMARK    6  A    between atoms: S1_9  and  C7_10 
REMARK    7  A    between atoms: C10_22  and  O3_23 
REMARK    8  A    between atoms: C11_25  and  O4_26 
ROOT
HETATM    1  C4  UNL     1       0.118  -1.869  -1.260  1.00  0.00     0.172 C 
ENDROOT
BRANCH   1   2
HETATM    2  O2  UNL     1      -1.016  -1.436  -0.698  1.00  0.00    -0.358 OA
BRANCH   2   3
HETATM    3  C3  UNL     1      -0.995  -0.723   0.449  1.00  0.00     0.296 C 
HETATM    4  O1  UNL     1      -1.430   0.588   0.134  1.00  0.00    -0.351 OA
HETATM    5  C2  UNL     1      -2.743   0.547  -0.320  1.00  0.00     0.152 C 
HETATM    6  C1  UNL     1      -3.129   1.836  -1.007  1.00  0.00     0.042 C 
HETATM    7  C11 UNL     1      -3.634   0.332   0.877  1.00  0.00     0.178 C 
HETATM    8  C10 UNL     1      -2.800  -0.164   2.016  1.00  0.00     0.188 C 
HETATM    9  C9  UNL     1      -1.782  -1.212   1.596  1.00  0.00     0.256 C 
HETATM   10  F1  UNL     1      -0.986  -1.394   2.737  1.00  0.00    -0.241 F 
BRANCH   7  11
HETATM   11  O4  UNL     1      -4.705  -0.508   0.585  1.00  0.00    -0.390 OA
ATOM     12  H4  UNL     1      -5.266  -0.643   1.339  1.00  0.00     0.210 HD
ENDBRANCH   7  11
BRANCH   8  13
HETATM   13  O3  UNL     1      -2.081   0.874   2.622  1.00  0.00    -0.390 OA
ATOM     14  H3  UNL     1      -2.717   1.529   2.884  1.00  0.00     0.210 HD
ENDBRANCH   8  13
ENDBRANCH   2   3
ENDBRANCH   1   2
BRANCH   1  15
HETATM   15  C5  UNL     1       1.093  -0.746  -1.646  1.00  0.00     0.037 C 
BRANCH  15  16
HETATM   16  C6  UNL     1       2.311  -1.443  -2.267  1.00  0.00     0.083 C 
BRANCH  16  17
HETATM   17  S1  UNL     1       3.553  -0.224  -2.771  1.00  0.00    -0.103 SA
BRANCH  17  18
HETATM   18  C7  UNL     1       4.214   0.572  -1.288  1.00  0.00     0.130 A 
HETATM   19  N1  UNL     1       5.138   1.518  -1.227  1.00  0.00    -0.286 N 
HETATM   20  N2  UNL     1       5.502   1.980  -0.104  1.00  0.00    -0.279 N 
ATOM     21  H1  UNL     1       5.558   1.876  -2.085  1.00  0.00     0.188 HD
HETATM   22  C8  UNL     1       4.937   1.493   1.006  1.00  0.00     0.159 A 
ATOM     23  H2  UNL     1       6.213   2.710  -0.048  1.00  0.00     0.189 HD
HETATM   24  N3  UNL     1       5.182   1.842   2.249  1.00  0.00    -0.379 N 
HETATM   25  S2  UNL     1       3.853   0.336   0.365  1.00  0.00    -0.027 SA
ATOM     26  H32 UNL     1       5.829   2.532   2.631  1.00  0.00     0.158 HD
ATOM     27  H31 UNL     1       4.751   1.471   3.096  1.00  0.00     0.158 HD
ENDBRANCH  17  18
ENDBRANCH  16  17
ENDBRANCH  15  16
ENDBRANCH   1  15
TORSDOF 8
