REMARK  11 active torsions:
REMARK  status: ('A' for Active; 'I' for Inactive)
REMARK    1  A    between atoms: C2_2  and  C3_3 
REMARK    2  A    between atoms: C3_3  and  C4_4 
REMARK    3  A    between atoms: C4_4  and  C5_5 
REMARK    4  A    between atoms: C6_6  and  N1_7 
REMARK    5  A    between atoms: N1_7  and  N2_9 
REMARK    6  A    between atoms: N5_17  and  C8_18 
REMARK    7  A    between atoms: C8_18  and  C9_19 
REMARK    8  A    between atoms: C10_21  and  O2_22 
REMARK    9  A    between atoms: C11_24  and  O3_25 
REMARK   10  A    between atoms: C12_27  and  O4_28 
REMARK   11  A    between atoms: C13_30  and  O5_31 
ROOT
HETATM    1  C5  UNL     1       1.465  -1.053  -0.524  1.00  0.00     0.058 A 
HETATM    2  C6  UNL     1       2.298  -1.542  -1.506  1.00  0.00     0.090 A 
HETATM    3  C7  UNL     1       1.539  -2.443  -2.220  1.00  0.00     0.140 A 
HETATM    4  N4  UNL     1       0.297  -2.480  -1.671  1.00  0.00    -0.307 N 
ATOM      5  H4  UNL     1      -0.477  -3.060  -1.995  1.00  0.00     0.186 HD
HETATM    6  N5  UNL     1       0.254  -1.629  -0.633  1.00  0.00    -0.292 N 
ENDROOT
BRANCH   6   7
HETATM    7  C8  UNL     1      -0.900  -1.396   0.195  1.00  0.00     0.183 C 
BRANCH   7   8
HETATM    8  C9  UNL     1      -1.777  -0.290  -0.310  1.00  0.00     0.175 C 
HETATM    9  O1  UNL     1      -2.280  -0.522  -1.584  1.00  0.00    -0.349 OA
HETATM   10  C10 UNL     1      -2.664   0.718  -2.099  1.00  0.00     0.288 C 
HETATM   11  C11 UNL     1      -3.107   1.697  -1.072  1.00  0.00     0.204 C 
HETATM   12  C12 UNL     1      -3.686   1.120   0.172  1.00  0.00     0.183 C 
HETATM   13  C13 UNL     1      -2.993  -0.172   0.598  1.00  0.00     0.180 C 
BRANCH  10  14
HETATM   14  O2  UNL     1      -1.532   1.198  -2.799  1.00  0.00    -0.369 OA
ATOM     15  H2  UNL     1      -1.793   2.042  -3.149  1.00  0.00     0.212 HD
ENDBRANCH  10  14
BRANCH  11  16
HETATM   16  O3  UNL     1      -4.104   2.510  -1.660  1.00  0.00    -0.388 OA
ATOM     17  H3  UNL     1      -4.387   3.136  -1.004  1.00  0.00     0.210 HD
ENDBRANCH  11  16
BRANCH  12  18
HETATM   18  O4  UNL     1      -3.457   2.026   1.234  1.00  0.00    -0.390 OA
ATOM     19  H4  UNL     1      -3.827   1.658   2.028  1.00  0.00     0.210 HD
ENDBRANCH  12  18
BRANCH  13  20
HETATM   20  O5  UNL     1      -3.851  -1.231   0.234  1.00  0.00    -0.390 OA
ATOM     21  H5  UNL     1      -4.610  -1.157   0.801  1.00  0.00     0.210 HD
ENDBRANCH  13  20
ENDBRANCH   7   8
ENDBRANCH   6   7
BRANCH   1  22
HETATM   22  C4  UNL     1       1.832  -0.061   0.486  1.00  0.00     0.061 C 
BRANCH  22  23
HETATM   23  C3  UNL     1       2.696  -0.660   1.596  1.00  0.00     0.006 C 
BRANCH  23  24
HETATM   24  C2  UNL     1       2.988   0.493   2.555  1.00  0.00    -0.004 C 
HETATM   25  C1  UNL     1       3.724   1.618   1.866  1.00  0.00     0.005 C 
ENDBRANCH  23  24
ENDBRANCH  22  23
ENDBRANCH   1  22
BRANCH   2  26
HETATM   26  N1  UNL     1       3.653  -1.156  -1.694  1.00  0.00    -0.284 N 
ATOM     27  H1  UNL     1       3.882  -0.183  -1.896  1.00  0.00     0.188 HD
BRANCH  26  28
HETATM   28  N2  UNL     1       4.565  -2.007  -1.612  1.00  0.00    -0.249 N 
HETATM   29  N3  UNL     1       5.451  -2.619  -0.991  1.00  0.00    -0.331 N 
ATOM     30  H32 UNL     1       5.384  -2.188  -0.069  1.00  0.00     0.178 HD
ATOM     31  H31 UNL     1       6.195  -3.313  -0.924  1.00  0.00     0.178 HD
ATOM     32  H2  UNL     1       4.601  -2.413  -2.547  1.00  0.00     0.207 HD
ENDBRANCH  26  28
ENDBRANCH   2  26
TORSDOF 11
