REMARK  2 active torsions:
REMARK  status: ('A' for Active; 'I' for Inactive)
REMARK    1  A    between atoms: C5_6  and  S1_7 
REMARK    2  A    between atoms: S1_7  and  C6_8 
ROOT
HETATM    1  C6  UNL     1       1.687   0.636  -0.148  1.00  0.00     0.136 C 
HETATM    2  N1  UNL     1       1.787  -0.399  -0.878  1.00  0.00    -0.369 N 
ATOM      3  H1  UNL     1       0.991  -0.898  -1.275  1.00  0.00     0.161 HD
HETATM    4  C7  UNL     1       3.167  -0.785  -1.079  1.00  0.00     0.141 C 
HETATM    5  C8  UNL     1       3.889  -0.020  -0.019  1.00  0.00     0.141 C 
HETATM    6  N2  UNL     1       2.974   1.095   0.246  1.00  0.00    -0.369 N 
ATOM      7  H2  UNL     1       3.211   2.009   0.632  1.00  0.00     0.161 HD
ENDROOT
BRANCH   1   8
HETATM    8  S1  UNL     1       0.184   1.493   0.382  1.00  0.00    -0.087 SA
BRANCH   8   9
HETATM    9  C5  UNL     1      -1.227   0.592  -0.334  1.00  0.00     0.089 C 
HETATM   10  C1  UNL     1      -2.537   1.193   0.025  1.00  0.00     0.184 C 
HETATM   11  F1  UNL     1      -3.150   1.606  -1.163  1.00  0.00    -0.248 F 
HETATM   12  C2  UNL     1      -3.395   0.095   0.596  1.00  0.00     0.038 C 
HETATM   13  C3  UNL     1      -2.656  -1.195   0.417  1.00  0.00     0.004 C 
HETATM   14  C4  UNL     1      -1.198  -0.802   0.291  1.00  0.00     0.018 C 
ENDBRANCH   8   9
ENDBRANCH   1   8
TORSDOF 2
