REMARK  1 active torsions:
REMARK  status: ('A' for Active; 'I' for Inactive)
REMARK    1  A    between atoms: C2_5  and  C3_6 
ROOT
HETATM    1  O1  UNL     1       3.944   1.535   1.250  1.00  0.00    -0.236 OA
HETATM    2  C1  UNL     1       3.194   0.633   0.739  1.00  0.00     0.388 A 
HETATM    3  N1  UNL     1       1.866   0.673   0.575  1.00  0.00    -0.289 N 
ATOM      4  H1  UNL     1       1.249   1.441   0.838  1.00  0.00     0.172 HD
HETATM    5  C2  UNL     1       1.494  -0.484   0.001  1.00  0.00     0.110 A 
HETATM    6  N2  UNL     1       2.618  -1.213  -0.175  1.00  0.00    -0.243 N 
ATOM      7  H2  UNL     1       2.677  -2.144  -0.588  1.00  0.00     0.196 HD
HETATM    8  O2  UNL     1       3.593  -0.519   0.273  1.00  0.00    -0.179 OA
ENDROOT
BRANCH   5   9
HETATM    9  C3  UNL     1       0.078  -0.861  -0.363  1.00  0.00     0.055 C 
HETATM   10  C4  UNL     1      -0.407   0.050  -1.420  1.00  0.00     0.012 C 
HETATM   11  C5  UNL     1      -1.366   1.100  -1.017  1.00  0.00     0.001 C 
HETATM   12  C6  UNL     1      -2.300   0.705   0.099  1.00  0.00     0.000 C 
HETATM   13  C7  UNL     1      -1.389   0.311   1.270  1.00  0.00     0.001 C 
HETATM   14  C8  UNL     1      -0.763  -1.000   0.844  1.00  0.00     0.012 C 
ENDBRANCH   5   9
TORSDOF 1
