REMARK  2 active torsions:
REMARK  status: ('A' for Active; 'I' for Inactive)
REMARK    1  A    between atoms: C2_2  and  O1_5 
REMARK    2  A    between atoms: O1_5  and  N1_6 
ROOT
HETATM    1  N1  UNL     1       1.114   0.882  -0.101  1.00  0.00    -0.249 N 
ATOM      2  H1  UNL     1       1.304   1.882  -0.168  1.00  0.00     0.196 HD
HETATM    3  C3  UNL     1      -0.034   0.523   0.307  1.00  0.00     0.097 C 
HETATM    4  C4  UNL     1      -0.212  -0.958   0.369  1.00  0.00     0.078 C 
HETATM    5  C5  UNL     1      -1.678  -1.321   0.139  1.00  0.00     0.007 C 
HETATM    6  C6  UNL     1      -2.202  -0.308  -0.872  1.00  0.00     0.002 C 
HETATM    7  C7  UNL     1      -3.088   0.698  -0.178  1.00  0.00     0.020 C 
HETATM    8  C8  UNL     1      -2.339   1.497   0.838  1.00  0.00     0.121 C 
HETATM    9  N2  UNL     1      -0.928   1.561   0.625  1.00  0.00    -0.378 N 
ATOM     10  H2  UNL     1      -0.511   2.488   0.716  1.00  0.00     0.160 HD
ENDROOT
BRANCH   1  11
HETATM   11  O1  UNL     1       2.118   0.014  -0.458  1.00  0.00    -0.203 OA
BRANCH  11  12
HETATM   12  C2  UNL     1       3.307   0.061   0.315  1.00  0.00     0.370 C 
HETATM   13  C1  UNL     1       4.328  -0.939  -0.178  1.00  0.00     0.128 C 
HETATM   14  F1  UNL     1       3.786   1.356   0.217  1.00  0.00    -0.174 F 
HETATM   15  F2  UNL     1       2.944  -0.238   1.618  1.00  0.00    -0.174 F 
ENDBRANCH  11  12
ENDBRANCH   1  11
TORSDOF 2
