REMARK  8 active torsions:
REMARK  status: ('A' for Active; 'I' for Inactive)
REMARK    1  A    between atoms: C2_4  and  N3_5 
REMARK    2  A    between atoms: N3_5  and  N4_6 
REMARK    3  A    between atoms: N3_5  and  O1_9 
REMARK    4  A    between atoms: C5_13  and  N5_14 
REMARK    5  A    between atoms: C6_19  and  C7_20 
REMARK    6  A    between atoms: C7_20  and  O3_22 
REMARK    7  A    between atoms: O3_22  and  N7_23 
REMARK    8  A    between atoms: N8_26  and  O4_27 
ROOT
HETATM    1  N1  UNL     1      -1.489   0.757  -3.900  1.00  0.00    -0.171 NA
HETATM    2  C1  UNL     1      -1.450   0.538  -2.758  1.00  0.00     0.192 C 
HETATM    3  N2  UNL     1      -1.427   0.271  -1.394  1.00  0.00    -0.211 N 
HETATM    4  C2  UNL     1      -2.522   0.048  -0.640  1.00  0.00     0.169 A 
HETATM    5  C3  UNL     1      -2.113  -0.182   0.667  1.00  0.00     0.073 A 
HETATM    6  C4  UNL     1      -0.741  -0.087   0.659  1.00  0.00     0.059 A 
HETATM    7  C5  UNL     1       0.229  -0.213   1.634  1.00  0.00     0.115 A 
HETATM    8  N6  UNL     1       1.512  -0.067   1.336  1.00  0.00    -0.321 N 
ATOM      9  H6  UNL     1       2.203  -0.167   2.080  1.00  0.00     0.169 HD
HETATM   10  C6  UNL     1       1.939   0.209   0.087  1.00  0.00     0.214 A 
HETATM   11  N8  UNL     1       1.004   0.333  -0.869  1.00  0.00    -0.183 N 
HETATM   12  C8  UNL     1      -0.314   0.194  -0.621  1.00  0.00     0.167 A 
ENDROOT
BRANCH   4  13
HETATM   13  N3  UNL     1      -3.858   0.045  -1.090  1.00  0.00    -0.152 N 
BRANCH  13  14
HETATM   14  N4  UNL     1      -4.912  -0.201  -0.207  1.00  0.00    -0.317 N 
ATOM     15  H42 UNL     1      -4.688  -0.379   0.772  1.00  0.00     0.179 HD
ATOM     16  H41 UNL     1      -5.879  -0.203  -0.533  1.00  0.00     0.179 HD
ENDBRANCH  13  14
BRANCH  13  17
HETATM   17  O1  UNL     1      -4.131   0.262  -2.283  1.00  0.00    -0.267 OA
ATOM     18  H1  UNL     1      -5.031   0.260  -2.586  1.00  0.00     0.247 HD
ENDBRANCH  13  17
ENDBRANCH   4  13
BRANCH  11  19
HETATM   19  O4  UNL     1       1.379   0.610  -2.148  1.00  0.00    -0.279 OA
ATOM     20  H4  UNL     1       0.718   0.698  -2.824  1.00  0.00     0.245 HD
ENDBRANCH  11  19
BRANCH   7  21
HETATM   21  N5  UNL     1      -0.108  -0.474   2.845  1.00  0.00    -0.385 N 
ATOM     22  H52 UNL     1      -1.096  -0.586   3.074  1.00  0.00     0.157 HD
ATOM     23  H51 UNL     1       0.608  -0.567   3.565  1.00  0.00     0.157 HD
ENDBRANCH   7  21
BRANCH  10  24
HETATM   24  C7  UNL     1       3.367   0.360  -0.188  1.00  0.00     0.351 C 
HETATM   25  O2  UNL     1       3.696   0.616  -1.374  1.00  0.00    -0.254 OA
BRANCH  24  26
HETATM   26  O3  UNL     1       4.339   0.238   0.765  1.00  0.00    -0.200 OA
BRANCH  26  27
HETATM   27  N7  UNL     1       5.691   0.377   0.527  1.00  0.00    -0.302 N 
ATOM     28  H72 UNL     1       5.967   0.585  -0.433  1.00  0.00     0.184 HD
ATOM     29  H71 UNL     1       6.416   0.286   1.238  1.00  0.00     0.184 HD
ENDBRANCH  26  27
ENDBRANCH  24  26
ENDBRANCH  10  24
TORSDOF 8
