REMARK  5 active torsions:
REMARK  status: ('A' for Active; 'I' for Inactive)
REMARK    1  A    between atoms: O1_2  and  C2_3 
REMARK    2  A    between atoms: C3_4  and  C4_5 
REMARK    3  A    between atoms: C5_8  and  N2_9 
REMARK    4  A    between atoms: C11_19  and  C12_20 
REMARK       I    between atoms: C12_20  and  N5_22 
REMARK    5  A    between atoms: N5_22  and  C13_24 
ROOT
HETATM    1  C2  UNL     1       0.928  -2.683  -0.967  1.00  0.00     0.091 A 
HETATM    2  C3  UNL     1       1.374  -1.427  -0.667  1.00  0.00     0.045 A 
HETATM    3  C10 UNL     1       0.465  -0.490  -0.252  1.00  0.00     0.038 A 
HETATM    4  C11 UNL     1      -0.905  -0.747  -0.118  1.00  0.00     0.067 A 
HETATM    5  C19 UNL     1      -1.313  -2.017  -0.430  1.00  0.00     0.093 A 
HETATM    6  C20 UNL     1      -0.417  -2.968  -0.846  1.00  0.00     0.013 A 
HETATM    7  C21 UNL     1      -1.188  -4.237  -1.102  1.00  0.00     0.071 C 
HETATM    8  C22 UNL     1      -2.589  -3.693  -1.287  1.00  0.00     0.180 C 
HETATM    9  O3  UNL     1      -2.602  -2.586  -0.401  1.00  0.00    -0.349 OA
ENDROOT
BRANCH   2  10
HETATM   10  C4  UNL     1       2.783  -1.056  -0.848  1.00  0.00     0.149 A 
HETATM   11  N1  UNL     1       3.282   0.116  -0.382  1.00  0.00    -0.173 N 
HETATM   12  C5  UNL     1       4.594   0.232  -0.637  1.00  0.00     0.696 A 
ATOM     13  H1  UNL     1       2.728   0.822   0.103  1.00  0.00     0.186 HD
HETATM   14  N3  UNL     1       4.919  -0.919  -1.291  1.00  0.00    -0.130 N 
HETATM   15  N4  UNL     1       3.810  -1.672  -1.403  1.00  0.00    -0.270 N 
ATOM     16  H3  UNL     1       5.846  -1.167  -1.637  1.00  0.00     0.205 HD
ATOM     17  H4  UNL     1       3.769  -2.587  -1.852  1.00  0.00     0.189 HD
BRANCH  12  18
HETATM   18  N2  UNL     1       5.475   1.297  -0.316  1.00  0.00    -0.216 N 
HETATM   19  C6  UNL     1       6.883   1.400  -0.606  1.00  0.00     0.141 C 
HETATM   20  C7  UNL     1       7.112   2.901  -0.767  1.00  0.00     0.022 C 
HETATM   21  C8  UNL     1       5.830   3.573  -0.385  1.00  0.00     0.022 C 
HETATM   22  C9  UNL     1       5.094   2.499   0.381  1.00  0.00     0.141 C 
ENDBRANCH  12  18
ENDBRANCH   2  10
BRANCH   1  23
HETATM   23  O1  UNL     1       1.744  -3.740  -1.391  1.00  0.00    -0.354 OA
HETATM   24  C1  UNL     1       2.212  -4.592  -0.326  1.00  0.00     0.210 C 
ENDBRANCH   1  23
BRANCH   4  25
HETATM   25  C12 UNL     1      -1.777   0.338   0.334  1.00  0.00     0.254 C 
HETATM   26  O2  UNL     1      -1.251   1.476   0.589  1.00  0.00    -0.268 OA
HETATM   27  N5  UNL     1      -3.159   0.167   0.493  1.00  0.00    -0.352 N 
ATOM     28  H5  UNL     1      -3.609  -0.727   0.297  1.00  0.00     0.163 HD
BRANCH  27  29
HETATM   29  C13 UNL     1      -3.939   1.338   0.957  1.00  0.00     0.087 C 
HETATM   30  C14 UNL     1      -4.576   1.043   2.278  1.00  0.00     0.025 C 
HETATM   31  C15 UNL     1      -5.359   2.270   2.692  1.00  0.00     0.005 C 
HETATM   32  C16 UNL     1      -6.509   2.431   1.758  1.00  0.00     0.037 C 
HETATM   33  C17 UNL     1      -6.337   1.834   0.409  1.00  0.00     0.172 C 
HETATM   34  F1  UNL     1      -7.061   2.621  -0.495  1.00  0.00    -0.249 F 
HETATM   35  C18 UNL     1      -4.931   1.776  -0.090  1.00  0.00     0.062 C 
ENDBRANCH  27  29
ENDBRANCH   4  25
TORSDOF 5
