REMARK  8 active torsions:
REMARK  status: ('A' for Active; 'I' for Inactive)
REMARK    1  A    between atoms: C7_7  and  C8_8 
REMARK    2  A    between atoms: C8_8  and  C11_11 
REMARK    3  A    between atoms: C11_11  and  O2_13 
REMARK    4  A    between atoms: O2_13  and  C12_14 
REMARK    5  A    between atoms: C12_14  and  C13_15 
REMARK    6  A    between atoms: C12_14  and  C14_18 
REMARK    7  A    between atoms: C19_24  and  O5_26 
REMARK    8  A    between atoms: C21_28  and  O6_29 
ROOT
HETATM    1  C12 UNL     1      -0.735   0.713   1.177  1.00  0.00     0.222 C 
ENDROOT
BRANCH   1   2
HETATM    2  O2  UNL     1       0.428   0.433   0.416  1.00  0.00    -0.306 OA
BRANCH   2   3
HETATM    3  C11 UNL     1       1.144   1.445  -0.193  1.00  0.00     0.272 C 
HETATM    4  O1  UNL     1       0.703   2.609  -0.020  1.00  0.00    -0.264 OA
BRANCH   3   5
HETATM    5  C8  UNL     1       2.357   1.278  -1.015  1.00  0.00     0.068 C 
HETATM    6  C9  UNL     1       2.027   0.415  -2.226  1.00  0.00     0.031 C 
HETATM    7  C10 UNL     1       2.718   2.645  -1.592  1.00  0.00     0.031 C 
BRANCH   5   8
HETATM    8  C7  UNL     1       3.496   0.657  -0.343  1.00  0.00    -0.039 A 
HETATM    9  C6  UNL     1       3.396  -0.475   0.423  1.00  0.00     0.015 A 
HETATM   10  C4  UNL     1       4.494  -1.053   1.058  1.00  0.00    -0.061 A 
HETATM   11  C3  UNL     1       5.722  -0.451   0.901  1.00  0.00     0.013 A 
HETATM   12  C5  UNL     1       4.298  -2.292   1.877  1.00  0.00     0.048 C 
HETATM   13  C2  UNL     1       5.867   0.687   0.141  1.00  0.00    -0.061 A 
HETATM   14  C1  UNL     1       7.214   1.318  -0.011  1.00  0.00     0.048 C 
HETATM   15  C23 UNL     1       4.759   1.215  -0.462  1.00  0.00     0.015 A 
ENDBRANCH   5   8
ENDBRANCH   3   5
ENDBRANCH   2   3
ENDBRANCH   1   2
BRANCH   1  16
HETATM   16  C13 UNL     1      -0.618   0.326   2.603  1.00  0.00     0.248 C 
HETATM   17  O3  UNL     1      -1.540   0.531   3.401  1.00  0.00    -0.277 OA
HETATM   18 CL1  UNL     1       0.797  -0.440   3.298  1.00  0.00    -0.041 Cl
ENDBRANCH   1  16
BRANCH   1  19
HETATM   19  C14 UNL     1      -1.961   0.121   0.529  1.00  0.00     0.026 C 
HETATM   20  C15 UNL     1      -1.940  -1.359   0.364  1.00  0.00     0.011 C 
HETATM   21  C16 UNL     1      -2.647  -1.731  -0.887  1.00  0.00     0.044 C 
HETATM   22  C17 UNL     1      -4.125  -1.692  -0.876  1.00  0.00     0.115 A 
HETATM   23  C18 UNL     1      -4.747  -1.596  -2.277  1.00  0.00     0.210 A 
HETATM   24  O4  UNL     1      -4.866  -2.707  -1.480  1.00  0.00    -0.372 OA
HETATM   25  C19 UNL     1      -4.779  -0.818   0.137  1.00  0.00     0.113 C 
HETATM   26  C20 UNL     1      -6.269  -0.748  -0.236  1.00  0.00     0.052 C 
HETATM   27  C21 UNL     1      -4.295   0.606   0.161  1.00  0.00     0.155 C 
HETATM   28  C22 UNL     1      -3.183   0.663   1.198  1.00  0.00     0.042 C 
BRANCH  25  29
HETATM   29  O5  UNL     1      -4.771  -1.402   1.425  1.00  0.00    -0.384 OA
ATOM     30  H5  UNL     1      -5.188  -0.844   2.071  1.00  0.00     0.210 HD
ENDBRANCH  25  29
BRANCH  27  31
HETATM   31  O6  UNL     1      -5.330   1.440   0.545  1.00  0.00    -0.392 OA
ATOM     32  H6  UNL     1      -5.024   2.339   0.560  1.00  0.00     0.210 HD
ENDBRANCH  27  31
ENDBRANCH   1  19
TORSDOF 8
