REMARK  3 active torsions:
REMARK  status: ('A' for Active; 'I' for Inactive)
REMARK    1  A    between atoms: N1_1  and  C1_4 
REMARK    2  A    between atoms: C2_7  and  C3_8 
REMARK    3  A    between atoms: C3_8  and  N3_9 
ROOT
HETATM    1  C3  UNL     1      -0.205  -1.413   0.205  1.00  0.00     0.217 C 
ENDROOT
BRANCH   1   2
HETATM    2  C2  UNL     1       1.167  -0.979  -0.118  1.00  0.00     0.131 A 
HETATM    3  N2  UNL     1       1.787  -1.011  -1.300  1.00  0.00    -0.177 N 
HETATM    4  C1  UNL     1       3.051  -0.514  -1.156  1.00  0.00     0.691 A 
ATOM      5  H2  UNL     1       1.381  -1.352  -2.171  1.00  0.00     0.185 HD
HETATM    6  N7  UNL     1       3.172  -0.187   0.130  1.00  0.00    -0.131 N 
HETATM    7  N6  UNL     1       2.037  -0.465   0.765  1.00  0.00    -0.273 N 
ATOM      8  H7  UNL     1       4.005   0.214   0.560  1.00  0.00     0.205 HD
ATOM      9  H6  UNL     1       1.858  -0.313   1.758  1.00  0.00     0.189 HD
BRANCH   4  10
HETATM   10  N1  UNL     1       3.891  -0.419  -2.127  1.00  0.00    -0.233 N 
ATOM     11  H12 UNL     1       3.798  -0.669  -3.111  1.00  0.00     0.174 HD
ATOM     12  H11 UNL     1       4.835  -0.048  -2.019  1.00  0.00     0.174 HD
ENDBRANCH   4  10
ENDBRANCH   1   2
BRANCH   1  13
HETATM   13  N3  UNL     1      -1.184  -0.353   0.058  1.00  0.00    -0.244 N 
HETATM   14  C4  UNL     1      -1.841  -0.107  -1.090  1.00  0.00     0.334 A 
HETATM   15  O1  UNL     1      -1.567  -0.856  -2.064  1.00  0.00    -0.246 OA
HETATM   16  N4  UNL     1      -2.749   0.877  -1.223  1.00  0.00    -0.260 N 
HETATM   17  C5  UNL     1      -3.021   1.657  -0.175  1.00  0.00     0.332 A 
ATOM     18  H4  UNL     1      -3.223   1.025  -2.114  1.00  0.00     0.175 HD
HETATM   19  O2  UNL     1      -3.874   2.579  -0.307  1.00  0.00    -0.246 OA
HETATM   20  N5  UNL     1      -2.377   1.436   0.996  1.00  0.00    -0.260 N 
HETATM   21  C6  UNL     1      -1.466   0.439   1.108  1.00  0.00     0.334 A 
ATOM     22  H5  UNL     1      -2.580   2.027   1.802  1.00  0.00     0.175 HD
HETATM   23  O3  UNL     1      -0.921   0.314   2.236  1.00  0.00    -0.246 OA
ENDBRANCH   1  13
TORSDOF 3
