REMARK  5 active torsions:
REMARK  status: ('A' for Active; 'I' for Inactive)
REMARK    1  A    between atoms: C5_7  and  C6_9 
REMARK    2  A    between atoms: C6_9  and  N1_10 
REMARK       I    between atoms: N1_10  and  C7_12 
REMARK    3  A    between atoms: C7_12  and  C8_14 
REMARK    4  A    between atoms: C8_14  and  N2_15 
REMARK    5  A    between atoms: N2_15  and  S1_17 
ROOT
HETATM    1  N1  UNL     1      -0.254  -0.351  -0.302  1.00  0.00    -0.356 N 
ATOM      2  H1  UNL     1      -0.426   0.644  -0.449  1.00  0.00     0.162 HD
HETATM    3  C7  UNL     1       1.069  -0.850   0.004  1.00  0.00     0.236 C 
HETATM    4  O1  UNL     1       1.231  -2.067   0.176  1.00  0.00    -0.272 OA
ENDROOT
BRANCH   1   5
HETATM    5  C6  UNL     1      -1.298  -1.299  -0.388  1.00  0.00     0.169 C 
BRANCH   5   6
HETATM    6  C5  UNL     1      -2.667  -0.887  -0.700  1.00  0.00     0.156 A 
HETATM    7  C2  UNL     1      -3.306   0.099   0.272  1.00  0.00     0.023 A 
HETATM    8  C1  UNL     1      -4.620  -0.350   0.870  1.00  0.00     0.021 C 
HETATM    9  C3  UNL     1      -2.456   1.006   1.103  1.00  0.00     0.021 C 
HETATM   10  C4  UNL     1      -3.211   0.348  -1.223  1.00  0.00     0.124 A 
HETATM   11 BR1  UNL     1      -4.994   0.269  -2.064  1.00  0.00    -0.068 Br
HETATM   12 BR2  UNL     1      -2.220   1.852  -1.833  1.00  0.00    -0.068 Br
HETATM   13  F1  UNL     1      -3.505  -2.016  -1.000  1.00  0.00    -0.238 F 
ENDBRANCH   5   6
ENDBRANCH   1   5
BRANCH   3  14
HETATM   14  C8  UNL     1       2.235   0.048   0.119  1.00  0.00     0.234 C 
BRANCH  14  15
HETATM   15  N2  UNL     1       3.426  -0.690   0.427  1.00  0.00    -0.311 N 
ATOM     16  H2  UNL     1       3.437  -1.703   0.546  1.00  0.00     0.172 HD
BRANCH  15  17
HETATM   17  S1  UNL     1       4.814   0.274   0.576  1.00  0.00     0.223 S 
HETATM   18  C9  UNL     1       5.221   1.140  -0.919  1.00  0.00     0.185 C 
HETATM   19  O2  UNL     1       4.751   1.258   1.681  1.00  0.00    -0.206 OA
HETATM   20  O3  UNL     1       5.986  -0.649   0.869  1.00  0.00    -0.206 OA
ENDBRANCH  15  17
ENDBRANCH  14  15
ENDBRANCH   3  14
TORSDOF 5
