REMARK  7 active torsions:
REMARK  status: ('A' for Active; 'I' for Inactive)
REMARK    1  A    between atoms: C2_2  and  N1_4 
REMARK    2  A    between atoms: N1_4  and  C4_6 
REMARK    3  A    between atoms: C4_6  and  C5_7 
REMARK    4  A    between atoms: C5_7  and  C8_10 
REMARK    5  A    between atoms: C8_10  and  N2_11 
REMARK    6  A    between atoms: N2_11  and  C9_13 
REMARK    7  A    between atoms: C10_16  and  N4_17 
ROOT
HETATM    1  C9  UNL     1       2.513   0.105  -0.282  1.00  0.00     0.136 A 
HETATM    2  N3  UNL     1       2.667   1.432  -0.163  1.00  0.00    -0.176 N 
ATOM      3  H3  UNL     1       1.908   2.032  -0.487  1.00  0.00     0.186 HD
HETATM    4  C10 UNL     1       3.767   2.026   0.360  1.00  0.00     0.679 A 
HETATM    5  N5  UNL     1       4.759   1.247   0.784  1.00  0.00    -0.176 N 
ATOM      6  H5  UNL     1       5.593   1.680   1.180  1.00  0.00     0.186 HD
HETATM    7  C11 UNL     1       4.695  -0.087   0.706  1.00  0.00     0.141 A 
HETATM    8  N6  UNL     1       5.720  -0.860   1.142  1.00  0.00    -0.337 N 
ATOM      9  H6  UNL     1       6.556  -0.431   1.539  1.00  0.00     0.168 HD
HETATM   10  C12 UNL     1       5.625  -2.194   1.047  1.00  0.00     0.184 A 
HETATM   11  N7  UNL     1       4.540  -2.798   0.529  1.00  0.00    -0.319 N 
ATOM     12  H7  UNL     1       4.502  -3.816   0.472  1.00  0.00     0.169 HD
HETATM   13  C13 UNL     1       3.489  -2.050   0.080  1.00  0.00     0.264 A 
HETATM   14  O1  UNL     1       2.501  -2.651  -0.396  1.00  0.00    -0.267 OA
HETATM   15  C14 UNL     1       3.562  -0.690   0.167  1.00  0.00     0.121 A 
ENDROOT
BRANCH   1  16
HETATM   16  N2  UNL     1       1.443  -0.454  -0.787  1.00  0.00    -0.374 N 
ATOM     17  H2  UNL     1       1.443  -1.473  -0.824  1.00  0.00     0.161 HD
BRANCH  16  18
HETATM   18  C8  UNL     1       0.301   0.181  -1.281  1.00  0.00     0.135 C 
BRANCH  18  19
HETATM   19  C5  UNL     1      -0.971  -0.008  -0.364  1.00  0.00     0.000 C 
HETATM   20  C6  UNL     1      -0.527   0.657   0.919  1.00  0.00     0.022 C 
HETATM   21  C7  UNL     1      -1.170  -1.461  -0.150  1.00  0.00     0.022 C 
BRANCH  19  22
HETATM   22  C4  UNL     1      -2.063   0.751  -1.036  1.00  0.00     0.066 C 
BRANCH  22  23
HETATM   23  N1  UNL     1      -3.226   1.025  -0.405  1.00  0.00    -0.398 N 
ATOM     24  H1  UNL     1      -3.313   2.015  -0.177  1.00  0.00     0.159 HD
BRANCH  23  25
HETATM   25  C2  UNL     1      -4.310   0.310   0.003  1.00  0.00     0.072 C 
HETATM   26  C1  UNL     1      -4.181  -0.684   1.097  1.00  0.00     0.031 C 
HETATM   27  C3  UNL     1      -5.060  -0.416  -1.129  1.00  0.00     0.031 C 
ENDBRANCH  23  25
ENDBRANCH  22  23
ENDBRANCH  19  22
ENDBRANCH  18  19
ENDBRANCH  16  18
ENDBRANCH   1  16
BRANCH   4  28
HETATM   28  N4  UNL     1       3.832   3.331   0.436  1.00  0.00    -0.234 N 
ATOM     29  H42 UNL     1       3.072   3.928   0.111  1.00  0.00     0.174 HD
ATOM     30  H41 UNL     1       4.660   3.778   0.830  1.00  0.00     0.174 HD
ENDBRANCH   4  28
TORSDOF 7
