REMARK  3 active torsions:
REMARK  status: ('A' for Active; 'I' for Inactive)
REMARK    1  A    between atoms: C4_6  and  N2_7 
REMARK    2  A    between atoms: C5_12  and  N4_13 
REMARK    3  A    between atoms: N4_13  and  C6_15 
ROOT
HETATM    1  C1  UNL     1      -4.389  -1.656  -1.380  1.00  0.00     0.021 C 
HETATM    2  C2  UNL     1      -3.409  -1.105  -0.945  1.00  0.00    -0.040 C 
HETATM    3  C3  UNL     1      -2.219  -0.437  -0.445  1.00  0.00     0.190 A 
HETATM    4  N1  UNL     1      -2.245   0.868  -0.114  1.00  0.00    -0.168 N 
ATOM      5  H1  UNL     1      -3.119   1.383  -0.221  1.00  0.00     0.186 HD
HETATM    6  C4  UNL     1      -1.156   1.523   0.355  1.00  0.00     0.692 A 
HETATM    7  N3  UNL     1      -0.013   0.823   0.488  1.00  0.00    -0.023 N 
ATOM      8  H3  UNL     1       0.819   1.296   0.840  1.00  0.00     0.203 HD
HETATM    9  C5  UNL     1       0.063  -0.481   0.171  1.00  0.00     0.694 A 
HETATM   10  N5  UNL     1      -1.057  -1.085  -0.294  1.00  0.00    -0.168 N 
ATOM     11  H5  UNL     1      -1.013  -2.074  -0.539  1.00  0.00     0.186 HD
ENDROOT
BRANCH   6  12
HETATM   12  N2  UNL     1      -1.193   2.771   0.669  1.00  0.00    -0.234 N 
ATOM     13  H22 UNL     1      -2.059   3.301   0.568  1.00  0.00     0.174 HD
ATOM     14  H21 UNL     1      -0.373   3.264   1.022  1.00  0.00     0.174 HD
ENDBRANCH   6  12
BRANCH   9  15
HETATM   15  N4  UNL     1       1.141  -1.158   0.291  1.00  0.00    -0.226 N 
ATOM     16  H4  UNL     1       1.123  -2.144   0.030  1.00  0.00     0.177 HD
BRANCH  15  17
HETATM   17  C6  UNL     1       2.380  -0.603   0.776  1.00  0.00     0.133 C 
HETATM   18  C7  UNL     1       3.046   0.274  -0.289  1.00  0.00     0.027 C 
ENDBRANCH  15  17
ENDBRANCH   9  15
TORSDOF 3
