REMARK  7 active torsions:
REMARK  status: ('A' for Active; 'I' for Inactive)
REMARK    1  A    between atoms: C3_3  and  S1_5 
REMARK    2  A    between atoms: S1_5  and  C5_6 
REMARK    3  A    between atoms: C6_9  and  C7_10 
REMARK    4  A    between atoms: C7_10  and  C8_11 
REMARK    5  A    between atoms: C10_15  and  N3_16 
REMARK    6  A    between atoms: C12_23  and  C13_24 
REMARK    7  A    between atoms: C15_26  and  N5_27 
ROOT
HETATM    1  C1  UNL     1       4.902   1.133  -1.852  1.00  0.00     0.013 C 
HETATM    2  C2  UNL     1       4.336   1.758  -0.980  1.00  0.00    -0.102 C 
HETATM    3  C3  UNL     1       3.681   2.515   0.077  1.00  0.00     0.129 C 
HETATM    4  C4  UNL     1       4.025   3.985  -0.102  1.00  0.00     0.035 C 
ENDROOT
BRANCH   3   5
HETATM    5  S1  UNL     1       1.899   2.351  -0.037  1.00  0.00    -0.077 SA
BRANCH   5   6
HETATM    6  C5  UNL     1       1.306   0.720   0.330  1.00  0.00     0.147 A 
HETATM    7  N1  UNL     1      -0.030   0.442   0.381  1.00  0.00    -0.339 N 
HETATM    8  C6  UNL     1      -0.472  -0.784   0.693  1.00  0.00     0.025 A 
ATOM      9  H1  UNL     1      -0.703   1.181   0.178  1.00  0.00     0.168 HD
HETATM   10  C12 UNL     1       0.440  -1.785   0.967  1.00  0.00     0.008 A 
HETATM   11  C15 UNL     1       1.789  -1.518   0.917  1.00  0.00     0.108 A 
HETATM   12  N6  UNL     1       2.182  -0.248   0.595  1.00  0.00    -0.323 N 
ATOM     13  H6  UNL     1       3.179  -0.035   0.557  1.00  0.00     0.169 HD
BRANCH   8  14
HETATM   14  C7  UNL     1      -1.887  -1.050   0.780  1.00  0.00     0.103 C 
BRANCH  14  15
HETATM   15  C8  UNL     1      -2.739  -0.179  -0.068  1.00  0.00     0.032 A 
HETATM   16  C9  UNL     1      -3.311  -0.640  -1.246  1.00  0.00     0.119 A 
HETATM   17  N2  UNL     1      -4.083   0.163  -2.003  1.00  0.00    -0.201 N 
HETATM   18  C10 UNL     1      -4.337   1.427  -1.666  1.00  0.00     0.678 A 
ATOM     19  H2  UNL     1      -4.487  -0.209  -2.863  1.00  0.00     0.183 HD
HETATM   20  N4  UNL     1      -3.801   1.926  -0.524  1.00  0.00    -0.156 N 
HETATM   21  C11 UNL     1      -3.026   1.136   0.245  1.00  0.00     0.267 A 
ATOM     22  H4  UNL     1      -3.983   2.891  -0.250  1.00  0.00     0.187 HD
HETATM   23  O1  UNL     1      -2.566   1.660   1.287  1.00  0.00    -0.267 OA
BRANCH  18  24
HETATM   24  N3  UNL     1      -5.086   2.186  -2.401  1.00  0.00    -0.234 N 
ATOM     25  H32 UNL     1      -5.489   1.811  -3.260  1.00  0.00     0.174 HD
ATOM     26  H31 UNL     1      -5.280   3.154  -2.143  1.00  0.00     0.174 HD
ENDBRANCH  18  24
ENDBRANCH  14  15
ENDBRANCH   8  14
BRANCH  10  27
HETATM   27  C13 UNL     1      -0.049  -3.110   1.287  1.00  0.00     0.040 C 
HETATM   28  C14 UNL     1      -0.404  -3.972   0.088  1.00  0.00     0.010 C 
ENDBRANCH  10  27
BRANCH  11  29
HETATM   29  N5  UNL     1       2.697  -2.394   1.152  1.00  0.00    -0.385 N 
ATOM     30  H52 UNL     1       2.404  -3.341   1.392  1.00  0.00     0.157 HD
ATOM     31  H51 UNL     1       3.697  -2.196   1.115  1.00  0.00     0.157 HD
ENDBRANCH  11  29
ENDBRANCH   5   6
ENDBRANCH   3   5
TORSDOF 7
