REMARK  4 active torsions:
REMARK  status: ('A' for Active; 'I' for Inactive)
REMARK    1  A    between atoms: O1_2  and  C2_3 
REMARK    2  A    between atoms: C2_3  and  N1_4 
REMARK    3  A    between atoms: C5_10  and  N2_11 
REMARK    4  A    between atoms: C6_15  and  N3_16 
ROOT
HETATM    1  C2  UNL     1       1.092  -0.109   0.495  1.00  0.00     0.225 C 
HETATM    2  C3  UNL     1       0.662  -1.320  -0.261  1.00  0.00     0.070 C 
HETATM    3  C4  UNL     1      -0.811  -1.506  -0.218  1.00  0.00     0.040 C 
HETATM    4  C5  UNL     1      -1.622  -0.284  -0.419  1.00  0.00     0.214 C 
HETATM    5  C6  UNL     1      -1.071   0.944   0.270  1.00  0.00     0.218 C 
HETATM    6  C7  UNL     1       0.368   1.085  -0.146  1.00  0.00     0.103 C 
ENDROOT
BRANCH   1   7
HETATM    7  O1  UNL     1       2.426   0.132   0.508  1.00  0.00    -0.359 OA
HETATM    8  C1  UNL     1       3.033   0.260  -0.711  1.00  0.00     0.204 C 
ENDBRANCH   1   7
BRANCH   1   9
HETATM    9  N1  UNL     1       0.622  -0.215   1.867  1.00  0.00    -0.047 N 
ATOM     10  H13 UNL     1       1.139  -0.912   2.403  1.00  0.00     0.278 HD
ATOM     11  H12 UNL     1       0.865   0.603   2.426  1.00  0.00     0.278 HD
ATOM     12  H11 UNL     1      -0.382  -0.396   1.857  1.00  0.00     0.278 HD
ENDBRANCH   1   9
BRANCH   5  13
HETATM   13  N3  UNL     1      -1.823   2.104  -0.111  1.00  0.00    -0.073 N 
ATOM     14  H33 UNL     1      -1.859   2.219  -1.124  1.00  0.00     0.274 HD
ATOM     15  H32 UNL     1      -2.821   1.985   0.062  1.00  0.00     0.274 HD
ATOM     16  H31 UNL     1      -1.451   2.932   0.354  1.00  0.00     0.274 HD
ENDBRANCH   5  13
BRANCH   4  17
HETATM   17  N2  UNL     1      -2.966  -0.498   0.133  1.00  0.00    -0.073 N 
ATOM     18  H23 UNL     1      -3.415  -1.328  -0.254  1.00  0.00     0.274 HD
ATOM     19  H22 UNL     1      -2.941  -0.789   1.110  1.00  0.00     0.274 HD
ATOM     20  H21 UNL     1      -3.525   0.344  -0.005  1.00  0.00     0.274 HD
ENDBRANCH   4  17
TORSDOF 4
