REMARK  3 active torsions:
REMARK  status: ('A' for Active; 'I' for Inactive)
REMARK    1  A    between atoms: N1_1  and  N2_4 
REMARK    2  A    between atoms: N3_6  and  C1_8 
REMARK    3  A    between atoms: C1_8  and  N4_9 
ROOT
HETATM    1  C1  UNL     1       0.699  -0.281  -0.061  1.00  0.00     0.213 C 
HETATM    2  C2  UNL     1      -0.067   1.011   0.138  1.00  0.00     0.067 C 
HETATM    3  C3  UNL     1      -1.484   0.623   0.505  1.00  0.00    -0.010 C 
HETATM    4  C4  UNL     1      -2.210   0.322  -0.768  1.00  0.00     0.005 C 
HETATM    5  C5  UNL     1      -1.401  -0.868  -1.294  1.00  0.00     0.009 C 
HETATM    6  C6  UNL     1      -0.455  -1.263  -0.202  1.00  0.00     0.044 C 
HETATM    7  C7  UNL     1      -1.251  -0.801   1.035  1.00  0.00     0.013 C 
ENDROOT
BRANCH   1   8
HETATM    8  N3  UNL     1       1.529  -0.267  -1.228  1.00  0.00    -0.286 N 
HETATM    9  N2  UNL     1       2.583   0.383  -1.274  1.00  0.00    -0.252 N 
ATOM     10  H2  UNL     1       3.105   0.331  -2.148  1.00  0.00     0.207 HD
ATOM     11  H3  UNL     1       1.244  -0.808  -2.045  1.00  0.00     0.184 HD
BRANCH   9  12
HETATM   12  N1  UNL     1       3.133   1.168  -0.283  1.00  0.00    -0.331 N 
ATOM     13  H12 UNL     1       2.596   1.207   0.583  1.00  0.00     0.178 HD
ATOM     14  H11 UNL     1       4.001   1.703  -0.321  1.00  0.00     0.178 HD
ENDBRANCH   9  12
ENDBRANCH   1   8
BRANCH   1  15
HETATM   15  N4  UNL     1       1.424  -0.643   1.124  1.00  0.00    -0.051 N 
ATOM     16  H43 UNL     1       1.903  -1.535   1.003  1.00  0.00     0.277 HD
ATOM     17  H42 UNL     1       2.235  -0.039   1.257  1.00  0.00     0.277 HD
ATOM     18  H41 UNL     1       0.833  -0.653   1.955  1.00  0.00     0.277 HD
ENDBRANCH   1  15
TORSDOF 3
