REMARK  12 active torsions:
REMARK  status: ('A' for Active; 'I' for Inactive)
REMARK    1  A    between atoms: S1_2  and  C2_3 
REMARK    2  A    between atoms: C2_3  and  C3_4 
REMARK    3  A    between atoms: C3_4  and  N1_5 
REMARK    4  A    between atoms: C4_6  and  N2_7 
REMARK    5  A    between atoms: N2_7  and  C5_9 
REMARK    6  A    between atoms: C5_9  and  C6_10 
REMARK    7  A    between atoms: C6_10  and  N3_11 
REMARK    8  A    between atoms: N3_11  and  N4_13 
REMARK    9  A    between atoms: C7_14  and  N5_15 
REMARK   10  A    between atoms: C10_29  and  C11_30 
REMARK   11  A    between atoms: C11_30  and  N10_31 
REMARK   12  A    between atoms: C11_30  and  O1_35 
ROOT
HETATM    1  N2  UNL     1      -0.014   0.052   0.335  1.00  0.00    -0.373 N 
ATOM      2  H2  UNL     1      -0.302   1.025   0.235  1.00  0.00     0.161 HD
ENDROOT
BRANCH   1   3
HETATM    3  C4  UNL     1      -1.018  -0.913   0.271  1.00  0.00     0.120 A 
HETATM    4  N1  UNL     1      -2.340  -0.654   0.041  1.00  0.00    -0.318 N 
HETATM    5  C10 UNL     1      -3.004  -1.813   0.069  1.00  0.00     0.142 A 
HETATM    6  N9  UNL     1      -2.101  -2.785   0.314  1.00  0.00    -0.348 N 
HETATM    7  C9  UNL     1      -0.872  -2.262   0.443  1.00  0.00     0.138 A 
ATOM      8  H9  UNL     1      -2.322  -3.778   0.390  1.00  0.00     0.166 HD
BRANCH   4   9
HETATM    9  C3  UNL     1      -2.903   0.637  -0.174  1.00  0.00     0.142 C 
BRANCH   9  10
HETATM   10  C2  UNL     1      -3.365   1.310   1.096  1.00  0.00     0.093 C 
BRANCH  10  11
HETATM   11  S1  UNL     1      -4.046   2.926   0.625  1.00  0.00    -0.172 SA
HETATM   12  C1  UNL     1      -2.727   4.004  -0.029  1.00  0.00     0.089 C 
ENDBRANCH  10  11
ENDBRANCH   9  10
ENDBRANCH   4   9
BRANCH   5  13
HETATM   13  C11 UNL     1      -4.451  -2.114  -0.124  1.00  0.00     0.385 C 
BRANCH  13  14
HETATM   14  N10 UNL     1      -5.028  -1.528  -1.289  1.00  0.00    -0.046 N 
ATOM     15 3H10 UNL     1      -4.872  -0.520  -1.294  1.00  0.00     0.277 HD
ATOM     16 2H10 UNL     1      -4.497  -1.792  -2.119  1.00  0.00     0.277 HD
ATOM     17 1H10 UNL     1      -6.018  -1.734  -1.421  1.00  0.00     0.277 HD
ENDBRANCH  13  14
BRANCH  13  18
HETATM   18  O1  UNL     1      -4.701  -3.474  -0.113  1.00  0.00    -0.364 OA
ATOM     19  H1  UNL     1      -5.623  -3.666  -0.236  1.00  0.00     0.212 HD
ENDBRANCH  13  18
ENDBRANCH   5  13
ENDBRANCH   1   3
BRANCH   1  20
HETATM   20  C5  UNL     1       1.394  -0.197   0.530  1.00  0.00     0.142 C 
BRANCH  20  21
HETATM   21  C6  UNL     1       2.065  -0.873  -0.640  1.00  0.00     0.161 C 
BRANCH  21  22
HETATM   22  N3  UNL     1       3.454  -1.062  -0.338  1.00  0.00    -0.299 N 
ATOM     23  H3  UNL     1       3.720  -2.015  -0.091  1.00  0.00     0.181 HD
BRANCH  22  24
HETATM   24  N4  UNL     1       4.483  -0.144  -0.333  1.00  0.00     0.087 N 
HETATM   25  C7  UNL     1       5.755  -0.419   0.075  1.00  0.00     0.727 A 
HETATM   26  N6  UNL     1       6.515   0.670  -0.080  1.00  0.00    -0.116 N 
HETATM   27  N7  UNL     1       5.769   1.623  -0.571  1.00  0.00    -0.116 N 
ATOM     28  H6  UNL     1       7.507   0.744   0.146  1.00  0.00     0.206 HD
HETATM   29  C8  UNL     1       4.484   1.121  -0.736  1.00  0.00     0.727 A 
ATOM     30  H7  UNL     1       6.076   2.570  -0.794  1.00  0.00     0.206 HD
HETATM   31  N8  UNL     1       3.600   1.887  -1.225  1.00  0.00    -0.231 N 
ATOM     32  H82 UNL     1       2.657   1.518  -1.346  1.00  0.00     0.174 HD
ATOM     33  H81 UNL     1       3.601   2.859  -1.535  1.00  0.00     0.174 HD
BRANCH  25  34
HETATM   34  N5  UNL     1       6.175  -1.539   0.539  1.00  0.00    -0.231 N 
ATOM     35  H52 UNL     1       5.595  -2.370   0.657  1.00  0.00     0.174 HD
ATOM     36  H51 UNL     1       7.126  -1.745   0.844  1.00  0.00     0.174 HD
ENDBRANCH  25  34
ENDBRANCH  22  24
ENDBRANCH  21  22
ENDBRANCH  20  21
ENDBRANCH   1  20
TORSDOF 12
