REMARK  5 active torsions:
REMARK  status: ('A' for Active; 'I' for Inactive)
REMARK    1  A    between atoms: C4_8  and  S1_9 
REMARK    2  A    between atoms: S1_9  and  C5_10 
REMARK    3  A    between atoms: C5_10  and  C7_12 
REMARK    4  A    between atoms: C8_13  and  C9_14 
REMARK    5  A    between atoms: C9_14  and  C10_15 
ROOT
HETATM    1  C9  UNL     1      -1.345  -0.064  -0.312  1.00  0.00    -0.016 C 
HETATM    2  C15 UNL     1      -1.901  -0.118  -1.756  1.00  0.00     0.041 C 
HETATM    3  C16 UNL     1      -1.534  -1.434  -2.414  1.00  0.00     0.233 C 
HETATM    4  N3  UNL     1      -2.425  -2.433  -1.917  1.00  0.00    -0.075 N 
ATOM      5  H31 UNL     1      -2.106  -3.376  -2.141  1.00  0.00     0.277 HD
ATOM      6  H32 UNL     1      -3.306  -2.449  -2.430  1.00  0.00     0.277 HD
HETATM    7  C17 UNL     1      -2.626  -2.254  -0.510  1.00  0.00     0.233 C 
HETATM    8  C18 UNL     1      -1.507  -1.481   0.153  1.00  0.00     0.041 C 
ENDROOT
BRANCH   1   9
HETATM    9  C8  UNL     1       0.054   0.391  -0.528  1.00  0.00    -0.019 C 
HETATM   10  C7  UNL     1       0.996   0.691   0.516  1.00  0.00    -0.015 C 
BRANCH  10  11
HETATM   11  C5  UNL     1       1.477  -0.287   1.500  1.00  0.00     0.072 C 
HETATM   12  C6  UNL     1       2.523   0.386   2.400  1.00  0.00     0.026 C 
BRANCH  11  13
HETATM   13  S1  UNL     1       2.364  -1.692   0.724  1.00  0.00    -0.102 SA
BRANCH  13  14
HETATM   14  C4  UNL     1       3.638  -1.091  -0.374  1.00  0.00     0.093 A 
HETATM   15  C2  UNL     1       4.948  -0.809  -0.066  1.00  0.00     0.040 A 
HETATM   16  C1  UNL     1       5.617  -0.938   1.248  1.00  0.00     0.071 C 
HETATM   17  N1  UNL     1       5.594  -0.373  -1.178  1.00  0.00    -0.354 N 
HETATM   18  C3  UNL     1       4.700  -0.377  -2.183  1.00  0.00     0.181 A 
ATOM     19  H1  UNL     1       6.573  -0.095  -1.240  1.00  0.00     0.166 HD
HETATM   20  N2  UNL     1       3.513  -0.812  -1.699  1.00  0.00    -0.345 N 
ATOM     21  H2  UNL     1       2.657  -0.915  -2.244  1.00  0.00     0.167 HD
ENDBRANCH  13  14
ENDBRANCH  11  13
ENDBRANCH  10  11
ENDBRANCH   1   9
BRANCH   1  22
HETATM   22  C10 UNL     1      -2.195   0.872   0.464  1.00  0.00    -0.002 C 
HETATM   23  C11 UNL     1      -2.350   2.240  -0.147  1.00  0.00     0.005 C 
HETATM   24  C12 UNL     1      -3.597   2.842   0.488  1.00  0.00     0.000 C 
HETATM   25  C13 UNL     1      -4.221   1.766   1.328  1.00  0.00     0.000 C 
HETATM   26  C14 UNL     1      -3.606   0.500   0.714  1.00  0.00     0.005 C 
ENDBRANCH   1  22
TORSDOF 5
