REMARK  7 active torsions:
REMARK  status: ('A' for Active; 'I' for Inactive)
REMARK    1  A    between atoms: C5_6  and  C6_7 
REMARK    2  A    between atoms: C6_7  and  N2_8 
REMARK    3  A    between atoms: C10_12  and  C11_13 
REMARK    4  A    between atoms: C12_14  and  C13_15 
REMARK    5  A    between atoms: C18_20  and  C19_21 
REMARK    6  A    between atoms: C19_21  and  C20_22 
REMARK    7  A    between atoms: C20_22  and  O1_23 
ROOT
HETATM    1  N2  UNL     1      -1.244   0.480   0.288  1.00  0.00     0.098 N 
HETATM    2  C7  UNL     1      -0.628  -0.721  -0.210  1.00  0.00     0.273 C 
HETATM    3  C8  UNL     1       0.012  -0.389  -1.538  1.00  0.00     0.031 C 
HETATM    4  C9  UNL     1       0.674   0.947  -1.493  1.00  0.00     0.012 C 
HETATM    5  C10 UNL     1       0.905   1.499  -0.118  1.00  0.00     0.041 C 
HETATM    6  C18 UNL     1      -0.244   1.311   0.836  1.00  0.00     0.233 C 
ENDROOT
BRANCH   1   7
HETATM    7  C6  UNL     1      -2.349   0.207   1.175  1.00  0.00     0.311 C 
BRANCH   7   8
HETATM    8  C5  UNL     1      -3.473  -0.526   0.545  1.00  0.00    -0.028 A 
HETATM    9  C4  UNL     1      -4.328  -1.240   1.374  1.00  0.00     0.009 A 
HETATM   10  C3  UNL     1      -5.395  -1.938   0.854  1.00  0.00     0.002 A 
HETATM   11  C2  UNL     1      -5.639  -1.944  -0.496  1.00  0.00     0.026 A 
HETATM   12  C1  UNL     1      -4.797  -1.238  -1.337  1.00  0.00     0.046 A 
HETATM   13  N1  UNL     1      -5.040  -1.235  -2.760  1.00  0.00    -0.102 NA
HETATM   14  C21 UNL     1      -3.741  -0.551  -0.796  1.00  0.00     0.035 A 
ENDBRANCH   7   8
ENDBRANCH   1   7
BRANCH   6  15
HETATM   15  C19 UNL     1      -0.719   2.575   1.475  1.00  0.00     0.062 C 
BRANCH  15  16
HETATM   16  C20 UNL     1      -1.463   3.534   0.635  1.00  0.00     0.166 C 
BRANCH  16  17
HETATM   17  O1  UNL     1      -0.823   4.050  -0.459  1.00  0.00    -0.401 OA
ATOM     18  H1  UNL     1      -1.302   4.667  -1.000  1.00  0.00     0.209 HD
ENDBRANCH  16  17
ENDBRANCH  15  16
ENDBRANCH   6  15
BRANCH   5  19
HETATM   19  C11 UNL     1       2.211   1.050   0.465  1.00  0.00    -0.024 C 
HETATM   20  C12 UNL     1       2.967   0.119  -0.047  1.00  0.00    -0.026 C 
BRANCH  20  21
HETATM   21  C13 UNL     1       4.244  -0.242   0.621  1.00  0.00     0.008 C 
HETATM   22  C14 UNL     1       5.335  -0.140  -0.421  1.00  0.00     0.008 C 
HETATM   23  C15 UNL     1       5.351  -1.472  -1.097  1.00  0.00     0.001 C 
HETATM   24  C16 UNL     1       4.506  -2.405  -0.277  1.00  0.00     0.001 C 
HETATM   25  C17 UNL     1       4.226  -1.715   1.025  1.00  0.00     0.008 C 
ENDBRANCH  20  21
ENDBRANCH   5  19
TORSDOF 7
