REMARK  7 active torsions:
REMARK  status: ('A' for Active; 'I' for Inactive)
REMARK    1  A    between atoms: N1_2  and  C3_4 
REMARK    2  A    between atoms: C3_4  and  C4_5 
REMARK    3  A    between atoms: C7_8  and  C8_9 
REMARK    4  A    between atoms: C8_9  and  N3_13 
REMARK    5  A    between atoms: N3_13  and  C9_15 
REMARK    6  A    between atoms: C9_15  and  C10_16 
REMARK    7  A    between atoms: C9_15  and  C16_22 
ROOT
HETATM    1  N3  UNL     1      -0.587   0.496  -0.588  1.00  0.00    -0.369 N 
ATOM      2  H3  UNL     1      -0.263   0.726  -1.528  1.00  0.00     0.161 HD
ENDROOT
BRANCH   1   3
HETATM    3  C8  UNL     1       0.424   0.392   0.368  1.00  0.00     0.129 C 
HETATM    4  N2  UNL     1       0.283   0.761   1.579  1.00  0.00    -0.383 N 
ATOM      5  H22 UNL     1       1.022   0.685   2.278  1.00  0.00     0.157 HD
ATOM      6  H21 UNL     1      -0.624   1.145   1.843  1.00  0.00     0.157 HD
BRANCH   3   7
HETATM    7  C7  UNL     1       1.741  -0.166  -0.015  1.00  0.00     0.118 A 
HETATM    8  C6  UNL     1       2.103  -0.623  -1.267  1.00  0.00     0.043 A 
HETATM    9  C5  UNL     1       3.397  -1.047  -1.176  1.00  0.00     0.037 A 
HETATM   10  C4  UNL     1       3.796  -0.841   0.124  1.00  0.00     0.082 A 
HETATM   11  O1  UNL     1       2.793  -0.327   0.753  1.00  0.00    -0.309 OA
BRANCH  10  12
HETATM   12  C3  UNL     1       5.150  -1.177   0.629  1.00  0.00     0.335 C 
BRANCH  12  13
HETATM   13  N1  UNL     1       6.073  -0.078   0.496  1.00  0.00     0.086 N 
HETATM   14  C1  UNL     1       6.237   0.334  -0.892  1.00  0.00     0.309 C 
HETATM   15  C2  UNL     1       7.385  -0.583   0.917  1.00  0.00     0.309 C 
ENDBRANCH  12  13
ENDBRANCH  10  12
ENDBRANCH   3   7
ENDBRANCH   1   3
BRANCH   1  16
HETATM   16  C9  UNL     1      -1.994   0.334  -0.467  1.00  0.00     0.091 C 
BRANCH  16  17
HETATM   17  C10 UNL     1      -2.637   1.261   0.529  1.00  0.00     0.009 C 
HETATM   18  C11 UNL     1      -2.347   2.704   0.083  1.00  0.00     0.007 C 
HETATM   19  C12 UNL     1      -3.489   3.634   0.435  1.00  0.00     0.000 C 
HETATM   20  C13 UNL     1      -4.701   3.389  -0.450  1.00  0.00     0.000 C 
HETATM   21  C14 UNL     1      -4.718   1.896  -0.730  1.00  0.00     0.000 C 
HETATM   22  C15 UNL     1      -4.133   1.150   0.464  1.00  0.00     0.007 C 
ENDBRANCH  16  17
BRANCH  16  23
HETATM   23  C16 UNL     1      -2.345  -1.094  -0.312  1.00  0.00     0.009 C 
HETATM   24  C17 UNL     1      -1.863  -1.911  -1.524  1.00  0.00     0.007 C 
HETATM   25  C18 UNL     1      -2.222  -3.321  -1.045  1.00  0.00     0.000 C 
HETATM   26  C19 UNL     1      -2.305  -3.259   0.466  1.00  0.00     0.000 C 
HETATM   27  C20 UNL     1      -1.730  -1.862   0.793  1.00  0.00     0.007 C 
ENDBRANCH  16  23
ENDBRANCH   1  16
TORSDOF 7
