REMARK  12 active torsions:
REMARK  status: ('A' for Active; 'I' for Inactive)
REMARK    1  A    between atoms: C6_6  and  C7_7 
REMARK    2  A    between atoms: C7_7  and  C8_8 
REMARK    3  A    between atoms: C8_8  and  C9_9 
REMARK    4  A    between atoms: C9_9  and  N1_10 
REMARK    5  A    between atoms: N1_10  and  C10_12 
REMARK    6  A    between atoms: C10_12  and  C11_13 
REMARK    7  A    between atoms: C11_13  and  C12_14 
REMARK    8  A    between atoms: C12_14  and  N2_15 
REMARK    9  A    between atoms: N2_15  and  C13_16 
REMARK   10  A    between atoms: N2_15  and  C17_20 
REMARK   11  A    between atoms: C13_16  and  C14_17 
REMARK   12  A    between atoms: C17_20  and  C18_21 
ROOT
HETATM    1  N1  UNL     1       0.923  -1.213  -1.163  1.00  0.00    -0.421 N 
ATOM      2  H1  UNL     1       0.995  -1.754  -2.025  1.00  0.00     0.153 HD
ENDROOT
BRANCH   1   3
HETATM    3  C9  UNL     1       1.346   0.138  -1.081  1.00  0.00     0.114 C 
BRANCH   3   4
HETATM    4  C8  UNL     1       2.576   0.366  -0.233  1.00  0.00     0.024 C 
BRANCH   4   5
HETATM    5  C7  UNL     1       3.764  -0.399  -0.776  1.00  0.00     0.040 C 
BRANCH   5   6
HETATM    6  C6  UNL     1       4.929  -0.112   0.087  1.00  0.00    -0.058 A 
HETATM    7  C5  UNL     1       5.247  -0.806   1.221  1.00  0.00     0.007 A 
HETATM    8  C4  UNL     1       6.351  -0.520   1.996  1.00  0.00     0.001 A 
HETATM    9  C3  UNL     1       7.179   0.514   1.616  1.00  0.00     0.007 A 
HETATM   10  C2  UNL     1       6.888   1.236   0.475  1.00  0.00    -0.061 A 
HETATM   11  C1  UNL     1       7.775   2.350   0.059  1.00  0.00     0.048 C 
HETATM   12  C21 UNL     1       5.778   0.935  -0.289  1.00  0.00     0.013 A 
ENDBRANCH   5   6
ENDBRANCH   4   5
ENDBRANCH   3   4
ENDBRANCH   1   3
BRANCH   1  13
HETATM   13  C10 UNL     1       0.390  -1.766   0.039  1.00  0.00     0.115 C 
BRANCH  13  14
HETATM   14  C11 UNL     1      -0.956  -1.137   0.407  1.00  0.00     0.049 C 
BRANCH  14  15
HETATM   15  C12 UNL     1      -1.947  -1.358  -0.676  1.00  0.00     0.274 C 
BRANCH  15  16
HETATM   16  N2  UNL     1      -3.274  -0.763  -0.425  1.00  0.00     0.089 N 
BRANCH  16  17
HETATM   17  C13 UNL     1      -3.203   0.639  -0.425  1.00  0.00     0.276 C 
BRANCH  17  18
HETATM   18  C14 UNL     1      -2.850   1.214  -1.799  1.00  0.00     0.006 C 
HETATM   19  C15 UNL     1      -3.827   0.862  -2.864  1.00  0.00     0.011 C 
HETATM   20  C16 UNL     1      -2.812   2.738  -1.615  1.00  0.00     0.011 C 
ENDBRANCH  17  18
ENDBRANCH  16  17
BRANCH  16  21
HETATM   21  C17 UNL     1      -3.813  -1.389   0.698  1.00  0.00     0.276 C 
BRANCH  21  22
HETATM   22  C18 UNL     1      -5.202  -1.143   1.155  1.00  0.00     0.006 C 
HETATM   23  C19 UNL     1      -5.367  -2.098   2.390  1.00  0.00     0.011 C 
HETATM   24  C20 UNL     1      -5.514   0.206   1.722  1.00  0.00     0.011 C 
ENDBRANCH  21  22
ENDBRANCH  16  21
ENDBRANCH  15  16
ENDBRANCH  14  15
ENDBRANCH  13  14
ENDBRANCH   1  13
TORSDOF 12
