REMARK  12 active torsions:
REMARK  status: ('A' for Active; 'I' for Inactive)
REMARK    1  A    between atoms: C2_2  and  N1_3 
REMARK    2  A    between atoms: N1_3  and  C3_5 
REMARK    3  A    between atoms: C3_5  and  C4_6 
REMARK    4  A    between atoms: C4_6  and  N2_7 
REMARK    5  A    between atoms: N2_7  and  C5_8 
REMARK    6  A    between atoms: N2_7  and  C15_18 
REMARK    7  A    between atoms: C5_8  and  C6_9 
REMARK    8  A    between atoms: C7_10  and  C9_12 
REMARK    9  A    between atoms: C9_12  and  C10_13 
REMARK   10  A    between atoms: C10_13  and  C11_14 
REMARK   11  A    between atoms: C11_14  and  C12_15 
REMARK   12  A    between atoms: C15_18  and  C16_19 
ROOT
HETATM    1  N2  UNL     1       2.330   0.177  -0.095  1.00  0.00    -0.364 N 
ENDROOT
BRANCH   1   2
HETATM    2  C4  UNL     1       2.519  -1.217  -0.130  1.00  0.00     0.083 C 
BRANCH   2   3
HETATM    3  C3  UNL     1       1.745  -2.075   0.794  1.00  0.00     0.163 C 
BRANCH   3   4
HETATM    4  N1  UNL     1       1.990  -3.460   0.609  1.00  0.00    -0.398 N 
ATOM      5  H1  UNL     1       1.248  -4.036   0.211  1.00  0.00     0.158 HD
BRANCH   4   6
HETATM    6  C2  UNL     1       3.190  -4.067   0.943  1.00  0.00     0.051 C 
HETATM    7  C1  UNL     1       4.419  -3.811   0.147  1.00  0.00     0.054 C 
ENDBRANCH   4   6
ENDBRANCH   3   4
ENDBRANCH   2   3
ENDBRANCH   1   2
BRANCH   1   8
HETATM    8  C5  UNL     1       1.166   0.773  -0.594  1.00  0.00     0.090 C 
BRANCH   8   9
HETATM    9  C6  UNL     1      -0.098   0.642   0.108  1.00  0.00     0.020 C 
HETATM   10  C7  UNL     1      -1.161   0.101  -0.439  1.00  0.00    -0.083 C 
HETATM   11  C8  UNL     1      -1.114  -0.414  -1.823  1.00  0.00     0.043 C 
BRANCH  10  12
HETATM   12  C9  UNL     1      -2.432   0.062   0.330  1.00  0.00     0.034 C 
BRANCH  12  13
HETATM   13  C10 UNL     1      -3.542   0.773  -0.427  1.00  0.00     0.005 C 
BRANCH  13  14
HETATM   14  C11 UNL     1      -4.807   0.813   0.343  1.00  0.00     0.004 C 
BRANCH  14  15
HETATM   15  C12 UNL     1      -5.291  -0.559   0.712  1.00  0.00    -0.023 C 
HETATM   16  C13 UNL     1      -5.551  -1.427  -0.475  1.00  0.00     0.009 C 
HETATM   17  C14 UNL     1      -6.627  -0.321   1.454  1.00  0.00     0.009 C 
ENDBRANCH  14  15
ENDBRANCH  13  14
ENDBRANCH  12  13
ENDBRANCH  10  12
ENDBRANCH   8   9
ENDBRANCH   1   8
BRANCH   1  18
HETATM   18  C15 UNL     1       3.516   0.887  -0.445  1.00  0.00     0.165 C 
BRANCH  18  19
HETATM   19  C16 UNL     1       3.417   2.339  -0.260  1.00  0.00    -0.040 A 
HETATM   20  C17 UNL     1       3.147   2.905   0.982  1.00  0.00     0.009 A 
HETATM   21  C18 UNL     1       3.050   4.260   1.171  1.00  0.00     0.001 A 
HETATM   22  C19 UNL     1       3.217   5.133   0.118  1.00  0.00     0.000 A 
HETATM   23  C20 UNL     1       3.487   4.595  -1.127  1.00  0.00     0.001 A 
HETATM   24  C21 UNL     1       3.584   3.217  -1.301  1.00  0.00     0.009 A 
ENDBRANCH  18  19
ENDBRANCH   1  18
TORSDOF 12
