REMARK  1 active torsions:
REMARK  status: ('A' for Active; 'I' for Inactive)
REMARK    1  A    between atoms: C1_2  and  N1_3 
ROOT
HETATM    1  N1  UNL     1       0.788  -0.525   0.165  1.00  0.00    -0.254 NA
HETATM    2  C2  UNL     1       0.031  -0.632  -1.090  1.00  0.00     0.104 C 
HETATM    3  C3  UNL     1      -1.130   0.282  -0.865  1.00  0.00     0.028 C 
HETATM    4  C4  UNL     1      -1.902  -0.280   0.332  1.00  0.00     0.240 C 
HETATM    5  N2  UNL     1      -1.055  -0.009   1.495  1.00  0.00    -0.058 N 
ATOM      6  H21 UNL     1      -0.924  -0.813   2.109  1.00  0.00     0.279 HD
ATOM      7  H22 UNL     1      -1.488   0.598   2.191  1.00  0.00     0.279 HD
HETATM    8  C5  UNL     1       0.186   0.519   0.936  1.00  0.00     0.265 C 
HETATM    9  C6  UNL     1      -0.421   1.437  -0.141  1.00  0.00     0.056 C 
ENDROOT
BRANCH   1  10
HETATM   10  C1  UNL     1       2.180  -0.389  -0.070  1.00  0.00     0.147 C 
HETATM   11 CL1  UNL     1       2.812   1.235   0.042  1.00  0.00    -0.084 Cl
ENDBRANCH   1  10
TORSDOF 1
