REMARK  6 active torsions:
REMARK  status: ('A' for Active; 'I' for Inactive)
REMARK    1  A    between atoms: C2_2  and  C3_3 
REMARK    2  A    between atoms: C3_3  and  C4_4 
REMARK    3  A    between atoms: C4_4  and  C5_5 
REMARK    4  A    between atoms: C5_5  and  C6_6 
REMARK    5  A    between atoms: C6_6  and  C7_7 
REMARK    6  A    between atoms: C7_7  and  N1_8 
ROOT
HETATM    1  C5  UNL     1       0.551  -0.906   0.339  1.00  0.00    -0.039 A 
HETATM    2  C8  UNL     1       0.908  -2.070  -0.546  1.00  0.00     0.010 A 
HETATM    3  C9  UNL     1       0.967  -2.307   0.894  1.00  0.00     0.010 A 
ENDROOT
BRANCH   1   4
HETATM    4  C4  UNL     1      -0.887  -0.621   0.584  1.00  0.00     0.013 C 
BRANCH   4   5
HETATM    5  C3  UNL     1      -1.601   0.337  -0.292  1.00  0.00     0.027 C 
BRANCH   5   6
HETATM    6  C2  UNL     1      -3.060   0.387   0.144  1.00  0.00    -0.037 C 
HETATM    7  C1  UNL     1      -3.636   1.500   0.561  1.00  0.00     0.007 C 
ENDBRANCH   5   6
ENDBRANCH   4   5
ENDBRANCH   1   4
BRANCH   1   8
HETATM    8  C6  UNL     1       1.622   0.139   0.412  1.00  0.00     0.036 C 
BRANCH   8   9
HETATM    9  C7  UNL     1       1.579   1.290  -0.497  1.00  0.00     0.230 C 
BRANCH   9  10
HETATM   10  N1  UNL     1       2.819   2.081  -0.197  1.00  0.00    -0.079 N 
ATOM     11  H13 UNL     1       2.915   2.337   0.786  1.00  0.00     0.274 HD
ATOM     12  H12 UNL     1       3.679   1.537  -0.263  1.00  0.00     0.274 HD
ATOM     13  H11 UNL     1       2.789   2.881  -0.829  1.00  0.00     0.274 HD
ENDBRANCH   9  10
ENDBRANCH   8   9
ENDBRANCH   1   8
TORSDOF 6
