REMARK  11 active torsions:
REMARK  status: ('A' for Active; 'I' for Inactive)
REMARK    1  A    between atoms: C2_2  and  C3_3 
REMARK    2  A    between atoms: C3_3  and  N1_4 
REMARK    3  A    between atoms: N1_4  and  C4_5 
REMARK       I    between atoms: N1_4  and  C17_26 
REMARK    4  A    between atoms: C4_5  and  C5_6 
REMARK       I    between atoms: C5_6  and  N2_8 
REMARK    5  A    between atoms: N2_8  and  C6_10 
REMARK    6  A    between atoms: C11_15  and  S1_16 
REMARK    7  A    between atoms: S1_16  and  C12_17 
REMARK    8  A    between atoms: C12_17  and  C13_18 
REMARK       I    between atoms: C13_18  and  N3_20 
REMARK    9  A    between atoms: C17_26  and  C18_28 
REMARK   10  A    between atoms: C18_28  and  C19_29 
REMARK   11  A    between atoms: C19_29  and  C20_30 
REMARK       I    between atoms: C20_30  and  N5_32 
ROOT
HETATM    1  C13 UNL     1      -5.222   0.530   3.087  1.00  0.00     0.240 C 
HETATM    2  O2  UNL     1      -6.043   1.227   2.501  1.00  0.00    -0.272 OA
HETATM    3  N3  UNL     1      -5.796  -0.633   3.763  1.00  0.00    -0.263 N 
ATOM      4  H3  UNL     1      -5.190  -1.272   4.278  1.00  0.00     0.181 HD
HETATM    5  C14 UNL     1      -7.160  -0.870   3.707  1.00  0.00     0.184 C 
HETATM    6  N4  UNL     1      -8.312  -1.068   3.673  1.00  0.00    -0.172 NA
ENDROOT
BRANCH   1   7
HETATM    7  C12 UNL     1      -3.770   0.718   3.188  1.00  0.00     0.183 C 
BRANCH   7   8
HETATM    8  S1  UNL     1      -3.099   2.087   2.332  1.00  0.00    -0.119 SA
BRANCH   8   9
HETATM    9  C11 UNL     1      -3.123   2.082   0.575  1.00  0.00     0.015 A 
HETATM   10  C9  UNL     1      -4.051   2.777  -0.138  1.00  0.00    -0.044 A 
HETATM   11  C8  UNL     1      -4.048   2.656  -1.512  1.00  0.00     0.010 A 
HETATM   12  C10 UNL     1      -5.041   3.735   0.471  1.00  0.00     0.049 C 
HETATM   13  C7  UNL     1      -3.120   1.845  -2.177  1.00  0.00     0.031 A 
HETATM   14  C6  UNL     1      -2.171   1.135  -1.477  1.00  0.00     0.042 A 
HETATM   15  C15 UNL     1      -2.213   1.286  -0.101  1.00  0.00    -0.018 A 
HETATM   16  C16 UNL     1      -1.222   0.558   0.720  1.00  0.00     0.052 C 
BRANCH  14  17
HETATM   17  N2  UNL     1      -1.214   0.283  -2.042  1.00  0.00    -0.325 N 
HETATM   18  C5  UNL     1      -0.951  -0.019  -3.377  1.00  0.00     0.240 C 
HETATM   19  O1  UNL     1      -1.658   0.547  -4.282  1.00  0.00    -0.271 OA
ATOM     20  H2  UNL     1      -0.613  -0.193  -1.369  1.00  0.00     0.169 HD
BRANCH  18  21
HETATM   21  C4  UNL     1       0.089  -0.940  -3.841  1.00  0.00     0.228 C 
BRANCH  21  22
HETATM   22  N1  UNL     1       0.847  -1.653  -2.876  1.00  0.00    -0.343 N 
HETATM   23  C17 UNL     1       1.944  -0.965  -2.241  1.00  0.00     0.220 C 
HETATM   24  O3  UNL     1       2.118   0.233  -2.490  1.00  0.00    -0.273 OA
BRANCH  22  25
HETATM   25  C3  UNL     1       0.639  -3.051  -2.606  1.00  0.00     0.126 C 
BRANCH  25  26
HETATM   26  C2  UNL     1      -0.224  -3.498  -1.515  1.00  0.00     0.015 C 
HETATM   27  C1  UNL     1      -1.672  -3.191  -1.583  1.00  0.00     0.006 C 
ENDBRANCH  25  26
ENDBRANCH  22  25
BRANCH  23  28
HETATM   28  C18 UNL     1       2.854  -1.661  -1.307  1.00  0.00     0.112 C 
BRANCH  28  29
HETATM   29  C19 UNL     1       4.014  -0.785  -0.886  1.00  0.00     0.112 C 
BRANCH  29  30
HETATM   30  C20 UNL     1       4.850  -1.581   0.057  1.00  0.00     0.223 C 
HETATM   31  O4  UNL     1       4.395  -2.679   0.549  1.00  0.00    -0.273 OA
HETATM   32  N5  UNL     1       6.141  -1.237   0.480  1.00  0.00    -0.312 N 
HETATM   33  C21 UNL     1       6.506  -0.242   1.181  1.00  0.00     0.130 A 
ATOM     34  H5  UNL     1       6.886  -1.869   0.186  1.00  0.00     0.170 HD
HETATM   35  C22 UNL     1       5.729   0.758   1.709  1.00  0.00     0.084 A 
HETATM   36  N6  UNL     1       7.782   0.062   1.569  1.00  0.00    -0.245 N 
HETATM   37  C23 UNL     1       6.574   1.626   2.395  1.00  0.00     0.076 A 
HETATM   38  C24 UNL     1       6.103   2.842   3.108  1.00  0.00     0.079 C 
HETATM   39  O5  UNL     1       7.769   1.151   2.268  1.00  0.00    -0.241 OA
ATOM     40  H6  UNL     1       8.613  -0.484   1.343  1.00  0.00     0.196 HD
ENDBRANCH  29  30
ENDBRANCH  28  29
ENDBRANCH  23  28
ENDBRANCH  21  22
ENDBRANCH  18  21
ENDBRANCH  14  17
ENDBRANCH   8   9
ENDBRANCH   7   8
ENDBRANCH   1   7
TORSDOF 11
