REMARK  12 active torsions:
REMARK  status: ('A' for Active; 'I' for Inactive)
REMARK    1  A    between atoms: C2_2  and  N1_3 
REMARK    2  A    between atoms: N1_3  and  C3_4 
REMARK    3  A    between atoms: N1_3  and  C5_6 
REMARK    4  A    between atoms: C5_6  and  C6_7 
REMARK    5  A    between atoms: C6_7  and  N2_8 
REMARK    6  A    between atoms: C9_14  and  N4_15 
REMARK    7  A    between atoms: N4_15  and  C10_17 
REMARK    8  A    between atoms: C10_17  and  C11_18 
REMARK    9  A    between atoms: C11_18  and  O1_19 
REMARK   10  A    between atoms: C13_23  and  N6_24 
REMARK   11  A    between atoms: N6_24  and  C14_26 
REMARK   12  A    between atoms: C17_29  and  N7_30 
ROOT
HETATM    1  N2  UNL     1      -4.531  -0.189   0.000  1.00  0.00    -0.224 N 
ATOM      2  H2  UNL     1      -5.043  -1.005   0.336  1.00  0.00     0.177 HD
HETATM    3  C7  UNL     1      -3.254  -0.249   0.053  1.00  0.00     0.678 A 
HETATM    4  N3  UNL     1      -2.722  -1.404   0.554  1.00  0.00    -0.186 N 
ATOM      5  H3  UNL     1      -3.340  -2.157   0.857  1.00  0.00     0.184 HD
HETATM    6  C8  UNL     1      -1.395  -1.554   0.649  1.00  0.00     0.122 A 
HETATM    7  C9  UNL     1      -0.845  -2.756   1.169  1.00  0.00     0.150 A 
HETATM    8  N5  UNL     1       0.490  -2.839   1.234  1.00  0.00    -0.174 N 
ATOM      9  H5  UNL     1       0.921  -3.687   1.602  1.00  0.00     0.186 HD
HETATM   10  C13 UNL     1       1.267  -1.833   0.827  1.00  0.00     0.684 A 
HETATM   11  N8  UNL     1       0.799  -0.690   0.333  1.00  0.00    -0.188 N 
ATOM     12  H8  UNL     1       1.424   0.057   0.031  1.00  0.00     0.184 HD
HETATM   13  C26 UNL     1      -0.537  -0.567   0.251  1.00  0.00     0.096 A 
HETATM   14  C27 UNL     1      -1.129   0.591  -0.253  1.00  0.00     0.138 A 
HETATM   15  N9  UNL     1      -2.453   0.741  -0.347  1.00  0.00    -0.200 N 
ATOM     16  H9  UNL     1      -2.848   1.604  -0.721  1.00  0.00     0.183 HD
ENDROOT
BRANCH  10  17
HETATM   17  N6  UNL     1       2.572  -1.984   0.922  1.00  0.00    -0.192 N 
ATOM     18  H6  UNL     1       2.950  -2.853   1.299  1.00  0.00     0.184 HD
BRANCH  17  19
HETATM   19  C14 UNL     1       3.461  -0.957   0.509  1.00  0.00     0.049 A 
HETATM   20  C15 UNL     1       3.875  -0.050   1.467  1.00  0.00     0.032 A 
HETATM   21  C16 UNL     1       4.733   0.952   1.104  1.00  0.00     0.032 A 
HETATM   22  C17 UNL     1       5.235   1.127  -0.204  1.00  0.00     0.036 A 
HETATM   23  C23 UNL     1       4.809   0.214  -1.130  1.00  0.00    -0.033 A 
HETATM   24  C24 UNL     1       5.255   0.224  -2.546  1.00  0.00     0.050 C 
HETATM   25  C25 UNL     1       3.928  -0.820  -0.774  1.00  0.00     0.039 A 
BRANCH  22  26
HETATM   26  N7  UNL     1       6.093   2.228  -0.458  1.00  0.00    -0.380 N 
HETATM   27  C18 UNL     1       7.016   2.607   0.625  1.00  0.00     0.123 C 
HETATM   28  C19 UNL     1       8.419   2.836   0.148  1.00  0.00     0.020 C 
HETATM   29  C20 UNL     1       8.518   2.449  -1.300  1.00  0.00     0.003 C 
HETATM   30  C21 UNL     1       7.537   3.277  -2.110  1.00  0.00     0.020 C 
HETATM   31  C22 UNL     1       6.123   3.056  -1.622  1.00  0.00     0.123 C 
ENDBRANCH  22  26
ENDBRANCH  17  19
ENDBRANCH  10  17
BRANCH   7  32
HETATM   32  N4  UNL     1      -1.646  -3.624   1.517  1.00  0.00    -0.351 N 
ATOM     33  H4  UNL     1      -2.582  -3.259   1.342  1.00  0.00     0.166 HD
BRANCH  32  34
HETATM   34  C10 UNL     1      -1.793  -4.891   2.048  1.00  0.00     0.088 C 
BRANCH  34  35
HETATM   35  C11 UNL     1      -0.580  -5.724   2.321  1.00  0.00     0.211 C 
BRANCH  35  36
HETATM   36  O1  UNL     1      -0.930  -6.938   2.843  1.00  0.00    -0.391 OA
HETATM   37  C12 UNL     1      -1.730  -7.743   2.083  1.00  0.00     0.201 C 
ENDBRANCH  35  36
ENDBRANCH  34  35
ENDBRANCH  32  34
ENDBRANCH   7  32
BRANCH   1  38
HETATM   38  C6  UNL     1      -5.318   0.917  -0.487  1.00  0.00     0.168 C 
BRANCH  38  39
HETATM   39  C5  UNL     1      -6.705   0.904   0.096  1.00  0.00     0.292 C 
BRANCH  39  40
HETATM   40  N1  UNL     1      -7.546   1.951  -0.337  1.00  0.00     0.089 N 
BRANCH  40  41
HETATM   41  C2  UNL     1      -7.181   3.259   0.108  1.00  0.00     0.268 C 
HETATM   42  C1  UNL     1      -6.889   3.347   1.580  1.00  0.00     0.037 C 
ENDBRANCH  40  41
BRANCH  40  43
HETATM   43  C3  UNL     1      -7.814   1.986  -1.752  1.00  0.00     0.268 C 
HETATM   44  C4  UNL     1      -8.213   0.671  -2.338  1.00  0.00     0.037 C 
ENDBRANCH  40  43
ENDBRANCH  39  40
ENDBRANCH  38  39
ENDBRANCH   1  38
TORSDOF 12
