REMARK  13 active torsions:
REMARK  status: ('A' for Active; 'I' for Inactive)
REMARK    1  A    between atoms: S1_2  and  C2_3 
REMARK    2  A    between atoms: C2_3  and  C3_4 
REMARK    3  A    between atoms: C3_4  and  C11_14 
REMARK    4  A    between atoms: N1_5  and  C4_7 
REMARK       I    between atoms: C11_14  and  N2_16 
REMARK    5  A    between atoms: C15_20  and  C16_21 
REMARK       I    between atoms: C16_21  and  N3_23 
REMARK    6  A    between atoms: N3_23  and  C17_24 
REMARK    7  A    between atoms: C17_24  and  C18_25 
REMARK    8  A    between atoms: C18_25  and  C19_26 
REMARK    9  A    between atoms: C19_26  and  O3_27 
REMARK   10  A    between atoms: C19_26  and  N4_29 
REMARK   11  A    between atoms: N4_29  and  C20_31 
REMARK   12  A    between atoms: C20_31  and  C21_32 
REMARK   13  A    between atoms: C21_32  and  C22_33 
ROOT
HETATM    1  C11 UNL     1      -3.251  -0.225  -1.667  1.00  0.00     0.267 C 
HETATM    2  O1  UNL     1      -2.853  -0.796  -2.749  1.00  0.00    -0.266 OA
HETATM    3  N2  UNL     1      -2.303   0.056  -0.691  1.00  0.00    -0.332 N 
HETATM    4  C12 UNL     1      -2.533   0.901   0.525  1.00  0.00     0.127 C 
HETATM    5  C13 UNL     1      -1.271   1.789   0.449  1.00  0.00     0.022 C 
HETATM    6  C14 UNL     1      -0.269   0.997  -0.420  1.00  0.00     0.038 C 
HETATM    7  C15 UNL     1      -0.948  -0.345  -0.426  1.00  0.00     0.194 C 
ENDROOT
BRANCH   7   8
HETATM    8  C16 UNL     1      -0.316  -1.427  -1.141  1.00  0.00     0.314 C 
HETATM    9  O2  UNL     1      -0.821  -2.115  -2.007  1.00  0.00    -0.255 OA
HETATM   10  N3  UNL     1       1.075  -1.688  -0.733  1.00  0.00    -0.386 NA
BRANCH  10  11
HETATM   11  C17 UNL     1       2.278  -1.914  -0.381  1.00  0.00     0.167 C 
BRANCH  11  12
HETATM   12  C18 UNL     1       2.953  -1.043   0.726  1.00  0.00     0.143 C 
BRANCH  12  13
HETATM   13  C19 UNL     1       4.360  -1.504   0.864  1.00  0.00     0.117 C 
BRANCH  13  14
HETATM   14  O3  UNL     1       4.763  -2.308  -0.075  1.00  0.00    -0.349 OA
ATOM     15  H3  UNL     1       5.662  -2.603   0.013  1.00  0.00     0.219 HD
ENDBRANCH  13  14
BRANCH  13  16
HETATM   16  N4  UNL     1       5.270  -1.178   1.861  1.00  0.00    -0.374 N 
ATOM     17  H4  UNL     1       4.976  -0.570   2.625  1.00  0.00     0.161 HD
BRANCH  16  18
HETATM   18  C20 UNL     1       6.629  -1.684   1.839  1.00  0.00     0.121 C 
BRANCH  18  19
HETATM   19  C21 UNL     1       7.437  -1.197   0.683  1.00  0.00     0.024 C 
BRANCH  19  20
HETATM   20  C22 UNL     1       7.622   0.304   0.666  1.00  0.00    -0.010 C 
HETATM   21  C23 UNL     1       8.354   0.861   1.835  1.00  0.00     0.032 C 
HETATM   22  C24 UNL     1       9.811   1.185   1.500  1.00  0.00     0.232 C 
HETATM   23  N5  UNL     1      10.375   0.249   0.565  1.00  0.00    -0.075 N 
HETATM   24  C25 UNL     1       9.681   0.160  -0.682  1.00  0.00     0.232 C 
ATOM     25  H52 UNL     1      11.361   0.456   0.407  1.00  0.00     0.277 HD
ATOM     26  H51 UNL     1      10.455  -0.674   0.992  1.00  0.00     0.277 HD
HETATM   27  C26 UNL     1       8.293   0.705  -0.613  1.00  0.00     0.032 C 
ENDBRANCH  19  20
ENDBRANCH  18  19
ENDBRANCH  16  18
ENDBRANCH  13  16
ENDBRANCH  12  13
ENDBRANCH  11  12
ENDBRANCH  10  11
ENDBRANCH   7   8
BRANCH   1  28
HETATM   28  C3  UNL     1      -4.675   0.030  -1.647  1.00  0.00     0.083 C 
HETATM   29  N1  UNL     1      -5.221   0.559  -0.643  1.00  0.00    -0.383 N 
ATOM     30  H1  UNL     1      -4.575   0.782   0.114  1.00  0.00     0.160 HD
BRANCH  28  31
HETATM   31  C2  UNL     1      -5.487  -0.359  -2.852  1.00  0.00     0.136 C 
BRANCH  31  32
HETATM   32  S1  UNL     1      -5.240  -2.059  -3.351  1.00  0.00    -0.167 SA
HETATM   33  C1  UNL     1      -5.823  -3.278  -2.177  1.00  0.00     0.090 C 
ENDBRANCH  31  32
ENDBRANCH  28  31
BRANCH  29  34
HETATM   34  C4  UNL     1      -6.567   0.900  -0.375  1.00  0.00     0.085 C 
HETATM   35  C5  UNL     1      -6.911   2.352  -0.545  1.00  0.00     0.025 C 
HETATM   36  C6  UNL     1      -6.780   3.117   0.734  1.00  0.00     0.002 C 
HETATM   37  C7  UNL     1      -7.866   2.633   1.680  1.00  0.00     0.001 C 
HETATM   38  C8  UNL     1      -8.119   1.160   1.567  1.00  0.00     0.006 C 
HETATM   39  C9  UNL     1      -6.851   0.489   1.082  1.00  0.00     0.004 C 
HETATM   40  C10 UNL     1      -6.960  -1.006   1.100  1.00  0.00     0.012 C 
ENDBRANCH  29  34
ENDBRANCH   1  28
TORSDOF 13
