REMARK  12 active torsions:
REMARK  status: ('A' for Active; 'I' for Inactive)
REMARK    1  A    between atoms: C2_2  and  C3_3 
REMARK    2  A    between atoms: C4_6  and  O1_7 
REMARK    3  A    between atoms: C6_10  and  O2_11 
REMARK    4  A    between atoms: C12_20  and  C13_21 
REMARK    5  A    between atoms: C13_21  and  O5_22 
REMARK    6  A    between atoms: C16_27  and  C17_28 
REMARK       I    between atoms: C17_28  and  N2_30 
REMARK    7  A    between atoms: N2_30  and  C18_31 
REMARK    8  A    between atoms: N2_30  and  C22_35 
REMARK    9  A    between atoms: C19_32  and  C20_33 
REMARK   10  A    between atoms: C22_35  and  C23_36 
REMARK   11  A    between atoms: C23_36  and  C24_37 
REMARK   12  A    between atoms: C24_37  and  C25_38 
ROOT
HETATM    1  C3  UNL     1       2.341  -1.990   1.538  1.00  0.00     0.036 C 
HETATM    2  N1  UNL     1       3.486  -1.401   1.494  1.00  0.00    -0.355 N 
ATOM      3  H1  UNL     1       4.304  -2.009   1.528  1.00  0.00     0.162 HD
HETATM    4  C4  UNL     1       3.750   0.011   1.403  1.00  0.00     0.174 C 
HETATM    5  C5  UNL     1       4.511   0.253   0.165  1.00  0.00     0.091 C 
HETATM    6  C6  UNL     1       5.842   0.939   0.344  1.00  0.00     0.156 C 
HETATM    7  C7  UNL     1       6.258   1.051  -1.072  1.00  0.00    -0.059 C 
HETATM    8  C8  UNL     1       7.433   0.835  -1.567  1.00  0.00     0.017 C 
HETATM    9  C9  UNL     1       5.032   1.469  -1.792  1.00  0.00     0.051 C 
HETATM   10  C10 UNL     1       3.874   1.065  -0.903  1.00  0.00     0.101 C 
HETATM   11  C11 UNL     1       3.157   2.178  -0.283  1.00  0.00     0.265 C 
HETATM   12  O3  UNL     1       3.072   3.270  -0.895  1.00  0.00    -0.265 OA
HETATM   13  O4  UNL     1       2.560   2.084   0.962  1.00  0.00    -0.302 OA
HETATM   14  C12 UNL     1       2.622   0.895   1.751  1.00  0.00     0.151 C 
HETATM   15  C14 UNL     1       1.236   0.321   1.728  1.00  0.00     0.087 C 
HETATM   16  C15 UNL     1       0.419   0.989   0.601  1.00  0.00     0.182 C 
HETATM   17  O6  UNL     1      -0.863   0.575   0.541  1.00  0.00    -0.372 OA
HETATM   18  C16 UNL     1      -1.149  -0.708   0.776  1.00  0.00     0.237 C 
HETATM   19  C27 UNL     1       0.067  -1.574   0.903  1.00  0.00     0.024 C 
HETATM   20  C28 UNL     1       1.183  -1.116   1.410  1.00  0.00    -0.023 C 
ENDROOT
BRANCH  18  21
HETATM   21  C17 UNL     1      -2.061  -1.384  -0.160  1.00  0.00     0.260 C 
HETATM   22  O7  UNL     1      -2.172  -2.645   0.078  1.00  0.00    -0.269 OA
HETATM   23  N2  UNL     1      -2.809  -0.876  -1.247  1.00  0.00    -0.305 N 
BRANCH  23  24
HETATM   24  C18 UNL     1      -3.635  -1.836  -1.969  1.00  0.00     0.095 C 
HETATM   25  C19 UNL     1      -5.034  -2.044  -1.705  1.00  0.00    -0.009 C 
BRANCH  25  26
HETATM   26  C20 UNL     1      -5.611  -2.485  -0.431  1.00  0.00     0.024 C 
HETATM   27  C21 UNL     1      -5.304  -3.847   0.069  1.00  0.00     0.009 C 
ENDBRANCH  25  26
ENDBRANCH  23  24
BRANCH  23  28
HETATM   28  C22 UNL     1      -2.665   0.477  -1.697  1.00  0.00     0.072 C 
BRANCH  28  29
HETATM   29  C23 UNL     1      -3.372   1.615  -1.131  1.00  0.00     0.045 C 
BRANCH  29  30
HETATM   30  C24 UNL     1      -4.867   1.560  -1.215  1.00  0.00     0.005 C 
BRANCH  30  31
HETATM   31  C25 UNL     1      -5.421   2.871  -0.627  1.00  0.00    -0.004 C 
HETATM   32  C26 UNL     1      -4.896   4.033  -1.418  1.00  0.00     0.005 C 
ENDBRANCH  30  31
ENDBRANCH  29  30
ENDBRANCH  28  29
ENDBRANCH  23  28
ENDBRANCH  18  21
BRANCH   1  33
HETATM   33  C2  UNL     1       2.334  -3.417   1.638  1.00  0.00     0.019 C 
HETATM   34  C1  UNL     1       1.383  -4.285   1.788  1.00  0.00     0.013 C 
ENDBRANCH   1  33
BRANCH  14  35
HETATM   35  C13 UNL     1       2.821   1.394   3.197  1.00  0.00     0.208 C 
BRANCH  35  36
HETATM   36  O5  UNL     1       2.898   0.299   4.075  1.00  0.00    -0.398 OA
ATOM     37  H5  UNL     1       3.021   0.606   4.966  1.00  0.00     0.209 HD
ENDBRANCH  35  36
ENDBRANCH  14  35
BRANCH   4  38
HETATM   38  O1  UNL     1       4.761   0.183   2.447  1.00  0.00    -0.367 OA
ATOM     39  H1  UNL     1       4.935   1.115   2.387  1.00  0.00     0.212 HD
ENDBRANCH   4  38
BRANCH   6  40
HETATM   40  O2  UNL     1       5.691   2.278   0.751  1.00  0.00    -0.391 OA
ATOM     41  H2  UNL     1       6.529   2.710   0.864  1.00  0.00     0.210 HD
ENDBRANCH   6  40
TORSDOF 12
