REMARK  12 active torsions:
REMARK  status: ('A' for Active; 'I' for Inactive)
REMARK    1  A    between atoms: C2_2  and  N1_3 
REMARK    2  A    between atoms: N1_3  and  C3_4 
REMARK    3  A    between atoms: N1_3  and  C5_6 
REMARK    4  A    between atoms: C5_6  and  C6_7 
REMARK    5  A    between atoms: C6_7  and  N2_8 
REMARK    6  A    between atoms: N2_8  and  C8_10 
REMARK    7  A    between atoms: C8_10  and  C9_11 
REMARK    8  A    between atoms: C9_11  and  C10_12 
REMARK    9  A    between atoms: C10_12  and  N3_13 
REMARK   10  A    between atoms: N3_13  and  C11_15 
REMARK   11  A    between atoms: N8_33  and  C19_34 
REMARK   12  A    between atoms: C19_34  and  C20_35 
ROOT
HETATM    1  C11 UNL     1       0.965  -0.580  -0.792  1.00  0.00     0.117 A 
HETATM    2  N4  UNL     1       1.030  -0.585  -2.135  1.00  0.00    -0.338 N 
ATOM      3  H4  UNL     1       0.188  -0.375  -2.670  1.00  0.00     0.168 HD
HETATM    4  C12 UNL     1       2.184  -0.861  -2.804  1.00  0.00     0.183 A 
HETATM    5  N5  UNL     1       3.311  -1.142  -2.176  1.00  0.00    -0.338 N 
ATOM      6  H5  UNL     1       4.165  -1.347  -2.695  1.00  0.00     0.168 HD
HETATM    7  C13 UNL     1       3.299  -1.149  -0.841  1.00  0.00     0.125 A 
HETATM    8  C14 UNL     1       2.153  -0.874  -0.131  1.00  0.00     0.071 A 
HETATM    9  C15 UNL     1       2.479  -0.965   1.181  1.00  0.00     0.094 A 
HETATM   10  C16 UNL     1       1.747  -0.802   2.319  1.00  0.00     0.264 A 
HETATM   11  O1  UNL     1       0.543  -0.508   2.410  1.00  0.00    -0.267 OA
HETATM   12  N6  UNL     1       2.383  -0.975   3.510  1.00  0.00    -0.275 N 
ATOM     13  H6  UNL     1       1.866  -0.859   4.381  1.00  0.00     0.173 HD
HETATM   14  C17 UNL     1       3.695  -1.300   3.547  1.00  0.00     0.328 A 
HETATM   15  O2  UNL     1       4.276  -1.464   4.678  1.00  0.00    -0.247 OA
HETATM   16  N7  UNL     1       4.407  -1.458   2.424  1.00  0.00    -0.293 N 
ATOM     17  H7  UNL     1       5.395  -1.702   2.485  1.00  0.00     0.172 HD
HETATM   18  C18 UNL     1       3.841  -1.300   1.229  1.00  0.00     0.130 A 
HETATM   19  N8  UNL     1       4.348  -1.414  -0.011  1.00  0.00    -0.313 N 
ENDROOT
BRANCH   1  20
HETATM   20  N3  UNL     1      -0.122  -0.343  -0.221  1.00  0.00    -0.375 N 
ATOM     21  H3  UNL     1      -0.121  -0.347   0.799  1.00  0.00     0.161 HD
BRANCH  20  22
HETATM   22  C10 UNL     1      -1.352  -0.070  -0.863  1.00  0.00     0.123 C 
BRANCH  22  23
HETATM   23  C9  UNL     1      -2.548  -0.708  -0.136  1.00  0.00     0.050 C 
BRANCH  23  24
HETATM   24  C8  UNL     1      -3.758  -0.386  -0.971  1.00  0.00     0.273 C 
BRANCH  24  25
HETATM   25  N2  UNL     1      -4.960  -0.950  -0.393  1.00  0.00     0.086 N 
HETATM   26  C7  UNL     1      -4.554  -2.320   0.002  1.00  0.00     0.309 C 
BRANCH  25  27
HETATM   27  C6  UNL     1      -5.359  -0.223   0.804  1.00  0.00     0.302 C 
BRANCH  27  28
HETATM   28  C5  UNL     1      -5.956   1.070   0.338  1.00  0.00     0.302 C 
BRANCH  28  29
HETATM   29  N1  UNL     1      -7.088   0.758  -0.519  1.00  0.00     0.089 N 
BRANCH  29  30
HETATM   30  C2  UNL     1      -7.671   1.919  -1.100  1.00  0.00     0.268 C 
HETATM   31  C1  UNL     1      -8.214   2.947  -0.182  1.00  0.00     0.037 C 
ENDBRANCH  29  30
BRANCH  29  32
HETATM   32  C3  UNL     1      -8.009  -0.137   0.116  1.00  0.00     0.268 C 
HETATM   33  C4  UNL     1      -8.653   0.333   1.370  1.00  0.00     0.037 C 
ENDBRANCH  29  32
ENDBRANCH  28  29
ENDBRANCH  27  28
ENDBRANCH  25  27
ENDBRANCH  24  25
ENDBRANCH  23  24
ENDBRANCH  22  23
ENDBRANCH  20  22
ENDBRANCH   1  20
BRANCH  19  34
HETATM   34  C19 UNL     1       5.691  -1.761  -0.429  1.00  0.00     0.171 C 
BRANCH  34  35
HETATM   35  C20 UNL     1       6.606  -0.624  -0.621  1.00  0.00    -0.039 A 
HETATM   36  C21 UNL     1       7.996  -0.849  -0.669  1.00  0.00     0.015 A 
HETATM   37  C22 UNL     1       8.862   0.202  -0.852  1.00  0.00    -0.061 A 
HETATM   38  C23 UNL     1      10.333  -0.004  -0.920  1.00  0.00     0.048 C 
HETATM   39  C24 UNL     1       8.349   1.480  -0.989  1.00  0.00     0.013 A 
HETATM   40  C25 UNL     1       6.974   1.710  -0.942  1.00  0.00    -0.061 A 
HETATM   41  C26 UNL     1       6.387   3.074  -1.085  1.00  0.00     0.048 C 
HETATM   42  C27 UNL     1       6.099   0.645  -0.756  1.00  0.00     0.015 A 
ENDBRANCH  34  35
ENDBRANCH  19  34
TORSDOF 12
