REMARK  8 active torsions:
REMARK  status: ('A' for Active; 'I' for Inactive)
REMARK    1  A    between atoms: O1_2  and  C2_3 
REMARK    2  A    between atoms: C4_5  and  C5_6 
REMARK    3  A    between atoms: C7_8  and  C8_9 
REMARK    4  A    between atoms: C8_9  and  C9_10 
REMARK    5  A    between atoms: C9_10  and  C10_11 
REMARK    6  A    between atoms: C13_17  and  O2_18 
REMARK    7  A    between atoms: C16_25  and  O4_26 
REMARK    8  A    between atoms: C18_28  and  O5_29 
ROOT
HETATM    1  C5  UNL     1       1.180  -0.594   0.906  1.00  0.00     0.110 C 
HETATM    2  C6  UNL     1       0.666  -1.458  -0.221  1.00  0.00     0.047 C 
HETATM    3  C7  UNL     1      -0.420  -0.345  -0.279  1.00  0.00     0.077 C 
HETATM    4  N2  UNL     1       0.632   0.552   0.163  1.00  0.00    -0.214 NA
HETATM    5 CL1  UNL     1       1.617   1.066  -1.156  1.00  0.00    -0.021 Cl
ENDROOT
BRANCH   3   6
HETATM    6  C8  UNL     1      -0.970  -0.152  -1.635  1.00  0.00     0.026 C 
BRANCH   6   7
HETATM    7  C9  UNL     1      -1.986   0.859  -1.906  1.00  0.00     0.070 C 
BRANCH   7   8
HETATM    8  C10 UNL     1      -3.305   0.839  -1.251  1.00  0.00     0.222 C 
HETATM    9  C11 UNL     1      -3.191   0.977   0.237  1.00  0.00     0.078 C 
HETATM   10  N1  UNL     1      -3.988  -0.408  -1.574  1.00  0.00    -0.041 N 
HETATM   11  C12 UNL     1      -5.379  -0.411  -1.209  1.00  0.00     0.269 C 
ATOM     12  H12 UNL     1      -3.873  -0.637  -2.561  1.00  0.00     0.280 HD
ATOM     13  H11 UNL     1      -3.504  -1.203  -1.158  1.00  0.00     0.280 HD
HETATM   14  C13 UNL     1      -6.002   0.740  -2.013  1.00  0.00     0.167 C 
HETATM   15  C14 UNL     1      -5.333   1.986  -1.445  1.00  0.00     0.204 C 
HETATM   16  O3  UNL     1      -4.002   1.955  -1.709  1.00  0.00    -0.352 OA
BRANCH  14  17
HETATM   17  O2  UNL     1      -7.361   0.838  -1.793  1.00  0.00    -0.392 OA
ATOM     18  H2  UNL     1      -7.746   1.550  -2.290  1.00  0.00     0.210 HD
ENDBRANCH  14  17
ENDBRANCH   7   8
ENDBRANCH   6   7
ENDBRANCH   3   6
BRANCH   1  19
HETATM   19  C4  UNL     1       2.635  -0.574   1.082  1.00  0.00    -0.034 A 
HETATM   20  C3  UNL     1       3.238   0.604   1.466  1.00  0.00     0.048 A 
HETATM   21  C2  UNL     1       4.600   0.712   1.655  1.00  0.00     0.104 A 
HETATM   22  C18 UNL     1       5.422  -0.378   1.461  1.00  0.00     0.133 A 
HETATM   23  C16 UNL     1       4.821  -1.559   1.076  1.00  0.00     0.104 A 
HETATM   24  C15 UNL     1       3.454  -1.666   0.887  1.00  0.00     0.048 A 
BRANCH  21  25
HETATM   25  O1  UNL     1       5.220   1.898   2.044  1.00  0.00    -0.353 OA
HETATM   26  C1  UNL     1       4.368   3.031   2.246  1.00  0.00     0.210 C 
ENDBRANCH  21  25
BRANCH  22  27
HETATM   27  O5  UNL     1       6.801  -0.292   1.645  1.00  0.00    -0.356 OA
ATOM     28  H5  UNL     1       7.367  -1.043   1.511  1.00  0.00     0.218 HD
ENDBRANCH  22  27
BRANCH  23  29
HETATM   29  O4  UNL     1       5.622  -2.675   0.872  1.00  0.00    -0.353 OA
HETATM   30  C17 UNL     1       5.076  -3.915   0.477  1.00  0.00     0.210 C 
ENDBRANCH  23  29
ENDBRANCH   1  19
TORSDOF 8
