REMARK  7 active torsions:
REMARK  status: ('A' for Active; 'I' for Inactive)
REMARK    1  A    between atoms: C3_6  and  N3_7 
REMARK    2  A    between atoms: N3_7  and  C4_10 
REMARK    3  A    between atoms: C4_10  and  C5_11 
REMARK    4  A    between atoms: C5_11  and  C6_12 
REMARK    5  A    between atoms: C6_12  and  C7_13 
REMARK    6  A    between atoms: C7_13  and  N4_14 
REMARK    7  A    between atoms: N5_17  and  C10_18 
ROOT
HETATM    1  C5  UNL     1      -1.906   1.534  -0.389  1.00  0.00     0.029 C 
ENDROOT
BRANCH   1   2
HETATM    2  C4  UNL     1      -2.687   0.283  -0.148  1.00  0.00     0.235 C 
BRANCH   2   3
HETATM    3  N3  UNL     1      -4.108   0.493  -0.425  1.00  0.00    -0.053 N 
ATOM      4  H32 UNL     1      -4.272   0.851  -1.366  1.00  0.00     0.279 HD
ATOM      5  H31 UNL     1      -4.494   1.280   0.096  1.00  0.00     0.279 HD
BRANCH   3   6
HETATM    6  C3  UNL     1      -4.816  -0.731  -0.173  1.00  0.00     0.304 A 
HETATM    7  C2  UNL     1      -4.752  -1.102   1.271  1.00  0.00     0.176 A 
HETATM    8  N2  UNL     1      -6.144  -1.018   1.687  1.00  0.00    -0.361 N 
HETATM    9  C1  UNL     1      -6.917  -0.751   0.709  1.00  0.00     0.185 A 
ATOM     10  H2  UNL     1      -6.463  -1.156   2.646  1.00  0.00     0.162 HD
HETATM   11  N1  UNL     1      -8.352  -0.593   0.765  1.00  0.00    -0.064 NA
HETATM   12  N6  UNL     1      -6.226  -0.617  -0.511  1.00  0.00    -0.336 N 
ATOM     13  H6  UNL     1      -6.629  -0.471  -1.436  1.00  0.00     0.164 HD
ENDBRANCH   3   6
ENDBRANCH   2   3
ENDBRANCH   1   2
BRANCH   1  14
HETATM   14  C6  UNL     1      -0.449   1.311  -0.117  1.00  0.00     0.032 C 
BRANCH  14  15
HETATM   15  C7  UNL     1       0.169   0.253  -0.965  1.00  0.00     0.273 C 
BRANCH  15  16
HETATM   16  N4  UNL     1       1.575   0.134  -0.716  1.00  0.00     0.097 N 
HETATM   17  C8  UNL     1       1.849  -0.375   0.574  1.00  0.00     0.292 C 
HETATM   18  C9  UNL     1       3.179  -1.155   0.612  1.00  0.00     0.147 C 
HETATM   19  N5  UNL     1       4.214  -0.315   0.158  1.00  0.00    -0.400 N 
HETATM   20  C13 UNL     1       4.254   1.018   0.631  1.00  0.00     0.197 C 
HETATM   21  C14 UNL     1       3.090   1.747   0.078  1.00  0.00     0.172 C 
HETATM   22  O1  UNL     1       2.815   2.784   0.637  1.00  0.00    -0.294 OA
HETATM   23  C15 UNL     1       2.224   1.353  -1.081  1.00  0.00     0.352 C 
BRANCH  19  24
HETATM   24  C10 UNL     1       5.381  -0.872  -0.396  1.00  0.00     0.079 A 
HETATM   25  C11 UNL     1       6.344  -1.734   0.291  1.00  0.00     0.027 A 
HETATM   26  C12 UNL     1       6.691  -0.288   0.004  1.00  0.00     0.027 A 
ENDBRANCH  19  24
ENDBRANCH  15  16
ENDBRANCH  14  15
ENDBRANCH   1  14
TORSDOF 7
