REMARK  8 active torsions:
REMARK  status: ('A' for Active; 'I' for Inactive)
REMARK    1  A    between atoms: C2_2  and  C3_3 
REMARK    2  A    between atoms: N1_5  and  C5_6 
REMARK    3  A    between atoms: C5_6  and  C6_7 
REMARK    4  A    between atoms: C6_7  and  N2_8 
REMARK    5  A    between atoms: N3_11  and  C9_12 
REMARK    6  A    between atoms: C9_12  and  C10_13 
REMARK    7  A    between atoms: C10_13  and  C11_14 
REMARK    8  A    between atoms: C11_14  and  N4_15 
ROOT
HETATM    1  C5  UNL     1      -1.812  -0.472   0.482  1.00  0.00     0.104 C 
ENDROOT
BRANCH   1   2
HETATM    2  N1  UNL     1      -3.197  -0.652   0.290  1.00  0.00    -0.287 N 
HETATM    3  C4  UNL     1      -4.011   0.426   0.485  1.00  0.00     0.116 A 
HETATM    4  C3  UNL     1      -5.368   0.305   0.312  1.00  0.00     0.023 A 
HETATM    5  C15 UNL     1      -5.860  -0.929  -0.061  1.00  0.00     0.114 A 
HETATM    6  N5  UNL     1      -5.023  -1.993  -0.250  1.00  0.00    -0.294 N 
HETATM    7  N6  UNL     1      -7.135  -1.082  -0.234  1.00  0.00    -0.385 N 
HETATM    8  C14 UNL     1      -3.699  -1.838  -0.072  1.00  0.00     0.331 A 
ATOM      9  H5  UNL     1      -5.401  -2.900  -0.525  1.00  0.00     0.172 HD
HETATM   10  O1  UNL     1      -2.873  -2.769  -0.228  1.00  0.00    -0.246 OA
ATOM     11  H62 UNL     1      -7.760  -0.288  -0.093  1.00  0.00     0.157 HD
ATOM     12  H61 UNL     1      -7.499  -1.994  -0.510  1.00  0.00     0.157 HD
BRANCH   4  13
HETATM   13  C2  UNL     1      -6.321   1.411   0.503  1.00  0.00     0.006 C 
HETATM   14  C1  UNL     1      -5.976   2.616   0.883  1.00  0.00     0.012 C 
ENDBRANCH   4  13
ENDBRANCH   1   2
BRANCH   1  15
HETATM   15  C6  UNL     1      -1.014  -0.058  -0.693  1.00  0.00     0.318 C 
BRANCH  15  16
HETATM   16  N2  UNL     1       0.385   0.064  -0.247  1.00  0.00     0.102 N 
HETATM   17  C7  UNL     1       0.842  -1.270   0.061  1.00  0.00     0.318 C 
HETATM   18  C8  UNL     1       2.317  -1.479  -0.182  1.00  0.00     0.098 C 
HETATM   19  N3  UNL     1       3.082  -0.307  -0.345  1.00  0.00    -0.351 N 
HETATM   20  C12 UNL     1       2.572   0.718  -1.149  1.00  0.00     0.098 C 
HETATM   21  C13 UNL     1       1.082   0.668  -1.348  1.00  0.00     0.318 C 
BRANCH  19  22
HETATM   22  C9  UNL     1       4.286  -0.155   0.350  1.00  0.00     0.069 C 
BRANCH  22  23
HETATM   23  C10 UNL     1       5.024   1.116   0.109  1.00  0.00     0.072 C 
BRANCH  23  24
HETATM   24  C11 UNL     1       6.296   1.153   0.913  1.00  0.00     0.234 C 
BRANCH  24  25
HETATM   25  N4  UNL     1       7.202   0.080   0.598  1.00  0.00    -0.079 N 
ATOM     26  H43 UNL     1       6.739  -0.824   0.694  1.00  0.00     0.274 HD
ATOM     27  H42 UNL     1       7.406   0.060  -0.401  1.00  0.00     0.274 HD
ATOM     28  H41 UNL     1       8.064   0.105   1.143  1.00  0.00     0.274 HD
ENDBRANCH  24  25
ENDBRANCH  23  24
ENDBRANCH  22  23
ENDBRANCH  19  22
ENDBRANCH  15  16
ENDBRANCH   1  15
TORSDOF 8
