REMARK  15 active torsions:
REMARK  status: ('A' for Active; 'I' for Inactive)
REMARK    1  A    between atoms: C2_2  and  C3_4 
REMARK    2  A    between atoms: C3_4  and  C4_5 
REMARK    3  A    between atoms: C4_5  and  C5_6 
REMARK    4  A    between atoms: C5_6  and  C6_7 
REMARK    5  A    between atoms: C6_7  and  C7_8 
REMARK    6  A    between atoms: C7_8  and  C8_9 
REMARK    7  A    between atoms: C10_14  and  C11_15 
REMARK    8  A    between atoms: C11_15  and  C12_16 
REMARK    9  A    between atoms: C12_16  and  C13_17 
REMARK   10  A    between atoms: C13_17  and  N2_18 
REMARK   11  A    between atoms: C16_27  and  C17_28 
REMARK   12  A    between atoms: C17_28  and  C18_29 
REMARK   13  A    between atoms: C18_29  and  C19_30 
REMARK   14  A    between atoms: C19_30  and  N6_31 
REMARK   15  A    between atoms: C19_30  and  O4_35 
ROOT
HETATM    1  C8  UNL     1       1.583  -0.489   0.448  1.00  0.00     0.176 C 
HETATM    2  N1  UNL     1       0.832   0.634   0.904  1.00  0.00    -0.346 N 
ATOM      3  H1  UNL     1       1.378   1.395   1.307  1.00  0.00     0.163 HD
HETATM    4  C9  UNL     1      -0.562   0.835   0.874  1.00  0.00     0.241 C 
HETATM    5  O2  UNL     1      -1.189   1.114   1.962  1.00  0.00    -0.271 OA
HETATM    6  C10 UNL     1      -1.444   0.763  -0.319  1.00  0.00     0.176 C 
HETATM    7  N5  UNL     1      -2.729   0.150  -0.049  1.00  0.00    -0.347 N 
ATOM      8  H5  UNL     1      -3.325   0.629   0.625  1.00  0.00     0.163 HD
HETATM    9  C15 UNL     1      -3.248  -1.031  -0.611  1.00  0.00     0.222 C 
HETATM   10  O3  UNL     1      -4.391  -0.964  -1.199  1.00  0.00    -0.273 OA
HETATM   11  C16 UNL     1      -2.637  -2.377  -0.615  1.00  0.00     0.078 C 
HETATM   12  C20 UNL     1      -1.753  -2.642  -1.815  1.00  0.00     0.015 C 
HETATM   13  C21 UNL     1      -0.709  -3.701  -1.541  1.00  0.00     0.020 C 
HETATM   14  C22 UNL     1       0.404  -3.076  -0.716  1.00  0.00     0.122 C 
HETATM   15  N7  UNL     1       1.027  -2.054  -1.501  1.00  0.00    -0.359 N 
ATOM     16  H7  UNL     1       1.137  -2.224  -2.501  1.00  0.00     0.162 HD
HETATM   17  C23 UNL     1       1.509  -0.801  -0.977  1.00  0.00     0.240 C 
HETATM   18  O5  UNL     1       1.869   0.017  -1.892  1.00  0.00    -0.271 OA
ENDROOT
BRANCH  11  19
HETATM   19  C17 UNL     1      -3.680  -3.478  -0.629  1.00  0.00     0.018 C 
BRANCH  19  20
HETATM   20  C18 UNL     1      -4.604  -3.455   0.555  1.00  0.00     0.062 C 
BRANCH  20  21
HETATM   21  C19 UNL     1      -5.584  -4.617   0.392  1.00  0.00     0.316 C 
BRANCH  21  22
HETATM   22  N6  UNL     1      -6.497  -4.619   1.535  1.00  0.00    -0.053 N 
ATOM     23  H63 UNL     1      -6.005  -4.644   2.428  1.00  0.00     0.277 HD
ATOM     24  H62 UNL     1      -6.969  -3.724   1.660  1.00  0.00     0.277 HD
ATOM     25  H61 UNL     1      -7.151  -5.394   1.426  1.00  0.00     0.277 HD
ENDBRANCH  21  22
BRANCH  21  26
HETATM   26  O4  UNL     1      -4.947  -5.830   0.316  1.00  0.00    -0.370 OA
ATOM     27  H4  UNL     1      -5.556  -6.552   0.215  1.00  0.00     0.212 HD
ENDBRANCH  21  26
ENDBRANCH  20  21
ENDBRANCH  19  20
ENDBRANCH  11  19
BRANCH   6  28
HETATM   28  C11 UNL     1      -1.723   2.169  -0.866  1.00  0.00     0.036 C 
BRANCH  28  29
HETATM   29  C12 UNL     1      -2.397   3.050   0.123  1.00  0.00     0.022 C 
BRANCH  29  30
HETATM   30  C13 UNL     1      -2.610   4.405  -0.572  1.00  0.00     0.122 C 
BRANCH  30  31
HETATM   31  N2  UNL     1      -3.261   5.255   0.376  1.00  0.00    -0.367 N 
HETATM   32  C14 UNL     1      -3.144   6.527   0.455  1.00  0.00     0.196 C 
HETATM   33  N3  UNL     1      -3.883   7.186   1.477  1.00  0.00    -0.067 NA
HETATM   34  N4  UNL     1      -2.323   7.272  -0.423  1.00  0.00    -0.067 NA
ATOM     35  H2  UNL     1      -3.877   4.805   1.053  1.00  0.00     0.161 HD
ENDBRANCH  30  31
ENDBRANCH  29  30
ENDBRANCH  28  29
ENDBRANCH   6  28
BRANCH   1  36
HETATM   36  C7  UNL     1       3.041  -0.366   0.841  1.00  0.00     0.035 C 
BRANCH  36  37
HETATM   37  C6  UNL     1       3.746   0.825   0.315  1.00  0.00     0.002 C 
BRANCH  37  38
HETATM   38  C5  UNL     1       5.181   0.827   0.801  1.00  0.00     0.000 C 
BRANCH  38  39
HETATM   39  C4  UNL     1       5.976  -0.361   0.380  1.00  0.00     0.007 C 
BRANCH  39  40
HETATM   40  C3  UNL     1       7.391  -0.275   0.908  1.00  0.00     0.077 C 
BRANCH  40  41
HETATM   41  C2  UNL     1       8.096   0.916   0.417  1.00  0.00     0.123 C 
HETATM   42  C1  UNL     1       9.011   0.801  -0.766  1.00  0.00     0.091 C 
HETATM   43  O1  UNL     1       8.006   2.032   0.896  1.00  0.00    -0.298 OA
ENDBRANCH  40  41
ENDBRANCH  39  40
ENDBRANCH  38  39
ENDBRANCH  37  38
ENDBRANCH  36  37
ENDBRANCH   1  36
TORSDOF 15
