REMARK  13 active torsions:
REMARK  status: ('A' for Active; 'I' for Inactive)
REMARK    1  A    between atoms: C1_2  and  C2_4 
REMARK    2  A    between atoms: C6_11  and  C7_12 
REMARK    3  A    between atoms: C7_12  and  C8_13 
REMARK    4  A    between atoms: C8_13  and  C9_14 
REMARK    5  A    between atoms: C9_14  and  C10_15 
REMARK    6  A    between atoms: C10_15  and  C11_16 
REMARK    7  A    between atoms: C11_16  and  C12_17 
REMARK    8  A    between atoms: C12_17  and  C13_18 
REMARK    9  A    between atoms: C13_18  and  C14_19 
REMARK   10  A    between atoms: C14_19  and  C15_20 
REMARK   11  A    between atoms: C18_31  and  C19_32 
REMARK   12  A    between atoms: C19_32  and  C20_33 
REMARK   13  A    between atoms: C20_33  and  C21_34 
ROOT
HETATM    1  C2  UNL     1      -4.174   2.003   0.291  1.00  0.00     0.174 C 
HETATM    2  C3  UNL     1      -2.669   2.187   0.565  1.00  0.00     0.043 C 
HETATM    3  C4  UNL     1      -2.349   2.011   1.981  1.00  0.00     0.105 C 
HETATM    4  C5  UNL     1      -1.506   0.900   2.411  1.00  0.00     0.218 C 
HETATM    5  O2  UNL     1      -1.295   0.931   3.690  1.00  0.00    -0.274 OA
HETATM    6  N2  UNL     1      -0.906  -0.148   1.738  1.00  0.00    -0.348 N 
ATOM      7  H2  UNL     1      -1.064  -1.061   2.165  1.00  0.00     0.163 HD
HETATM    8  C6  UNL     1      -0.103  -0.189   0.551  1.00  0.00     0.177 C 
HETATM    9  C16 UNL     1      -0.548  -1.071  -0.516  1.00  0.00     0.248 C 
HETATM   10  O5  UNL     1      -0.347  -0.608  -1.679  1.00  0.00    -0.271 OA
HETATM   11  N3  UNL     1      -1.155  -2.336  -0.446  1.00  0.00    -0.278 N 
ATOM     12  H3  UNL     1      -0.795  -3.028  -1.104  1.00  0.00     0.173 HD
HETATM   13  C17 UNL     1      -2.189  -2.791   0.400  1.00  0.00     0.323 C 
HETATM   14  O6  UNL     1      -1.923  -3.870   1.058  1.00  0.00    -0.247 OA
HETATM   15  N4  UNL     1      -3.461  -2.279   0.655  1.00  0.00    -0.330 N 
ATOM     16  H4  UNL     1      -4.011  -2.713   1.396  1.00  0.00     0.165 HD
HETATM   17  C18 UNL     1      -4.070  -1.132  -0.090  1.00  0.00     0.178 C 
HETATM   18  C22 UNL     1      -4.778  -0.380   0.923  1.00  0.00     0.241 C 
HETATM   19  O9  UNL     1      -5.509  -1.064   1.731  1.00  0.00    -0.271 OA
HETATM   20  N5  UNL     1      -4.765   1.020   1.144  1.00  0.00    -0.346 N 
ATOM     21  H5  UNL     1      -5.220   1.358   1.992  1.00  0.00     0.163 HD
ENDROOT
BRANCH   8  22
HETATM   22  C7  UNL     1       1.328  -0.633   0.920  1.00  0.00     0.035 C 
BRANCH  22  23
HETATM   23  C8  UNL     1       2.221  -0.699  -0.278  1.00  0.00     0.002 C 
BRANCH  23  24
HETATM   24  C9  UNL     1       3.593  -1.139   0.174  1.00  0.00     0.000 C 
BRANCH  24  25
HETATM   25  C10 UNL     1       4.562  -1.239  -0.957  1.00  0.00     0.000 C 
BRANCH  25  26
HETATM   26  C11 UNL     1       5.916  -1.687  -0.465  1.00  0.00     0.000 C 
BRANCH  26  27
HETATM   27  C12 UNL     1       6.525  -0.739   0.551  1.00  0.00     0.001 C 
BRANCH  27  28
HETATM   28  C13 UNL     1       6.716   0.636   0.001  1.00  0.00     0.010 C 
BRANCH  28  29
HETATM   29  C14 UNL     1       7.592   0.732  -1.193  1.00  0.00     0.113 C 
BRANCH  29  30
HETATM   30  C15 UNL     1       8.981   0.305  -0.996  1.00  0.00     0.172 C 
HETATM   31  O3  UNL     1       9.413  -0.053   0.120  1.00  0.00    -0.648 OA
HETATM   32  O4  UNL     1       9.860   0.295  -2.097  1.00  0.00    -0.648 OA
ENDBRANCH  29  30
ENDBRANCH  28  29
ENDBRANCH  27  28
ENDBRANCH  26  27
ENDBRANCH  25  26
ENDBRANCH  24  25
ENDBRANCH  23  24
ENDBRANCH  22  23
ENDBRANCH   8  22
BRANCH   1  33
HETATM   33  C1  UNL     1      -4.858   3.334   0.469  1.00  0.00     0.254 C 
HETATM   34  N1  UNL     1      -4.433   4.459  -0.280  1.00  0.00    -0.060 NA
HETATM   35  O1  UNL     1      -5.791   3.455   1.266  1.00  0.00    -0.275 OA
ENDBRANCH   1  33
BRANCH  17  36
HETATM   36  C19 UNL     1      -4.939  -1.795  -1.096  1.00  0.00     0.045 C 
BRANCH  36  37
HETATM   37  C20 UNL     1      -5.703  -1.031  -2.076  1.00  0.00     0.116 C 
BRANCH  37  38
HETATM   38  C21 UNL     1      -6.788  -0.151  -1.755  1.00  0.00     0.172 C 
HETATM   39  O7  UNL     1      -7.405  -0.028  -0.698  1.00  0.00    -0.648 OA
HETATM   40  O8  UNL     1      -7.231   0.714  -2.793  1.00  0.00    -0.648 OA
ENDBRANCH  37  38
ENDBRANCH  36  37
ENDBRANCH  17  36
TORSDOF 13
