REMARK  5 active torsions:
REMARK  status: ('A' for Active; 'I' for Inactive)
REMARK    1  A    between atoms: C7_7  and  C9_9 
REMARK    2  A    between atoms: C9_9  and  N1_10 
REMARK    3  A    between atoms: N1_10  and  C10_12 
REMARK    4  A    between atoms: C12_14  and  O1_15 
REMARK    5  A    between atoms: C14_17  and  S1_18 
ROOT
HETATM    1  C1  UNL     1      -6.368  -0.638  -0.512  1.00  0.00     0.013 C 
HETATM    2  C2  UNL     1      -5.332  -0.380   0.050  1.00  0.00    -0.106 C 
HETATM    3  C3  UNL     1      -4.055  -0.079   0.736  1.00  0.00     0.036 C 
HETATM    4  C4  UNL     1      -4.448   0.513   2.086  1.00  0.00     0.030 C 
HETATM    5  C5  UNL     1      -3.373   0.988  -0.051  1.00  0.00     0.024 C 
HETATM    6  C6  UNL     1      -1.861   0.900   0.145  1.00  0.00     0.012 C 
HETATM    7  C7  UNL     1      -1.388  -0.386  -0.498  1.00  0.00    -0.027 C 
HETATM    8  C8  UNL     1      -1.477  -0.154  -2.012  1.00  0.00     0.017 C 
HETATM    9  C18 UNL     1      -2.256  -1.560  -0.184  1.00  0.00     0.032 C 
HETATM   10  C19 UNL     1      -3.253  -1.328   0.900  1.00  0.00     0.103 C 
HETATM   11 CL1  UNL     1      -4.412  -2.704   0.853  1.00  0.00    -0.123 Cl
ENDROOT
BRANCH   7  12
HETATM   12  C9  UNL     1       0.068  -0.651  -0.200  1.00  0.00     0.129 C 
BRANCH  12  13
HETATM   13  N1  UNL     1       0.859   0.414  -0.700  1.00  0.00    -0.387 N 
ATOM     14  H1  UNL     1       0.365   1.174  -1.168  1.00  0.00     0.159 HD
BRANCH  13  15
HETATM   15  C10 UNL     1       2.264   0.525  -0.613  1.00  0.00     0.062 A 
HETATM   16  C11 UNL     1       3.071  -0.425  -0.007  1.00  0.00     0.069 A 
HETATM   17  C12 UNL     1       4.441  -0.296   0.067  1.00  0.00     0.090 A 
HETATM   18  C14 UNL     1       5.033   0.804  -0.474  1.00  0.00     0.079 A 
HETATM   19  C16 UNL     1       4.277   1.793  -1.097  1.00  0.00     0.108 A 
HETATM   20  N3  UNL     1       4.533   2.962  -1.711  1.00  0.00    -0.238 N 
HETATM   21  C17 UNL     1       2.890   1.623  -1.149  1.00  0.00     0.113 A 
HETATM   22  O2  UNL     1       3.419   3.494  -2.119  1.00  0.00    -0.156 OA
ATOM     23  H3  UNL     1       5.460   3.369  -1.837  1.00  0.00     0.197 HD
HETATM   24  N4  UNL     1       2.439   2.696  -1.785  1.00  0.00    -0.237 N 
ATOM     25  H4  UNL     1       1.455   2.875  -1.987  1.00  0.00     0.197 HD
BRANCH  17  26
HETATM   26  O1  UNL     1       5.234  -1.252   0.675  1.00  0.00    -0.354 OA
HETATM   27  C13 UNL     1       4.590  -2.384   1.227  1.00  0.00     0.210 C 
ENDBRANCH  17  26
BRANCH  18  28
HETATM   28  S1  UNL     1       6.786   1.018  -0.408  1.00  0.00    -0.006 SA
HETATM   29  C15 UNL     1       7.215   1.877   1.073  1.00  0.00     0.139 C 
HETATM   30  N2  UNL     1       7.481   2.453   2.043  1.00  0.00    -0.184 NA
ENDBRANCH  18  28
ENDBRANCH  13  15
ENDBRANCH  12  13
ENDBRANCH   7  12
TORSDOF 5
