REMARK  7 active torsions:
REMARK  status: ('A' for Active; 'I' for Inactive)
REMARK    1  A    between atoms: C2_2  and  O1_3 
REMARK    2  A    between atoms: O1_3  and  C3_4 
REMARK    3  A    between atoms: C3_4  and  C4_6 
REMARK    4  A    between atoms: C5_7  and  N1_8 
REMARK    5  A    between atoms: N2_10  and  C6_12 
REMARK    6  A    between atoms: C7_14  and  C8_15 
REMARK    7  A    between atoms: C8_15  and  N4_19 
ROOT
HETATM    1  N1  UNL     1      -1.134   1.182  -0.548  1.00  0.00    -0.292 N 
ATOM      2  H1  UNL     1      -0.755   0.796  -1.413  1.00  0.00     0.187 HD
HETATM    3  N2  UNL     1      -0.359   1.408   0.423  1.00  0.00    -0.291 N 
ATOM      4  H2  UNL     1      -0.737   1.793   1.288  1.00  0.00     0.187 HD
ENDROOT
BRANCH   3   5
HETATM    5  C6  UNL     1       1.059   1.129   0.327  1.00  0.00     0.112 A 
HETATM    6  S1  UNL     1       2.250   1.914  -0.587  1.00  0.00    -0.065 SA
HETATM    7  C7  UNL     1       3.644   0.963  -0.128  1.00  0.00     0.058 A 
HETATM    8  C11 UNL     1       3.088   0.066   0.734  1.00  0.00    -0.017 A 
HETATM    9  C12 UNL     1       3.955  -0.988   1.411  1.00  0.00     0.052 C 
HETATM   10  C13 UNL     1       1.764   0.150   0.967  1.00  0.00     0.076 A 
HETATM   11 CL1  UNL     1       0.861  -0.952   2.064  1.00  0.00    -0.081 Cl
BRANCH   7  12
HETATM   12  C8  UNL     1       4.986   1.195  -0.646  1.00  0.00     0.114 C 
HETATM   13  N3  UNL     1       5.110   2.220  -1.490  1.00  0.00    -0.384 N 
ATOM     14  H32 UNL     1       4.273   2.763  -1.704  1.00  0.00     0.157 HD
ATOM     15  H31 UNL     1       6.049   2.382  -1.853  1.00  0.00     0.157 HD
BRANCH  12  16
HETATM   16  N4  UNL     1       6.125   0.456  -0.355  1.00  0.00    -0.375 N 
HETATM   17  C9  UNL     1       7.148   1.030   0.536  1.00  0.00     0.150 C 
HETATM   18  C10 UNL     1       6.358  -0.835  -0.931  1.00  0.00     0.150 C 
ENDBRANCH  12  16
ENDBRANCH   7  12
ENDBRANCH   3   5
BRANCH   1  19
HETATM   19  C5  UNL     1      -2.549   1.461  -0.454  1.00  0.00     0.106 A 
HETATM   20  C4  UNL     1      -3.574   0.575  -0.228  1.00  0.00     0.081 A 
HETATM   21  C16 UNL     1      -4.817   1.091  -0.184  1.00  0.00    -0.030 A 
HETATM   22  C14 UNL     1      -4.939   2.441  -0.367  1.00  0.00    -0.012 A 
HETATM   23  C17 UNL     1      -6.059   0.236   0.057  1.00  0.00     0.050 C 
HETATM   24  S2  UNL     1      -3.338   2.965  -0.595  1.00  0.00    -0.074 SA
HETATM   25  C15 UNL     1      -6.207   3.258  -0.363  1.00  0.00     0.057 C 
BRANCH  20  26
HETATM   26  C3  UNL     1      -3.270  -0.878  -0.046  1.00  0.00     0.296 C 
HETATM   27  O2  UNL     1      -2.100  -1.322  -0.093  1.00  0.00    -0.259 OA
BRANCH  26  28
HETATM   28  O1  UNL     1      -4.266  -1.814   0.184  1.00  0.00    -0.318 OA
BRANCH  28  29
HETATM   29  C2  UNL     1      -3.978  -3.190   0.356  1.00  0.00     0.174 C 
HETATM   30  C1  UNL     1      -3.300  -3.770  -0.847  1.00  0.00     0.034 C 
ENDBRANCH  28  29
ENDBRANCH  26  28
ENDBRANCH  20  26
ENDBRANCH   1  19
TORSDOF 7
