REMARK  6 active torsions:
REMARK  status: ('A' for Active; 'I' for Inactive)
REMARK    1  A    between atoms: C6_7  and  C7_8 
REMARK    2  A    between atoms: C8_9  and  C9_10 
REMARK    3  A    between atoms: N2_16  and  C11_17 
REMARK    4  A    between atoms: C11_17  and  C12_18 
REMARK    5  A    between atoms: C14_20  and  N3_21 
REMARK    6  A    between atoms: C16_25  and  N4_26 
ROOT
HETATM    1  N1  UNL     1      -4.075  -3.304   1.278  1.00  0.00    -0.191 NA
HETATM    2  C1  UNL     1      -3.563  -2.274   1.351  1.00  0.00     0.099 C 
HETATM    3  C2  UNL     1      -2.933  -0.972   1.432  1.00  0.00     0.045 A 
HETATM    4  C3  UNL     1      -2.850  -0.338   2.655  1.00  0.00     0.023 A 
HETATM    5  C4  UNL     1      -2.243   0.904   2.695  1.00  0.00     0.002 A 
HETATM    6  C5  UNL     1      -1.750   1.468   1.552  1.00  0.00     0.014 A 
HETATM    7  C6  UNL     1      -1.835   0.837   0.352  1.00  0.00    -0.006 A 
HETATM    8  C18 UNL     1      -2.433  -0.399   0.288  1.00  0.00     0.036 A 
ENDROOT
BRANCH   7   9
HETATM    9  C7  UNL     1      -1.160   1.367  -0.890  1.00  0.00     0.072 A 
HETATM   10  C8  UNL     1      -1.866   1.378  -2.069  1.00  0.00     0.114 A 
HETATM   11  S1  UNL     1      -0.698   1.886  -3.213  1.00  0.00    -0.020 SA
HETATM   12  C10 UNL     1       0.607   2.061  -2.153  1.00  0.00     0.292 A 
HETATM   13  O3  UNL     1       1.801   2.441  -2.456  1.00  0.00    -0.259 OA
HETATM   14  N2  UNL     1       0.121   1.717  -0.922  1.00  0.00    -0.302 N 
BRANCH  10  15
HETATM   15  C9  UNL     1      -3.305   1.157  -2.339  1.00  0.00     0.219 C 
HETATM   16  O1  UNL     1      -3.624   1.154  -3.578  1.00  0.00    -0.643 OA
HETATM   17  O2  UNL     1      -4.314   0.968  -1.462  1.00  0.00    -0.643 OA
ENDBRANCH  10  15
BRANCH  14  18
HETATM   18  C11 UNL     1       1.124   1.705   0.178  1.00  0.00     0.171 C 
BRANCH  18  19
HETATM   19  C12 UNL     1       1.921   0.460   0.203  1.00  0.00    -0.035 A 
HETATM   20  C13 UNL     1       1.447  -0.648   0.857  1.00  0.00     0.045 A 
HETATM   21  C14 UNL     1       2.136  -1.857   0.942  1.00  0.00     0.105 A 
HETATM   22  C15 UNL     1       3.364  -1.941   0.332  1.00  0.00     0.072 A 
HETATM   23  C16 UNL     1       3.880  -0.851  -0.335  1.00  0.00     0.105 A 
HETATM   24  C17 UNL     1       3.159   0.339  -0.396  1.00  0.00     0.045 A 
BRANCH  21  25
HETATM   25  N3  UNL     1       1.605  -2.975   1.628  1.00  0.00    -0.116 N 
HETATM   26  O4  UNL     1       2.201  -4.043   1.709  1.00  0.00    -0.532 OA
HETATM   27  O5  UNL     1       0.366  -2.886   2.241  1.00  0.00    -0.532 OA
ENDBRANCH  21  25
BRANCH  23  28
HETATM   28  N4  UNL     1       5.157  -0.967  -0.957  1.00  0.00    -0.116 N 
HETATM   29  O6  UNL     1       5.660  -0.014  -1.569  1.00  0.00    -0.532 OA
HETATM   30  O7  UNL     1       5.847  -2.148  -0.884  1.00  0.00    -0.532 OA
ENDBRANCH  23  28
ENDBRANCH  18  19
ENDBRANCH  14  18
ENDBRANCH   7   9
TORSDOF 6
