REMARK  6 active torsions:
REMARK  status: ('A' for Active; 'I' for Inactive)
REMARK    1  A    between atoms: C4_5  and  C5_6 
REMARK    2  A    between atoms: C5_6  and  N1_7 
REMARK    3  A    between atoms: N1_7  and  C6_10 
REMARK    4  A    between atoms: C10_16  and  N3_17 
REMARK    5  A    between atoms: N3_17  and  C11_19 
REMARK    6  A    between atoms: C11_19  and  N4_21 
REMARK       I    between atoms: N4_21  and  C12_23 
ROOT
HETATM    1  C1  UNL     1       2.273   2.861  -5.133  1.00  0.00     0.018 C 
HETATM    2  C2  UNL     1       1.756   2.219  -4.257  1.00  0.00    -0.066 C 
HETATM    3  C3  UNL     1       1.110   1.437  -3.212  1.00  0.00     0.103 A 
HETATM    4  S1  UNL     1      -0.492   0.849  -3.115  1.00  0.00    -0.062 SA
HETATM    5  C4  UNL     1      -0.402   0.059  -1.609  1.00  0.00     0.079 A 
HETATM    6  N2  UNL     1       0.845   0.288  -1.264  1.00  0.00    -0.337 N 
ATOM      7  H2  UNL     1       1.190  -0.079  -0.377  1.00  0.00     0.168 HD
HETATM    8  C10 UNL     1       1.645   0.966  -2.019  1.00  0.00     0.134 A 
ENDROOT
BRANCH   8   9
HETATM    9  N3  UNL     1       3.021   1.226  -1.656  1.00  0.00    -0.317 N 
ATOM     10  H3  UNL     1       3.570   1.767  -2.325  1.00  0.00     0.170 HD
BRANCH   9  11
HETATM   11  C11 UNL     1       3.678   0.826  -0.507  1.00  0.00     0.179 C 
HETATM   12  S2  UNL     1       5.273   1.285  -0.384  1.00  0.00    -0.040 SA
BRANCH  11  13
HETATM   13  N4  UNL     1       3.160   0.085   0.554  1.00  0.00    -0.304 N 
HETATM   14  C12 UNL     1       3.955  -0.272   1.706  1.00  0.00     0.219 C 
HETATM   15  C13 UNL     1       3.294  -1.071   2.784  1.00  0.00     0.117 C 
HETATM   16  O1  UNL     1       5.157   0.076   1.799  1.00  0.00    -0.274 OA
ATOM     17  H4  UNL     1       2.186  -0.215   0.516  1.00  0.00     0.171 HD
ENDBRANCH  11  13
ENDBRANCH   9  11
ENDBRANCH   8   9
BRANCH   5  18
HETATM   18  C5  UNL     1      -1.499  -0.675  -0.926  1.00  0.00     0.297 C 
BRANCH  18  19
HETATM   19  N1  UNL     1      -1.853  -0.062   0.337  1.00  0.00    -0.062 N 
ATOM     20  H12 UNL     1      -1.038   0.037   0.943  1.00  0.00     0.278 HD
ATOM     21  H11 UNL     1      -2.085   0.924   0.219  1.00  0.00     0.278 HD
BRANCH  19  22
HETATM   22  C6  UNL     1      -2.920  -0.779   1.002  1.00  0.00     0.115 C 
HETATM   23  C7  UNL     1      -2.554  -2.189   1.357  1.00  0.00     0.045 C 
HETATM   24  C8  UNL     1      -3.334  -0.066   2.281  1.00  0.00     0.045 C 
HETATM   25  C9  UNL     1      -4.169  -0.840   0.128  1.00  0.00     0.045 C 
ENDBRANCH  19  22
ENDBRANCH  18  19
ENDBRANCH   5  18
TORSDOF 6
