REMARK  10 active torsions:
REMARK  status: ('A' for Active; 'I' for Inactive)
REMARK    1  A    between atoms: O1_2  and  C2_3 
REMARK    2  A    between atoms: C8_9  and  N1_10 
REMARK    3  A    between atoms: C10_15  and  O2_16 
REMARK    4  A    between atoms: C17_26  and  C18_27 
REMARK    5  A    between atoms: C19_28  and  C20_29 
REMARK    6  A    between atoms: C20_29  and  O5_30 
REMARK    7  A    between atoms: C20_29  and  C22_32 
REMARK    8  A    between atoms: C22_32  and  C24_34 
REMARK    9  A    between atoms: C25_35  and  C27_37 
REMARK   10  A    between atoms: C28_38  and  C29_39 
ROOT
HETATM    1  C2  UNL     1      -6.617  -1.876   0.895  1.00  0.00     0.068 A 
HETATM    2  C3  UNL     1      -5.798  -2.942   1.157  1.00  0.00     0.038 A 
HETATM    3  C4  UNL     1      -4.663  -3.092   0.396  1.00  0.00     0.021 A 
HETATM    4  C5  UNL     1      -4.314  -2.200  -0.632  1.00  0.00     0.048 A 
HETATM    5  C6  UNL     1      -5.150  -1.108  -0.905  1.00  0.00    -0.009 A 
HETATM    6  C7  UNL     1      -6.280  -0.996  -0.114  1.00  0.00     0.047 A 
HETATM    7  C8  UNL     1      -4.922  -0.144  -1.983  1.00  0.00     0.220 C 
HETATM    8  C9  UNL     1      -4.269   1.137  -1.665  1.00  0.00     0.073 C 
HETATM    9  C10 UNL     1      -4.785   1.941  -0.529  1.00  0.00     0.143 C 
HETATM   10  C11 UNL     1      -3.962   3.204  -0.499  1.00  0.00     0.004 C 
HETATM   11  C12 UNL     1      -3.314   3.670   0.526  1.00  0.00    -0.002 C 
HETATM   12  C13 UNL     1      -3.194   3.147   1.858  1.00  0.00    -0.004 C 
HETATM   13  C14 UNL     1      -2.478   2.134   2.284  1.00  0.00    -0.017 C 
HETATM   14  C15 UNL     1      -1.595   1.285   1.408  1.00  0.00     0.138 C 
HETATM   15  C16 UNL     1      -1.871  -0.130   1.672  1.00  0.00     0.264 C 
HETATM   16  O3  UNL     1      -2.153  -0.443   2.878  1.00  0.00    -0.265 OA
HETATM   17  O4  UNL     1      -1.859  -1.154   0.753  1.00  0.00    -0.285 OA
HETATM   18  C17 UNL     1      -1.161  -1.159  -0.466  1.00  0.00     0.303 C 
HETATM   19  O6  UNL     1      -2.021  -1.585  -1.539  1.00  0.00    -0.282 OA
HETATM   20  C33 UNL     1      -3.077  -2.491  -1.343  1.00  0.00     0.296 C 
HETATM   21  O7  UNL     1      -3.018  -3.701  -1.802  1.00  0.00    -0.259 OA
ENDROOT
BRANCH  18  22
HETATM   22  C18 UNL     1       0.002  -2.085  -0.415  1.00  0.00     0.032 C 
HETATM   23  C19 UNL     1       1.237  -1.817  -0.138  1.00  0.00     0.006 C 
BRANCH  23  24
HETATM   24  C20 UNL     1       1.863  -0.535   0.206  1.00  0.00     0.150 C 
BRANCH  24  25
HETATM   25  O5  UNL     1       2.564  -0.673   1.420  1.00  0.00    -0.386 OA
HETATM   26  C21 UNL     1       2.209   0.238   2.378  1.00  0.00     0.202 C 
ENDBRANCH  24  25
BRANCH  24  27
HETATM   27  C22 UNL     1       2.941  -0.146  -0.810  1.00  0.00     0.037 C 
HETATM   28  C23 UNL     1       2.258  -0.037  -2.193  1.00  0.00     0.017 C 
BRANCH  27  29
HETATM   29  C24 UNL     1       3.969  -1.146  -0.932  1.00  0.00    -0.013 C 
HETATM   30  C25 UNL     1       5.260  -0.956  -0.718  1.00  0.00    -0.065 C 
HETATM   31  C26 UNL     1       6.183  -2.148  -0.901  1.00  0.00     0.048 C 
BRANCH  30  32
HETATM   32  C27 UNL     1       5.789   0.313  -0.333  1.00  0.00     0.006 C 
HETATM   33  C28 UNL     1       6.972   0.735  -0.070  1.00  0.00     0.001 C 
BRANCH  33  34
HETATM   34  C29 UNL     1       8.217   0.044  -0.074  1.00  0.00     0.002 C 
HETATM   35  C30 UNL     1       9.328   0.758   0.251  1.00  0.00    -0.088 C 
HETATM   36  C31 UNL     1       9.218   2.211   0.594  1.00  0.00     0.043 C 
HETATM   37  C32 UNL     1      10.636   0.068   0.269  1.00  0.00     0.043 C 
ENDBRANCH  33  34
ENDBRANCH  30  32
ENDBRANCH  27  29
ENDBRANCH  24  27
ENDBRANCH  23  24
ENDBRANCH  18  22
BRANCH   7  38
HETATM   38  N1  UNL     1      -6.189   0.105  -2.700  1.00  0.00    -0.071 N 
ATOM     39  H13 UNL     1      -6.616  -0.757  -3.039  1.00  0.00     0.275 HD
ATOM     40  H12 UNL     1      -6.936   0.400  -2.071  1.00  0.00     0.275 HD
ATOM     41  H11 UNL     1      -6.030   0.777  -3.451  1.00  0.00     0.275 HD
ENDBRANCH   7  38
BRANCH   1  42
HETATM   42  O1  UNL     1      -7.756  -1.739   1.674  1.00  0.00    -0.356 OA
HETATM   43  C1  UNL     1      -8.667  -0.674   1.488  1.00  0.00     0.210 C 
ENDBRANCH   1  42
BRANCH   9  44
HETATM   44  O2  UNL     1      -6.096   2.433  -0.778  1.00  0.00    -0.392 OA
ATOM     45  H2  UNL     1      -6.426   2.948  -0.051  1.00  0.00     0.210 HD
ENDBRANCH   9  44
TORSDOF 10
