REMARK  11 active torsions:
REMARK  status: ('A' for Active; 'I' for Inactive)
REMARK    1  A    between atoms: O1_2  and  C2_3 
REMARK    2  A    between atoms: C15_17  and  C16_18 
REMARK    3  A    between atoms: C17_19  and  C19_21 
REMARK    4  A    between atoms: C21_25  and  O5_26 
REMARK    5  A    between atoms: O5_26  and  C22_27 
REMARK    6  A    between atoms: C22_27  and  C23_29 
REMARK    7  A    between atoms: C23_29  and  C24_30 
REMARK    8  A    between atoms: C24_30  and  C25_31 
REMARK    9  A    between atoms: C25_31  and  C26_32 
REMARK   10  A    between atoms: C26_32  and  C27_33 
REMARK   11  A    between atoms: C31_39  and  O9_40 
ROOT
HETATM    1  C2  UNL     1      -2.726  -3.353   0.018  1.00  0.00     0.153 C 
HETATM    2  C3  UNL     1      -3.931  -2.442  -0.145  1.00  0.00     0.068 C 
HETATM    3  C4  UNL     1      -4.428  -1.892   1.137  1.00  0.00    -0.085 C 
HETATM    4  C5  UNL     1      -4.853  -2.923   2.128  1.00  0.00     0.043 C 
HETATM    5  C6  UNL     1      -4.524  -0.618   1.460  1.00  0.00    -0.020 C 
HETATM    6  C7  UNL     1      -4.161   0.550   0.635  1.00  0.00     0.055 C 
HETATM    7  C8  UNL     1      -4.942   0.717  -0.577  1.00  0.00    -0.013 C 
HETATM    8  C9  UNL     1      -4.663   1.389  -1.670  1.00  0.00    -0.020 C 
HETATM    9  C10 UNL     1      -5.717   1.367  -2.780  1.00  0.00     0.052 C 
HETATM   10  C11 UNL     1      -3.440   2.140  -1.894  1.00  0.00     0.155 C 
HETATM   11  O2  UNL     1      -3.576   3.392  -2.165  1.00  0.00    -0.293 OA
HETATM   12  C12 UNL     1      -2.058   1.625  -1.848  1.00  0.00     0.087 C 
HETATM   13  C13 UNL     1      -1.167   2.475  -0.984  1.00  0.00     0.042 C 
HETATM   14  C14 UNL     1       0.246   2.008  -0.976  1.00  0.00    -0.077 C 
HETATM   15  C15 UNL     1       1.178   2.876  -0.631  1.00  0.00     0.004 C 
HETATM   16  C20 UNL     1       0.666   0.633  -1.314  1.00  0.00     0.066 C 
HETATM   17  C21 UNL     1       0.914  -0.249  -0.097  1.00  0.00     0.136 C 
HETATM   18  C28 UNL     1       0.654  -1.676  -0.509  1.00  0.00     0.039 C 
HETATM   19  C29 UNL     1      -0.400  -2.382   0.308  1.00  0.00     0.015 C 
HETATM   20  C30 UNL     1      -0.780  -1.682   1.568  1.00  0.00     0.012 C 
HETATM   21  C31 UNL     1      -1.554  -2.678  -0.597  1.00  0.00     0.151 C 
ENDROOT
BRANCH  17  22
HETATM   22  O5  UNL     1       2.301  -0.200   0.259  1.00  0.00    -0.316 OA
BRANCH  22  23
HETATM   23  C22 UNL     1       2.731   0.313   1.462  1.00  0.00     0.259 C 
HETATM   24  O6  UNL     1       1.848   0.738   2.244  1.00  0.00    -0.265 OA
BRANCH  23  25
HETATM   25  C23 UNL     1       4.182   0.346   1.787  1.00  0.00     0.111 C 
BRANCH  25  26
HETATM   26  C24 UNL     1       4.958  -0.302   0.669  1.00  0.00     0.010 C 
BRANCH  26  27
HETATM   27  C25 UNL     1       6.436  -0.308   0.908  1.00  0.00     0.011 C 
BRANCH  27  28
HETATM   28  C26 UNL     1       7.084  -1.012  -0.286  1.00  0.00     0.113 C 
BRANCH  28  29
HETATM   29  C27 UNL     1       8.546  -1.024  -0.063  1.00  0.00     0.172 C 
HETATM   30  O7  UNL     1       9.173   0.045   0.135  1.00  0.00    -0.648 OA
HETATM   31  O8  UNL     1       9.277  -2.225  -0.064  1.00  0.00    -0.648 OA
ENDBRANCH  28  29
ENDBRANCH  27  28
ENDBRANCH  26  27
ENDBRANCH  25  26
ENDBRANCH  23  25
ENDBRANCH  22  23
ENDBRANCH  17  22
BRANCH  15  32
HETATM   32  C16 UNL     1       0.946   4.260  -0.255  1.00  0.00     0.014 C 
HETATM   33  C17 UNL     1       1.921   5.079   0.080  1.00  0.00     0.015 C 
HETATM   34  C18 UNL     1       3.320   4.624   0.090  1.00  0.00     0.055 C 
BRANCH  33  35
HETATM   35  C19 UNL     1       1.614   6.450   0.448  1.00  0.00     0.204 C 
HETATM   36  O3  UNL     1       2.500   7.275   0.777  1.00  0.00    -0.644 OA
HETATM   37  O4  UNL     1       0.295   6.899   0.444  1.00  0.00    -0.644 OA
ENDBRANCH  33  35
ENDBRANCH  15  32
BRANCH  21  38
HETATM   38  O9  UNL     1      -1.087  -3.463  -1.661  1.00  0.00    -0.393 OA
ATOM     39  H9  UNL     1      -0.338  -3.031  -2.054  1.00  0.00     0.210 HD
ENDBRANCH  21  38
BRANCH   1  40
HETATM   40  O1  UNL     1      -2.941  -4.571  -0.661  1.00  0.00    -0.388 OA
HETATM   41  C1  UNL     1      -2.940  -5.661   0.194  1.00  0.00     0.202 C 
ENDBRANCH   1  40
TORSDOF 11
