REMARK  13 active torsions:
REMARK  status: ('A' for Active; 'I' for Inactive)
REMARK    1  A    between atoms: C2_2  and  C3_3 
REMARK    2  A    between atoms: C3_3  and  C4_4 
REMARK    3  A    between atoms: C4_4  and  C5_5 
REMARK    4  A    between atoms: C5_5  and  O1_6 
REMARK    5  A    between atoms: O1_6  and  C6_7 
REMARK       I    between atoms: C6_7  and  N1_9 
REMARK    6  A    between atoms: C11_15  and  C12_16 
REMARK    7  A    between atoms: C12_16  and  O3_18 
REMARK    8  A    between atoms: C17_22  and  C18_23 
REMARK    9  A    between atoms: C19_24  and  O4_25 
REMARK   10  A    between atoms: C19_24  and  N2_27 
REMARK   11  A    between atoms: N2_27  and  O5_28 
REMARK   12  A    between atoms: C20_30  and  O6_31 
REMARK   13  A    between atoms: O6_31  and  C21_32 
ROOT
HETATM    1  C5  UNL     1      -2.163  -1.335   0.995  1.00  0.00     0.103 C 
HETATM    2  C8  UNL     1      -1.880  -0.115   0.176  1.00  0.00    -0.012 A 
HETATM    3  C9  UNL     1      -3.075   0.309  -0.397  1.00  0.00     0.012 A 
HETATM    4  C10 UNL     1      -3.164   1.416  -1.234  1.00  0.00     0.010 A 
HETATM    5  C11 UNL     1      -2.039   2.146  -1.525  1.00  0.00    -0.029 A 
HETATM    6  C15 UNL     1      -0.843   1.758  -0.975  1.00  0.00     0.022 A 
HETATM    7  C16 UNL     1      -0.768   0.628  -0.125  1.00  0.00    -0.017 A 
HETATM    8  C17 UNL     1       0.659   0.633   0.190  1.00  0.00    -0.013 C 
HETATM    9  C20 UNL     1       1.638  -0.513   0.077  1.00  0.00     0.156 C 
HETATM   10  C29 UNL     1       1.478  -1.326   1.351  1.00  0.00     0.037 C 
HETATM   11  C30 UNL     1       0.280  -2.257   1.016  1.00  0.00     0.010 C 
HETATM   12  C31 UNL     1      -0.897  -1.850   1.667  1.00  0.00     0.022 C 
HETATM   13  C32 UNL     1      -1.377  -2.927   2.649  1.00  0.00     0.013 C 
ENDROOT
BRANCH   1  14
HETATM   14  C4  UNL     1      -2.896  -2.343   0.214  1.00  0.00     0.044 C 
BRANCH  14  15
HETATM   15  C3  UNL     1      -2.402  -2.889  -1.065  1.00  0.00     0.003 C 
BRANCH  15  16
HETATM   16  C2  UNL     1      -3.396  -3.932  -1.644  1.00  0.00    -0.004 C 
HETATM   17  C1  UNL     1      -4.739  -3.363  -1.920  1.00  0.00     0.005 C 
ENDBRANCH  15  16
ENDBRANCH  14  15
ENDBRANCH   1  14
BRANCH   1  18
HETATM   18  O1  UNL     1      -2.814  -0.944   2.074  1.00  0.00    -0.287 OA
BRANCH  18  19
HETATM   19  C6  UNL     1      -3.469  -0.556   3.086  1.00  0.00     0.361 C 
HETATM   20  O2  UNL     1      -4.564  -0.057   2.633  1.00  0.00    -0.238 OA
HETATM   21  N1  UNL     1      -3.309  -0.536   4.478  1.00  0.00    -0.341 N 
HETATM   22  C7  UNL     1      -4.287   0.001   5.378  1.00  0.00     0.151 C 
ATOM     23  H1  UNL     1      -2.452  -0.924   4.871  1.00  0.00     0.164 HD
ENDBRANCH  18  19
ENDBRANCH   1  18
BRANCH   8  24
HETATM   24  C18 UNL     1       1.112   1.724   0.727  1.00  0.00     0.085 C 
HETATM   25  C19 UNL     1       0.733   2.997   1.185  1.00  0.00     0.247 C 
BRANCH  25  26
HETATM   26  O4  UNL     1       1.934   3.819   1.580  1.00  0.00    -0.334 OA
ATOM     27  H4  UNL     1       1.678   4.680   1.890  1.00  0.00     0.220 HD
ENDBRANCH  25  26
BRANCH  25  28
HETATM   28  N2  UNL     1      -0.250   3.651   1.386  1.00  0.00    -0.258 NA
BRANCH  28  29
HETATM   29  O5  UNL     1      -1.471   3.976   1.459  1.00  0.00    -0.216 OA
ATOM     30  H5  UNL     1      -2.251   4.495   1.618  1.00  0.00     0.261 HD
ENDBRANCH  28  29
ENDBRANCH  25  28
ENDBRANCH   8  24
BRANCH   5  31
HETATM   31  C12 UNL     1      -2.106   3.341  -2.398  1.00  0.00     0.149 C 
HETATM   32  C13 UNL     1      -1.771   3.034  -3.849  1.00  0.00     0.045 C 
BRANCH  31  33
HETATM   33  O3  UNL     1      -1.319   4.390  -1.955  1.00  0.00    -0.386 OA
HETATM   34  C14 UNL     1      -2.082   5.520  -1.741  1.00  0.00     0.202 C 
ENDBRANCH  31  33
ENDBRANCH   5  31
BRANCH   9  35
HETATM   35  O6  UNL     1       2.916   0.010   0.050  1.00  0.00    -0.376 OA
BRANCH  35  36
HETATM   36  C21 UNL     1       3.537  -0.345  -1.116  1.00  0.00     0.127 C 
HETATM   37  C22 UNL     1       4.209   0.830  -1.806  1.00  0.00     0.037 C 
HETATM   38  C23 UNL     1       5.628   0.310  -1.857  1.00  0.00    -0.003 C 
HETATM   39  C24 UNL     1       5.344  -1.119  -2.345  1.00  0.00     0.013 C 
HETATM   40  C26 UNL     1       5.881  -0.349  -0.525  1.00  0.00    -0.038 C 
HETATM   41  C25 UNL     1       4.738  -1.246  -0.937  1.00  0.00     0.023 C 
HETATM   42  C27 UNL     1       5.661   0.470   0.702  1.00  0.00     0.015 C 
HETATM   43  C28 UNL     1       7.192  -1.105  -0.512  1.00  0.00     0.015 C 
ENDBRANCH  35  36
ENDBRANCH   9  35
TORSDOF 13
