REMARK  2 active torsions:
REMARK  status: ('A' for Active; 'I' for Inactive)
REMARK    1  A    between atoms: C2_2  and  O1_3 
REMARK    2  A    between atoms: C3_5  and  O2_6 
ROOT
HETATM    1  C1  UNL     1       1.745  -0.501  -0.887  1.00  0.00     0.049 C 
HETATM    2  C2  UNL     1       0.797  -0.389   0.266  1.00  0.00     0.084 C 
HETATM    3  C3  UNL     1       0.516   1.056   0.564  1.00  0.00     0.152 C 
HETATM    4  C4  UNL     1      -0.693   1.501  -0.210  1.00  0.00     0.039 C 
HETATM    5  C5  UNL     1      -1.763   0.445  -0.136  1.00  0.00    -0.011 C 
HETATM    6  C6  UNL     1      -1.300  -0.673  -1.083  1.00  0.00     0.012 C 
HETATM    7  C7  UNL     1      -0.472  -1.189   0.072  1.00  0.00     0.023 C 
HETATM    8  C8  UNL     1      -1.517  -0.546   0.993  1.00  0.00     0.012 C 
ENDROOT
BRANCH   2   9
HETATM    9  O1  UNL     1       1.428  -0.923   1.404  1.00  0.00    -0.387 OA
ATOM     10  H1  UNL     1       0.826  -0.852   2.136  1.00  0.00     0.210 HD
ENDBRANCH   2   9
BRANCH   3  11
HETATM   11  O2  UNL     1       1.662   1.792   0.221  1.00  0.00    -0.393 OA
ATOM     12  H2  UNL     1       1.484   2.706   0.409  1.00  0.00     0.210 HD
ENDBRANCH   3  11
TORSDOF 2
