REMARK  1 active torsions:
REMARK  status: ('A' for Active; 'I' for Inactive)
REMARK    1  A    between atoms: C6_7  and  O1_8 
ROOT
HETATM    1  C1  UNL     1      -2.165   0.280  -0.342  1.00  0.00     0.277 C 
HETATM    2  N1  UNL     1      -0.761   0.200  -0.048  1.00  0.00    -0.021 N 
HETATM    3  C2  UNL     1      -0.561  -0.154   1.359  1.00  0.00     0.244 C 
HETATM    4  C3  UNL     1       0.855  -0.715   1.518  1.00  0.00     0.061 C 
HETATM    5  C4  UNL     1       1.698   0.069   0.504  1.00  0.00     0.193 C 
HETATM    6  C5  UNL     1       1.369  -0.543  -0.854  1.00  0.00     0.094 C 
HETATM    7  C6  UNL     1      -0.124  -0.834  -0.849  1.00  0.00     0.326 C 
HETATM    8  N2  UNL     1       1.140   1.416   0.535  1.00  0.00    -0.046 N 
ATOM      9  H21 UNL     1       1.819   2.118   0.241  1.00  0.00     0.279 HD
ATOM     10  H22 UNL     1       0.989   1.746   1.488  1.00  0.00     0.279 HD
HETATM   11  C7  UNL     1      -0.070   1.468  -0.254  1.00  0.00     0.471 C 
ENDROOT
BRANCH   7  12
HETATM   12  O1  UNL     1      -0.644  -0.854  -2.152  1.00  0.00    -0.369 OA
ATOM     13  H1  UNL     1      -0.228  -1.529  -2.675  1.00  0.00     0.212 HD
ENDBRANCH   7  12
TORSDOF 1
