REMARK  5 active torsions:
REMARK  status: ('A' for Active; 'I' for Inactive)
REMARK    1  A    between atoms: C2_2  and  C5_5 
REMARK    2  A    between atoms: C6_6  and  C7_7 
REMARK    3  A    between atoms: C7_7  and  C8_8 
REMARK    4  A    between atoms: C8_8  and  C9_9 
REMARK    5  A    between atoms: C10_12  and  N2_13 
ROOT
HETATM    1  C9  UNL     1       0.922  -0.812  -0.325  1.00  0.00     0.053 A 
HETATM    2  N1  UNL     1       2.088  -0.143  -0.262  1.00  0.00    -0.194 N 
ATOM      3  H1  UNL     1       2.079   0.871  -0.374  1.00  0.00     0.184 HD
HETATM    4  C10 UNL     1       3.266  -0.761  -0.057  1.00  0.00     0.683 A 
HETATM    5  N3  UNL     1       3.276  -2.108   0.092  1.00  0.00    -0.155 N 
ATOM      6  H3  UNL     1       4.173  -2.568   0.247  1.00  0.00     0.187 HD
HETATM    7  C15 UNL     1       2.173  -2.870   0.047  1.00  0.00     0.282 A 
HETATM    8  O1  UNL     1       2.171  -4.125   0.185  1.00  0.00    -0.266 OA
HETATM    9  C16 UNL     1       0.972  -2.193  -0.168  1.00  0.00     0.136 A 
HETATM   10  C17 UNL     1      -0.251  -2.942  -0.241  1.00  0.00     0.107 C 
HETATM   11  N4  UNL     1      -1.226  -3.566  -0.307  1.00  0.00    -0.191 NA
ENDROOT
BRANCH   1  12
HETATM   12  C8  UNL     1      -0.398  -0.196  -0.562  1.00  0.00     0.063 C 
BRANCH  12  13
HETATM   13  C7  UNL     1      -1.257  -0.039   0.644  1.00  0.00     0.033 C 
BRANCH  13  14
HETATM   14  C6  UNL     1      -2.567   0.550   0.155  1.00  0.00    -0.029 C 
HETATM   15  C5  UNL     1      -3.692  -0.092   0.328  1.00  0.00    -0.022 C 
BRANCH  15  16
HETATM   16  C2  UNL     1      -5.057   0.308  -0.072  1.00  0.00    -0.034 C 
HETATM   17  C1  UNL     1      -5.919   0.436   1.193  1.00  0.00     0.018 C 
HETATM   18  C3  UNL     1      -5.710  -0.807  -0.904  1.00  0.00     0.018 C 
HETATM   19  C4  UNL     1      -5.128   1.561  -0.880  1.00  0.00     0.018 C 
ENDBRANCH  15  16
ENDBRANCH  13  14
ENDBRANCH  12  13
ENDBRANCH   1  12
BRANCH   4  20
HETATM   20  N2  UNL     1       4.499  -0.060   0.005  1.00  0.00    -0.216 N 
HETATM   21  C11 UNL     1       5.190   0.172   1.252  1.00  0.00     0.151 C 
HETATM   22  C12 UNL     1       5.063   1.629   1.617  1.00  0.00     0.094 C 
HETATM   23  S1  UNL     1       5.875   2.565   0.266  1.00  0.00    -0.166 SA
HETATM   24  C13 UNL     1       6.150   1.401  -1.087  1.00  0.00     0.094 C 
HETATM   25  C14 UNL     1       5.040   0.422  -1.252  1.00  0.00     0.151 C 
ENDBRANCH   4  20
TORSDOF 5
