REMARK  14 active torsions:
REMARK  status: ('A' for Active; 'I' for Inactive)
REMARK    1  A    between atoms: C2_2  and  O1_3 
REMARK    2  A    between atoms: O1_3  and  C3_4 
REMARK       I    between atoms: C3_4  and  N1_6 
REMARK       I    between atoms: N2_9  and  C6_10 
REMARK    3  A    between atoms: C6_10  and  C7_12 
REMARK    4  A    between atoms: C7_12  and  N3_13 
REMARK    5  A    between atoms: C7_12  and  C22_38 
REMARK    6  A    between atoms: N3_13  and  C8_15 
REMARK    7  A    between atoms: C8_15  and  C9_16 
REMARK    8  A    between atoms: C8_15  and  C16_26 
REMARK       I    between atoms: C9_16  and  N4_18 
REMARK    9  A    between atoms: C13_22  and  C14_23 
REMARK   10  A    between atoms: C14_23  and  S1_24 
REMARK   11  A    between atoms: C16_26  and  C21_31 
REMARK   12  A    between atoms: C17_27  and  C18_28 
REMARK   13  A    between atoms: C21_31  and  O5_32 
REMARK   14  A    between atoms: N5_34  and  O6_36 
ROOT
HETATM    1  C8  UNL     1      -1.569  -0.419  -0.551  1.00  0.00     0.112 C 
ENDROOT
BRANCH   1   2
HETATM    2  N3  UNL     1      -0.314   0.188  -0.727  1.00  0.00    -0.371 N 
ATOM      3  H3  UNL     1      -0.213   0.604  -1.653  1.00  0.00     0.160 HD
BRANCH   2   4
HETATM    4  C7  UNL     1       0.802   0.356   0.040  1.00  0.00     0.177 C 
BRANCH   4   5
HETATM    5  C6  UNL     1       1.935   0.748  -1.008  1.00  0.00     0.243 C 
HETATM    6  N2  UNL     1       3.172   0.139  -0.775  1.00  0.00    -0.347 N 
HETATM    7  C5  UNL     1       4.271   0.517  -1.681  1.00  0.00     0.146 C 
HETATM    8  C25 UNL     1       3.471  -0.839   0.224  1.00  0.00     0.146 C 
HETATM    9  C4  UNL     1       5.464   0.861  -0.781  1.00  0.00     0.148 C 
HETATM   10  N1  UNL     1       5.840  -0.376  -0.145  1.00  0.00    -0.325 N 
HETATM   11  C3  UNL     1       7.133  -0.538   0.383  1.00  0.00     0.362 C 
HETATM   12  C26 UNL     1       4.866  -1.439  -0.045  1.00  0.00     0.148 C 
HETATM   13  O2  UNL     1       7.439  -1.650   0.914  1.00  0.00    -0.238 OA
HETATM   14  O3  UNL     1       1.602   1.527  -1.891  1.00  0.00    -0.271 OA
BRANCH  11  15
HETATM   15  O1  UNL     1       8.127   0.416   0.383  1.00  0.00    -0.304 OA
BRANCH  15  16
HETATM   16  C2  UNL     1       9.413   0.186   0.933  1.00  0.00     0.176 C 
HETATM   17  C1  UNL     1      10.222   1.447   0.801  1.00  0.00     0.034 C 
ENDBRANCH  15  16
ENDBRANCH  11  15
ENDBRANCH   4   5
BRANCH   4  18
HETATM   18  C22 UNL     1       1.029   1.433   1.043  1.00  0.00     0.009 C 
HETATM   19  C23 UNL     1       0.760   2.810   0.545  1.00  0.00     0.012 C 
HETATM   20  C24 UNL     1       0.838   1.151   2.479  1.00  0.00     0.012 C 
ENDBRANCH   4  18
ENDBRANCH   2   4
ENDBRANCH   1   2
BRANCH   1  21
HETATM   21  C9  UNL     1      -2.519   0.350   0.203  1.00  0.00     0.271 C 
HETATM   22  O4  UNL     1      -2.079   0.707   1.373  1.00  0.00    -0.266 OA
HETATM   23  N4  UNL     1      -3.825   0.817  -0.045  1.00  0.00    -0.341 N 
HETATM   24  C10 UNL     1      -4.681   0.796  -1.228  1.00  0.00     0.127 C 
HETATM   25  C13 UNL     1      -4.716   1.481   0.927  1.00  0.00     0.097 C 
HETATM   26  C11 UNL     1      -5.477   2.075  -1.204  1.00  0.00     0.022 C 
HETATM   27  C12 UNL     1      -5.289   2.636   0.156  1.00  0.00     0.028 C 
BRANCH  25  28
HETATM   28  C14 UNL     1      -4.121   1.936   2.194  1.00  0.00     0.098 C 
BRANCH  28  29
HETATM   29  S1  UNL     1      -5.515   2.749   3.123  1.00  0.00    -0.172 SA
HETATM   30  C15 UNL     1      -6.757   1.478   3.540  1.00  0.00     0.089 C 
ENDBRANCH  28  29
ENDBRANCH  25  28
ENDBRANCH   1  21
BRANCH   1  31
HETATM   31  C16 UNL     1      -1.901  -1.285  -1.717  1.00  0.00     0.045 C 
HETATM   32  C17 UNL     1      -3.050  -2.136  -1.833  1.00  0.00    -0.005 C 
BRANCH  32  33
HETATM   33  C18 UNL     1      -3.408  -3.235  -0.930  1.00  0.00     0.001 C 
HETATM   34  C19 UNL     1      -4.735  -3.800  -1.539  1.00  0.00     0.013 C 
HETATM   35  C20 UNL     1      -3.813  -2.914   0.477  1.00  0.00     0.013 C 
ENDBRANCH  32  33
BRANCH  31  36
HETATM   36  C21 UNL     1      -0.628  -1.796  -2.327  1.00  0.00     0.172 C 
HETATM   37  N5  UNL     1       0.041  -2.799  -2.012  1.00  0.00    -0.247 N 
ATOM     38  H5  UNL     1       0.862  -2.900  -2.608  1.00  0.00     0.196 HD
BRANCH  36  39
HETATM   39  O5  UNL     1      -0.039  -1.099  -3.412  1.00  0.00    -0.344 OA
ATOM     40  H5  UNL     1       0.767  -1.422  -3.798  1.00  0.00     0.219 HD
ENDBRANCH  36  39
BRANCH  37  41
HETATM   41  O6  UNL     1      -0.025  -3.764  -1.118  1.00  0.00    -0.288 OA
ATOM     42  H6  UNL     1       0.485  -4.529  -0.878  1.00  0.00     0.244 HD
ENDBRANCH  37  41
ENDBRANCH  31  36
ENDBRANCH   1  31
TORSDOF 14
