REMARK  13 active torsions:
REMARK  status: ('A' for Active; 'I' for Inactive)
REMARK    1  A    between atoms: C4_6  and  C5_7 
REMARK    2  A    between atoms: C5_7  and  C6_8 
REMARK    3  A    between atoms: C6_8  and  N3_9 
REMARK    4  A    between atoms: N3_9  and  C7_11 
REMARK    5  A    between atoms: C10_14  and  C11_15 
REMARK    6  A    between atoms: C18_22  and  C19_23 
REMARK    7  A    between atoms: C19_23  and  C20_24 
REMARK    8  A    between atoms: C20_24  and  N4_25 
REMARK    9  A    between atoms: N4_25  and  C21_27 
REMARK   10  A    between atoms: C22_30  and  O1_31 
REMARK   11  A    between atoms: O1_31  and  C23_32 
REMARK   12  A    between atoms: C23_32  and  C24_33 
REMARK   13  A    between atoms: C27_38  and  N7_39 
ROOT
HETATM    1  C19 UNL     1       0.437   0.816   0.188  1.00  0.00     0.086 C 
ENDROOT
BRANCH   1   2
HETATM    2  C18 UNL     1       1.466   1.902   0.091  1.00  0.00    -0.026 A 
HETATM    3  C7  UNL     1       2.763   1.611   0.470  1.00  0.00     0.034 A 
HETATM    4  C8  UNL     1       3.682   2.632   0.427  1.00  0.00     0.030 A 
HETATM    5  C9  UNL     1       3.293   3.890   0.015  1.00  0.00     0.014 A 
HETATM    6  C10 UNL     1       2.012   4.218  -0.370  1.00  0.00    -0.029 A 
HETATM    7  C17 UNL     1       1.093   3.185  -0.324  1.00  0.00     0.021 A 
BRANCH   3   8
HETATM    8  N3  UNL     1       3.150   0.329   0.888  1.00  0.00    -0.389 N 
ATOM      9  H3  UNL     1       2.405  -0.364   0.952  1.00  0.00     0.159 HD
BRANCH   8  10
HETATM   10  C6  UNL     1       4.459  -0.125   1.235  1.00  0.00     0.125 C 
BRANCH  10  11
HETATM   11  C5  UNL     1       5.436  -0.266   0.139  1.00  0.00     0.064 C 
BRANCH  11  12
HETATM   12  C4  UNL     1       5.145  -1.174  -1.002  1.00  0.00     0.060 C 
HETATM   13  N2  UNL     1       4.991  -2.502  -0.744  1.00  0.00    -0.390 N 
HETATM   14  C3  UNL     1       3.899  -3.097  -0.121  1.00  0.00     0.152 C 
HETATM   15  C33 UNL     1       5.975  -3.447  -1.148  1.00  0.00     0.152 C 
HETATM   16  C2  UNL     1       4.148  -4.590   0.172  1.00  0.00     0.291 C 
HETATM   17  N1  UNL     1       5.426  -4.808   0.769  1.00  0.00     0.087 N 
HETATM   18  C1  UNL     1       5.701  -6.241   0.699  1.00  0.00     0.310 C 
HETATM   19  C34 UNL     1       6.507  -4.138   0.093  1.00  0.00     0.291 C 
ENDBRANCH  11  12
ENDBRANCH  10  11
ENDBRANCH   8  10
ENDBRANCH   3   8
BRANCH   6  20
HETATM   20  C11 UNL     1       1.618   5.572  -0.776  1.00  0.00    -0.052 C 
HETATM   21  C12 UNL     1       2.441   6.609  -0.759  1.00  0.00    -0.019 C 
HETATM   22  C13 UNL     1       2.039   7.971  -1.167  1.00  0.00     0.028 C 
HETATM   23  C14 UNL     1       0.999   8.007  -2.241  1.00  0.00     0.004 C 
HETATM   24  C15 UNL     1       0.448   6.656  -2.584  1.00  0.00     0.005 C 
HETATM   25  C16 UNL     1       0.240   5.897  -1.261  1.00  0.00     0.039 C 
ENDBRANCH   6  20
ENDBRANCH   1   2
BRANCH   1  26
HETATM   26  C20 UNL     1       0.048   0.773   1.648  1.00  0.00     0.083 C 
BRANCH  26  27
HETATM   27  N4  UNL     1      -0.898  -0.192   2.033  1.00  0.00    -0.204 N 
ATOM     28  H4  UNL     1      -0.603  -0.760   2.827  1.00  0.00     0.183 HD
BRANCH  27  29
HETATM   29  C21 UNL     1      -2.034  -0.494   1.594  1.00  0.00     0.699 A 
HETATM   30  N5  UNL     1      -2.567   0.161   0.548  1.00  0.00    -0.154 N 
HETATM   31  C22 UNL     1      -3.783  -0.098   0.041  1.00  0.00     0.252 A 
ATOM     32  H5  UNL     1      -2.014   0.900   0.113  1.00  0.00     0.188 HD
HETATM   33  N6  UNL     1      -4.477  -1.093   0.662  1.00  0.00    -0.154 N 
HETATM   34  C27 UNL     1      -4.014  -1.779   1.697  1.00  0.00     0.698 A 
ATOM     35  H6  UNL     1      -5.406  -1.323   0.310  1.00  0.00     0.188 HD
HETATM   36  N9  UNL     1      -2.792  -1.479   2.163  1.00  0.00    -0.022 N 
ATOM     37  H9  UNL     1      -2.421  -1.997   2.959  1.00  0.00     0.203 HD
BRANCH  31  38
HETATM   38  O1  UNL     1      -4.332   0.574  -1.040  1.00  0.00    -0.321 OA
BRANCH  38  39
HETATM   39  C23 UNL     1      -3.582   1.597  -1.663  1.00  0.00     0.183 C 
BRANCH  39  40
HETATM   40  C24 UNL     1      -4.322   2.217  -2.818  1.00  0.00     0.010 A 
HETATM   41  C25 UNL     1      -4.748   1.402  -3.985  1.00  0.00     0.007 A 
HETATM   42  C26 UNL     1      -5.766   1.899  -3.000  1.00  0.00     0.007 A 
ENDBRANCH  39  40
ENDBRANCH  38  39
ENDBRANCH  31  38
BRANCH  34  43
HETATM   43  N7  UNL     1      -4.753  -2.831   2.352  1.00  0.00    -0.214 N 
HETATM   44  C28 UNL     1      -4.699  -4.140   1.751  1.00  0.00     0.171 C 
HETATM   45  C29 UNL     1      -5.765  -5.080   2.191  1.00  0.00     0.292 C 
HETATM   46  N8  UNL     1      -6.929  -4.456   2.726  1.00  0.00     0.087 N 
HETATM   47  C30 UNL     1      -7.863  -3.965   1.753  1.00  0.00     0.310 C 
HETATM   48  C31 UNL     1      -6.656  -3.516   3.778  1.00  0.00     0.292 C 
HETATM   49  C32 UNL     1      -5.501  -2.613   3.545  1.00  0.00     0.171 C 
ENDBRANCH  34  43
ENDBRANCH  27  29
ENDBRANCH  26  27
ENDBRANCH   1  26
TORSDOF 13
